2o3x_lig
 OpenBabel11021811463D
libRbt.so/2013.1/901 2013/11/27
 31 33  0  0  0  0  0  0  0  0999 V2000
   20.2432    9.4161    5.2737 C   0  0  2  0  0  0  0  0  0  0  0  0
   21.1792    8.4249    4.8299 O   0  0  0  0  0  0  0  0  0  0  0  0
   24.4648    6.3684    6.6392 C   0  0  2  0  0  0  0  0  0  0  0  0
   25.6639    6.0361    7.4400 N   0  0  0  0  0  0  0  0  0  0  0  0
   20.7226    7.6038    8.9437 C   0  0  1  0  0  0  0  0  0  0  0  0
   18.8471    9.0864    4.6567 C   0  0  2  0  0  0  0  0  0  0  0  0
   18.4811    7.6578    4.8324 N   0  0  0  0  0  0  0  0  0  0  0  0
   24.7847    7.3888    5.4965 C   0  0  0  0  0  0  0  0  0  0  0  0
   19.8032    8.5873    9.7396 C   0  0  2  0  0  0  0  0  0  0  0  0
   20.4768    9.4745   10.6742 O   0  0  0  0  0  0  0  0  0  0  0  0
   18.8012    9.4083    3.1510 C   0  0  1  0  0  0  0  0  0  0  0  0
   17.5222    9.1520    2.6289 O   0  0  0  0  0  0  0  0  0  0  0  0
   23.4618    7.6531    4.6888 C   0  0  2  0  0  0  0  0  0  0  0  0
   23.6873    8.6074    3.5620 N   0  0  0  0  0  0  0  0  0  0  0  0
   18.8620    7.5622   10.3498 C   0  0  2  0  0  0  0  0  0  0  0  0
   19.4733    6.9116   11.5162 O   0  0  0  0  0  0  0  0  0  0  0  0
   19.1878   10.8603    2.9254 C   0  0  2  0  0  0  0  0  0  0  0  0
   19.1248   11.1597    1.5681 O   0  0  0  0  0  0  0  0  0  0  0  0
   22.3627    8.2400    5.6196 C   0  0  2  0  0  0  0  0  0  0  0  0
   18.6170    6.5567    9.2308 C   0  0  2  0  0  0  0  0  0  0  0  0
   19.9300    6.4373    8.6904 O   0  0  0  0  0  0  0  0  0  0  0  0
   20.6227   11.1171    3.4663 C   0  0  2  0  0  0  0  0  0  0  0  0
   20.6785   10.7881    4.8711 O   0  0  0  0  0  0  0  0  0  0  0  0
   22.0476    7.3420    6.8323 C   0  0  2  0  0  0  0  0  0  0  0  0
   21.1944    8.1609    7.7072 O   0  0  0  0  0  0  0  0  0  0  0  0
   17.6079    7.0280    8.1295 C   0  0  0  0  0  0  0  0  0  0  0  0
   16.3556    7.3592    8.7227 N   0  0  0  0  0  0  0  0  0  0  0  0
   21.0595   12.5526    3.2880 C   0  0  0  0  0  0  0  0  0  0  0  0
   22.4242   12.6919    3.4493 O   0  0  0  0  0  0  0  0  0  0  0  0
   23.3920    6.9387    7.5844 C   0  0  1  0  0  0  0  0  0  0  0  0
   23.1543    5.9316    8.5796 O   0  0  0  0  0  0  0  0  0  0  0  0
  1  2  1  6  0  0  0
  1  6  1  0  0  0  0
  1 23  1  0  0  0  0
  3  4  1  1  0  0  0
  3  8  1  0  0  0  0
  3 30  1  0  0  0  0
  5  9  1  0  0  0  0
  5 21  1  0  0  0  0
  5 25  1  6  0  0  0
  6  7  1  6  0  0  0
  6 11  1  0  0  0  0
  8 13  1  0  0  0  0
  9 10  1  1  0  0  0
  9 15  1  0  0  0  0
 11 12  1  1  0  0  0
 11 17  1  0  0  0  0
 13 14  1  6  0  0  0
 13 19  1  0  0  0  0
 15 16  1  1  0  0  0
 15 20  1  0  0  0  0
 17 18  1  6  0  0  0
 17 22  1  0  0  0  0
 19  2  1  6  0  0  0
 19 24  1  0  0  0  0
 20 21  1  0  0  0  0
 20 26  1  6  0  0  0
 22 23  1  0  0  0  0
 22 28  1  1  0  0  0
 24 25  1  1  0  0  0
 24 30  1  0  0  0  0
 26 27  1  0  0  0  0
 28 29  1  0  0  0  0
 30 31  1  1  0  0  0
M  END
>  <CHROM.1>
-158.18906368,-178.67202515,-155.16004050,-57.11463845,-164.62366340,-179.91131873
20.76863088,8.49211781,6.29798013,1.59520179,0.20869086,-1.05975184

>  <Name>
2o3x_lig

>  <RI>
3.41138e+07

>  <Rbt.Current_Directory>
/home/itssahil/PROJECTS/Mol_Feturizer/New_Systems/rnas/2o3x

>  <Rbt.Executable>
rbdock ($Id: //depot/dev/client3/rdock/2013.1/src/exe/rbdock.cxx#4 $)

>  <Rbt.Library>
libRbt.so (2013.1, Build901 2013/11/27)

>  <Rbt.Parameter_File>
/export/apps/rDock/src/rDock_2013.1_src/data/scripts/dock_solv.prm

>  <Rbt.Receptor>
prm/pocket_docking_2.prm

>  <SCORE>
-18.5768

>  <SCORE.INTER>
-16.8977

>  <SCORE.INTER.CONST>
1

>  <SCORE.INTER.POLAR>
-1.4784

>  <SCORE.INTER.ROT>
6

>  <SCORE.INTER.SOLV>
16.9028

>  <SCORE.INTER.VDW>
-19.5714

>  <SCORE.INTER.norm>
-0.545087

>  <SCORE.INTRA>
-1.79647

>  <SCORE.INTRA.DIHEDRAL>
-3.64018

>  <SCORE.INTRA.DIHEDRAL.0>
9.37739

>  <SCORE.INTRA.POLAR>
0

>  <SCORE.INTRA.POLAR.0>
0

>  <SCORE.INTRA.REPUL>
0

>  <SCORE.INTRA.REPUL.0>
0

>  <SCORE.INTRA.SOLV>
-1.02167

>  <SCORE.INTRA.SOLV.lig_0>
-82.9274

>  <SCORE.INTRA.VDW>
0.534455

>  <SCORE.INTRA.VDW.0>
-3.84922

>  <SCORE.INTRA.norm>
-0.0579506

>  <SCORE.RESTR>
0.117327

>  <SCORE.RESTR.CAVITY>
0.117327

>  <SCORE.RESTR.norm>
0.00378475

>  <SCORE.SYSTEM>
0

>  <SCORE.SYSTEM.CONST>
0

>  <SCORE.SYSTEM.DIHEDRAL>
0

>  <SCORE.SYSTEM.SOLV>
0

>  <SCORE.SYSTEM.norm>
0

>  <SCORE.heavy>
31

>  <SCORE.norm>
-0.599253

>  <RMSD>
0.615

$$$$
2o3x_lig
 OpenBabel11021811463D
libRbt.so/2013.1/901 2013/11/27
 31 33  0  0  0  0  0  0  0  0999 V2000
   20.2777    9.4347    5.2631 C   0  0  2  0  0  0  0  0  0  0  0  0
   21.2032    8.4360    4.8142 O   0  0  0  0  0  0  0  0  0  0  0  0
   24.5232    6.3920    6.5742 C   0  0  2  0  0  0  0  0  0  0  0  0
   25.7354    6.0641    7.3569 N   0  0  0  0  0  0  0  0  0  0  0  0
   20.8074    7.6128    8.9322 C   0  0  1  0  0  0  0  0  0  0  0  0
   18.8754    9.1156    4.6547 C   0  0  2  0  0  0  0  0  0  0  0  0
   18.4994    7.6899    4.8332 N   0  0  0  0  0  0  0  0  0  0  0  0
   24.8222    7.4131    5.4265 C   0  0  0  0  0  0  0  0  0  0  0  0
   19.8761    8.5839    9.7296 C   0  0  2  0  0  0  0  0  0  0  0  0
   20.5401    9.4857   10.6572 O   0  0  0  0  0  0  0  0  0  0  0  0
   18.8229    9.4372    3.1492 C   0  0  1  0  0  0  0  0  0  0  0  0
   17.5388    9.1907    2.6349 O   0  0  0  0  0  0  0  0  0  0  0  0
   23.4863    7.6723    4.6388 C   0  0  2  0  0  0  0  0  0  0  0  0
   23.6913    8.6271    3.5084 N   0  0  0  0  0  0  0  0  0  0  0  0
   18.9556    7.5455   10.3489 C   0  0  2  0  0  0  0  0  0  0  0  0
   19.5843    6.9096   11.5143 O   0  0  0  0  0  0  0  0  0  0  0  0
   19.2194   10.8861    2.9206 C   0  0  2  0  0  0  0  0  0  0  0  0
   19.1506   11.1854    1.5636 O   0  0  0  0  0  0  0  0  0  0  0  0
   22.3992    8.2557    5.5860 C   0  0  2  0  0  0  0  0  0  0  0  0
   18.7212    6.5319    9.2351 C   0  0  2  0  0  0  0  0  0  0  0  0
   20.0330    6.4323    8.6877 O   0  0  0  0  0  0  0  0  0  0  0  0
   20.6596   11.1319    3.4527 C   0  0  2  0  0  0  0  0  0  0  0  0
   20.7212   10.8031    4.8573 O   0  0  0  0  0  0  0  0  0  0  0  0
   22.1057    7.3569    6.8035 C   0  0  2  0  0  0  0  0  0  0  0  0
   21.2629    8.1731    7.6909 O   0  0  0  0  0  0  0  0  0  0  0  0
   17.6982    6.9821    8.1377 C   0  0  0  0  0  0  0  0  0  0  0  0
   16.4534    7.3246    8.7403 N   0  0  0  0  0  0  0  0  0  0  0  0
   21.1064   12.5639    3.2711 C   0  0  0  0  0  0  0  0  0  0  0  0
   22.4734   12.6923    3.4219 O   0  0  0  0  0  0  0  0  0  0  0  0
   23.4628    6.9587    7.5354 C   0  0  1  0  0  0  0  0  0  0  0  0
   23.2437    5.9511    8.5343 O   0  0  0  0  0  0  0  0  0  0  0  0
  1  2  1  6  0  0  0
  1  6  1  0  0  0  0
  1 23  1  0  0  0  0
  3  4  1  1  0  0  0
  3  8  1  0  0  0  0
  3 30  1  0  0  0  0
  5  9  1  0  0  0  0
  5 21  1  0  0  0  0
  5 25  1  6  0  0  0
  6  7  1  6  0  0  0
  6 11  1  0  0  0  0
  8 13  1  0  0  0  0
  9 10  1  1  0  0  0
  9 15  1  0  0  0  0
 11 12  1  1  0  0  0
 11 17  1  0  0  0  0
 13 14  1  6  0  0  0
 13 19  1  0  0  0  0
 15 16  1  1  0  0  0
 15 20  1  0  0  0  0
 17 18  1  6  0  0  0
 17 22  1  0  0  0  0
 19  2  1  6  0  0  0
 19 24  1  0  0  0  0
 20 21  1  0  0  0  0
 20 26  1  6  0  0  0
 22 23  1  0  0  0  0
 22 28  1  1  0  0  0
 24 25  1  1  0  0  0
 24 30  1  0  0  0  0
 26 27  1  0  0  0  0
 28 29  1  0  0  0  0
 30 31  1  1  0  0  0
M  END
>  <CHROM.1>
-159.06569868,-177.62971388,-154.46648759,-55.76003270,-164.52093698,179.84280927
20.82422307,8.50300065,6.27846558,1.60067081,0.21008512,-1.05873043

>  <Name>
2o3x_lig

>  <RI>
3.41138e+07

>  <Rbt.Current_Directory>
/home/itssahil/PROJECTS/Mol_Feturizer/New_Systems/rnas/2o3x

>  <Rbt.Executable>
rbdock ($Id: //depot/dev/client3/rdock/2013.1/src/exe/rbdock.cxx#4 $)

>  <Rbt.Library>
libRbt.so (2013.1, Build901 2013/11/27)

>  <Rbt.Parameter_File>
/export/apps/rDock/src/rDock_2013.1_src/data/scripts/dock_solv.prm

>  <Rbt.Receptor>
prm/pocket_docking_2.prm

>  <SCORE>
-18.7658

>  <SCORE.INTER>
-17.1844

>  <SCORE.INTER.CONST>
1

>  <SCORE.INTER.POLAR>
-1.48483

>  <SCORE.INTER.ROT>
6

>  <SCORE.INTER.SOLV>
17.0458

>  <SCORE.INTER.VDW>
-19.7888

>  <SCORE.INTER.norm>
-0.554336

>  <SCORE.INTRA>
-1.74611

>  <SCORE.INTRA.DIHEDRAL>
-3.60396

>  <SCORE.INTRA.DIHEDRAL.0>
9.37739

>  <SCORE.INTRA.POLAR>
0

>  <SCORE.INTRA.POLAR.0>
0

>  <SCORE.INTRA.REPUL>
0

>  <SCORE.INTRA.REPUL.0>
0

>  <SCORE.INTRA.SOLV>
-0.978413

>  <SCORE.INTRA.SOLV.lig_0>
-82.9274

>  <SCORE.INTRA.VDW>
0.545073

>  <SCORE.INTRA.VDW.0>
-3.84922

>  <SCORE.INTRA.norm>
-0.0563263

>  <SCORE.RESTR>
0.164747

>  <SCORE.RESTR.CAVITY>
0.164747

>  <SCORE.RESTR.norm>
0.00531441

>  <SCORE.SYSTEM>
0

>  <SCORE.SYSTEM.CONST>
0

>  <SCORE.SYSTEM.DIHEDRAL>
0

>  <SCORE.SYSTEM.SOLV>
0

>  <SCORE.SYSTEM.norm>
0

>  <SCORE.heavy>
31

>  <SCORE.norm>
-0.605348

>  <RMSD>
0.636

$$$$
2o3x_lig
 OpenBabel11021811463D
libRbt.so/2013.1/901 2013/11/27
 31 33  0  0  0  0  0  0  0  0999 V2000
   20.2658    9.4107    5.3215 C   0  0  2  0  0  0  0  0  0  0  0  0
   21.1777    8.3994    4.8728 O   0  0  0  0  0  0  0  0  0  0  0  0
   24.5556    6.3815    6.5507 C   0  0  2  0  0  0  0  0  0  0  0  0
   25.7836    6.0605    7.3112 N   0  0  0  0  0  0  0  0  0  0  0  0
   20.8763    7.5046    8.9931 C   0  0  1  0  0  0  0  0  0  0  0  0
   18.8558    9.1017    4.7259 C   0  0  2  0  0  0  0  0  0  0  0  0
   18.4666    7.6813    4.9174 N   0  0  0  0  0  0  0  0  0  0  0  0
   24.8216    7.4287    5.4185 C   0  0  0  0  0  0  0  0  0  0  0  0
   19.9211    8.4341    9.8115 C   0  0  2  0  0  0  0  0  0  0  0  0
   20.5650    9.3636   10.7257 O   0  0  0  0  0  0  0  0  0  0  0  0
   18.7952    9.4132    3.2185 C   0  0  1  0  0  0  0  0  0  0  0  0
   17.5048    9.1762    2.7156 O   0  0  0  0  0  0  0  0  0  0  0  0
   23.4710    7.6791    4.6533 C   0  0  2  0  0  0  0  0  0  0  0  0
   23.6444    8.6580    3.5385 N   0  0  0  0  0  0  0  0  0  0  0  0
   19.0601    7.3566   10.4491 C   0  0  2  0  0  0  0  0  0  0  0  0
   19.7405    6.7482   11.6000 O   0  0  0  0  0  0  0  0  0  0  0  0
   19.2047   10.8563    2.9766 C   0  0  2  0  0  0  0  0  0  0  0  0
   19.1287   11.1467    1.6181 O   0  0  0  0  0  0  0  0  0  0  0  0
   22.3868    8.2258    5.6254 C   0  0  2  0  0  0  0  0  0  0  0  0
   18.8460    6.3340    9.3393 C   0  0  2  0  0  0  0  0  0  0  0  0
   20.1489    6.2916    8.7639 O   0  0  0  0  0  0  0  0  0  0  0  0
   20.6513   11.0910    3.4962 C   0  0  2  0  0  0  0  0  0  0  0  0
   20.7202   10.7716    4.9027 O   0  0  0  0  0  0  0  0  0  0  0  0
   22.1252    7.2997    6.8296 C   0  0  2  0  0  0  0  0  0  0  0  0
   21.2804    8.0845    7.7431 O   0  0  0  0  0  0  0  0  0  0  0  0
   17.7812    6.7396    8.2647 C   0  0  0  0  0  0  0  0  0  0  0  0
   16.5396    7.0404    8.8954 N   0  0  0  0  0  0  0  0  0  0  0  0
   21.1113   12.5171    3.3011 C   0  0  0  0  0  0  0  0  0  0  0  0
   22.4764   12.6384    3.4738 O   0  0  0  0  0  0  0  0  0  0  0  0
   23.4986    6.9117    7.5361 C   0  0  1  0  0  0  0  0  0  0  0  0
   23.3103    5.8822    8.5188 O   0  0  0  0  0  0  0  0  0  0  0  0
  1  2  1  6  0  0  0
  1  6  1  0  0  0  0
  1 23  1  0  0  0  0
  3  4  1  1  0  0  0
  3  8  1  0  0  0  0
  3 30  1  0  0  0  0
  5  9  1  0  0  0  0
  5 21  1  0  0  0  0
  5 25  1  6  0  0  0
  6  7  1  6  0  0  0
  6 11  1  0  0  0  0
  8 13  1  0  0  0  0
  9 10  1  1  0  0  0
  9 15  1  0  0  0  0
 11 12  1  1  0  0  0
 11 17  1  0  0  0  0
 13 14  1  6  0  0  0
 13 19  1  0  0  0  0
 15 16  1  1  0  0  0
 15 20  1  0  0  0  0
 17 18  1  6  0  0  0
 17 22  1  0  0  0  0
 19  2  1  6  0  0  0
 19 24  1  0  0  0  0
 20 21  1  0  0  0  0
 20 26  1  6  0  0  0
 22 23  1  0  0  0  0
 22 28  1  1  0  0  0
 24 25  1  1  0  0  0
 24 30  1  0  0  0  0
 26 27  1  0  0  0  0
 28 29  1  0  0  0  0
 30 31  1  1  0  0  0
M  END
>  <CHROM.1>
-159.96492247,-176.89351338,-152.02237471,-55.18467817,-166.03052494,-178.75769885
20.84919626,8.43128066,6.33139168,1.60340335,0.19717374,-1.04757253

>  <Name>
2o3x_lig

>  <RI>
3.41138e+07

>  <Rbt.Current_Directory>
/home/itssahil/PROJECTS/Mol_Feturizer/New_Systems/rnas/2o3x

>  <Rbt.Executable>
rbdock ($Id: //depot/dev/client3/rdock/2013.1/src/exe/rbdock.cxx#4 $)

>  <Rbt.Library>
libRbt.so (2013.1, Build901 2013/11/27)

>  <Rbt.Parameter_File>
/export/apps/rDock/src/rDock_2013.1_src/data/scripts/dock_solv.prm

>  <Rbt.Receptor>
prm/pocket_docking_2.prm

>  <SCORE>
-18.7565

>  <SCORE.INTER>
-17.3052

>  <SCORE.INTER.CONST>
1

>  <SCORE.INTER.POLAR>
-1.5232

>  <SCORE.INTER.ROT>
6

>  <SCORE.INTER.SOLV>
16.7629

>  <SCORE.INTER.VDW>
-19.6471

>  <SCORE.INTER.norm>
-0.558232

>  <SCORE.INTRA>
-1.58809

>  <SCORE.INTRA.DIHEDRAL>
-3.40624

>  <SCORE.INTRA.DIHEDRAL.0>
9.37739

>  <SCORE.INTRA.POLAR>
0

>  <SCORE.INTRA.POLAR.0>
0

>  <SCORE.INTRA.REPUL>
0

>  <SCORE.INTRA.REPUL.0>
0

>  <SCORE.INTRA.SOLV>
-0.826695

>  <SCORE.INTRA.SOLV.lig_0>
-82.9274

>  <SCORE.INTRA.VDW>
0.528376

>  <SCORE.INTRA.VDW.0>
-3.84922

>  <SCORE.INTRA.norm>
-0.0512288

>  <SCORE.RESTR>
0.136764

>  <SCORE.RESTR.CAVITY>
0.136764

>  <SCORE.RESTR.norm>
0.00441174

>  <SCORE.SYSTEM>
0

>  <SCORE.SYSTEM.CONST>
0

>  <SCORE.SYSTEM.DIHEDRAL>
0

>  <SCORE.SYSTEM.SOLV>
0

>  <SCORE.SYSTEM.norm>
0

>  <SCORE.heavy>
31

>  <SCORE.norm>
-0.605049

>  <RMSD>
0.659

$$$$
2o3x_lig
 OpenBabel11021811463D
libRbt.so/2013.1/901 2013/11/27
 31 33  0  0  0  0  0  0  0  0999 V2000
   20.1144    9.2030    5.2896 C   0  0  2  0  0  0  0  0  0  0  0  0
   21.1026    8.2586    4.8572 O   0  0  0  0  0  0  0  0  0  0  0  0
   24.4270    6.3617    6.7672 C   0  0  2  0  0  0  0  0  0  0  0  0
   25.6309    6.0937    7.5846 N   0  0  0  0  0  0  0  0  0  0  0  0
   20.6063    7.6035    8.9773 C   0  0  1  0  0  0  0  0  0  0  0  0
   18.7951    8.9319    4.4995 C   0  0  2  0  0  0  0  0  0  0  0  0
   18.4279    7.4928    4.5007 N   0  0  0  0  0  0  0  0  0  0  0  0
   24.7279    7.3330    5.5775 C   0  0  0  0  0  0  0  0  0  0  0  0
   19.7007    8.6218    9.7448 C   0  0  2  0  0  0  0  0  0  0  0  0
   20.3819    9.5003   10.6821 O   0  0  0  0  0  0  0  0  0  0  0  0
   18.9054    9.3941    3.0342 C   0  0  1  0  0  0  0  0  0  0  0  0
   17.6916    9.1873    2.3572 O   0  0  0  0  0  0  0  0  0  0  0  0
   23.4016    7.5300    4.7562 C   0  0  2  0  0  0  0  0  0  0  0  0
   23.6094    8.4340    3.5854 N   0  0  0  0  0  0  0  0  0  0  0  0
   18.7196    7.6308   10.3485 C   0  0  2  0  0  0  0  0  0  0  0  0
   19.2905    6.9767   11.5333 O   0  0  0  0  0  0  0  0  0  0  0  0
   19.2981   10.8612    2.9879 C   0  0  2  0  0  0  0  0  0  0  0  0
   19.3759   11.2871    1.6656 O   0  0  0  0  0  0  0  0  0  0  0  0
   22.2879    8.1371    5.6564 C   0  0  2  0  0  0  0  0  0  0  0  0
   18.4668    6.6198    9.2362 C   0  0  2  0  0  0  0  0  0  0  0  0
   19.7857    6.4570    8.7220 O   0  0  0  0  0  0  0  0  0  0  0  0
   20.6649   11.0669    3.7001 C   0  0  2  0  0  0  0  0  0  0  0  0
   20.5751   10.6071    5.0659 O   0  0  0  0  0  0  0  0  0  0  0  0
   21.9892    7.2914    6.9102 C   0  0  2  0  0  0  0  0  0  0  0  0
   21.1167    8.1328    7.7437 O   0  0  0  0  0  0  0  0  0  0  0  0
   17.4921    7.1066    8.1110 C   0  0  0  0  0  0  0  0  0  0  0  0
   16.2106    7.3930    8.6638 N   0  0  0  0  0  0  0  0  0  0  0  0
   21.1027   12.5131    3.7044 C   0  0  0  0  0  0  0  0  0  0  0  0
   21.4436   12.9442    2.4371 O   0  0  0  0  0  0  0  0  0  0  0  0
   23.3400    6.9534    7.6826 C   0  0  1  0  0  0  0  0  0  0  0  0
   23.1215    5.9901    8.7245 O   0  0  0  0  0  0  0  0  0  0  0  0
  1  2  1  6  0  0  0
  1  6  1  0  0  0  0
  1 23  1  0  0  0  0
  3  4  1  1  0  0  0
  3  8  1  0  0  0  0
  3 30  1  0  0  0  0
  5  9  1  0  0  0  0
  5 21  1  0  0  0  0
  5 25  1  6  0  0  0
  6  7  1  6  0  0  0
  6 11  1  0  0  0  0
  8 13  1  0  0  0  0
  9 10  1  1  0  0  0
  9 15  1  0  0  0  0
 11 12  1  1  0  0  0
 11 17  1  0  0  0  0
 13 14  1  6  0  0  0
 13 19  1  0  0  0  0
 15 16  1  1  0  0  0
 15 20  1  0  0  0  0
 17 18  1  6  0  0  0
 17 22  1  0  0  0  0
 19  2  1  6  0  0  0
 19 24  1  0  0  0  0
 20 21  1  0  0  0  0
 20 26  1  6  0  0  0
 22 23  1  0  0  0  0
 22 28  1  1  0  0  0
 24 25  1  1  0  0  0
 24 30  1  0  0  0  0
 26 27  1  0  0  0  0
 28 29  1  0  0  0  0
 30 31  1  1  0  0  0
M  END
>  <CHROM.1>
-166.58839740,179.83859977,-158.18691586,-61.07443339,-69.38006378,177.38876374
20.68719045,8.47552976,6.29423647,1.60624099,0.23223317,-1.07193749

>  <Name>
2o3x_lig

>  <RI>
3.41138e+07

>  <Rbt.Current_Directory>
/home/itssahil/PROJECTS/Mol_Feturizer/New_Systems/rnas/2o3x

>  <Rbt.Executable>
rbdock ($Id: //depot/dev/client3/rdock/2013.1/src/exe/rbdock.cxx#4 $)

>  <Rbt.Library>
libRbt.so (2013.1, Build901 2013/11/27)

>  <Rbt.Parameter_File>
/export/apps/rDock/src/rDock_2013.1_src/data/scripts/dock_solv.prm

>  <Rbt.Receptor>
prm/pocket_docking_2.prm

>  <SCORE>
-19.2538

>  <SCORE.INTER>
-16.5309

>  <SCORE.INTER.CONST>
1

>  <SCORE.INTER.POLAR>
-1.52714

>  <SCORE.INTER.ROT>
6

>  <SCORE.INTER.SOLV>
16.8811

>  <SCORE.INTER.VDW>
-19.1572

>  <SCORE.INTER.norm>
-0.533255

>  <SCORE.INTRA>
-2.94935

>  <SCORE.INTRA.DIHEDRAL>
-5.91836

>  <SCORE.INTRA.DIHEDRAL.0>
9.37739

>  <SCORE.INTRA.POLAR>
0

>  <SCORE.INTRA.POLAR.0>
0

>  <SCORE.INTRA.REPUL>
0

>  <SCORE.INTRA.REPUL.0>
0

>  <SCORE.INTRA.SOLV>
-1.44304

>  <SCORE.INTRA.SOLV.lig_0>
-82.9274

>  <SCORE.INTRA.VDW>
0.731352

>  <SCORE.INTRA.VDW.0>
-3.84922

>  <SCORE.INTRA.norm>
-0.0951402

>  <SCORE.RESTR>
0.226463

>  <SCORE.RESTR.CAVITY>
0.226463

>  <SCORE.RESTR.norm>
0.00730526

>  <SCORE.SYSTEM>
0

>  <SCORE.SYSTEM.CONST>
0

>  <SCORE.SYSTEM.DIHEDRAL>
0

>  <SCORE.SYSTEM.SOLV>
0

>  <SCORE.SYSTEM.norm>
0

>  <SCORE.heavy>
31

>  <SCORE.norm>
-0.62109

>  <RMSD>
0.686

$$$$
2o3x_lig
 OpenBabel11021811463D
libRbt.so/2013.1/901 2013/11/27
 31 33  0  0  0  0  0  0  0  0999 V2000
   20.1870    9.2557    5.2658 C   0  0  2  0  0  0  0  0  0  0  0  0
   21.1558    8.2991    4.8165 O   0  0  0  0  0  0  0  0  0  0  0  0
   24.4945    6.3589    6.6569 C   0  0  2  0  0  0  0  0  0  0  0  0
   25.7084    6.0738    7.4534 N   0  0  0  0  0  0  0  0  0  0  0  0
   20.7127    7.6023    8.9346 C   0  0  1  0  0  0  0  0  0  0  0  0
   18.8459    8.9900    4.5113 C   0  0  2  0  0  0  0  0  0  0  0  0
   18.4664    7.5543    4.5336 N   0  0  0  0  0  0  0  0  0  0  0  0
   24.7846    7.3406    5.4731 C   0  0  0  0  0  0  0  0  0  0  0  0
   19.7938    8.6047    9.7072 C   0  0  2  0  0  0  0  0  0  0  0  0
   20.4641    9.4911   10.6449 O   0  0  0  0  0  0  0  0  0  0  0  0
   18.9233    9.4394    3.0399 C   0  0  1  0  0  0  0  0  0  0  0  0
   17.6912    9.2379    2.3954 O   0  0  0  0  0  0  0  0  0  0  0  0
   23.4477    7.5556    4.6737 C   0  0  2  0  0  0  0  0  0  0  0  0
   23.6447    8.4706    3.5096 N   0  0  0  0  0  0  0  0  0  0  0  0
   18.8295    7.5974   10.3108 C   0  0  2  0  0  0  0  0  0  0  0  0
   19.4135    6.9490   11.4925 O   0  0  0  0  0  0  0  0  0  0  0  0
   19.3275   10.9025    2.9716 C   0  0  2  0  0  0  0  0  0  0  0  0
   19.3757   11.3170    1.6443 O   0  0  0  0  0  0  0  0  0  0  0  0
   22.3519    8.1608    5.5968 C   0  0  2  0  0  0  0  0  0  0  0  0
   18.5891    6.5855    9.1967 C   0  0  2  0  0  0  0  0  0  0  0  0
   19.9089    6.4441    8.6785 O   0  0  0  0  0  0  0  0  0  0  0  0
   20.7135   11.1017    3.6475 C   0  0  2  0  0  0  0  0  0  0  0  0
   20.6542   10.6538    5.0189 O   0  0  0  0  0  0  0  0  0  0  0  0
   22.0657    7.3040    6.8459 C   0  0  2  0  0  0  0  0  0  0  0  0
   21.2116    8.1424    7.7011 O   0  0  0  0  0  0  0  0  0  0  0  0
   17.6040    7.0603    8.0753 C   0  0  0  0  0  0  0  0  0  0  0  0
   16.3511    7.4251    8.6470 N   0  0  0  0  0  0  0  0  0  0  0  0
   21.1638   12.5440    3.6288 C   0  0  0  0  0  0  0  0  0  0  0  0
   21.5847   12.9283    2.3706 O   0  0  0  0  0  0  0  0  0  0  0  0
   23.4254    6.9483    7.5945 C   0  0  1  0  0  0  0  0  0  0  0  0
   23.2154    5.9755    8.6292 O   0  0  0  0  0  0  0  0  0  0  0  0
  1  2  1  6  0  0  0
  1  6  1  0  0  0  0
  1 23  1  0  0  0  0
  3  4  1  1  0  0  0
  3  8  1  0  0  0  0
  3 30  1  0  0  0  0
  5  9  1  0  0  0  0
  5 21  1  0  0  0  0
  5 25  1  6  0  0  0
  6  7  1  6  0  0  0
  6 11  1  0  0  0  0
  8 13  1  0  0  0  0
  9 10  1  1  0  0  0
  9 15  1  0  0  0  0
 11 12  1  1  0  0  0
 11 17  1  0  0  0  0
 13 14  1  6  0  0  0
 13 19  1  0  0  0  0
 15 16  1  1  0  0  0
 15 20  1  0  0  0  0
 17 18  1  6  0  0  0
 17 22  1  0  0  0  0
 19  2  1  6  0  0  0
 19 24  1  0  0  0  0
 20 21  1  0  0  0  0
 20 26  1  6  0  0  0
 22 23  1  0  0  0  0
 22 28  1  1  0  0  0
 24 25  1  1  0  0  0
 24 30  1  0  0  0  0
 26 27  1  0  0  0  0
 28 29  1  0  0  0  0
 30 31  1  1  0  0  0
M  END
>  <CHROM.1>
-165.78263822,-178.56085002,-157.55263338,-56.56499361,-74.51941926,177.21492515
20.76177629,8.48823620,6.24803218,1.61132110,0.23855052,-1.06485910

>  <Name>
2o3x_lig

>  <RI>
3.41138e+07

>  <Rbt.Current_Directory>
/home/itssahil/PROJECTS/Mol_Feturizer/New_Systems/rnas/2o3x

>  <Rbt.Executable>
rbdock ($Id: //depot/dev/client3/rdock/2013.1/src/exe/rbdock.cxx#4 $)

>  <Rbt.Library>
libRbt.so (2013.1, Build901 2013/11/27)

>  <Rbt.Parameter_File>
/export/apps/rDock/src/rDock_2013.1_src/data/scripts/dock_solv.prm

>  <Rbt.Receptor>
prm/pocket_docking_2.prm

>  <SCORE>
-19.3998

>  <SCORE.INTER>
-17.0437

>  <SCORE.INTER.CONST>
1

>  <SCORE.INTER.POLAR>
-1.57343

>  <SCORE.INTER.ROT>
6

>  <SCORE.INTER.SOLV>
16.8736

>  <SCORE.INTER.VDW>
-19.3422

>  <SCORE.INTER.norm>
-0.549796

>  <SCORE.INTRA>
-2.60527

>  <SCORE.INTRA.DIHEDRAL>
-5.25676

>  <SCORE.INTRA.DIHEDRAL.0>
9.37739

>  <SCORE.INTRA.POLAR>
0

>  <SCORE.INTRA.POLAR.0>
0

>  <SCORE.INTRA.REPUL>
0

>  <SCORE.INTRA.REPUL.0>
0

>  <SCORE.INTRA.SOLV>
-1.24538

>  <SCORE.INTRA.SOLV.lig_0>
-82.9274

>  <SCORE.INTRA.VDW>
0.645798

>  <SCORE.INTRA.VDW.0>
-3.84922

>  <SCORE.INTRA.norm>
-0.084041

>  <SCORE.RESTR>
0.249109

>  <SCORE.RESTR.CAVITY>
0.249109

>  <SCORE.RESTR.norm>
0.00803578

>  <SCORE.SYSTEM>
0

>  <SCORE.SYSTEM.CONST>
0

>  <SCORE.SYSTEM.DIHEDRAL>
0

>  <SCORE.SYSTEM.SOLV>
0

>  <SCORE.SYSTEM.norm>
0

>  <SCORE.heavy>
31

>  <SCORE.norm>
-0.625801

>  <RMSD>
0.693

$$$$
2o3x_lig
 OpenBabel11021811463D
libRbt.so/2013.1/901 2013/11/27
 31 33  0  0  0  0  0  0  0  0999 V2000
   20.5503    9.2372    5.5897 C   0  0  2  0  0  0  0  0  0  0  0  0
   21.5096    8.2998    5.0833 O   0  0  0  0  0  0  0  0  0  0  0  0
   24.1045    5.6329    7.1934 C   0  0  2  0  0  0  0  0  0  0  0  0
   25.1320    5.0718    8.0983 N   0  0  0  0  0  0  0  0  0  0  0  0
   20.4154    7.7039    9.0561 C   0  0  1  0  0  0  0  0  0  0  0  0
   19.1233    8.7485    5.1855 C   0  0  2  0  0  0  0  0  0  0  0  0
   18.9171    7.3099    5.4917 N   0  0  0  0  0  0  0  0  0  0  0  0
   24.7327    6.5232    6.0699 C   0  0  0  0  0  0  0  0  0  0  0  0
   20.0877    8.8663   10.0498 C   0  0  2  0  0  0  0  0  0  0  0  0
   21.0328    9.0605   11.1377 O   0  0  0  0  0  0  0  0  0  0  0  0
   18.8552    8.9589    3.6832 C   0  0  1  0  0  0  0  0  0  0  0  0
   17.5492    8.5597    3.3528 O   0  0  0  0  0  0  0  0  0  0  0  0
   23.5703    7.0446    5.1484 C   0  0  2  0  0  0  0  0  0  0  0  0
   24.0908    7.8915    4.0334 N   0  0  0  0  0  0  0  0  0  0  0  0
   18.6892    8.4257   10.4488 C   0  0  2  0  0  0  0  0  0  0  0  0
   18.7387    7.3501   11.4480 O   0  0  0  0  0  0  0  0  0  0  0  0
   19.0732   10.4189    3.3234 C   0  0  2  0  0  0  0  0  0  0  0  0
   18.8094   10.6160    1.9716 O   0  0  0  0  0  0  0  0  0  0  0  0
   22.5554    7.8857    5.9740 C   0  0  2  0  0  0  0  0  0  0  0  0
   18.0596    7.9351    9.1504 C   0  0  2  0  0  0  0  0  0  0  0  0
   19.1531    7.2222    8.5791 O   0  0  0  0  0  0  0  0  0  0  0  0
   20.5356   10.8331    3.6514 C   0  0  2  0  0  0  0  0  0  0  0  0
   20.8012   10.6095    5.0530 O   0  0  0  0  0  0  0  0  0  0  0  0
   21.9532    7.1159    7.1661 C   0  0  2  0  0  0  0  0  0  0  0  0
   21.2330    8.1278    7.9543 O   0  0  0  0  0  0  0  0  0  0  0  0
   17.5738    9.0676    8.1835 C   0  0  0  0  0  0  0  0  0  0  0  0
   16.8541    8.5030    7.0912 N   0  0  0  0  0  0  0  0  0  0  0  0
   20.8107   12.2843    3.3326 C   0  0  0  0  0  0  0  0  0  0  0  0
   22.1213   12.6246    3.6058 O   0  0  0  0  0  0  0  0  0  0  0  0
   23.1104    6.4524    8.0359 C   0  0  1  0  0  0  0  0  0  0  0  0
   22.5770    5.5526    9.0193 O   0  0  0  0  0  0  0  0  0  0  0  0
  1  2  1  6  0  0  0
  1  6  1  0  0  0  0
  1 23  1  0  0  0  0
  3  4  1  1  0  0  0
  3  8  1  0  0  0  0
  3 30  1  0  0  0  0
  5  9  1  0  0  0  0
  5 21  1  0  0  0  0
  5 25  1  6  0  0  0
  6  7  1  6  0  0  0
  6 11  1  0  0  0  0
  8 13  1  0  0  0  0
  9 10  1  1  0  0  0
  9 15  1  0  0  0  0
 11 12  1  1  0  0  0
 11 17  1  0  0  0  0
 13 14  1  6  0  0  0
 13 19  1  0  0  0  0
 15 16  1  1  0  0  0
 15 20  1  0  0  0  0
 17 18  1  6  0  0  0
 17 22  1  0  0  0  0
 19  2  1  6  0  0  0
 19 24  1  0  0  0  0
 20 21  1  0  0  0  0
 20 26  1  6  0  0  0
 22 23  1  0  0  0  0
 22 28  1  1  0  0  0
 24 25  1  1  0  0  0
 24 30  1  0  0  0  0
 26 27  1  0  0  0  0
 28 29  1  0  0  0  0
 30 31  1  1  0  0  0
M  END
>  <CHROM.1>
-134.56422078,161.95899005,-171.99879049,-172.60508367,-178.78421322,172.40396683
20.70204690,8.40873921,6.55678204,-1.78972283,-0.38739250,2.01032063

>  <Name>
2o3x_lig

>  <RI>
3.41138e+07

>  <Rbt.Current_Directory>
/home/itssahil/PROJECTS/Mol_Feturizer/New_Systems/rnas/2o3x

>  <Rbt.Executable>
rbdock ($Id: //depot/dev/client3/rdock/2013.1/src/exe/rbdock.cxx#4 $)

>  <Rbt.Library>
libRbt.so (2013.1, Build901 2013/11/27)

>  <Rbt.Parameter_File>
/export/apps/rDock/src/rDock_2013.1_src/data/scripts/dock_solv.prm

>  <Rbt.Receptor>
prm/pocket_docking_2.prm

>  <SCORE>
-8.31176

>  <SCORE.INTER>
-10.1842

>  <SCORE.INTER.CONST>
1

>  <SCORE.INTER.POLAR>
-0.894427

>  <SCORE.INTER.ROT>
6

>  <SCORE.INTER.SOLV>
14.9213

>  <SCORE.INTER.VDW>
-16.3819

>  <SCORE.INTER.norm>
-0.328524

>  <SCORE.INTRA>
1.85099

>  <SCORE.INTRA.DIHEDRAL>
-0.749125

>  <SCORE.INTRA.DIHEDRAL.0>
9.37739

>  <SCORE.INTRA.POLAR>
0

>  <SCORE.INTRA.POLAR.0>
0

>  <SCORE.INTRA.REPUL>
0

>  <SCORE.INTRA.REPUL.0>
0

>  <SCORE.INTRA.SOLV>
3.7799

>  <SCORE.INTRA.SOLV.lig_0>
-82.9274

>  <SCORE.INTRA.VDW>
0.335596

>  <SCORE.INTRA.VDW.0>
-3.84922

>  <SCORE.INTRA.norm>
0.0597092

>  <SCORE.RESTR>
0.0214944

>  <SCORE.RESTR.CAVITY>
0.0214944

>  <SCORE.RESTR.norm>
0.000693368

>  <SCORE.SYSTEM>
0

>  <SCORE.SYSTEM.CONST>
0

>  <SCORE.SYSTEM.DIHEDRAL>
0

>  <SCORE.SYSTEM.SOLV>
0

>  <SCORE.SYSTEM.norm>
0

>  <SCORE.heavy>
31

>  <SCORE.norm>
-0.268121

>  <RMSD>
0.714

$$$$
2o3x_lig
 OpenBabel11021811463D
libRbt.so/2013.1/901 2013/11/27
 31 33  0  0  0  0  0  0  0  0999 V2000
   20.3730    9.5284    5.1619 C   0  0  2  0  0  0  0  0  0  0  0  0
   21.3048    8.5585    4.6653 O   0  0  0  0  0  0  0  0  0  0  0  0
   24.5827    6.4398    6.4157 C   0  0  2  0  0  0  0  0  0  0  0  0
   25.7947    6.0867    7.1877 N   0  0  0  0  0  0  0  0  0  0  0  0
   20.8742    7.7921    8.7652 C   0  0  1  0  0  0  0  0  0  0  0  0
   18.9724    9.2296    4.5394 C   0  0  2  0  0  0  0  0  0  0  0  0
   18.6058    7.7946    4.6495 N   0  0  0  0  0  0  0  0  0  0  0  0
   24.8979    7.4319    5.2471 C   0  0  0  0  0  0  0  0  0  0  0  0
   19.9883    8.8088    9.5573 C   0  0  2  0  0  0  0  0  0  0  0  0
   20.6860    9.6507   10.5159 O   0  0  0  0  0  0  0  0  0  0  0  0
   18.9168    9.6227    3.0511 C   0  0  1  0  0  0  0  0  0  0  0  0
   17.6340    9.3927    2.5260 O   0  0  0  0  0  0  0  0  0  0  0  0
   23.5601    7.7202    4.4727 C   0  0  2  0  0  0  0  0  0  0  0  0
   23.7794    8.6492    3.3238 N   0  0  0  0  0  0  0  0  0  0  0  0
   18.9875    7.8229   10.1363 C   0  0  2  0  0  0  0  0  0  0  0  0
   19.5447    7.1289   11.3049 O   0  0  0  0  0  0  0  0  0  0  0  0
   19.3037   11.0834    2.8920 C   0  0  2  0  0  0  0  0  0  0  0  0
   19.2320   11.4470    1.5510 O   0  0  0  0  0  0  0  0  0  0  0  0
   22.5049    8.3532    5.4242 C   0  0  2  0  0  0  0  0  0  0  0  0
   18.7157    6.8445    8.9997 C   0  0  2  0  0  0  0  0  0  0  0  0
   20.0314    6.6685    8.4818 O   0  0  0  0  0  0  0  0  0  0  0  0
   20.7426   11.3129    3.4348 C   0  0  2  0  0  0  0  0  0  0  0  0
   20.8073   10.9176    4.8221 O   0  0  0  0  0  0  0  0  0  0  0  0
   22.2001    7.4843    6.6605 C   0  0  2  0  0  0  0  0  0  0  0  0
   21.3956    8.3412    7.5450 O   0  0  0  0  0  0  0  0  0  0  0  0
   17.7514    7.3777    7.8865 C   0  0  0  0  0  0  0  0  0  0  0  0
   16.4503    7.5900    8.4268 N   0  0  0  0  0  0  0  0  0  0  0  0
   21.1799   12.7549    3.3219 C   0  0  0  0  0  0  0  0  0  0  0  0
   22.5563   12.8705    3.3341 O   0  0  0  0  0  0  0  0  0  0  0  0
   23.5539    7.0555    7.3810 C   0  0  1  0  0  0  0  0  0  0  0  0
   23.3171    6.0719    8.3996 O   0  0  0  0  0  0  0  0  0  0  0  0
  1  2  1  6  0  0  0
  1  6  1  0  0  0  0
  1 23  1  0  0  0  0
  3  4  1  1  0  0  0
  3  8  1  0  0  0  0
  3 30  1  0  0  0  0
  5  9  1  0  0  0  0
  5 21  1  0  0  0  0
  5 25  1  6  0  0  0
  6  7  1  6  0  0  0
  6 11  1  0  0  0  0
  8 13  1  0  0  0  0
  9 10  1  1  0  0  0
  9 15  1  0  0  0  0
 11 12  1  1  0  0  0
 11 17  1  0  0  0  0
 13 14  1  6  0  0  0
 13 19  1  0  0  0  0
 15 16  1  1  0  0  0
 15 20  1  0  0  0  0
 17 18  1  6  0  0  0
 17 22  1  0  0  0  0
 19  2  1  6  0  0  0
 19 24  1  0  0  0  0
 20 21  1  0  0  0  0
 20 26  1  6  0  0  0
 22 23  1  0  0  0  0
 22 28  1  1  0  0  0
 24 25  1  1  0  0  0
 24 30  1  0  0  0  0
 26 27  1  0  0  0  0
 28 29  1  0  0  0  0
 30 31  1  1  0  0  0
M  END
>  <CHROM.1>
-159.31588346,-177.33713893,-158.70757633,-64.97944113,-158.04404077,176.24720703
20.89822440,8.66498873,6.13748058,1.61659253,0.24194578,-1.05514311

>  <Name>
2o3x_lig

>  <RI>
0

>  <Rbt.Current_Directory>
/home/itssahil/PROJECTS/Mol_Feturizer/New_Systems/rnas/2o3x

>  <Rbt.Executable>
rbdock ($Id: //depot/dev/client3/rdock/2013.1/src/exe/rbdock.cxx#4 $)

>  <Rbt.Library>
libRbt.so (2013.1, Build901 2013/11/27)

>  <Rbt.Parameter_File>
/export/apps/rDock/src/rDock_2013.1_src/data/scripts/dock_solv.prm

>  <Rbt.Receptor>
prm/pocket_docking_3.prm

>  <SCORE>
-19.7273

>  <SCORE.INTER>
-17.8335

>  <SCORE.INTER.CONST>
1

>  <SCORE.INTER.POLAR>
-1.64104

>  <SCORE.INTER.ROT>
6

>  <SCORE.INTER.SOLV>
18.0191

>  <SCORE.INTER.VDW>
-20.0252

>  <SCORE.INTER.norm>
-0.575273

>  <SCORE.INTRA>
-1.89851

>  <SCORE.INTRA.DIHEDRAL>
-3.52707

>  <SCORE.INTRA.DIHEDRAL.0>
9.37739

>  <SCORE.INTRA.POLAR>
0

>  <SCORE.INTRA.POLAR.0>
0

>  <SCORE.INTRA.REPUL>
0

>  <SCORE.INTRA.REPUL.0>
0

>  <SCORE.INTRA.SOLV>
-1.25998

>  <SCORE.INTRA.SOLV.lig_0>
-82.9274

>  <SCORE.INTRA.VDW>
0.495014

>  <SCORE.INTRA.VDW.0>
-3.84922

>  <SCORE.INTRA.norm>
-0.0612424

>  <SCORE.RESTR>
0.00469199

>  <SCORE.RESTR.CAVITY>
0.00469199

>  <SCORE.RESTR.norm>
0.000151354

>  <SCORE.SYSTEM>
0

>  <SCORE.SYSTEM.CONST>
0

>  <SCORE.SYSTEM.DIHEDRAL>
0

>  <SCORE.SYSTEM.SOLV>
0

>  <SCORE.SYSTEM.norm>
0

>  <SCORE.heavy>
31

>  <SCORE.norm>
-0.636365

>  <RMSD>
0.742

$$$$
2o3x_lig
 OpenBabel11021811463D
libRbt.so/2013.1/901 2013/11/27
 31 33  0  0  0  0  0  0  0  0999 V2000
   19.8148    9.3326    5.6108 C   0  0  2  0  0  0  0  0  0  0  0  0
   20.7430    8.2753    5.3349 O   0  0  0  0  0  0  0  0  0  0  0  0
   23.9316    6.3915    7.4755 C   0  0  2  0  0  0  0  0  0  0  0  0
   25.0875    6.1323    8.3621 N   0  0  0  0  0  0  0  0  0  0  0  0
   20.0389    7.7758    9.4517 C   0  0  1  0  0  0  0  0  0  0  0  0
   18.5053    9.0612    4.8047 C   0  0  2  0  0  0  0  0  0  0  0  0
   18.0313    7.6625    4.9619 N   0  0  0  0  0  0  0  0  0  0  0  0
   24.3098    7.3164    6.2709 C   0  0  0  0  0  0  0  0  0  0  0  0
   19.5357    8.9363   10.3715 C   0  0  2  0  0  0  0  0  0  0  0  0
   20.5088    9.4754   11.3078 O   0  0  0  0  0  0  0  0  0  0  0  0
   18.6975    9.3329    3.3007 C   0  0  1  0  0  0  0  0  0  0  0  0
   17.4943    9.1314    2.6035 O   0  0  0  0  0  0  0  0  0  0  0  0
   23.0306    7.5065    5.3765 C   0  0  2  0  0  0  0  0  0  0  0  0
   23.3137    8.3663    4.1883 N   0  0  0  0  0  0  0  0  0  0  0  0
   18.3392    8.2276   10.9838 C   0  0  2  0  0  0  0  0  0  0  0  0
   18.7566    7.3196   12.0604 O   0  0  0  0  0  0  0  0  0  0  0  0
   19.2005   10.7520    3.0964 C   0  0  2  0  0  0  0  0  0  0  0  0
   19.3530   11.0073    1.7373 O   0  0  0  0  0  0  0  0  0  0  0  0
   21.8838    8.1621    6.1976 C   0  0  2  0  0  0  0  0  0  0  0  0
   17.7220    7.4525    9.8256 C   0  0  2  0  0  0  0  0  0  0  0  0
   18.8942    6.9564    9.1850 O   0  0  0  0  0  0  0  0  0  0  0  0
   20.5550   10.9458    3.8349 C   0  0  2  0  0  0  0  0  0  0  0  0
   20.3867   10.6631    5.2408 O   0  0  0  0  0  0  0  0  0  0  0  0
   21.5067    7.3649    7.4620 C   0  0  2  0  0  0  0  0  0  0  0  0
   20.6082    8.2484    8.2210 O   0  0  0  0  0  0  0  0  0  0  0  0
   16.8735    8.3158    8.8316 C   0  0  0  0  0  0  0  0  0  0  0  0
   16.1164    7.4691    7.9715 N   0  0  0  0  0  0  0  0  0  0  0  0
   21.0998   12.3473    3.6853 C   0  0  0  0  0  0  0  0  0  0  0  0
   21.4337   12.6249    2.3740 O   0  0  0  0  0  0  0  0  0  0  0  0
   22.8104    7.0318    8.3136 C   0  0  1  0  0  0  0  0  0  0  0  0
   22.5220    6.1085    9.3745 O   0  0  0  0  0  0  0  0  0  0  0  0
  1  2  1  6  0  0  0
  1  6  1  0  0  0  0
  1 23  1  0  0  0  0
  3  4  1  1  0  0  0
  3  8  1  0  0  0  0
  3 30  1  0  0  0  0
  5  9  1  0  0  0  0
  5 21  1  0  0  0  0
  5 25  1  6  0  0  0
  6  7  1  6  0  0  0
  6 11  1  0  0  0  0
  8 13  1  0  0  0  0
  9 10  1  1  0  0  0
  9 15  1  0  0  0  0
 11 12  1  6  0  0  0
 11 17  1  0  0  0  0
 13 14  1  6  0  0  0
 13 19  1  0  0  0  0
 15 16  1  1  0  0  0
 15 20  1  0  0  0  0
 17 18  1  6  0  0  0
 17 22  1  0  0  0  0
 19  2  1  6  0  0  0
 19 24  1  0  0  0  0
 20 21  1  0  0  0  0
 20 26  1  6  0  0  0
 22 23  1  0  0  0  0
 22 28  1  1  0  0  0
 24 25  1  1  0  0  0
 24 30  1  0  0  0  0
 26 27  1  0  0  0  0
 28 29  1  0  0  0  0
 30 31  1  1  0  0  0
M  END
>  <CHROM.1>
-166.11657836,160.06158077,-152.44386455,-167.45788850,-65.53464705,178.10999825
20.34397779,8.59327999,6.70045645,1.57973307,0.22485545,-1.15125576

>  <Name>
2o3x_lig

>  <RI>
3.41138e+07

>  <Rbt.Current_Directory>
/home/itssahil/PROJECTS/Mol_Feturizer/New_Systems/rnas/2o3x

>  <Rbt.Executable>
rbdock ($Id: //depot/dev/client3/rdock/2013.1/src/exe/rbdock.cxx#4 $)

>  <Rbt.Library>
libRbt.so (2013.1, Build901 2013/11/27)

>  <Rbt.Parameter_File>
/export/apps/rDock/src/rDock_2013.1_src/data/scripts/dock_solv.prm

>  <Rbt.Receptor>
prm/pocket_docking_2.prm

>  <SCORE>
-15.6829

>  <SCORE.INTER>
-14.5713

>  <SCORE.INTER.CONST>
1

>  <SCORE.INTER.POLAR>
-1.15114

>  <SCORE.INTER.ROT>
6

>  <SCORE.INTER.SOLV>
15.4769

>  <SCORE.INTER.VDW>
-18.636

>  <SCORE.INTER.norm>
-0.470042

>  <SCORE.INTRA>
-1.19954

>  <SCORE.INTRA.DIHEDRAL>
-2.77327

>  <SCORE.INTRA.DIHEDRAL.0>
9.37739

>  <SCORE.INTRA.POLAR>
0

>  <SCORE.INTRA.POLAR.0>
0

>  <SCORE.INTRA.REPUL>
0

>  <SCORE.INTRA.REPUL.0>
0

>  <SCORE.INTRA.SOLV>
-0.636837

>  <SCORE.INTRA.SOLV.lig_0>
-82.9274

>  <SCORE.INTRA.VDW>
0.505517

>  <SCORE.INTRA.VDW.0>
-3.84922

>  <SCORE.INTRA.norm>
-0.0386947

>  <SCORE.RESTR>
0.087899

>  <SCORE.RESTR.CAVITY>
0.087899

>  <SCORE.RESTR.norm>
0.00283545

>  <SCORE.SYSTEM>
0

>  <SCORE.SYSTEM.CONST>
0

>  <SCORE.SYSTEM.DIHEDRAL>
0

>  <SCORE.SYSTEM.SOLV>
0

>  <SCORE.SYSTEM.norm>
0

>  <SCORE.heavy>
31

>  <SCORE.norm>
-0.505901

>  <RMSD>
0.779

$$$$
2o3x_lig
 OpenBabel11021811463D
libRbt.so/2013.1/901 2013/11/27
 31 33  0  0  0  0  0  0  0  0999 V2000
   19.8148    9.3439    5.6304 C   0  0  2  0  0  0  0  0  0  0  0  0
   20.7379    8.2809    5.3594 O   0  0  0  0  0  0  0  0  0  0  0  0
   23.9258    6.3920    7.4966 C   0  0  2  0  0  0  0  0  0  0  0  0
   25.0805    6.1303    8.3840 N   0  0  0  0  0  0  0  0  0  0  0  0
   20.0390    7.7661    9.4800 C   0  0  1  0  0  0  0  0  0  0  0  0
   18.5090    9.0821    4.8150 C   0  0  2  0  0  0  0  0  0  0  0  0
   18.0249    7.6863    4.9672 N   0  0  0  0  0  0  0  0  0  0  0  0
   24.3046    7.3232    6.2971 C   0  0  0  0  0  0  0  0  0  0  0  0
   19.5322    8.9250   10.3998 C   0  0  2  0  0  0  0  0  0  0  0  0
   20.5064    9.4735   11.3296 O   0  0  0  0  0  0  0  0  0  0  0  0
   18.7133    9.3543    3.3127 C   0  0  1  0  0  0  0  0  0  0  0  0
   17.5135    9.1616    2.6072 O   0  0  0  0  0  0  0  0  0  0  0  0
   23.0267    7.5155    5.4014 C   0  0  2  0  0  0  0  0  0  0  0  0
   23.3105    8.3814    4.2178 N   0  0  0  0  0  0  0  0  0  0  0  0
   18.3443    8.2089   11.0203 C   0  0  2  0  0  0  0  0  0  0  0  0
   18.7743    7.3065   12.0967 O   0  0  0  0  0  0  0  0  0  0  0  0
   19.2269   10.7704    3.1137 C   0  0  2  0  0  0  0  0  0  0  0  0
   19.3903   11.0264    1.7560 O   0  0  0  0  0  0  0  0  0  0  0  0
   21.8774    8.1654    6.2236 C   0  0  2  0  0  0  0  0  0  0  0  0
   17.7267    7.4265    9.8672 C   0  0  2  0  0  0  0  0  0  0  0  0
   18.8990    6.9376    9.2214 O   0  0  0  0  0  0  0  0  0  0  0  0
   20.5776   10.9544    3.8616 C   0  0  2  0  0  0  0  0  0  0  0  0
   20.3978   10.6711    5.2660 O   0  0  0  0  0  0  0  0  0  0  0  0
   21.4993    7.3616    7.4835 C   0  0  2  0  0  0  0  0  0  0  0  0
   20.5981    8.2400    8.2451 O   0  0  0  0  0  0  0  0  0  0  0  0
   16.8664    8.2812    8.8759 C   0  0  0  0  0  0  0  0  0  0  0  0
   16.1200    7.4269    8.0140 N   0  0  0  0  0  0  0  0  0  0  0  0
   21.1324   12.3525    3.7175 C   0  0  0  0  0  0  0  0  0  0  0  0
   21.5071   12.6183    2.4148 O   0  0  0  0  0  0  0  0  0  0  0  0
   22.8021    7.0264    8.3357 C   0  0  1  0  0  0  0  0  0  0  0  0
   22.5133    6.0976    9.3917 O   0  0  0  0  0  0  0  0  0  0  0  0
  1  2  1  6  0  0  0
  1  6  1  0  0  0  0
  1 23  1  0  0  0  0
  3  4  1  1  0  0  0
  3  8  1  0  0  0  0
  3 30  1  0  0  0  0
  5  9  1  0  0  0  0
  5 21  1  0  0  0  0
  5 25  1  6  0  0  0
  6  7  1  6  0  0  0
  6 11  1  0  0  0  0
  8 13  1  0  0  0  0
  9 10  1  1  0  0  0
  9 15  1  0  0  0  0
 11 12  1  6  0  0  0
 11 17  1  0  0  0  0
 13 14  1  6  0  0  0
 13 19  1  0  0  0  0
 15 16  1  1  0  0  0
 15 20  1  0  0  0  0
 17 18  1  6  0  0  0
 17 22  1  0  0  0  0
 19  2  1  6  0  0  0
 19 24  1  0  0  0  0
 20 21  1  0  0  0  0
 20 26  1  6  0  0  0
 22 23  1  0  0  0  0
 22 28  1  1  0  0  0
 24 25  1  1  0  0  0
 24 30  1  0  0  0  0
 26 27  1  0  0  0  0
 28 29  1  0  0  0  0
 30 31  1  1  0  0  0
M  END
>  <CHROM.1>
-166.57457835,160.04368365,-151.81868679,-167.97130902,-66.99039280,178.78694855
20.35046163,8.59307845,6.72585159,1.57124360,0.22135102,-1.14753341

>  <Name>
2o3x_lig

>  <RI>
3.41138e+07

>  <Rbt.Current_Directory>
/home/itssahil/PROJECTS/Mol_Feturizer/New_Systems/rnas/2o3x

>  <Rbt.Executable>
rbdock ($Id: //depot/dev/client3/rdock/2013.1/src/exe/rbdock.cxx#4 $)

>  <Rbt.Library>
libRbt.so (2013.1, Build901 2013/11/27)

>  <Rbt.Parameter_File>
/export/apps/rDock/src/rDock_2013.1_src/data/scripts/dock_solv.prm

>  <Rbt.Receptor>
prm/pocket_docking_2.prm

>  <SCORE>
-15.5938

>  <SCORE.INTER>
-14.4599

>  <SCORE.INTER.CONST>
1

>  <SCORE.INTER.POLAR>
-1.14636

>  <SCORE.INTER.ROT>
6

>  <SCORE.INTER.SOLV>
15.4468

>  <SCORE.INTER.VDW>
-18.5677

>  <SCORE.INTER.norm>
-0.466448

>  <SCORE.INTRA>
-1.19932

>  <SCORE.INTRA.DIHEDRAL>
-2.6975

>  <SCORE.INTRA.DIHEDRAL.0>
9.37739

>  <SCORE.INTRA.POLAR>
0

>  <SCORE.INTRA.POLAR.0>
0

>  <SCORE.INTRA.REPUL>
0

>  <SCORE.INTRA.REPUL.0>
0

>  <SCORE.INTRA.SOLV>
-0.6915

>  <SCORE.INTRA.SOLV.lig_0>
-82.9274

>  <SCORE.INTRA.VDW>
0.495185

>  <SCORE.INTRA.VDW.0>
-3.84922

>  <SCORE.INTRA.norm>
-0.0386876

>  <SCORE.RESTR>
0.0653596

>  <SCORE.RESTR.CAVITY>
0.0653596

>  <SCORE.RESTR.norm>
0.00210837

>  <SCORE.SYSTEM>
0

>  <SCORE.SYSTEM.CONST>
0

>  <SCORE.SYSTEM.DIHEDRAL>
0

>  <SCORE.SYSTEM.SOLV>
0

>  <SCORE.SYSTEM.norm>
0

>  <SCORE.heavy>
31

>  <SCORE.norm>
-0.503027

>  <RMSD>
0.779

$$$$
2o3x_lig
 OpenBabel11021811463D
libRbt.so/2013.1/901 2013/11/27
 31 33  0  0  0  0  0  0  0  0999 V2000
   19.8182    9.3561    5.6166 C   0  0  2  0  0  0  0  0  0  0  0  0
   20.7409    8.2942    5.3399 O   0  0  0  0  0  0  0  0  0  0  0  0
   23.9183    6.3900    7.4791 C   0  0  2  0  0  0  0  0  0  0  0  0
   25.0720    6.1231    8.3664 N   0  0  0  0  0  0  0  0  0  0  0  0
   20.0273    7.7854    9.4530 C   0  0  1  0  0  0  0  0  0  0  0  0
   18.4958    9.0757    4.8347 C   0  0  2  0  0  0  0  0  0  0  0  0
   18.0231    7.6796    5.0175 N   0  0  0  0  0  0  0  0  0  0  0  0
   24.3022    7.3165    6.2776 C   0  0  0  0  0  0  0  0  0  0  0  0
   19.5316    8.9451   10.3780 C   0  0  2  0  0  0  0  0  0  0  0  0
   20.5073    9.4716   11.3188 O   0  0  0  0  0  0  0  0  0  0  0  0
   18.6647    9.3276    3.3245 C   0  0  1  0  0  0  0  0  0  0  0  0
   17.4505    9.1184    2.6490 O   0  0  0  0  0  0  0  0  0  0  0  0
   23.0250    7.5150    5.3822 C   0  0  2  0  0  0  0  0  0  0  0  0
   23.3135    8.3768    4.1967 N   0  0  0  0  0  0  0  0  0  0  0  0
   18.3284    8.2427   10.9845 C   0  0  2  0  0  0  0  0  0  0  0  0
   18.7368    7.3258   12.0571 O   0  0  0  0  0  0  0  0  0  0  0  0
   19.1657   10.7434    3.0940 C   0  0  2  0  0  0  0  0  0  0  0  0
   19.2970   10.9809    1.7294 O   0  0  0  0  0  0  0  0  0  0  0  0
   21.8801    8.1734    6.2037 C   0  0  2  0  0  0  0  0  0  0  0  0
   17.7073    7.4785    9.8212 C   0  0  2  0  0  0  0  0  0  0  0  0
   18.8766    6.9765    9.1801 O   0  0  0  0  0  0  0  0  0  0  0  0
   20.5318   10.9453    3.8085 C   0  0  2  0  0  0  0  0  0  0  0  0
   20.3853   10.6810    5.2205 O   0  0  0  0  0  0  0  0  0  0  0  0
   21.4979    7.3745    7.4654 C   0  0  2  0  0  0  0  0  0  0  0  0
   20.6025    8.2599    8.2258 O   0  0  0  0  0  0  0  0  0  0  0  0
   16.8673    8.3537    8.8302 C   0  0  0  0  0  0  0  0  0  0  0  0
   16.1130    7.5174    7.9577 N   0  0  0  0  0  0  0  0  0  0  0  0
   21.0753   12.3441    3.6322 C   0  0  0  0  0  0  0  0  0  0  0  0
   21.4069   12.5978    2.3155 O   0  0  0  0  0  0  0  0  0  0  0  0
   22.7990    7.0330    8.3176 C   0  0  1  0  0  0  0  0  0  0  0  0
   22.5051    6.1081    9.3756 O   0  0  0  0  0  0  0  0  0  0  0  0
  1  2  1  6  0  0  0
  1  6  1  0  0  0  0
  1 23  1  0  0  0  0
  3  4  1  1  0  0  0
  3  8  1  0  0  0  0
  3 30  1  0  0  0  0
  5  9  1  0  0  0  0
  5 21  1  0  0  0  0
  5 25  1  6  0  0  0
  6  7  1  6  0  0  0
  6 11  1  0  0  0  0
  8 13  1  0  0  0  0
  9 10  1  1  0  0  0
  9 15  1  0  0  0  0
 11 12  1  6  0  0  0
 11 17  1  0  0  0  0
 13 14  1  6  0  0  0
 13 19  1  0  0  0  0
 15 16  1  1  0  0  0
 15 20  1  0  0  0  0
 17 18  1  6  0  0  0
 17 22  1  0  0  0  0
 19  2  1  6  0  0  0
 19 24  1  0  0  0  0
 20 21  1  0  0  0  0
 20 26  1  6  0  0  0
 22 23  1  0  0  0  0
 22 28  1  1  0  0  0
 24 25  1  1  0  0  0
 24 30  1  0  0  0  0
 26 27  1  0  0  0  0
 28 29  1  0  0  0  0
 30 31  1  1  0  0  0
M  END
>  <CHROM.1>
-164.81296489,159.91583184,-152.36607339,-167.90209740,-66.40304716,177.97907972
20.32957138,8.59997767,6.70135780,1.58368600,0.22737202,-1.15340388

>  <Name>
2o3x_lig

>  <RI>
3.41138e+07

>  <Rbt.Current_Directory>
/home/itssahil/PROJECTS/Mol_Feturizer/New_Systems/rnas/2o3x

>  <Rbt.Executable>
rbdock ($Id: //depot/dev/client3/rdock/2013.1/src/exe/rbdock.cxx#4 $)

>  <Rbt.Library>
libRbt.so (2013.1, Build901 2013/11/27)

>  <Rbt.Parameter_File>
/export/apps/rDock/src/rDock_2013.1_src/data/scripts/dock_solv.prm

>  <Rbt.Receptor>
prm/pocket_docking_2.prm

>  <SCORE>
-15.6572

>  <SCORE.INTER>
-14.6879

>  <SCORE.INTER.CONST>
1

>  <SCORE.INTER.POLAR>
-1.13887

>  <SCORE.INTER.ROT>
6

>  <SCORE.INTER.SOLV>
15.4349

>  <SCORE.INTER.VDW>
-18.7407

>  <SCORE.INTER.norm>
-0.473803

>  <SCORE.INTRA>
-1.04468

>  <SCORE.INTRA.DIHEDRAL>
-2.5617

>  <SCORE.INTRA.DIHEDRAL.0>
9.37739

>  <SCORE.INTRA.POLAR>
0

>  <SCORE.INTRA.POLAR.0>
0

>  <SCORE.INTRA.REPUL>
0

>  <SCORE.INTRA.REPUL.0>
0

>  <SCORE.INTRA.SOLV>
-0.453229

>  <SCORE.INTRA.SOLV.lig_0>
-82.9274

>  <SCORE.INTRA.VDW>
0.462783

>  <SCORE.INTRA.VDW.0>
-3.84922

>  <SCORE.INTRA.norm>
-0.0336994

>  <SCORE.RESTR>
0.0753557

>  <SCORE.RESTR.CAVITY>
0.0753557

>  <SCORE.RESTR.norm>
0.00243083

>  <SCORE.SYSTEM>
0

>  <SCORE.SYSTEM.CONST>
0

>  <SCORE.SYSTEM.DIHEDRAL>
0

>  <SCORE.SYSTEM.SOLV>
0

>  <SCORE.SYSTEM.norm>
0

>  <SCORE.heavy>
31

>  <SCORE.norm>
-0.505071

>  <RMSD>
0.785

$$$$
2o3x_lig
 OpenBabel11021811463D
libRbt.so/2013.1/901 2013/11/27
 31 33  0  0  0  0  0  0  0  0999 V2000
   20.3709    9.4866    5.1080 C   0  0  2  0  0  0  0  0  0  0  0  0
   21.3325    8.5424    4.6188 O   0  0  0  0  0  0  0  0  0  0  0  0
   24.6443    6.5130    6.4110 C   0  0  2  0  0  0  0  0  0  0  0  0
   25.8591    6.1944    7.1933 N   0  0  0  0  0  0  0  0  0  0  0  0
   20.8670    7.8056    8.7078 C   0  0  1  0  0  0  0  0  0  0  0  0
   19.0018    9.1996    4.4139 C   0  0  2  0  0  0  0  0  0  0  0  0
   18.6442    7.7587    4.4565 N   0  0  0  0  0  0  0  0  0  0  0  0
   24.9450    7.4975    5.2321 C   0  0  0  0  0  0  0  0  0  0  0  0
   19.9618    8.8167    9.4853 C   0  0  2  0  0  0  0  0  0  0  0  0
   20.6367    9.6562   10.4620 O   0  0  0  0  0  0  0  0  0  0  0  0
   19.0079    9.6456    2.9395 C   0  0  1  0  0  0  0  0  0  0  0  0
   17.7516    9.4247    2.3504 O   0  0  0  0  0  0  0  0  0  0  0  0
   23.6056    7.7488    4.4477 C   0  0  2  0  0  0  0  0  0  0  0  0
   23.8119    8.6684    3.2888 N   0  0  0  0  0  0  0  0  0  0  0  0
   18.9516    7.8256   10.0388 C   0  0  2  0  0  0  0  0  0  0  0  0
   19.4858    7.1281   11.2160 O   0  0  0  0  0  0  0  0  0  0  0  0
   19.3878   11.1140    2.8499 C   0  0  2  0  0  0  0  0  0  0  0  0
   19.3716   11.5251    1.5208 O   0  0  0  0  0  0  0  0  0  0  0  0
   22.5326    8.3711    5.3861 C   0  0  2  0  0  0  0  0  0  0  0  0
   18.7065    6.8514    8.8925 C   0  0  2  0  0  0  0  0  0  0  0  0
   20.0335    6.6811    8.4019 O   0  0  0  0  0  0  0  0  0  0  0  0
   20.7992   11.3349    3.4636 C   0  0  2  0  0  0  0  0  0  0  0  0
   20.8067   10.8904    4.8374 O   0  0  0  0  0  0  0  0  0  0  0  0
   22.2393    7.5109    6.6312 C   0  0  2  0  0  0  0  0  0  0  0  0
   21.4126    8.3614    7.5013 O   0  0  0  0  0  0  0  0  0  0  0  0
   17.7646    7.3869    7.7614 C   0  0  0  0  0  0  0  0  0  0  0  0
   16.4454    7.5679    8.2682 N   0  0  0  0  0  0  0  0  0  0  0  0
   21.2276   12.7834    3.4216 C   0  0  0  0  0  0  0  0  0  0  0  0
   22.5985   12.9042    3.3029 O   0  0  0  0  0  0  0  0  0  0  0  0
   23.5979    7.1188    7.3636 C   0  0  1  0  0  0  0  0  0  0  0  0
   23.3760    6.1427    8.3928 O   0  0  0  0  0  0  0  0  0  0  0  0
  1  2  1  6  0  0  0
  1  6  1  0  0  0  0
  1 23  1  0  0  0  0
  3  4  1  1  0  0  0
  3  8  1  0  0  0  0
  3 30  1  0  0  0  0
  5  9  1  0  0  0  0
  5 21  1  0  0  0  0
  5 25  1  6  0  0  0
  6  7  1  6  0  0  0
  6 11  1  0  0  0  0
  8 13  1  0  0  0  0
  9 10  1  1  0  0  0
  9 15  1  0  0  0  0
 11 12  1  1  0  0  0
 11 17  1  0  0  0  0
 13 14  1  6  0  0  0
 13 19  1  0  0  0  0
 15 16  1  1  0  0  0
 15 20  1  0  0  0  0
 17 18  1  6  0  0  0
 17 22  1  0  0  0  0
 19  2  1  6  0  0  0
 19 24  1  0  0  0  0
 20 21  1  0  0  0  0
 20 26  1  6  0  0  0
 22 23  1  0  0  0  0
 22 28  1  1  0  0  0
 24 25  1  1  0  0  0
 24 30  1  0  0  0  0
 26 27  1  0  0  0  0
 28 29  1  0  0  0  0
 30 31  1  1  0  0  0
M  END
>  <CHROM.1>
-162.50706461,-177.40942885,-159.46383696,-66.14339516,-149.29202457,174.61841936
20.92835292,8.68528760,6.08214184,1.60736198,0.22548722,-1.05319578

>  <Name>
2o3x_lig

>  <RI>
0

>  <Rbt.Current_Directory>
/home/itssahil/PROJECTS/Mol_Feturizer/New_Systems/rnas/2o3x

>  <Rbt.Executable>
rbdock ($Id: //depot/dev/client3/rdock/2013.1/src/exe/rbdock.cxx#4 $)

>  <Rbt.Library>
libRbt.so (2013.1, Build901 2013/11/27)

>  <Rbt.Parameter_File>
/export/apps/rDock/src/rDock_2013.1_src/data/scripts/dock_solv.prm

>  <Rbt.Receptor>
prm/pocket_docking_3.prm

>  <SCORE>
-19.597

>  <SCORE.INTER>
-17.8759

>  <SCORE.INTER.CONST>
1

>  <SCORE.INTER.POLAR>
-1.64276

>  <SCORE.INTER.ROT>
6

>  <SCORE.INTER.SOLV>
18.5952

>  <SCORE.INTER.VDW>
-20.2398

>  <SCORE.INTER.norm>
-0.576642

>  <SCORE.INTRA>
-1.7211

>  <SCORE.INTRA.DIHEDRAL>
-2.86402

>  <SCORE.INTRA.DIHEDRAL.0>
9.37739

>  <SCORE.INTRA.POLAR>
0

>  <SCORE.INTRA.POLAR.0>
0

>  <SCORE.INTRA.REPUL>
0

>  <SCORE.INTRA.REPUL.0>
0

>  <SCORE.INTRA.SOLV>
-1.59787

>  <SCORE.INTRA.SOLV.lig_0>
-82.9274

>  <SCORE.INTRA.VDW>
0.509841

>  <SCORE.INTRA.VDW.0>
-3.84922

>  <SCORE.INTRA.norm>
-0.0555195

>  <SCORE.RESTR>
0

>  <SCORE.RESTR.CAVITY>
0

>  <SCORE.RESTR.norm>
0

>  <SCORE.SYSTEM>
0

>  <SCORE.SYSTEM.CONST>
0

>  <SCORE.SYSTEM.DIHEDRAL>
0

>  <SCORE.SYSTEM.SOLV>
0

>  <SCORE.SYSTEM.norm>
0

>  <SCORE.heavy>
31

>  <SCORE.norm>
-0.632162

>  <RMSD>
0.803

$$$$
2o3x_lig
 OpenBabel11021811463D
libRbt.so/2013.1/901 2013/11/27
 31 33  0  0  0  0  0  0  0  0999 V2000
   20.3926    9.5354    5.1864 C   0  0  2  0  0  0  0  0  0  0  0  0
   21.3069    8.5467    4.6943 O   0  0  0  0  0  0  0  0  0  0  0  0
   24.6956    6.4999    6.3145 C   0  0  2  0  0  0  0  0  0  0  0  0
   25.9356    6.1694    7.0512 N   0  0  0  0  0  0  0  0  0  0  0  0
   21.0146    7.6548    8.7905 C   0  0  1  0  0  0  0  0  0  0  0  0
   18.9856    9.2554    4.5695 C   0  0  2  0  0  0  0  0  0  0  0  0
   18.5957    7.8274    4.6907 N   0  0  0  0  0  0  0  0  0  0  0  0
   24.9499    7.5365    5.1699 C   0  0  0  0  0  0  0  0  0  0  0  0
   20.0462    8.5841    9.5935 C   0  0  2  0  0  0  0  0  0  0  0  0
   20.6729    9.4895   10.5432 O   0  0  0  0  0  0  0  0  0  0  0  0
   18.9326    9.6388    3.0785 C   0  0  1  0  0  0  0  0  0  0  0  0
   17.6448    9.4263    2.5583 O   0  0  0  0  0  0  0  0  0  0  0  0
   23.5864    7.7979    4.4316 C   0  0  2  0  0  0  0  0  0  0  0  0
   23.7477    8.7673    3.3067 N   0  0  0  0  0  0  0  0  0  0  0  0
   19.1507    7.5085   10.1850 C   0  0  2  0  0  0  0  0  0  0  0  0
   19.7855    6.8720   11.3467 O   0  0  0  0  0  0  0  0  0  0  0  0
   19.3431   11.0918    2.9081 C   0  0  2  0  0  0  0  0  0  0  0  0
   19.2739   11.4470    1.5647 O   0  0  0  0  0  0  0  0  0  0  0  0
   22.5295    8.3637    5.4225 C   0  0  2  0  0  0  0  0  0  0  0  0
   18.9586    6.5073    9.0520 C   0  0  2  0  0  0  0  0  0  0  0  0
   20.2787    6.4561    8.5178 O   0  0  0  0  0  0  0  0  0  0  0  0
   20.7870   11.3012    3.4457 C   0  0  2  0  0  0  0  0  0  0  0  0
   20.8489   10.9147    4.8355 O   0  0  0  0  0  0  0  0  0  0  0  0
   22.2825    7.4486    6.6382 C   0  0  2  0  0  0  0  0  0  0  0  0
   21.4665    8.2493    7.5639 O   0  0  0  0  0  0  0  0  0  0  0  0
   17.9344    6.9453    7.9508 C   0  0  0  0  0  0  0  0  0  0  0  0
   16.6313    7.0644    8.5143 N   0  0  0  0  0  0  0  0  0  0  0  0
   21.2478   12.7350    3.3214 C   0  0  0  0  0  0  0  0  0  0  0  0
   22.6251   12.8225    3.2640 O   0  0  0  0  0  0  0  0  0  0  0  0
   23.6659    7.0491    7.3183 C   0  0  1  0  0  0  0  0  0  0  0  0
   23.4864    6.0283    8.3117 O   0  0  0  0  0  0  0  0  0  0  0  0
  1  2  1  6  0  0  0
  1  6  1  0  0  0  0
  1 23  1  0  0  0  0
  3  4  1  1  0  0  0
  3  8  1  0  0  0  0
  3 30  1  0  0  0  0
  5  9  1  0  0  0  0
  5 21  1  0  0  0  0
  5 25  1  6  0  0  0
  6  7  1  6  0  0  0
  6 11  1  0  0  0  0
  8 13  1  0  0  0  0
  9 10  1  1  0  0  0
  9 15  1  0  0  0  0
 11 12  1  1  0  0  0
 11 17  1  0  0  0  0
 13 14  1  6  0  0  0
 13 19  1  0  0  0  0
 15 16  1  1  0  0  0
 15 20  1  0  0  0  0
 17 18  1  6  0  0  0
 17 22  1  0  0  0  0
 19  2  1  6  0  0  0
 19 24  1  0  0  0  0
 20 21  1  0  0  0  0
 20 26  1  6  0  0  0
 22 23  1  0  0  0  0
 22 28  1  1  0  0  0
 24 25  1  1  0  0  0
 24 30  1  0  0  0  0
 26 27  1  0  0  0  0
 28 29  1  0  0  0  0
 30 31  1  1  0  0  0
M  END
>  <CHROM.1>
-161.68142206,-174.33962858,-154.42482558,-63.63081335,-155.11756417,177.53586952
20.98113860,8.59026860,6.13948239,1.60790533,0.20765144,-1.02923525

>  <Name>
2o3x_lig

>  <RI>
0

>  <Rbt.Current_Directory>
/home/itssahil/PROJECTS/Mol_Feturizer/New_Systems/rnas/2o3x

>  <Rbt.Executable>
rbdock ($Id: //depot/dev/client3/rdock/2013.1/src/exe/rbdock.cxx#4 $)

>  <Rbt.Library>
libRbt.so (2013.1, Build901 2013/11/27)

>  <Rbt.Parameter_File>
/export/apps/rDock/src/rDock_2013.1_src/data/scripts/dock_solv.prm

>  <Rbt.Receptor>
prm/pocket_docking_3.prm

>  <SCORE>
-19.6622

>  <SCORE.INTER>
-18.1831

>  <SCORE.INTER.CONST>
1

>  <SCORE.INTER.POLAR>
-1.6426

>  <SCORE.INTER.ROT>
6

>  <SCORE.INTER.SOLV>
17.8392

>  <SCORE.INTER.VDW>
-20.1931

>  <SCORE.INTER.norm>
-0.586551

>  <SCORE.INTRA>
-1.49198

>  <SCORE.INTRA.DIHEDRAL>
-2.73789

>  <SCORE.INTRA.DIHEDRAL.0>
9.37739

>  <SCORE.INTRA.POLAR>
0

>  <SCORE.INTRA.POLAR.0>
0

>  <SCORE.INTRA.REPUL>
0

>  <SCORE.INTRA.REPUL.0>
0

>  <SCORE.INTRA.SOLV>
-1.17755

>  <SCORE.INTRA.SOLV.lig_0>
-82.9274

>  <SCORE.INTRA.VDW>
0.465741

>  <SCORE.INTRA.VDW.0>
-3.84922

>  <SCORE.INTRA.norm>
-0.0481282

>  <SCORE.RESTR>
0.012875

>  <SCORE.RESTR.CAVITY>
0.012875

>  <SCORE.RESTR.norm>
0.000415323

>  <SCORE.SYSTEM>
0

>  <SCORE.SYSTEM.CONST>
0

>  <SCORE.SYSTEM.DIHEDRAL>
0

>  <SCORE.SYSTEM.SOLV>
0

>  <SCORE.SYSTEM.norm>
0

>  <SCORE.heavy>
31

>  <SCORE.norm>
-0.634264

>  <RMSD>
0.813

$$$$
2o3x_lig
 OpenBabel11021811463D
libRbt.so/2013.1/901 2013/11/27
 31 33  0  0  0  0  0  0  0  0999 V2000
   20.3901    9.5820    5.0596 C   0  0  2  0  0  0  0  0  0  0  0  0
   21.3430    8.6263    4.5757 O   0  0  0  0  0  0  0  0  0  0  0  0
   24.4509    6.4085    6.5044 C   0  0  2  0  0  0  0  0  0  0  0  0
   25.6143    6.0213    7.3326 N   0  0  0  0  0  0  0  0  0  0  0  0
   20.6668    7.9640    8.6387 C   0  0  1  0  0  0  0  0  0  0  0  0
   19.0180    9.3027    4.3684 C   0  0  2  0  0  0  0  0  0  0  0  0
   18.6477    7.8654    4.4203 N   0  0  0  0  0  0  0  0  0  0  0  0
   24.8561    7.3574    5.3276 C   0  0  0  0  0  0  0  0  0  0  0  0
   19.8375    9.0523    9.3963 C   0  0  2  0  0  0  0  0  0  0  0  0
   20.5549    9.8105   10.4086 O   0  0  0  0  0  0  0  0  0  0  0  0
   19.0269    9.7393    2.8911 C   0  0  1  0  0  0  0  0  0  0  0  0
   17.7682    9.5258    2.3043 O   0  0  0  0  0  0  0  0  0  0  0  0
   23.5643    7.6854    4.4935 C   0  0  2  0  0  0  0  0  0  0  0  0
   23.8703    8.5760    3.3339 N   0  0  0  0  0  0  0  0  0  0  0  0
   18.7139    8.1612    9.8987 C   0  0  2  0  0  0  0  0  0  0  0  0
   19.1313    7.4022   11.0850 O   0  0  0  0  0  0  0  0  0  0  0  0
   19.4196   11.2037    2.7919 C   0  0  2  0  0  0  0  0  0  0  0  0
   19.4061   11.6065    1.4602 O   0  0  0  0  0  0  0  0  0  0  0  0
   22.5018    8.3868    5.3870 C   0  0  2  0  0  0  0  0  0  0  0  0
   18.4170    7.2278    8.7309 C   0  0  2  0  0  0  0  0  0  0  0  0
   19.7381    6.9312    8.2870 O   0  0  0  0  0  0  0  0  0  0  0  0
   20.8335   11.4160    3.4032 C   0  0  2  0  0  0  0  0  0  0  0  0
   20.8381   10.9802    4.7797 O   0  0  0  0  0  0  0  0  0  0  0  0
   22.1097    7.5623    6.6290 C   0  0  2  0  0  0  0  0  0  0  0  0
   21.3101    8.4747    7.4609 O   0  0  0  0  0  0  0  0  0  0  0  0
   17.5762    7.8658    7.5735 C   0  0  0  0  0  0  0  0  0  0  0  0
   16.2861    8.2351    8.0521 N   0  0  0  0  0  0  0  0  0  0  0  0
   21.2746   12.8604    3.3517 C   0  0  0  0  0  0  0  0  0  0  0  0
   22.6504   12.9693    3.2948 O   0  0  0  0  0  0  0  0  0  0  0  0
   23.4134    7.0919    7.4132 C   0  0  1  0  0  0  0  0  0  0  0  0
   23.0926    6.1445    8.4431 O   0  0  0  0  0  0  0  0  0  0  0  0
  1  2  1  6  0  0  0
  1  6  1  0  0  0  0
  1 23  1  0  0  0  0
  3  4  1  1  0  0  0
  3  8  1  0  0  0  0
  3 30  1  0  0  0  0
  5  9  1  0  0  0  0
  5 21  1  0  0  0  0
  5 25  1  6  0  0  0
  6  7  1  6  0  0  0
  6 11  1  0  0  0  0
  8 13  1  0  0  0  0
  9 10  1  1  0  0  0
  9 15  1  0  0  0  0
 11 12  1  1  0  0  0
 11 17  1  0  0  0  0
 13 14  1  6  0  0  0
 13 19  1  0  0  0  0
 15 16  1  1  0  0  0
 15 20  1  0  0  0  0
 17 18  1  6  0  0  0
 17 22  1  0  0  0  0
 19  2  1  6  0  0  0
 19 24  1  0  0  0  0
 20 21  1  0  0  0  0
 20 26  1  6  0  0  0
 22 23  1  0  0  0  0
 22 28  1  1  0  0  0
 24 25  1  1  0  0  0
 24 30  1  0  0  0  0
 26 27  1  0  0  0  0
 28 29  1  0  0  0  0
 30 31  1  1  0  0  0
M  END
>  <CHROM.1>
-158.63382310,-178.98765945,-162.91239383,-63.17423131,-152.14014751,173.45323382
20.83604317,8.80144363,6.04071187,1.59912511,0.27473773,-1.05920446

>  <Name>
2o3x_lig

>  <RI>
0

>  <Rbt.Current_Directory>
/home/itssahil/PROJECTS/Mol_Feturizer/New_Systems/rnas/2o3x

>  <Rbt.Executable>
rbdock ($Id: //depot/dev/client3/rdock/2013.1/src/exe/rbdock.cxx#4 $)

>  <Rbt.Library>
libRbt.so (2013.1, Build901 2013/11/27)

>  <Rbt.Parameter_File>
/export/apps/rDock/src/rDock_2013.1_src/data/scripts/dock_solv.prm

>  <Rbt.Receptor>
prm/pocket_docking_3.prm

>  <SCORE>
-19.6047

>  <SCORE.INTER>
-17.917

>  <SCORE.INTER.CONST>
1

>  <SCORE.INTER.POLAR>
-1.64276

>  <SCORE.INTER.ROT>
6

>  <SCORE.INTER.SOLV>
18.279

>  <SCORE.INTER.VDW>
-20.1618

>  <SCORE.INTER.norm>
-0.577967

>  <SCORE.INTRA>
-1.68777

>  <SCORE.INTRA.DIHEDRAL>
-3.233

>  <SCORE.INTRA.DIHEDRAL.0>
9.37739

>  <SCORE.INTRA.POLAR>
0

>  <SCORE.INTRA.POLAR.0>
0

>  <SCORE.INTRA.REPUL>
0

>  <SCORE.INTRA.REPUL.0>
0

>  <SCORE.INTRA.SOLV>
-1.22453

>  <SCORE.INTRA.SOLV.lig_0>
-82.9274

>  <SCORE.INTRA.VDW>
0.540994

>  <SCORE.INTRA.VDW.0>
-3.84922

>  <SCORE.INTRA.norm>
-0.0544441

>  <SCORE.RESTR>
0

>  <SCORE.RESTR.CAVITY>
0

>  <SCORE.RESTR.norm>
0

>  <SCORE.SYSTEM>
0

>  <SCORE.SYSTEM.CONST>
0

>  <SCORE.SYSTEM.DIHEDRAL>
0

>  <SCORE.SYSTEM.SOLV>
0

>  <SCORE.SYSTEM.norm>
0

>  <SCORE.heavy>
31

>  <SCORE.norm>
-0.632411

>  <RMSD>
0.840

$$$$
2o3x_lig
 OpenBabel11021811463D
libRbt.so/2013.1/901 2013/11/27
 31 33  0  0  0  0  0  0  0  0999 V2000
   20.3175    9.3676    5.1582 C   0  0  2  0  0  0  0  0  0  0  0  0
   21.2928    8.4319    4.6800 O   0  0  0  0  0  0  0  0  0  0  0  0
   24.6332    6.4707    6.4948 C   0  0  2  0  0  0  0  0  0  0  0  0
   25.8521    6.1783    7.2810 N   0  0  0  0  0  0  0  0  0  0  0  0
   20.8716    7.7443    8.7977 C   0  0  1  0  0  0  0  0  0  0  0  0
   18.9709    9.0985    4.4148 C   0  0  2  0  0  0  0  0  0  0  0  0
   18.6098    7.6579    4.4153 N   0  0  0  0  0  0  0  0  0  0  0  0
   24.9200    7.4473    5.3060 C   0  0  0  0  0  0  0  0  0  0  0  0
   19.9634    8.7540    9.5735 C   0  0  2  0  0  0  0  0  0  0  0  0
   20.6435    9.6325   10.5116 O   0  0  0  0  0  0  0  0  0  0  0  0
   19.0249    9.5756    2.9511 C   0  0  1  0  0  0  0  0  0  0  0  0
   17.7877    9.3701    2.3176 O   0  0  0  0  0  0  0  0  0  0  0  0
   23.5776    7.6706    4.5183 C   0  0  2  0  0  0  0  0  0  0  0  0
   23.7709    8.5812    3.3501 N   0  0  0  0  0  0  0  0  0  0  0  0
   18.9906    7.7549   10.1769 C   0  0  2  0  0  0  0  0  0  0  0  0
   19.5702    7.0990   11.3566 O   0  0  0  0  0  0  0  0  0  0  0  0
   19.4097   11.0448    2.9049 C   0  0  2  0  0  0  0  0  0  0  0  0
   19.4368   11.4840    1.5850 O   0  0  0  0  0  0  0  0  0  0  0  0
   22.4948    8.2864    5.4497 C   0  0  2  0  0  0  0  0  0  0  0  0
   18.7389    6.7472    9.0615 C   0  0  2  0  0  0  0  0  0  0  0  0
   20.0565    6.5942    8.5410 O   0  0  0  0  0  0  0  0  0  0  0  0
   20.8012   11.2494    3.5680 C   0  0  2  0  0  0  0  0  0  0  0  0
   20.7640   10.7759    4.9315 O   0  0  0  0  0  0  0  0  0  0  0  0
   22.2135    7.4348    6.7035 C   0  0  2  0  0  0  0  0  0  0  0  0
   21.3736    8.2818    7.5643 O   0  0  0  0  0  0  0  0  0  0  0  0
   17.7566    7.2332    7.9424 C   0  0  0  0  0  0  0  0  0  0  0  0
   18.2018    8.4760    7.4065 N   0  0  0  0  0  0  0  0  0  0  0  0
   21.2330   12.6975    3.5705 C   0  0  0  0  0  0  0  0  0  0  0  0
   21.4779   13.1566    2.2909 O   0  0  0  0  0  0  0  0  0  0  0  0
   23.5772    7.0705    7.4406 C   0  0  1  0  0  0  0  0  0  0  0  0
   23.3692    6.1019    8.4797 O   0  0  0  0  0  0  0  0  0  0  0  0
  1  2  1  6  0  0  0
  1  6  1  0  0  0  0
  1 23  1  0  0  0  0
  3  4  1  1  0  0  0
  3  8  1  0  0  0  0
  3 30  1  0  0  0  0
  5  9  1  0  0  0  0
  5 21  1  0  0  0  0
  5 25  1  6  0  0  0
  6  7  1  6  0  0  0
  6 11  1  0  0  0  0
  8 13  1  0  0  0  0
  9 10  1  1  0  0  0
  9 15  1  0  0  0  0
 11 12  1  1  0  0  0
 11 17  1  0  0  0  0
 13 14  1  6  0  0  0
 13 19  1  0  0  0  0
 15 16  1  1  0  0  0
 15 20  1  0  0  0  0
 17 18  1  6  0  0  0
 17 22  1  0  0  0  0
 19  2  1  6  0  0  0
 19 24  1  0  0  0  0
 20 21  1  0  0  0  0
 20 26  1  6  0  0  0
 22 23  1  0  0  0  0
 22 28  1  1  0  0  0
 24 25  1  1  0  0  0
 24 30  1  0  0  0  0
 26 27  1  0  0  0  0
 28 29  1  0  0  0  0
 30 31  1  1  0  0  0
M  END
>  <CHROM.1>
-165.26038551,-178.29187358,-159.39871489,54.24429433,-67.17696775,176.63896736
20.94052619,8.65477348,6.09021992,1.69645939,0.28594756,-1.07485237

>  <Name>
2o3x_lig

>  <RI>
0

>  <Rbt.Current_Directory>
/home/itssahil/PROJECTS/Mol_Feturizer/New_Systems/rnas/2o3x

>  <Rbt.Executable>
rbdock ($Id: //depot/dev/client3/rdock/2013.1/src/exe/rbdock.cxx#4 $)

>  <Rbt.Library>
libRbt.so (2013.1, Build901 2013/11/27)

>  <Rbt.Parameter_File>
/export/apps/rDock/src/rDock_2013.1_src/data/scripts/dock_solv.prm

>  <Rbt.Receptor>
prm/pocket_docking_3.prm

>  <SCORE>
-17.9402

>  <SCORE.INTER>
-17.9088

>  <SCORE.INTER.CONST>
1

>  <SCORE.INTER.POLAR>
-1.64276

>  <SCORE.INTER.ROT>
6

>  <SCORE.INTER.SOLV>
18.1765

>  <SCORE.INTER.VDW>
-20.1222

>  <SCORE.INTER.norm>
-0.577703

>  <SCORE.INTRA>
-0.031424

>  <SCORE.INTRA.DIHEDRAL>
-5.92277

>  <SCORE.INTRA.DIHEDRAL.0>
9.37739

>  <SCORE.INTRA.POLAR>
0

>  <SCORE.INTRA.POLAR.0>
0

>  <SCORE.INTRA.REPUL>
0

>  <SCORE.INTRA.REPUL.0>
0

>  <SCORE.INTRA.SOLV>
4.78491

>  <SCORE.INTRA.SOLV.lig_0>
-82.9274

>  <SCORE.INTRA.VDW>
0.537508

>  <SCORE.INTRA.VDW.0>
-3.84922

>  <SCORE.INTRA.norm>
-0.00101368

>  <SCORE.RESTR>
0

>  <SCORE.RESTR.CAVITY>
0

>  <SCORE.RESTR.norm>
0

>  <SCORE.SYSTEM>
0

>  <SCORE.SYSTEM.CONST>
0

>  <SCORE.SYSTEM.DIHEDRAL>
0

>  <SCORE.SYSTEM.SOLV>
0

>  <SCORE.SYSTEM.norm>
0

>  <SCORE.heavy>
31

>  <SCORE.norm>
-0.578717

>  <RMSD>
0.885

$$$$
2o3x_lig
 OpenBabel11021811463D
libRbt.so/2013.1/901 2013/11/27
 31 33  0  0  0  0  0  0  0  0999 V2000
   20.1407    9.1979    5.3540 C   0  0  2  0  0  0  0  0  0  0  0  0
   21.0988    8.2296    4.9069 O   0  0  0  0  0  0  0  0  0  0  0  0
   24.4453    6.2973    6.7413 C   0  0  2  0  0  0  0  0  0  0  0  0
   25.6672    6.0175    7.5275 N   0  0  0  0  0  0  0  0  0  0  0  0
   20.7700    7.6454    9.0783 C   0  0  1  0  0  0  0  0  0  0  0  0
   18.7787    8.9054    4.6483 C   0  0  2  0  0  0  0  0  0  0  0  0
   18.4045    7.4703    4.7275 N   0  0  0  0  0  0  0  0  0  0  0  0
   24.7279    7.2536    5.5351 C   0  0  0  0  0  0  0  0  0  0  0  0
   19.9154    8.6906    9.8678 C   0  0  2  0  0  0  0  0  0  0  0  0
   20.6561    9.6057   10.7212 O   0  0  0  0  0  0  0  0  0  0  0  0
   18.8113    9.3078    3.1617 C   0  0  1  0  0  0  0  0  0  0  0  0
   17.5613    9.0832    2.5606 O   0  0  0  0  0  0  0  0  0  0  0  0
   23.3825    7.4644    4.7490 C   0  0  2  0  0  0  0  0  0  0  0  0
   23.5717    8.3551    3.5649 N   0  0  0  0  0  0  0  0  0  0  0  0
   18.9831    7.7216   10.5755 C   0  0  2  0  0  0  0  0  0  0  0  0
   19.6380    7.1144   11.7418 O   0  0  0  0  0  0  0  0  0  0  0  0
   19.2087   10.7689    3.0350 C   0  0  2  0  0  0  0  0  0  0  0  0
   19.2165   11.1410    1.6944 O   0  0  0  0  0  0  0  0  0  0  0  0
   22.3038    8.0964    5.6742 C   0  0  2  0  0  0  0  0  0  0  0  0
   18.6582    6.6683    9.5229 C   0  0  2  0  0  0  0  0  0  0  0  0
   19.9389    6.4884    8.9246 O   0  0  0  0  0  0  0  0  0  0  0  0
   20.6135   10.9926    3.6630 C   0  0  2  0  0  0  0  0  0  0  0  0
   20.5960   10.5885    5.0491 O   0  0  0  0  0  0  0  0  0  0  0  0
   22.0269    7.2662    6.9432 C   0  0  2  0  0  0  0  0  0  0  0  0
   21.1909    8.1280    7.7930 O   0  0  0  0  0  0  0  0  0  0  0  0
   17.6054    7.1098    8.4506 C   0  0  0  0  0  0  0  0  0  0  0  0
   17.2474    6.0010    7.6307 N   0  0  0  0  0  0  0  0  0  0  0  0
   21.0585   12.4345    3.5851 C   0  0  0  0  0  0  0  0  0  0  0  0
   20.8214   13.1038    4.7699 O   0  0  0  0  0  0  0  0  0  0  0  0
   23.3934    6.9136    7.6810 C   0  0  1  0  0  0  0  0  0  0  0  0
   23.1890    5.9627    8.7370 O   0  0  0  0  0  0  0  0  0  0  0  0
  1  2  1  6  0  0  0
  1  6  1  0  0  0  0
  1 23  1  0  0  0  0
  3  4  1  1  0  0  0
  3  8  1  0  0  0  0
  3 30  1  0  0  0  0
  5  9  1  0  0  0  0
  5 21  1  0  0  0  0
  5 25  1  6  0  0  0
  6  7  1  6  0  0  0
  6 11  1  0  0  0  0
  8 13  1  0  0  0  0
  9 10  1  1  0  0  0
  9 15  1  0  0  0  0
 11 12  1  1  0  0  0
 11 17  1  0  0  0  0
 13 14  1  6  0  0  0
 13 19  1  0  0  0  0
 15 16  1  1  0  0  0
 15 20  1  0  0  0  0
 17 18  1  6  0  0  0
 17 22  1  0  0  0  0
 19  2  1  6  0  0  0
 19 24  1  0  0  0  0
 20 21  1  0  0  0  0
 20 26  1  6  0  0  0
 22 23  1  0  0  0  0
 22 28  1  1  0  0  0
 24 25  1  1  0  0  0
 24 30  1  0  0  0  0
 26 27  1  0  0  0  0
 28 29  1  0  0  0  0
 30 31  1  1  0  0  0
M  END
>  <CHROM.1>
-164.32501870,178.77359581,-157.86459117,-172.33644615,98.05400646,-179.10391396
20.74350137,8.41647193,6.41743164,1.71664115,0.25546220,-1.09130113

>  <Name>
2o3x_lig

>  <RI>
0

>  <Rbt.Current_Directory>
/home/itssahil/PROJECTS/Mol_Feturizer/New_Systems/rnas/2o3x

>  <Rbt.Executable>
rbdock ($Id: //depot/dev/client3/rdock/2013.1/src/exe/rbdock.cxx#4 $)

>  <Rbt.Library>
libRbt.so (2013.1, Build901 2013/11/27)

>  <Rbt.Parameter_File>
/export/apps/rDock/src/rDock_2013.1_src/data/scripts/dock_solv.prm

>  <Rbt.Receptor>
prm/pocket_docking_3.prm

>  <SCORE>
-16.345

>  <SCORE.INTER>
-15.9394

>  <SCORE.INTER.CONST>
1

>  <SCORE.INTER.POLAR>
-1.70773

>  <SCORE.INTER.ROT>
6

>  <SCORE.INTER.SOLV>
18.5267

>  <SCORE.INTER.VDW>
-18.7094

>  <SCORE.INTER.norm>
-0.514173

>  <SCORE.INTRA>
-0.409489

>  <SCORE.INTRA.DIHEDRAL>
-2.00014

>  <SCORE.INTRA.DIHEDRAL.0>
9.37739

>  <SCORE.INTRA.POLAR>
0

>  <SCORE.INTRA.POLAR.0>
0

>  <SCORE.INTRA.REPUL>
0

>  <SCORE.INTRA.REPUL.0>
0

>  <SCORE.INTRA.SOLV>
-0.634347

>  <SCORE.INTRA.SOLV.lig_0>
-82.9274

>  <SCORE.INTRA.VDW>
0.907753

>  <SCORE.INTRA.VDW.0>
-3.84922

>  <SCORE.INTRA.norm>
-0.0132093

>  <SCORE.RESTR>
0.0038087

>  <SCORE.RESTR.CAVITY>
0.0038087

>  <SCORE.RESTR.norm>
0.000122861

>  <SCORE.SYSTEM>
0

>  <SCORE.SYSTEM.CONST>
0

>  <SCORE.SYSTEM.DIHEDRAL>
0

>  <SCORE.SYSTEM.SOLV>
0

>  <SCORE.SYSTEM.norm>
0

>  <SCORE.heavy>
31

>  <SCORE.norm>
-0.527259

>  <RMSD>
0.890

$$$$
2o3x_lig
 OpenBabel11021811463D
libRbt.so/2013.1/901 2013/11/27
 31 33  0  0  0  0  0  0  0  0999 V2000
   20.3654    9.4770    5.0484 C   0  0  2  0  0  0  0  0  0  0  0  0
   21.3495    8.5437    4.5834 O   0  0  0  0  0  0  0  0  0  0  0  0
   24.5525    6.5000    6.5487 C   0  0  2  0  0  0  0  0  0  0  0  0
   25.7362    6.1807    7.3771 N   0  0  0  0  0  0  0  0  0  0  0  0
   20.6962    7.9707    8.6469 C   0  0  1  0  0  0  0  0  0  0  0  0
   19.0327    9.2117    4.2791 C   0  0  2  0  0  0  0  0  0  0  0  0
   18.6718    7.7710    4.2656 N   0  0  0  0  0  0  0  0  0  0  0  0
   24.9128    7.4265    5.3399 C   0  0  0  0  0  0  0  0  0  0  0  0
   19.8689    9.0622    9.4022 C   0  0  2  0  0  0  0  0  0  0  0  0
   20.5858    9.8163   10.4180 O   0  0  0  0  0  0  0  0  0  0  0  0
   19.1135    9.6962    2.8191 C   0  0  1  0  0  0  0  0  0  0  0  0
   17.8882    9.4939    2.1619 O   0  0  0  0  0  0  0  0  0  0  0  0
   23.6028    7.6818    4.5086 C   0  0  2  0  0  0  0  0  0  0  0  0
   23.8664    8.5469    3.3197 N   0  0  0  0  0  0  0  0  0  0  0  0
   18.7391    8.1760    9.8993 C   0  0  2  0  0  0  0  0  0  0  0  0
   19.1482    7.4140   11.0866 O   0  0  0  0  0  0  0  0  0  0  0  0
   19.4990   11.1656    2.7874 C   0  0  2  0  0  0  0  0  0  0  0  0
   19.5502   11.6115    1.4705 O   0  0  0  0  0  0  0  0  0  0  0  0
   22.5231    8.3713    5.3905 C   0  0  2  0  0  0  0  0  0  0  0  0
   18.4425    7.2451    8.7295 C   0  0  2  0  0  0  0  0  0  0  0  0
   19.7640    6.9426    8.2906 O   0  0  0  0  0  0  0  0  0  0  0  0
   20.8780   11.3669    3.4769 C   0  0  2  0  0  0  0  0  0  0  0  0
   20.8159   10.8864    4.8371 O   0  0  0  0  0  0  0  0  0  0  0  0
   22.1718    7.5715    6.6607 C   0  0  2  0  0  0  0  0  0  0  0  0
   21.3466    8.4795    7.4721 O   0  0  0  0  0  0  0  0  0  0  0  0
   17.6094    7.8880    7.5693 C   0  0  0  0  0  0  0  0  0  0  0  0
   16.3152    8.2527    8.0402 N   0  0  0  0  0  0  0  0  0  0  0  0
   21.3095   12.8149    3.4947 C   0  0  0  0  0  0  0  0  0  0  0  0
   21.5686   13.2832    2.2213 O   0  0  0  0  0  0  0  0  0  0  0  0
   23.4984    7.1729    7.4463 C   0  0  1  0  0  0  0  0  0  0  0  0
   23.2211    6.2465    8.5074 O   0  0  0  0  0  0  0  0  0  0  0  0
  1  2  1  6  0  0  0
  1  6  1  0  0  0  0
  1 23  1  0  0  0  0
  3  4  1  1  0  0  0
  3  8  1  0  0  0  0
  3 30  1  0  0  0  0
  5  9  1  0  0  0  0
  5 21  1  0  0  0  0
  5 25  1  6  0  0  0
  6  7  1  6  0  0  0
  6 11  1  0  0  0  0
  8 13  1  0  0  0  0
  9 10  1  1  0  0  0
  9 15  1  0  0  0  0
 11 12  1  1  0  0  0
 11 17  1  0  0  0  0
 13 14  1  6  0  0  0
 13 19  1  0  0  0  0
 15 16  1  1  0  0  0
 15 20  1  0  0  0  0
 17 18  1  6  0  0  0
 17 22  1  0  0  0  0
 19  2  1  6  0  0  0
 19 24  1  0  0  0  0
 20 21  1  0  0  0  0
 20 26  1  6  0  0  0
 22 23  1  0  0  0  0
 22 28  1  1  0  0  0
 24 25  1  1  0  0  0
 24 30  1  0  0  0  0
 26 27  1  0  0  0  0
 28 29  1  0  0  0  0
 30 31  1  1  0  0  0
M  END
>  <CHROM.1>
-163.84839555,179.53830027,-163.01354356,-63.65924888,-66.74915330,171.40332856
20.84218825,8.81016721,6.00413316,1.63796939,0.28394568,-1.07654019

>  <Name>
2o3x_lig

>  <RI>
0

>  <Rbt.Current_Directory>
/home/itssahil/PROJECTS/Mol_Feturizer/New_Systems/rnas/2o3x

>  <Rbt.Executable>
rbdock ($Id: //depot/dev/client3/rdock/2013.1/src/exe/rbdock.cxx#4 $)

>  <Rbt.Library>
libRbt.so (2013.1, Build901 2013/11/27)

>  <Rbt.Parameter_File>
/export/apps/rDock/src/rDock_2013.1_src/data/scripts/dock_solv.prm

>  <Rbt.Receptor>
prm/pocket_docking_3.prm

>  <SCORE>
-20.9047

>  <SCORE.INTER>
-17.7955

>  <SCORE.INTER.CONST>
1

>  <SCORE.INTER.POLAR>
-1.64165

>  <SCORE.INTER.ROT>
6

>  <SCORE.INTER.SOLV>
18.7958

>  <SCORE.INTER.VDW>
-20.2568

>  <SCORE.INTER.norm>
-0.574049

>  <SCORE.INTRA>
-3.10921

>  <SCORE.INTRA.DIHEDRAL>
-6.09353

>  <SCORE.INTRA.DIHEDRAL.0>
9.37739

>  <SCORE.INTRA.POLAR>
0

>  <SCORE.INTRA.POLAR.0>
0

>  <SCORE.INTRA.REPUL>
0

>  <SCORE.INTRA.REPUL.0>
0

>  <SCORE.INTRA.SOLV>
-1.36397

>  <SCORE.INTRA.SOLV.lig_0>
-82.9274

>  <SCORE.INTRA.VDW>
0.619545

>  <SCORE.INTRA.VDW.0>
-3.84922

>  <SCORE.INTRA.norm>
-0.100297

>  <SCORE.RESTR>
0

>  <SCORE.RESTR.CAVITY>
0

>  <SCORE.RESTR.norm>
0

>  <SCORE.SYSTEM>
0

>  <SCORE.SYSTEM.CONST>
0

>  <SCORE.SYSTEM.DIHEDRAL>
0

>  <SCORE.SYSTEM.SOLV>
0

>  <SCORE.SYSTEM.norm>
0

>  <SCORE.heavy>
31

>  <SCORE.norm>
-0.674346

>  <RMSD>
0.901

$$$$
2o3x_lig
 OpenBabel11021811463D
libRbt.so/2013.1/901 2013/11/27
 31 33  0  0  0  0  0  0  0  0999 V2000
   20.3391    9.4931    5.0327 C   0  0  2  0  0  0  0  0  0  0  0  0
   21.3200    8.5470    4.5874 O   0  0  0  0  0  0  0  0  0  0  0  0
   24.5171    6.5185    6.5778 C   0  0  2  0  0  0  0  0  0  0  0  0
   25.6960    6.2048    7.4152 N   0  0  0  0  0  0  0  0  0  0  0  0
   20.6423    7.9748    8.6486 C   0  0  1  0  0  0  0  0  0  0  0  0
   19.0213    9.2505    4.2309 C   0  0  2  0  0  0  0  0  0  0  0  0
   18.6395    7.8155    4.2030 N   0  0  0  0  0  0  0  0  0  0  0  0
   24.8824    7.4457    5.3711 C   0  0  0  0  0  0  0  0  0  0  0  0
   19.8139    9.0659    9.4032 C   0  0  2  0  0  0  0  0  0  0  0  0
   20.5288    9.8181   10.4217 O   0  0  0  0  0  0  0  0  0  0  0  0
   19.1440    9.7392    2.7752 C   0  0  1  0  0  0  0  0  0  0  0  0
   17.9317    9.5576    2.0883 O   0  0  0  0  0  0  0  0  0  0  0  0
   23.5776    7.6949    4.5299 C   0  0  2  0  0  0  0  0  0  0  0  0
   23.8462    8.5604    3.3424 N   0  0  0  0  0  0  0  0  0  0  0  0
   18.6823    8.1798    9.8964 C   0  0  2  0  0  0  0  0  0  0  0  0
   19.0880    7.4160   11.0837 O   0  0  0  0  0  0  0  0  0  0  0  0
   19.5517   11.2028    2.7586 C   0  0  2  0  0  0  0  0  0  0  0  0
   19.6408   11.6527    1.4451 O   0  0  0  0  0  0  0  0  0  0  0  0
   22.4883    8.3802    5.4033 C   0  0  2  0  0  0  0  0  0  0  0  0
   18.3879    7.2506    8.7247 C   0  0  2  0  0  0  0  0  0  0  0  0
   19.7103    6.9477    8.2887 O   0  0  0  0  0  0  0  0  0  0  0  0
   20.9168   11.3810    3.4815 C   0  0  2  0  0  0  0  0  0  0  0  0
   20.8152   10.8964    4.8379 O   0  0  0  0  0  0  0  0  0  0  0  0
   22.1311    7.5797    6.6713 C   0  0  2  0  0  0  0  0  0  0  0  0
   21.2959    8.4846    7.4760 O   0  0  0  0  0  0  0  0  0  0  0  0
   17.5581    7.8955    7.5633 C   0  0  0  0  0  0  0  0  0  0  0  0
   16.2477    8.2190    8.0194 N   0  0  0  0  0  0  0  0  0  0  0  0
   21.3692   12.8223    3.5154 C   0  0  0  0  0  0  0  0  0  0  0  0
   21.6540   13.2951    2.2492 O   0  0  0  0  0  0  0  0  0  0  0  0
   23.4535    7.1873    7.4670 C   0  0  1  0  0  0  0  0  0  0  0  0
   23.1723    6.2604    8.5267 O   0  0  0  0  0  0  0  0  0  0  0  0
  1  2  1  6  0  0  0
  1  6  1  0  0  0  0
  1 23  1  0  0  0  0
  3  4  1  1  0  0  0
  3  8  1  0  0  0  0
  3 30  1  0  0  0  0
  5  9  1  0  0  0  0
  5 21  1  0  0  0  0
  5 25  1  6  0  0  0
  6  7  1  6  0  0  0
  6 11  1  0  0  0  0
  8 13  1  0  0  0  0
  9 10  1  1  0  0  0
  9 15  1  0  0  0  0
 11 12  1  1  0  0  0
 11 17  1  0  0  0  0
 13 14  1  6  0  0  0
 13 19  1  0  0  0  0
 15 16  1  1  0  0  0
 15 20  1  0  0  0  0
 17 18  1  6  0  0  0
 17 22  1  0  0  0  0
 19  2  1  6  0  0  0
 19 24  1  0  0  0  0
 20 21  1  0  0  0  0
 20 26  1  6  0  0  0
 22 23  1  0  0  0  0
 22 28  1  1  0  0  0
 24 25  1  1  0  0  0
 24 30  1  0  0  0  0
 26 27  1  0  0  0  0
 28 29  1  0  0  0  0
 30 31  1  1  0  0  0
M  END
>  <CHROM.1>
-165.46229225,179.05906436,-161.97658040,-65.62290919,-66.21187204,171.59254769
20.82407555,8.82530909,6.00201501,1.61327288,0.27641141,-1.07198046

>  <Name>
2o3x_lig

>  <RI>
0

>  <Rbt.Current_Directory>
/home/itssahil/PROJECTS/Mol_Feturizer/New_Systems/rnas/2o3x

>  <Rbt.Executable>
rbdock ($Id: //depot/dev/client3/rdock/2013.1/src/exe/rbdock.cxx#4 $)

>  <Rbt.Library>
libRbt.so (2013.1, Build901 2013/11/27)

>  <Rbt.Parameter_File>
/export/apps/rDock/src/rDock_2013.1_src/data/scripts/dock_solv.prm

>  <Rbt.Receptor>
prm/pocket_docking_3.prm

>  <SCORE>
-20.8705

>  <SCORE.INTER>
-17.6504

>  <SCORE.INTER.CONST>
1

>  <SCORE.INTER.POLAR>
-1.63178

>  <SCORE.INTER.ROT>
6

>  <SCORE.INTER.SOLV>
18.6554

>  <SCORE.INTER.VDW>
-20.1461

>  <SCORE.INTER.norm>
-0.569367

>  <SCORE.INTRA>
-3.22012

>  <SCORE.INTRA.DIHEDRAL>
-6.12866

>  <SCORE.INTRA.DIHEDRAL.0>
9.37739

>  <SCORE.INTRA.POLAR>
0

>  <SCORE.INTRA.POLAR.0>
0

>  <SCORE.INTRA.REPUL>
0

>  <SCORE.INTRA.REPUL.0>
0

>  <SCORE.INTRA.SOLV>
-1.52798

>  <SCORE.INTRA.SOLV.lig_0>
-82.9274

>  <SCORE.INTRA.VDW>
0.608198

>  <SCORE.INTRA.VDW.0>
-3.84922

>  <SCORE.INTRA.norm>
-0.103875

>  <SCORE.RESTR>
0

>  <SCORE.RESTR.CAVITY>
0

>  <SCORE.RESTR.norm>
0

>  <SCORE.SYSTEM>
0

>  <SCORE.SYSTEM.CONST>
0

>  <SCORE.SYSTEM.DIHEDRAL>
0

>  <SCORE.SYSTEM.SOLV>
0

>  <SCORE.SYSTEM.norm>
0

>  <SCORE.heavy>
31

>  <SCORE.norm>
-0.673242

>  <RMSD>
0.915

$$$$
2o3x_lig
 OpenBabel11021811463D
libRbt.so/2013.1/901 2013/11/27
 31 33  0  0  0  0  0  0  0  0999 V2000
   20.2967    9.3272    5.4611 C   0  0  2  0  0  0  0  0  0  0  0  0
   21.2199    8.3296    5.0051 O   0  0  0  0  0  0  0  0  0  0  0  0
   23.7430    5.6851    7.2273 C   0  0  2  0  0  0  0  0  0  0  0  0
   24.7533    5.1350    8.1579 N   0  0  0  0  0  0  0  0  0  0  0  0
   20.0503    7.9050    8.9554 C   0  0  1  0  0  0  0  0  0  0  0  0
   18.8754    8.9647    4.9254 C   0  0  2  0  0  0  0  0  0  0  0  0
   18.5332    7.5398    5.1668 N   0  0  0  0  0  0  0  0  0  0  0  0
   24.3965    6.5177    6.0744 C   0  0  0  0  0  0  0  0  0  0  0  0
   19.4690    9.1437    9.7129 C   0  0  2  0  0  0  0  0  0  0  0  0
   20.2534    9.6296   10.8367 O   0  0  0  0  0  0  0  0  0  0  0  0
   18.7522    9.2348    3.4139 C   0  0  1  0  0  0  0  0  0  0  0  0
   17.4517    8.9499    2.9646 O   0  0  0  0  0  0  0  0  0  0  0  0
   23.2506    7.0306    5.1279 C   0  0  2  0  0  0  0  0  0  0  0  0
   23.7954    7.8227    3.9846 N   0  0  0  0  0  0  0  0  0  0  0  0
   18.1011    8.5734   10.0483 C   0  0  2  0  0  0  0  0  0  0  0  0
   18.1726    7.6762   11.2092 O   0  0  0  0  0  0  0  0  0  0  0  0
   19.1122   10.6816    3.1209 C   0  0  2  0  0  0  0  0  0  0  0  0
   18.9795   10.9342    1.7591 O   0  0  0  0  0  0  0  0  0  0  0  0
   22.2519    7.9254    5.9161 C   0  0  2  0  0  0  0  0  0  0  0  0
   17.6886    7.8110    8.7947 C   0  0  2  0  0  0  0  0  0  0  0  0
   18.9204    7.1836    8.4493 O   0  0  0  0  0  0  0  0  0  0  0  0
   20.5693   10.9690    3.5812 C   0  0  2  0  0  0  0  0  0  0  0  0
   20.6975   10.6885    4.9918 O   0  0  0  0  0  0  0  0  0  0  0  0
   21.6268    7.2151    7.1331 C   0  0  2  0  0  0  0  0  0  0  0  0
   20.9269    8.2723    7.8789 O   0  0  0  0  0  0  0  0  0  0  0  0
   17.1762    8.7067    7.6163 C   0  0  0  0  0  0  0  0  0  0  0  0
   15.9322    9.3079    7.9638 N   0  0  0  0  0  0  0  0  0  0  0  0
   20.9820   12.4013    3.3335 C   0  0  0  0  0  0  0  0  0  0  0  0
   20.8604   12.7415    2.0002 O   0  0  0  0  0  0  0  0  0  0  0  0
   22.7645    6.5584    8.0332 C   0  0  1  0  0  0  0  0  0  0  0  0
   22.2062    5.7088    9.0469 O   0  0  0  0  0  0  0  0  0  0  0  0
  1  2  1  6  0  0  0
  1  6  1  0  0  0  0
  1 23  1  0  0  0  0
  3  4  1  1  0  0  0
  3  8  1  0  0  0  0
  3 30  1  0  0  0  0
  5  9  1  0  0  0  0
  5 21  1  0  0  0  0
  5 25  1  6  0  0  0
  6  7  1  6  0  0  0
  6 11  1  0  0  0  0
  8 13  1  0  0  0  0
  9 10  1  1  0  0  0
  9 15  1  0  0  0  0
 11 12  1  1  0  0  0
 11 17  1  0  0  0  0
 13 14  1  6  0  0  0
 13 19  1  0  0  0  0
 15 16  1  1  0  0  0
 15 20  1  0  0  0  0
 17 18  1  6  0  0  0
 17 22  1  0  0  0  0
 19  2  1  6  0  0  0
 19 24  1  0  0  0  0
 20 21  1  0  0  0  0
 20 26  1  6  0  0  0
 22 23  1  0  0  0  0
 22 28  1  1  0  0  0
 24 25  1  1  0  0  0
 24 30  1  0  0  0  0
 26 27  1  0  0  0  0
 28 29  1  0  0  0  0
 30 31  1  1  0  0  0
M  END
>  <CHROM.1>
-141.76553149,175.70272005,-170.75990498,-67.92709505,-57.36214766,169.76952832
20.35961122,8.56172224,6.38018199,-1.71782680,-0.42357808,2.02982439

>  <Name>
2o3x_lig

>  <RI>
3.41138e+07

>  <Rbt.Current_Directory>
/home/itssahil/PROJECTS/Mol_Feturizer/New_Systems/rnas/2o3x

>  <Rbt.Executable>
rbdock ($Id: //depot/dev/client3/rdock/2013.1/src/exe/rbdock.cxx#4 $)

>  <Rbt.Library>
libRbt.so (2013.1, Build901 2013/11/27)

>  <Rbt.Parameter_File>
/export/apps/rDock/src/rDock_2013.1_src/data/scripts/dock_solv.prm

>  <Rbt.Receptor>
prm/pocket_docking_2.prm

>  <SCORE>
-13.4443

>  <SCORE.INTER>
-13.8587

>  <SCORE.INTER.CONST>
1

>  <SCORE.INTER.POLAR>
-1.16833

>  <SCORE.INTER.ROT>
6

>  <SCORE.INTER.SOLV>
14.4478

>  <SCORE.INTER.VDW>
-17.7606

>  <SCORE.INTER.norm>
-0.447054

>  <SCORE.INTRA>
0.0985461

>  <SCORE.INTRA.DIHEDRAL>
-2.83705

>  <SCORE.INTRA.DIHEDRAL.0>
9.37739

>  <SCORE.INTRA.POLAR>
0

>  <SCORE.INTRA.POLAR.0>
0

>  <SCORE.INTRA.REPUL>
0

>  <SCORE.INTRA.REPUL.0>
0

>  <SCORE.INTRA.SOLV>
0.860837

>  <SCORE.INTRA.SOLV.lig_0>
-82.9274

>  <SCORE.INTRA.VDW>
1.08665

>  <SCORE.INTRA.VDW.0>
-3.84922

>  <SCORE.INTRA.norm>
0.00317891

>  <SCORE.RESTR>
0.315834

>  <SCORE.RESTR.CAVITY>
0.315834

>  <SCORE.RESTR.norm>
0.0101882

>  <SCORE.SYSTEM>
0

>  <SCORE.SYSTEM.CONST>
0

>  <SCORE.SYSTEM.DIHEDRAL>
0

>  <SCORE.SYSTEM.SOLV>
0

>  <SCORE.SYSTEM.norm>
0

>  <SCORE.heavy>
31

>  <SCORE.norm>
-0.433687

>  <RMSD>
0.936

$$$$
2o3x_lig
 OpenBabel11021811463D
libRbt.so/2013.1/901 2013/11/27
 31 33  0  0  0  0  0  0  0  0999 V2000
   20.3362    9.4075    5.3825 C   0  0  2  0  0  0  0  0  0  0  0  0
   21.2122    8.3673    4.9285 O   0  0  0  0  0  0  0  0  0  0  0  0
   24.8244    6.5176    6.2806 C   0  0  2  0  0  0  0  0  0  0  0  0
   26.1240    6.2522    6.9365 N   0  0  0  0  0  0  0  0  0  0  0  0
   21.2781    7.3307    9.0254 C   0  0  1  0  0  0  0  0  0  0  0  0
   18.9035    9.1202    4.8319 C   0  0  2  0  0  0  0  0  0  0  0  0
   18.4878    7.7129    5.0613 N   0  0  0  0  0  0  0  0  0  0  0  0
   24.9393    7.6131    5.1689 C   0  0  0  0  0  0  0  0  0  0  0  0
   20.2354    8.1113    9.8910 C   0  0  2  0  0  0  0  0  0  0  0  0
   20.7789    9.1115   10.7957 O   0  0  0  0  0  0  0  0  0  0  0  0
   18.8080    9.4048    3.3210 C   0  0  1  0  0  0  0  0  0  0  0  0
   17.4990    9.1884    2.8584 O   0  0  0  0  0  0  0  0  0  0  0  0
   23.5217    7.8005    4.5150 C   0  0  2  0  0  0  0  0  0  0  0  0
   23.5499    8.8215    3.4250 N   0  0  0  0  0  0  0  0  0  0  0  0
   19.5549    6.9190   10.5424 C   0  0  2  0  0  0  0  0  0  0  0  0
   20.3549    6.3988   11.6592 O   0  0  0  0  0  0  0  0  0  0  0  0
   19.2431   10.8333    3.0402 C   0  0  2  0  0  0  0  0  0  0  0  0
   19.1358   11.1000    1.6790 O   0  0  0  0  0  0  0  0  0  0  0  0
   22.4833    8.2479    5.5830 C   0  0  2  0  0  0  0  0  0  0  0  0
   19.4423    5.8879    9.4257 C   0  0  2  0  0  0  0  0  0  0  0  0
   20.7163    6.0313    8.8038 O   0  0  0  0  0  0  0  0  0  0  0  0
   20.7085   11.0442    3.5153 C   0  0  2  0  0  0  0  0  0  0  0  0
   20.8094   10.7495    4.9252 O   0  0  0  0  0  0  0  0  0  0  0  0
   22.3709    7.2713    6.7704 C   0  0  2  0  0  0  0  0  0  0  0  0
   21.5519    7.9732    7.7707 O   0  0  0  0  0  0  0  0  0  0  0  0
   18.2925    6.1535    8.3957 C   0  0  0  0  0  0  0  0  0  0  0  0
   17.0279    6.1004    9.0497 N   0  0  0  0  0  0  0  0  0  0  0  0
   21.1950   12.4554    3.2802 C   0  0  0  0  0  0  0  0  0  0  0  0
   22.5702   12.5412    3.3773 O   0  0  0  0  0  0  0  0  0  0  0  0
   23.8151    6.9500    7.3594 C   0  0  1  0  0  0  0  0  0  0  0  0
   23.7651    5.8815    8.3169 O   0  0  0  0  0  0  0  0  0  0  0  0
  1  2  1  6  0  0  0
  1  6  1  0  0  0  0
  1 23  1  0  0  0  0
  3  4  1  1  0  0  0
  3  8  1  0  0  0  0
  3 30  1  0  0  0  0
  5  9  1  0  0  0  0
  5 21  1  0  0  0  0
  5 25  1  6  0  0  0
  6  7  1  6  0  0  0
  6 11  1  0  0  0  0
  8 13  1  0  0  0  0
  9 10  1  1  0  0  0
  9 15  1  0  0  0  0
 11 12  1  1  0  0  0
 11 17  1  0  0  0  0
 13 14  1  6  0  0  0
 13 19  1  0  0  0  0
 15 16  1  1  0  0  0
 15 20  1  0  0  0  0
 17 18  1  6  0  0  0
 17 22  1  0  0  0  0
 19  2  1  6  0  0  0
 19 24  1  0  0  0  0
 20 21  1  0  0  0  0
 20 26  1  6  0  0  0
 22 23  1  0  0  0  0
 22 28  1  1  0  0  0
 24 25  1  1  0  0  0
 24 30  1  0  0  0  0
 26 27  1  0  0  0  0
 28 29  1  0  0  0  0
 30 31  1  1  0  0  0
M  END
>  <CHROM.1>
-164.74733447,-171.82820108,-145.17186845,-62.73524266,-164.40217789,-178.86519611
21.07000846,8.32268501,6.32618145,1.63499566,0.15365965,-1.01993941

>  <Name>
2o3x_lig

>  <RI>
3.41138e+07

>  <Rbt.Current_Directory>
/home/itssahil/PROJECTS/Mol_Feturizer/New_Systems/rnas/2o3x

>  <Rbt.Executable>
rbdock ($Id: //depot/dev/client3/rdock/2013.1/src/exe/rbdock.cxx#4 $)

>  <Rbt.Library>
libRbt.so (2013.1, Build901 2013/11/27)

>  <Rbt.Parameter_File>
/export/apps/rDock/src/rDock_2013.1_src/data/scripts/dock_solv.prm

>  <Rbt.Receptor>
prm/pocket_docking_2.prm

>  <SCORE>
-19.0891

>  <SCORE.INTER>
-18.049

>  <SCORE.INTER.CONST>
1

>  <SCORE.INTER.POLAR>
-1.5238

>  <SCORE.INTER.ROT>
6

>  <SCORE.INTER.SOLV>
16.515

>  <SCORE.INTER.VDW>
-20.0583

>  <SCORE.INTER.norm>
-0.582225

>  <SCORE.INTRA>
-1.04012

>  <SCORE.INTRA.DIHEDRAL>
-2.46259

>  <SCORE.INTRA.DIHEDRAL.0>
9.37739

>  <SCORE.INTRA.POLAR>
0

>  <SCORE.INTRA.POLAR.0>
0

>  <SCORE.INTRA.REPUL>
0

>  <SCORE.INTRA.REPUL.0>
0

>  <SCORE.INTRA.SOLV>
-0.556136

>  <SCORE.INTRA.SOLV.lig_0>
-82.9274

>  <SCORE.INTRA.VDW>
0.469243

>  <SCORE.INTRA.VDW.0>
-3.84922

>  <SCORE.INTRA.norm>
-0.0335523

>  <SCORE.RESTR>
2.80551e-05

>  <SCORE.RESTR.CAVITY>
2.80551e-05

>  <SCORE.RESTR.norm>
9.05004e-07

>  <SCORE.SYSTEM>
0

>  <SCORE.SYSTEM.CONST>
0

>  <SCORE.SYSTEM.DIHEDRAL>
0

>  <SCORE.SYSTEM.SOLV>
0

>  <SCORE.SYSTEM.norm>
0

>  <SCORE.heavy>
31

>  <SCORE.norm>
-0.615776

>  <RMSD>
0.939

$$$$
2o3x_lig
 OpenBabel11021811463D
libRbt.so/2013.1/901 2013/11/27
 31 33  0  0  0  0  0  0  0  0999 V2000
   20.3464    9.4019    5.3624 C   0  0  2  0  0  0  0  0  0  0  0  0
   21.2345    8.3826    4.8851 O   0  0  0  0  0  0  0  0  0  0  0  0
   24.8366    6.5190    6.2455 C   0  0  2  0  0  0  0  0  0  0  0  0
   26.1339    6.2489    6.9038 N   0  0  0  0  0  0  0  0  0  0  0  0
   21.2869    7.3500    8.9822 C   0  0  1  0  0  0  0  0  0  0  0  0
   18.9112    9.0934    4.8301 C   0  0  2  0  0  0  0  0  0  0  0  0
   18.5250    7.6765    5.0515 N   0  0  0  0  0  0  0  0  0  0  0  0
   24.9579    7.6126    5.1325 C   0  0  0  0  0  0  0  0  0  0  0  0
   20.2263    8.1227    9.8333 C   0  0  2  0  0  0  0  0  0  0  0  0
   20.7491    9.1318   10.7403 O   0  0  0  0  0  0  0  0  0  0  0  0
   18.7880    9.3910    3.3237 C   0  0  1  0  0  0  0  0  0  0  0  0
   17.4765    9.1548    2.8782 O   0  0  0  0  0  0  0  0  0  0  0  0
   23.5422    7.8052    4.4760 C   0  0  2  0  0  0  0  0  0  0  0  0
   23.5766    8.8245    3.3847 N   0  0  0  0  0  0  0  0  0  0  0  0
   19.5510    6.9257   10.4814 C   0  0  2  0  0  0  0  0  0  0  0  0
   20.3438    6.4179   11.6089 O   0  0  0  0  0  0  0  0  0  0  0  0
   19.1924   10.8300    3.0509 C   0  0  2  0  0  0  0  0  0  0  0  0
   19.0600   11.1079    1.6941 O   0  0  0  0  0  0  0  0  0  0  0  0
   22.5041    8.2586    5.5418 C   0  0  2  0  0  0  0  0  0  0  0  0
   19.4618    5.8894    9.3672 C   0  0  2  0  0  0  0  0  0  0  0  0
   20.7412    6.0441    8.7592 O   0  0  0  0  0  0  0  0  0  0  0  0
   20.6606   11.0634    3.5065 C   0  0  2  0  0  0  0  0  0  0  0  0
   20.7879   10.7569    4.9117 O   0  0  0  0  0  0  0  0  0  0  0  0
   22.3855    7.2841    6.7304 C   0  0  2  0  0  0  0  0  0  0  0  0
   21.5680    7.9910    7.7283 O   0  0  0  0  0  0  0  0  0  0  0  0
   18.3210    6.1393    8.3234 C   0  0  0  0  0  0  0  0  0  0  0  0
   17.0502    6.0852    8.9651 N   0  0  0  0  0  0  0  0  0  0  0  0
   21.1175   12.4856    3.2783 C   0  0  0  0  0  0  0  0  0  0  0  0
   22.4829   12.6130    3.4439 O   0  0  0  0  0  0  0  0  0  0  0  0
   23.8274    6.9573    7.3221 C   0  0  1  0  0  0  0  0  0  0  0  0
   23.7712    5.8903    8.2810 O   0  0  0  0  0  0  0  0  0  0  0  0
  1  2  1  6  0  0  0
  1  6  1  0  0  0  0
  1 23  1  0  0  0  0
  3  4  1  1  0  0  0
  3  8  1  0  0  0  0
  3 30  1  0  0  0  0
  5  9  1  0  0  0  0
  5 21  1  0  0  0  0
  5 25  1  6  0  0  0
  6  7  1  6  0  0  0
  6 11  1  0  0  0  0
  8 13  1  0  0  0  0
  9 10  1  1  0  0  0
  9 15  1  0  0  0  0
 11 12  1  1  0  0  0
 11 17  1  0  0  0  0
 13 14  1  6  0  0  0
 13 19  1  0  0  0  0
 15 16  1  1  0  0  0
 15 20  1  0  0  0  0
 17 18  1  6  0  0  0
 17 22  1  0  0  0  0
 19  2  1  6  0  0  0
 19 24  1  0  0  0  0
 20 21  1  0  0  0  0
 20 26  1  6  0  0  0
 22 23  1  0  0  0  0
 22 28  1  1  0  0  0
 24 25  1  1  0  0  0
 24 30  1  0  0  0  0
 26 27  1  0  0  0  0
 28 29  1  0  0  0  0
 30 31  1  1  0  0  0
M  END
>  <CHROM.1>
-163.22744503,-170.74192604,-146.95721671,-62.30270405,-168.41266594,-179.00937982
21.06547215,8.32823654,6.29793224,1.64831281,0.15652202,-1.01529856

>  <Name>
2o3x_lig

>  <RI>
3.41138e+07

>  <Rbt.Current_Directory>
/home/itssahil/PROJECTS/Mol_Feturizer/New_Systems/rnas/2o3x

>  <Rbt.Executable>
rbdock ($Id: //depot/dev/client3/rdock/2013.1/src/exe/rbdock.cxx#4 $)

>  <Rbt.Library>
libRbt.so (2013.1, Build901 2013/11/27)

>  <Rbt.Parameter_File>
/export/apps/rDock/src/rDock_2013.1_src/data/scripts/dock_solv.prm

>  <Rbt.Receptor>
prm/pocket_docking_2.prm

>  <SCORE>
-19.0941

>  <SCORE.INTER>
-17.8594

>  <SCORE.INTER.CONST>
1

>  <SCORE.INTER.POLAR>
-1.54233

>  <SCORE.INTER.ROT>
6

>  <SCORE.INTER.SOLV>
16.7637

>  <SCORE.INTER.VDW>
-19.953

>  <SCORE.INTER.norm>
-0.576108

>  <SCORE.INTRA>
-1.24267

>  <SCORE.INTRA.DIHEDRAL>
-2.85726

>  <SCORE.INTRA.DIHEDRAL.0>
9.37739

>  <SCORE.INTRA.POLAR>
0

>  <SCORE.INTRA.POLAR.0>
0

>  <SCORE.INTRA.REPUL>
0

>  <SCORE.INTRA.REPUL.0>
0

>  <SCORE.INTRA.SOLV>
-0.638629

>  <SCORE.INTRA.SOLV.lig_0>
-82.9274

>  <SCORE.INTRA.VDW>
0.50527

>  <SCORE.INTRA.VDW.0>
-3.84922

>  <SCORE.INTRA.norm>
-0.0400863

>  <SCORE.RESTR>
0.0079356

>  <SCORE.RESTR.CAVITY>
0.0079356

>  <SCORE.RESTR.norm>
0.000255987

>  <SCORE.SYSTEM>
0

>  <SCORE.SYSTEM.CONST>
0

>  <SCORE.SYSTEM.DIHEDRAL>
0

>  <SCORE.SYSTEM.SOLV>
0

>  <SCORE.SYSTEM.norm>
0

>  <SCORE.heavy>
31

>  <SCORE.norm>
-0.615938

>  <RMSD>
0.961

$$$$
2o3x_lig
 OpenBabel11021811463D
libRbt.so/2013.1/901 2013/11/27
 31 33  0  0  0  0  0  0  0  0999 V2000
   20.3417    9.5429    5.0060 C   0  0  2  0  0  0  0  0  0  0  0  0
   21.3256    8.5966    4.5678 O   0  0  0  0  0  0  0  0  0  0  0  0
   24.4649    6.5454    6.6257 C   0  0  2  0  0  0  0  0  0  0  0  0
   25.6305    6.2253    7.4791 N   0  0  0  0  0  0  0  0  0  0  0  0
   20.5808    8.1149    8.6176 C   0  0  1  0  0  0  0  0  0  0  0  0
   19.0248    9.2905    4.2057 C   0  0  2  0  0  0  0  0  0  0  0  0
   18.6474    7.8541    4.1881 N   0  0  0  0  0  0  0  0  0  0  0  0
   24.8586    7.4401    5.4034 C   0  0  0  0  0  0  0  0  0  0  0  0
   19.8320    9.2520    9.3872 C   0  0  2  0  0  0  0  0  0  0  0  0
   20.5953    9.9315   10.4216 O   0  0  0  0  0  0  0  0  0  0  0  0
   19.1463    9.7690    2.7466 C   0  0  1  0  0  0  0  0  0  0  0  0
   17.9348    9.5788    2.0607 O   0  0  0  0  0  0  0  0  0  0  0  0
   23.5657    7.6981    4.5465 C   0  0  2  0  0  0  0  0  0  0  0  0
   23.8613    8.5335    3.3439 N   0  0  0  0  0  0  0  0  0  0  0  0
   18.6346    8.4448    9.8601 C   0  0  2  0  0  0  0  0  0  0  0  0
   18.9754    7.6330   11.0359 O   0  0  0  0  0  0  0  0  0  0  0  0
   19.5496   11.2337    2.7196 C   0  0  2  0  0  0  0  0  0  0  0  0
   19.6377   11.6745    1.4029 O   0  0  0  0  0  0  0  0  0  0  0  0
   22.4837    8.4231    5.3967 C   0  0  2  0  0  0  0  0  0  0  0  0
   18.2783    7.5600    8.6713 C   0  0  2  0  0  0  0  0  0  0  0  0
   19.5768    7.1666    8.2360 O   0  0  0  0  0  0  0  0  0  0  0  0
   20.9140   11.4213    3.4414 C   0  0  2  0  0  0  0  0  0  0  0  0
   20.8135   10.9462    4.8013 O   0  0  0  0  0  0  0  0  0  0  0  0
   22.1003    7.6562    6.6777 C   0  0  2  0  0  0  0  0  0  0  0  0
   21.2773    8.5940    7.4568 O   0  0  0  0  0  0  0  0  0  0  0  0
   17.5056    8.2846    7.5176 C   0  0  0  0  0  0  0  0  0  0  0  0
   16.2369    8.7337    7.9851 N   0  0  0  0  0  0  0  0  0  0  0  0
   21.3619   12.8643    3.4651 C   0  0  0  0  0  0  0  0  0  0  0  0
   21.6114   13.3394    2.1923 O   0  0  0  0  0  0  0  0  0  0  0  0
   23.4081    7.2537    7.4922 C   0  0  1  0  0  0  0  0  0  0  0  0
   23.0998    6.3545    8.5682 O   0  0  0  0  0  0  0  0  0  0  0  0
  1  2  1  6  0  0  0
  1  6  1  0  0  0  0
  1 23  1  0  0  0  0
  3  4  1  1  0  0  0
  3  8  1  0  0  0  0
  3 30  1  0  0  0  0
  5  9  1  0  0  0  0
  5 21  1  0  0  0  0
  5 25  1  6  0  0  0
  6  7  1  6  0  0  0
  6 11  1  0  0  0  0
  8 13  1  0  0  0  0
  9 10  1  1  0  0  0
  9 15  1  0  0  0  0
 11 12  1  1  0  0  0
 11 17  1  0  0  0  0
 13 14  1  6  0  0  0
 13 19  1  0  0  0  0
 15 16  1  1  0  0  0
 15 20  1  0  0  0  0
 17 18  1  6  0  0  0
 17 22  1  0  0  0  0
 19  2  1  6  0  0  0
 19 24  1  0  0  0  0
 20 21  1  0  0  0  0
 20 26  1  6  0  0  0
 22 23  1  0  0  0  0
 22 28  1  1  0  0  0
 24 25  1  1  0  0  0
 24 30  1  0  0  0  0
 26 27  1  0  0  0  0
 28 29  1  0  0  0  0
 30 31  1  1  0  0  0
M  END
>  <CHROM.1>
-164.45561908,176.10379225,-163.76451756,-63.84172042,-64.60687201,170.25004896
20.79836636,8.92904408,5.98489502,1.62892330,0.30612761,-1.09535350

>  <Name>
2o3x_lig

>  <RI>
0

>  <Rbt.Current_Directory>
/home/itssahil/PROJECTS/Mol_Feturizer/New_Systems/rnas/2o3x

>  <Rbt.Executable>
rbdock ($Id: //depot/dev/client3/rdock/2013.1/src/exe/rbdock.cxx#4 $)

>  <Rbt.Library>
libRbt.so (2013.1, Build901 2013/11/27)

>  <Rbt.Parameter_File>
/export/apps/rDock/src/rDock_2013.1_src/data/scripts/dock_solv.prm

>  <Rbt.Receptor>
prm/pocket_docking_3.prm

>  <SCORE>
-21.026

>  <SCORE.INTER>
-17.8398

>  <SCORE.INTER.CONST>
1

>  <SCORE.INTER.POLAR>
-1.62199

>  <SCORE.INTER.ROT>
6

>  <SCORE.INTER.SOLV>
19.1779

>  <SCORE.INTER.VDW>
-20.4792

>  <SCORE.INTER.norm>
-0.575477

>  <SCORE.INTRA>
-3.18622

>  <SCORE.INTRA.DIHEDRAL>
-6.19115

>  <SCORE.INTRA.DIHEDRAL.0>
9.37739

>  <SCORE.INTRA.POLAR>
0

>  <SCORE.INTRA.POLAR.0>
0

>  <SCORE.INTRA.REPUL>
0

>  <SCORE.INTRA.REPUL.0>
0

>  <SCORE.INTRA.SOLV>
-1.44745

>  <SCORE.INTRA.SOLV.lig_0>
-82.9274

>  <SCORE.INTRA.VDW>
0.633076

>  <SCORE.INTRA.VDW.0>
-3.84922

>  <SCORE.INTRA.norm>
-0.102781

>  <SCORE.RESTR>
0

>  <SCORE.RESTR.CAVITY>
0

>  <SCORE.RESTR.norm>
0

>  <SCORE.SYSTEM>
0

>  <SCORE.SYSTEM.CONST>
0

>  <SCORE.SYSTEM.DIHEDRAL>
0

>  <SCORE.SYSTEM.SOLV>
0

>  <SCORE.SYSTEM.norm>
0

>  <SCORE.heavy>
31

>  <SCORE.norm>
-0.678258

>  <RMSD>
0.966

$$$$
2o3x_lig
 OpenBabel11021811463D
libRbt.so/2013.1/901 2013/11/27
 31 33  0  0  0  0  0  0  0  0999 V2000
   20.1682    9.3256    5.2714 C   0  0  2  0  0  0  0  0  0  0  0  0
   21.1279    8.3583    4.8254 O   0  0  0  0  0  0  0  0  0  0  0  0
   24.5928    6.5177    6.5297 C   0  0  2  0  0  0  0  0  0  0  0  0
   25.8373    6.2646    7.2890 N   0  0  0  0  0  0  0  0  0  0  0  0
   20.9074    7.5711    8.9795 C   0  0  1  0  0  0  0  0  0  0  0  0
   18.8126    9.0436    4.5493 C   0  0  2  0  0  0  0  0  0  0  0  0
   18.4333    7.6090    4.6118 N   0  0  0  0  0  0  0  0  0  0  0  0
   24.8103    7.5443    5.3686 C   0  0  0  0  0  0  0  0  0  0  0  0
   19.9853    8.5189    9.8146 C   0  0  2  0  0  0  0  0  0  0  0  0
   20.6647    9.4677   10.6820 O   0  0  0  0  0  0  0  0  0  0  0  0
   18.8616    9.4593    3.0669 C   0  0  1  0  0  0  0  0  0  0  0  0
   17.6171    9.2439    2.4511 O   0  0  0  0  0  0  0  0  0  0  0  0
   23.4460    7.7219    4.6074 C   0  0  2  0  0  0  0  0  0  0  0  0
   23.5738    8.6771    3.4662 N   0  0  0  0  0  0  0  0  0  0  0  0
   19.1503    7.4562   10.5092 C   0  0  2  0  0  0  0  0  0  0  0  0
   19.8759    6.8726   11.6452 O   0  0  0  0  0  0  0  0  0  0  0  0
   19.2647   10.9202    2.9574 C   0  0  2  0  0  0  0  0  0  0  0  0
   19.2873   11.3042    1.6203 O   0  0  0  0  0  0  0  0  0  0  0  0
   22.3477    8.2515    5.5731 C   0  0  2  0  0  0  0  0  0  0  0  0
   18.8926    6.4098    9.4314 C   0  0  2  0  0  0  0  0  0  0  0  0
   20.1717    6.3539    8.8058 O   0  0  0  0  0  0  0  0  0  0  0  0
   20.6636   11.1339    3.6016 C   0  0  2  0  0  0  0  0  0  0  0  0
   20.6308   10.7174    4.9837 O   0  0  0  0  0  0  0  0  0  0  0  0
   22.1303    7.3480    6.8030 C   0  0  2  0  0  0  0  0  0  0  0  0
   21.2616    8.1232    7.7021 O   0  0  0  0  0  0  0  0  0  0  0  0
   17.7859    6.7926    8.3911 C   0  0  0  0  0  0  0  0  0  0  0  0
   17.5443    5.7000    7.5093 N   0  0  0  0  0  0  0  0  0  0  0  0
   21.1138   12.5750    3.5413 C   0  0  0  0  0  0  0  0  0  0  0  0
   21.2763   13.0021    2.2378 O   0  0  0  0  0  0  0  0  0  0  0  0
   23.5223    7.0323    7.5089 C   0  0  1  0  0  0  0  0  0  0  0  0
   23.3807    6.0224    8.5195 O   0  0  0  0  0  0  0  0  0  0  0  0
  1  2  1  6  0  0  0
  1  6  1  0  0  0  0
  1 23  1  0  0  0  0
  3  4  1  1  0  0  0
  3  8  1  0  0  0  0
  3 30  1  0  0  0  0
  5  9  1  0  0  0  0
  5 21  1  0  0  0  0
  5 25  1  6  0  0  0
  6  7  1  6  0  0  0
  6 11  1  0  0  0  0
  8 13  1  0  0  0  0
  9 10  1  1  0  0  0
  9 15  1  0  0  0  0
 11 12  1  1  0  0  0
 11 17  1  0  0  0  0
 13 14  1  6  0  0  0
 13 19  1  0  0  0  0
 15 16  1  1  0  0  0
 15 20  1  0  0  0  0
 17 18  1  6  0  0  0
 17 22  1  0  0  0  0
 19  2  1  6  0  0  0
 19 24  1  0  0  0  0
 20 21  1  0  0  0  0
 20 26  1  6  0  0  0
 22 23  1  0  0  0  0
 22 28  1  1  0  0  0
 24 25  1  1  0  0  0
 24 30  1  0  0  0  0
 26 27  1  0  0  0  0
 28 29  1  0  0  0  0
 30 31  1  1  0  0  0
M  END
>  <CHROM.1>
-166.72189880,179.81040712,-153.29947059,-174.75417288,-63.50761525,-177.68957313
20.85872470,8.45666081,6.22199893,1.67052458,0.17819775,-1.05059294

>  <Name>
2o3x_lig

>  <RI>
0

>  <Rbt.Current_Directory>
/home/itssahil/PROJECTS/Mol_Feturizer/New_Systems/rnas/2o3x

>  <Rbt.Executable>
rbdock ($Id: //depot/dev/client3/rdock/2013.1/src/exe/rbdock.cxx#4 $)

>  <Rbt.Library>
libRbt.so (2013.1, Build901 2013/11/27)

>  <Rbt.Parameter_File>
/export/apps/rDock/src/rDock_2013.1_src/data/scripts/dock_solv.prm

>  <Rbt.Receptor>
prm/pocket_docking_4.prm

>  <SCORE>
-19.9976

>  <SCORE.INTER>
-17.8093

>  <SCORE.INTER.CONST>
1

>  <SCORE.INTER.POLAR>
-1.64276

>  <SCORE.INTER.ROT>
6

>  <SCORE.INTER.SOLV>
17.5246

>  <SCORE.INTER.VDW>
-19.8385

>  <SCORE.INTER.norm>
-0.574492

>  <SCORE.INTRA>
-2.18835

>  <SCORE.INTRA.DIHEDRAL>
-5.26249

>  <SCORE.INTRA.DIHEDRAL.0>
9.37739

>  <SCORE.INTRA.POLAR>
0

>  <SCORE.INTRA.POLAR.0>
0

>  <SCORE.INTRA.REPUL>
0

>  <SCORE.INTRA.REPUL.0>
0

>  <SCORE.INTRA.SOLV>
-0.598026

>  <SCORE.INTRA.SOLV.lig_0>
-82.9274

>  <SCORE.INTRA.VDW>
0.741903

>  <SCORE.INTRA.VDW.0>
-3.84922

>  <SCORE.INTRA.norm>
-0.0705921

>  <SCORE.RESTR>
0

>  <SCORE.RESTR.CAVITY>
0

>  <SCORE.RESTR.norm>
0

>  <SCORE.SYSTEM>
0

>  <SCORE.SYSTEM.CONST>
0

>  <SCORE.SYSTEM.DIHEDRAL>
0

>  <SCORE.SYSTEM.SOLV>
0

>  <SCORE.SYSTEM.norm>
0

>  <SCORE.heavy>
31

>  <SCORE.norm>
-0.645085

>  <RMSD>
0.973

$$$$
2o3x_lig
 OpenBabel11021811463D
libRbt.so/2013.1/901 2013/11/27
 31 33  0  0  0  0  0  0  0  0999 V2000
   20.3934    9.3867    5.3989 C   0  0  2  0  0  0  0  0  0  0  0  0
   21.1953    8.2789    4.9685 O   0  0  0  0  0  0  0  0  0  0  0  0
   24.6383    6.1817    6.3989 C   0  0  2  0  0  0  0  0  0  0  0  0
   25.9060    5.8292    7.0756 N   0  0  0  0  0  0  0  0  0  0  0  0
   21.2310    7.3618    9.1248 C   0  0  1  0  0  0  0  0  0  0  0  0
   18.9677    9.2322    4.7809 C   0  0  2  0  0  0  0  0  0  0  0  0
   18.4212    7.8642    4.9702 N   0  0  0  0  0  0  0  0  0  0  0  0
   24.8499    7.2437    5.2690 C   0  0  0  0  0  0  0  0  0  0  0  0
   20.2165    8.2072    9.9628 C   0  0  2  0  0  0  0  0  0  0  0  0
   20.7897    9.2643   10.7802 O   0  0  0  0  0  0  0  0  0  0  0  0
   18.9664    9.5411    3.2718 C   0  0  1  0  0  0  0  0  0  0  0  0
   17.6660    9.4453    2.7481 O   0  0  0  0  0  0  0  0  0  0  0  0
   23.4584    7.5275    4.5941 C   0  0  2  0  0  0  0  0  0  0  0  0
   23.5777    8.5224    3.4863 N   0  0  0  0  0  0  0  0  0  0  0  0
   19.5493    7.0674   10.7141 C   0  0  2  0  0  0  0  0  0  0  0  0
   20.3781    6.6208   11.8417 O   0  0  0  0  0  0  0  0  0  0  0  0
   19.5364   10.9290    3.0323 C   0  0  2  0  0  0  0  0  0  0  0  0
   19.5149   11.2194    1.6718 O   0  0  0  0  0  0  0  0  0  0  0  0
   22.4461    8.0742    5.6409 C   0  0  2  0  0  0  0  0  0  0  0  0
   19.4007    5.9620    9.6753 C   0  0  2  0  0  0  0  0  0  0  0  0
   20.6574    6.0538    9.0098 O   0  0  0  0  0  0  0  0  0  0  0  0
   20.9914   11.0054    3.5751 C   0  0  2  0  0  0  0  0  0  0  0  0
   21.0019   10.6872    4.9835 O   0  0  0  0  0  0  0  0  0  0  0  0
   22.2453    7.1320    6.8443 C   0  0  2  0  0  0  0  0  0  0  0  0
   21.4722    7.9140    7.8213 O   0  0  0  0  0  0  0  0  0  0  0  0
   18.2236    6.1629    8.6617 C   0  0  0  0  0  0  0  0  0  0  0  0
   16.9771    6.1550    9.3516 N   0  0  0  0  0  0  0  0  0  0  0  0
   21.6091   12.3711    3.3833 C   0  0  0  0  0  0  0  0  0  0  0  0
   20.9559   13.3331    4.1289 O   0  0  0  0  0  0  0  0  0  0  0  0
   23.6536    6.7113    7.4569 C   0  0  1  0  0  0  0  0  0  0  0  0
   23.5104    5.6682    8.4330 O   0  0  0  0  0  0  0  0  0  0  0  0
  1  2  1  6  0  0  0
  1  6  1  0  0  0  0
  1 23  1  0  0  0  0
  3  4  1  1  0  0  0
  3  8  1  0  0  0  0
  3 30  1  0  0  0  0
  5  9  1  0  0  0  0
  5 21  1  0  0  0  0
  5 25  1  6  0  0  0
  6  7  1  6  0  0  0
  6 11  1  0  0  0  0
  8 13  1  0  0  0  0
  9 10  1  1  0  0  0
  9 15  1  0  0  0  0
 11 12  1  1  0  0  0
 11 17  1  0  0  0  0
 13 14  1  6  0  0  0
 13 19  1  0  0  0  0
 15 16  1  1  0  0  0
 15 20  1  0  0  0  0
 17 18  1  6  0  0  0
 17 22  1  0  0  0  0
 19  2  1  6  0  0  0
 19 24  1  0  0  0  0
 20 21  1  0  0  0  0
 20 26  1  6  0  0  0
 22 23  1  0  0  0  0
 22 28  1  1  0  0  0
 24 25  1  1  0  0  0
 24 30  1  0  0  0  0
 26 27  1  0  0  0  0
 28 29  1  0  0  0  0
 30 31  1  1  0  0  0
M  END
>  <CHROM.1>
-167.23047940,-171.07169250,-145.59249460,-63.09850285,65.19826520,-173.72931557
21.02790349,8.31804699,6.42961936,1.65679979,0.28350468,-1.01652039

>  <Name>
2o3x_lig

>  <RI>
3.34184e+07

>  <Rbt.Current_Directory>
/home/itssahil/PROJECTS/Mol_Feturizer/New_Systems/rnas/2o3x

>  <Rbt.Executable>
rbdock ($Id: //depot/dev/client3/rdock/2013.1/src/exe/rbdock.cxx#4 $)

>  <Rbt.Library>
libRbt.so (2013.1, Build901 2013/11/27)

>  <Rbt.Parameter_File>
/export/apps/rDock/src/rDock_2013.1_src/data/scripts/dock_solv.prm

>  <Rbt.Receptor>
prm/pocket_docking_6.prm

>  <SCORE>
-18.2583

>  <SCORE.INTER>
-17.0796

>  <SCORE.INTER.CONST>
1

>  <SCORE.INTER.POLAR>
-1.60439

>  <SCORE.INTER.ROT>
6

>  <SCORE.INTER.SOLV>
16.9144

>  <SCORE.INTER.VDW>
-19.2766

>  <SCORE.INTER.norm>
-0.550956

>  <SCORE.INTRA>
-1.17871

>  <SCORE.INTRA.DIHEDRAL>
-3.33398

>  <SCORE.INTRA.DIHEDRAL.0>
9.37739

>  <SCORE.INTRA.POLAR>
0

>  <SCORE.INTRA.POLAR.0>
0

>  <SCORE.INTRA.REPUL>
0

>  <SCORE.INTRA.REPUL.0>
0

>  <SCORE.INTRA.SOLV>
-0.809681

>  <SCORE.INTRA.SOLV.lig_0>
-82.9274

>  <SCORE.INTRA.VDW>
0.893118

>  <SCORE.INTRA.VDW.0>
-3.84922

>  <SCORE.INTRA.norm>
-0.038023

>  <SCORE.RESTR>
0

>  <SCORE.RESTR.CAVITY>
0

>  <SCORE.RESTR.norm>
0

>  <SCORE.SYSTEM>
0

>  <SCORE.SYSTEM.CONST>
0

>  <SCORE.SYSTEM.DIHEDRAL>
0

>  <SCORE.SYSTEM.SOLV>
0

>  <SCORE.SYSTEM.norm>
0

>  <SCORE.heavy>
31

>  <SCORE.norm>
-0.588979

>  <RMSD>
0.974

$$$$
2o3x_lig
 OpenBabel11021811463D
libRbt.so/2013.1/901 2013/11/27
 31 33  0  0  0  0  0  0  0  0999 V2000
   20.3966    9.3816    5.4700 C   0  0  2  0  0  0  0  0  0  0  0  0
   21.1838    8.2486    5.0800 O   0  0  0  0  0  0  0  0  0  0  0  0
   24.7418    6.2714    6.3950 C   0  0  2  0  0  0  0  0  0  0  0  0
   26.0399    5.9612    7.0339 N   0  0  0  0  0  0  0  0  0  0  0  0
   21.2900    7.2524    9.1925 C   0  0  1  0  0  0  0  0  0  0  0  0
   18.9684    9.2229    4.8589 C   0  0  2  0  0  0  0  0  0  0  0  0
   18.4046    7.8700    5.0985 N   0  0  0  0  0  0  0  0  0  0  0  0
   24.8822    7.3525    5.2721 C   0  0  0  0  0  0  0  0  0  0  0  0
   20.2855    8.0737   10.0659 C   0  0  2  0  0  0  0  0  0  0  0  0
   20.8726    9.0770   10.9394 O   0  0  0  0  0  0  0  0  0  0  0  0
   18.9694    9.4764    3.3395 C   0  0  1  0  0  0  0  0  0  0  0  0
   17.6674    9.3783    2.8205 O   0  0  0  0  0  0  0  0  0  0  0  0
   23.4632    7.5893    4.6375 C   0  0  2  0  0  0  0  0  0  0  0  0
   23.5144    8.5994    3.5383 N   0  0  0  0  0  0  0  0  0  0  0  0
   19.5918    6.9102   10.7544 C   0  0  2  0  0  0  0  0  0  0  0  0
   20.4040    6.3916   11.8630 O   0  0  0  0  0  0  0  0  0  0  0  0
   19.5570   10.8472    3.0490 C   0  0  2  0  0  0  0  0  0  0  0  0
   19.5378   11.0879    1.6789 O   0  0  0  0  0  0  0  0  0  0  0  0
   22.4591    8.0854    5.7168 C   0  0  2  0  0  0  0  0  0  0  0  0
   19.4300    5.8617    9.6601 C   0  0  2  0  0  0  0  0  0  0  0  0
   20.6928    5.9631    9.0079 O   0  0  0  0  0  0  0  0  0  0  0  0
   21.0134   10.9247    3.5879 C   0  0  2  0  0  0  0  0  0  0  0  0
   21.0213   10.6581    5.0070 O   0  0  0  0  0  0  0  0  0  0  0  0
   22.3269    7.1237    6.9142 C   0  0  2  0  0  0  0  0  0  0  0  0
   21.5508    7.8650    7.9202 O   0  0  0  0  0  0  0  0  0  0  0  0
   18.2641    6.1360    8.6507 C   0  0  0  0  0  0  0  0  0  0  0  0
   17.0103    6.0840    9.3254 N   0  0  0  0  0  0  0  0  0  0  0  0
   21.6483   12.2744    3.3459 C   0  0  0  0  0  0  0  0  0  0  0  0
   20.9884   13.2761    4.0307 O   0  0  0  0  0  0  0  0  0  0  0  0
   23.7663    6.7515    7.4846 C   0  0  1  0  0  0  0  0  0  0  0  0
   23.6895    5.6936    8.4522 O   0  0  0  0  0  0  0  0  0  0  0  0
  1  2  1  6  0  0  0
  1  6  1  0  0  0  0
  1 23  1  0  0  0  0
  3  4  1  1  0  0  0
  3  8  1  0  0  0  0
  3 30  1  0  0  0  0
  5  9  1  0  0  0  0
  5 21  1  0  0  0  0
  5 25  1  6  0  0  0
  6  7  1  6  0  0  0
  6 11  1  0  0  0  0
  8 13  1  0  0  0  0
  9 10  1  1  0  0  0
  9 15  1  0  0  0  0
 11 12  1  1  0  0  0
 11 17  1  0  0  0  0
 13 14  1  6  0  0  0
 13 19  1  0  0  0  0
 15 16  1  1  0  0  0
 15 20  1  0  0  0  0
 17 18  1  6  0  0  0
 17 22  1  0  0  0  0
 19  2  1  6  0  0  0
 19 24  1  0  0  0  0
 20 21  1  0  0  0  0
 20 26  1  6  0  0  0
 22 23  1  0  0  0  0
 22 28  1  1  0  0  0
 24 25  1  1  0  0  0
 24 30  1  0  0  0  0
 26 27  1  0  0  0  0
 28 29  1  0  0  0  0
 30 31  1  1  0  0  0
M  END
>  <CHROM.1>
-169.90474055,-171.63872647,-140.81852897,-64.53880890,63.74138209,-177.85748031
21.06788667,8.27523653,6.46611730,1.65429403,0.24389228,-1.01530450

>  <Name>
2o3x_lig

>  <RI>
3.41138e+07

>  <Rbt.Current_Directory>
/home/itssahil/PROJECTS/Mol_Feturizer/New_Systems/rnas/2o3x

>  <Rbt.Executable>
rbdock ($Id: //depot/dev/client3/rdock/2013.1/src/exe/rbdock.cxx#4 $)

>  <Rbt.Library>
libRbt.so (2013.1, Build901 2013/11/27)

>  <Rbt.Parameter_File>
/export/apps/rDock/src/rDock_2013.1_src/data/scripts/dock_solv.prm

>  <Rbt.Receptor>
prm/pocket_docking_2.prm

>  <SCORE>
-17.4919

>  <SCORE.INTER>
-16.9428

>  <SCORE.INTER.CONST>
1

>  <SCORE.INTER.POLAR>
-1.43732

>  <SCORE.INTER.ROT>
6

>  <SCORE.INTER.SOLV>
16.7536

>  <SCORE.INTER.VDW>
-19.6886

>  <SCORE.INTER.norm>
-0.546541

>  <SCORE.INTRA>
-1.17269

>  <SCORE.INTRA.DIHEDRAL>
-3.00916

>  <SCORE.INTRA.DIHEDRAL.0>
9.37739

>  <SCORE.INTRA.POLAR>
0

>  <SCORE.INTRA.POLAR.0>
0

>  <SCORE.INTRA.REPUL>
0

>  <SCORE.INTRA.REPUL.0>
0

>  <SCORE.INTRA.SOLV>
-0.552913

>  <SCORE.INTRA.SOLV.lig_0>
-82.9274

>  <SCORE.INTRA.VDW>
0.608349

>  <SCORE.INTRA.VDW.0>
-3.84922

>  <SCORE.INTRA.norm>
-0.0378286

>  <SCORE.RESTR>
0.623512

>  <SCORE.RESTR.CAVITY>
0.623512

>  <SCORE.RESTR.norm>
0.0201133

>  <SCORE.SYSTEM>
0

>  <SCORE.SYSTEM.CONST>
0

>  <SCORE.SYSTEM.DIHEDRAL>
0

>  <SCORE.SYSTEM.SOLV>
0

>  <SCORE.SYSTEM.norm>
0

>  <SCORE.heavy>
31

>  <SCORE.norm>
-0.564256

>  <RMSD>
0.981

$$$$
2o3x_lig
 OpenBabel11021811463D
libRbt.so/2013.1/901 2013/11/27
 31 33  0  0  0  0  0  0  0  0999 V2000
   20.3199    9.3608    5.3827 C   0  0  2  0  0  0  0  0  0  0  0  0
   21.2244    8.3607    4.8957 O   0  0  0  0  0  0  0  0  0  0  0  0
   24.8527    6.5433    6.2485 C   0  0  2  0  0  0  0  0  0  0  0  0
   26.1551    6.2899    6.9037 N   0  0  0  0  0  0  0  0  0  0  0  0
   21.3169    7.3417    9.0015 C   0  0  1  0  0  0  0  0  0  0  0  0
   18.8910    9.0379    4.8420 C   0  0  2  0  0  0  0  0  0  0  0  0
   18.5251    7.6129    5.0445 N   0  0  0  0  0  0  0  0  0  0  0  0
   24.9577    7.6371    5.1341 C   0  0  0  0  0  0  0  0  0  0  0  0
   20.2623    8.1093    9.8645 C   0  0  2  0  0  0  0  0  0  0  0  0
   20.7892    9.1307   10.7553 O   0  0  0  0  0  0  0  0  0  0  0  0
   18.7680    9.3524    3.3391 C   0  0  1  0  0  0  0  0  0  0  0  0
   17.4615    9.1026    2.8864 O   0  0  0  0  0  0  0  0  0  0  0  0
   23.5380    7.8114    4.4812 C   0  0  2  0  0  0  0  0  0  0  0  0
   23.5569    8.8300    3.3887 N   0  0  0  0  0  0  0  0  0  0  0  0
   19.6111    6.9099   10.5326 C   0  0  2  0  0  0  0  0  0  0  0  0
   20.4280    6.4192   11.6504 O   0  0  0  0  0  0  0  0  0  0  0  0
   19.1521   10.8005    3.0854 C   0  0  2  0  0  0  0  0  0  0  0  0
   19.0197   11.0934    1.7318 O   0  0  0  0  0  0  0  0  0  0  0  0
   22.4971    8.2531    5.5492 C   0  0  2  0  0  0  0  0  0  0  0  0
   19.5146    5.8644    9.4277 C   0  0  2  0  0  0  0  0  0  0  0  0
   20.7819    6.0283    8.7972 O   0  0  0  0  0  0  0  0  0  0  0  0
   20.6153   11.0498    3.5486 C   0  0  2  0  0  0  0  0  0  0  0  0
   20.7428   10.7276    4.9503 O   0  0  0  0  0  0  0  0  0  0  0  0
   22.3937    7.2785    6.7391 C   0  0  2  0  0  0  0  0  0  0  0  0
   21.5701    7.9762    7.7384 O   0  0  0  0  0  0  0  0  0  0  0  0
   18.3539    6.0942    8.4014 C   0  0  0  0  0  0  0  0  0  0  0  0
   17.0934    5.9957    9.0581 N   0  0  0  0  0  0  0  0  0  0  0  0
   21.0519   12.4812    3.3396 C   0  0  0  0  0  0  0  0  0  0  0  0
   22.4205   12.6183    3.4659 O   0  0  0  0  0  0  0  0  0  0  0  0
   23.8410    6.9702    7.3273 C   0  0  1  0  0  0  0  0  0  0  0  0
   23.8006    5.9036    8.2874 O   0  0  0  0  0  0  0  0  0  0  0  0
  1  2  1  6  0  0  0
  1  6  1  0  0  0  0
  1 23  1  0  0  0  0
  3  4  1  1  0  0  0
  3  8  1  0  0  0  0
  3 30  1  0  0  0  0
  5  9  1  0  0  0  0
  5 21  1  0  0  0  0
  5 25  1  6  0  0  0
  6  7  1  6  0  0  0
  6 11  1  0  0  0  0
  8 13  1  0  0  0  0
  9 10  1  1  0  0  0
  9 15  1  0  0  0  0
 11 12  1  1  0  0  0
 11 17  1  0  0  0  0
 13 14  1  6  0  0  0
 13 19  1  0  0  0  0
 15 16  1  1  0  0  0
 15 20  1  0  0  0  0
 17 18  1  6  0  0  0
 17 22  1  0  0  0  0
 19  2  1  6  0  0  0
 19 24  1  0  0  0  0
 20 21  1  0  0  0  0
 20 26  1  6  0  0  0
 22 23  1  0  0  0  0
 22 28  1  1  0  0  0
 24 25  1  1  0  0  0
 24 30  1  0  0  0  0
 26 27  1  0  0  0  0
 28 29  1  0  0  0  0
 30 31  1  1  0  0  0
M  END
>  <CHROM.1>
-163.62898452,-171.56294223,-147.54475828,-63.84751026,-166.34589924,-178.07968533
21.06828821,8.31316676,6.32291157,1.65948451,0.15076576,-1.01862434

>  <Name>
2o3x_lig

>  <RI>
3.41138e+07

>  <Rbt.Current_Directory>
/home/itssahil/PROJECTS/Mol_Feturizer/New_Systems/rnas/2o3x

>  <Rbt.Executable>
rbdock ($Id: //depot/dev/client3/rdock/2013.1/src/exe/rbdock.cxx#4 $)

>  <Rbt.Library>
libRbt.so (2013.1, Build901 2013/11/27)

>  <Rbt.Parameter_File>
/export/apps/rDock/src/rDock_2013.1_src/data/scripts/dock_solv.prm

>  <Rbt.Receptor>
prm/pocket_docking_2.prm

>  <SCORE>
-19.0348

>  <SCORE.INTER>
-17.7922

>  <SCORE.INTER.CONST>
1

>  <SCORE.INTER.POLAR>
-1.57441

>  <SCORE.INTER.ROT>
6

>  <SCORE.INTER.SOLV>
16.9309

>  <SCORE.INTER.VDW>
-19.857

>  <SCORE.INTER.norm>
-0.573941

>  <SCORE.INTRA>
-1.24633

>  <SCORE.INTRA.DIHEDRAL>
-2.86694

>  <SCORE.INTRA.DIHEDRAL.0>
9.37739

>  <SCORE.INTRA.POLAR>
0

>  <SCORE.INTRA.POLAR.0>
0

>  <SCORE.INTRA.REPUL>
0

>  <SCORE.INTRA.REPUL.0>
0

>  <SCORE.INTRA.SOLV>
-0.776904

>  <SCORE.INTRA.SOLV.lig_0>
-82.9274

>  <SCORE.INTRA.VDW>
0.575587

>  <SCORE.INTRA.VDW.0>
-3.84922

>  <SCORE.INTRA.norm>
-0.0402043

>  <SCORE.RESTR>
0.00375968

>  <SCORE.RESTR.CAVITY>
0.00375968

>  <SCORE.RESTR.norm>
0.00012128

>  <SCORE.SYSTEM>
0

>  <SCORE.SYSTEM.CONST>
0

>  <SCORE.SYSTEM.DIHEDRAL>
0

>  <SCORE.SYSTEM.SOLV>
0

>  <SCORE.SYSTEM.norm>
0

>  <SCORE.heavy>
31

>  <SCORE.norm>
-0.614024

>  <RMSD>
0.982

$$$$
2o3x_lig
 OpenBabel11021811463D
libRbt.so/2013.1/901 2013/11/27
 31 33  0  0  0  0  0  0  0  0999 V2000
   20.0896    9.3570    5.0875 C   0  0  2  0  0  0  0  0  0  0  0  0
   21.1224    8.4328    4.7206 O   0  0  0  0  0  0  0  0  0  0  0  0
   24.1594    6.4944    7.0265 C   0  0  2  0  0  0  0  0  0  0  0  0
   25.2794    6.2195    7.9536 N   0  0  0  0  0  0  0  0  0  0  0  0
   20.2929    8.1609    8.8335 C   0  0  1  0  0  0  0  0  0  0  0  0
   18.8493    9.0972    4.1750 C   0  0  2  0  0  0  0  0  0  0  0  0
   18.4986    7.6557    4.1048 N   0  0  0  0  0  0  0  0  0  0  0  0
   24.6126    7.3416    5.7911 C   0  0  0  0  0  0  0  0  0  0  0  0
   19.6696    9.3715    9.6029 C   0  0  2  0  0  0  0  0  0  0  0  0
   20.5482   10.0514   10.5410 O   0  0  0  0  0  0  0  0  0  0  0  0
   19.0857    9.6005    2.7385 C   0  0  1  0  0  0  0  0  0  0  0  0
   17.9398    9.4026    1.9498 O   0  0  0  0  0  0  0  0  0  0  0  0
   23.3661    7.5534    4.8563 C   0  0  2  0  0  0  0  0  0  0  0  0
   23.7207    8.3412    3.6378 N   0  0  0  0  0  0  0  0  0  0  0  0
   18.4727    8.6553   10.2057 C   0  0  2  0  0  0  0  0  0  0  0  0
   18.8628    7.8780   11.3894 O   0  0  0  0  0  0  0  0  0  0  0  0
   19.4656   11.0714    2.7668 C   0  0  2  0  0  0  0  0  0  0  0  0
   19.6572   11.5341    1.4688 O   0  0  0  0  0  0  0  0  0  0  0  0
   22.2354    8.3033    5.6167 C   0  0  2  0  0  0  0  0  0  0  0  0
   17.9759    7.7406    9.0923 C   0  0  2  0  0  0  0  0  0  0  0  0
   19.2126    7.2553    8.5772 O   0  0  0  0  0  0  0  0  0  0  0  0
   20.7608   11.2683    3.6043 C   0  0  2  0  0  0  0  0  0  0  0  0
   20.5538   10.7704    4.9437 O   0  0  0  0  0  0  0  0  0  0  0  0
   21.7885    7.5862    6.9060 C   0  0  2  0  0  0  0  0  0  0  0  0
   20.9188    8.5481    7.6005 O   0  0  0  0  0  0  0  0  0  0  0  0
   17.1529    8.4565    7.9681 C   0  0  0  0  0  0  0  0  0  0  0  0
   16.5380    7.4899    7.1211 N   0  0  0  0  0  0  0  0  0  0  0  0
   21.1813   12.7174    3.6865 C   0  0  0  0  0  0  0  0  0  0  0  0
   21.5499   13.2101    2.4499 O   0  0  0  0  0  0  0  0  0  0  0  0
   23.0531    7.2285    7.8053 C   0  0  1  0  0  0  0  0  0  0  0  0
   22.6930    6.3716    8.8994 O   0  0  0  0  0  0  0  0  0  0  0  0
  1  2  1  6  0  0  0
  1  6  1  0  0  0  0
  1 23  1  0  0  0  0
  3  4  1  1  0  0  0
  3  8  1  0  0  0  0
  3 30  1  0  0  0  0
  5  9  1  0  0  0  0
  5 21  1  0  0  0  0
  5 25  1  6  0  0  0
  6  7  1  6  0  0  0
  6 11  1  0  0  0  0
  8 13  1  0  0  0  0
  9 10  1  1  0  0  0
  9 15  1  0  0  0  0
 11 12  1  6  0  0  0
 11 17  1  0  0  0  0
 13 14  1  6  0  0  0
 13 19  1  0  0  0  0
 15 16  1  1  0  0  0
 15 20  1  0  0  0  0
 17 18  1  6  0  0  0
 17 22  1  0  0  0  0
 19  2  1  6  0  0  0
 19 24  1  0  0  0  0
 20 21  1  0  0  0  0
 20 26  1  6  0  0  0
 22 23  1  0  0  0  0
 22 28  1  1  0  0  0
 24 25  1  1  0  0  0
 24 30  1  0  0  0  0
 26 27  1  0  0  0  0
 28 29  1  0  0  0  0
 30 31  1  1  0  0  0
M  END
>  <CHROM.1>
-166.86307546,167.24852691,-165.69653820,-169.46835291,-65.56986132,177.85325804
20.60727552,8.84022424,6.16465067,1.62073471,0.28043867,-1.13693299

>  <Name>
2o3x_lig

>  <RI>
0

>  <Rbt.Current_Directory>
/home/itssahil/PROJECTS/Mol_Feturizer/New_Systems/rnas/2o3x

>  <Rbt.Executable>
rbdock ($Id: //depot/dev/client3/rdock/2013.1/src/exe/rbdock.cxx#4 $)

>  <Rbt.Library>
libRbt.so (2013.1, Build901 2013/11/27)

>  <Rbt.Parameter_File>
/export/apps/rDock/src/rDock_2013.1_src/data/scripts/dock_solv.prm

>  <Rbt.Receptor>
prm/pocket_docking_3.prm

>  <SCORE>
-20.0421

>  <SCORE.INTER>
-17.3072

>  <SCORE.INTER.CONST>
1

>  <SCORE.INTER.POLAR>
-1.64153

>  <SCORE.INTER.ROT>
6

>  <SCORE.INTER.SOLV>
18.0998

>  <SCORE.INTER.VDW>
-19.6996

>  <SCORE.INTER.norm>
-0.558297

>  <SCORE.INTRA>
-2.73489

>  <SCORE.INTRA.DIHEDRAL>
-6.16936

>  <SCORE.INTRA.DIHEDRAL.0>
9.37739

>  <SCORE.INTRA.POLAR>
0

>  <SCORE.INTRA.POLAR.0>
0

>  <SCORE.INTRA.REPUL>
0

>  <SCORE.INTRA.REPUL.0>
0

>  <SCORE.INTRA.SOLV>
-1.08303

>  <SCORE.INTRA.SOLV.lig_0>
-82.9274

>  <SCORE.INTRA.VDW>
0.891304

>  <SCORE.INTRA.VDW.0>
-3.84922

>  <SCORE.INTRA.norm>
-0.0882223

>  <SCORE.RESTR>
0

>  <SCORE.RESTR.CAVITY>
0

>  <SCORE.RESTR.norm>
0

>  <SCORE.SYSTEM>
0

>  <SCORE.SYSTEM.CONST>
0

>  <SCORE.SYSTEM.DIHEDRAL>
0

>  <SCORE.SYSTEM.SOLV>
0

>  <SCORE.SYSTEM.norm>
0

>  <SCORE.heavy>
31

>  <SCORE.norm>
-0.646519

>  <RMSD>
0.985

$$$$
2o3x_lig
 OpenBabel11021811463D
libRbt.so/2013.1/901 2013/11/27
 31 33  0  0  0  0  0  0  0  0999 V2000
   20.2967    9.4410    5.3196 C   0  0  2  0  0  0  0  0  0  0  0  0
   21.1812    8.4083    4.8650 O   0  0  0  0  0  0  0  0  0  0  0  0
   24.6626    6.4417    6.3850 C   0  0  2  0  0  0  0  0  0  0  0  0
   25.9258    6.1375    7.0930 N   0  0  0  0  0  0  0  0  0  0  0  0
   21.0965    7.4778    9.0002 C   0  0  1  0  0  0  0  0  0  0  0  0
   18.8773    9.1695    4.7280 C   0  0  2  0  0  0  0  0  0  0  0  0
   18.4529    7.7588    4.9169 N   0  0  0  0  0  0  0  0  0  0  0  0
   24.8626    7.5071    5.2562 C   0  0  0  0  0  0  0  0  0  0  0  0
   20.1211    8.3560    9.8509 C   0  0  2  0  0  0  0  0  0  0  0  0
   20.7441    9.3402   10.7213 O   0  0  0  0  0  0  0  0  0  0  0  0
   18.8196    9.4867    3.2217 C   0  0  1  0  0  0  0  0  0  0  0  0
   17.5219    9.2838    2.7225 O   0  0  0  0  0  0  0  0  0  0  0  0
   23.4782    7.7382    4.5474 C   0  0  2  0  0  0  0  0  0  0  0  0
   23.5878    8.7332    3.4387 N   0  0  0  0  0  0  0  0  0  0  0  0
   19.3636    7.2350   10.5425 C   0  0  2  0  0  0  0  0  0  0  0  0
   20.1355    6.6909   11.6676 O   0  0  0  0  0  0  0  0  0  0  0  0
   19.2647   10.9196    2.9823 C   0  0  2  0  0  0  0  0  0  0  0  0
   19.1914   11.2157    1.6248 O   0  0  0  0  0  0  0  0  0  0  0  0
   22.4222    8.2511    5.5676 C   0  0  2  0  0  0  0  0  0  0  0  0
   19.1661    6.1829    9.4575 C   0  0  2  0  0  0  0  0  0  0  0  0
   20.4408    6.2164    8.8215 O   0  0  0  0  0  0  0  0  0  0  0  0
   20.7185   11.1162    3.4975 C   0  0  2  0  0  0  0  0  0  0  0  0
   20.7840   10.7912    4.9029 O   0  0  0  0  0  0  0  0  0  0  0  0
   22.2268    7.3061    6.7697 C   0  0  2  0  0  0  0  0  0  0  0  0
   21.4029    8.0627    7.7250 O   0  0  0  0  0  0  0  0  0  0  0  0
   18.0280    6.5008    8.4294 C   0  0  0  0  0  0  0  0  0  0  0  0
   17.9076    5.4378    7.4885 N   0  0  0  0  0  0  0  0  0  0  0  0
   21.2138   12.5307    3.3047 C   0  0  0  0  0  0  0  0  0  0  0  0
   22.5893   12.6054    3.4068 O   0  0  0  0  0  0  0  0  0  0  0  0
   23.6345    6.9386    7.4173 C   0  0  1  0  0  0  0  0  0  0  0  0
   23.5058    5.8942    8.3939 O   0  0  0  0  0  0  0  0  0  0  0  0
  1  2  1  6  0  0  0
  1  6  1  0  0  0  0
  1 23  1  0  0  0  0
  3  4  1  1  0  0  0
  3  8  1  0  0  0  0
  3 30  1  0  0  0  0
  5  9  1  0  0  0  0
  5 21  1  0  0  0  0
  5 25  1  6  0  0  0
  6  7  1  6  0  0  0
  6 11  1  0  0  0  0
  8 13  1  0  0  0  0
  9 10  1  1  0  0  0
  9 15  1  0  0  0  0
 11 12  1  1  0  0  0
 11 17  1  0  0  0  0
 13 14  1  6  0  0  0
 13 19  1  0  0  0  0
 15 16  1  1  0  0  0
 15 20  1  0  0  0  0
 17 18  1  6  0  0  0
 17 22  1  0  0  0  0
 19  2  1  6  0  0  0
 19 24  1  0  0  0  0
 20 21  1  0  0  0  0
 20 26  1  6  0  0  0
 22 23  1  0  0  0  0
 22 28  1  1  0  0  0
 24 25  1  1  0  0  0
 24 30  1  0  0  0  0
 26 27  1  0  0  0  0
 28 29  1  0  0  0  0
 30 31  1  1  0  0  0
M  END
>  <CHROM.1>
-163.33461596,-175.40545949,-148.94159975,-178.36141721,-163.01668557,-176.74235178
21.00822046,8.38495910,6.26659925,1.65610244,0.15983454,-1.02515269

>  <Name>
2o3x_lig

>  <RI>
0

>  <Rbt.Current_Directory>
/home/itssahil/PROJECTS/Mol_Feturizer/New_Systems/rnas/2o3x

>  <Rbt.Executable>
rbdock ($Id: //depot/dev/client3/rdock/2013.1/src/exe/rbdock.cxx#4 $)

>  <Rbt.Library>
libRbt.so (2013.1, Build901 2013/11/27)

>  <Rbt.Parameter_File>
/export/apps/rDock/src/rDock_2013.1_src/data/scripts/dock_solv.prm

>  <Rbt.Receptor>
prm/pocket_docking_5.prm

>  <SCORE>
-19.2347

>  <SCORE.INTER>
-18.147

>  <SCORE.INTER.CONST>
1

>  <SCORE.INTER.POLAR>
-1.6131

>  <SCORE.INTER.ROT>
6

>  <SCORE.INTER.SOLV>
16.8107

>  <SCORE.INTER.VDW>
-19.9245

>  <SCORE.INTER.norm>
-0.585386

>  <SCORE.INTRA>
-1.08776

>  <SCORE.INTRA.DIHEDRAL>
-3.01388

>  <SCORE.INTRA.DIHEDRAL.0>
9.37739

>  <SCORE.INTRA.POLAR>
0

>  <SCORE.INTRA.POLAR.0>
0

>  <SCORE.INTRA.REPUL>
0

>  <SCORE.INTRA.REPUL.0>
0

>  <SCORE.INTRA.SOLV>
-0.0768383

>  <SCORE.INTRA.SOLV.lig_0>
-82.9274

>  <SCORE.INTRA.VDW>
0.457593

>  <SCORE.INTRA.VDW.0>
-3.84922

>  <SCORE.INTRA.norm>
-0.0350892

>  <SCORE.RESTR>
0

>  <SCORE.RESTR.CAVITY>
0

>  <SCORE.RESTR.norm>
0

>  <SCORE.SYSTEM>
0

>  <SCORE.SYSTEM.CONST>
0

>  <SCORE.SYSTEM.DIHEDRAL>
0

>  <SCORE.SYSTEM.SOLV>
0

>  <SCORE.SYSTEM.norm>
0

>  <SCORE.heavy>
31

>  <SCORE.norm>
-0.620476

>  <RMSD>
0.998

$$$$
2o3x_lig
 OpenBabel11021811463D
libRbt.so/2013.1/901 2013/11/27
 31 33  0  0  0  0  0  0  0  0999 V2000
   20.3902    9.3994    5.4796 C   0  0  2  0  0  0  0  0  0  0  0  0
   21.1628    8.2557    5.0917 O   0  0  0  0  0  0  0  0  0  0  0  0
   24.7303    6.2670    6.3630 C   0  0  2  0  0  0  0  0  0  0  0  0
   26.0343    5.9521    6.9873 N   0  0  0  0  0  0  0  0  0  0  0  0
   21.3142    7.2480    9.2014 C   0  0  1  0  0  0  0  0  0  0  0  0
   18.9564    9.2521    4.8787 C   0  0  2  0  0  0  0  0  0  0  0  0
   18.3799    7.9067    5.1304 N   0  0  0  0  0  0  0  0  0  0  0  0
   24.8611    7.3514    5.2421 C   0  0  0  0  0  0  0  0  0  0  0  0
   20.3077    8.0592   10.0817 C   0  0  2  0  0  0  0  0  0  0  0  0
   20.8906    9.0696   10.9499 O   0  0  0  0  0  0  0  0  0  0  0  0
   18.9502    9.4961    3.3578 C   0  0  1  0  0  0  0  0  0  0  0  0
   17.6439    9.4086    2.8478 O   0  0  0  0  0  0  0  0  0  0  0  0
   23.4360    7.5931    4.6232 C   0  0  2  0  0  0  0  0  0  0  0  0
   23.4778    8.6067    3.5267 N   0  0  0  0  0  0  0  0  0  0  0  0
   19.6316    6.8891   10.7764 C   0  0  2  0  0  0  0  0  0  0  0  0
   20.4577    6.3801   11.8793 O   0  0  0  0  0  0  0  0  0  0  0  0
   19.5504   10.8587    3.0549 C   0  0  2  0  0  0  0  0  0  0  0  0
   19.5248   11.0911    1.6834 O   0  0  0  0  0  0  0  0  0  0  0  0
   22.4444    8.0879    5.7145 C   0  0  2  0  0  0  0  0  0  0  0  0
   19.4727    5.8380    9.6842 C   0  0  2  0  0  0  0  0  0  0  0  0
   20.7294    5.9522    9.0223 O   0  0  0  0  0  0  0  0  0  0  0  0
   21.0110   10.9241    3.5839 C   0  0  2  0  0  0  0  0  0  0  0  0
   21.0253   10.6663    5.0046 O   0  0  0  0  0  0  0  0  0  0  0  0
   22.3227    7.1226    6.9102 C   0  0  2  0  0  0  0  0  0  0  0  0
   21.5587    7.8623    7.9266 O   0  0  0  0  0  0  0  0  0  0  0  0
   18.2963    6.0989    8.6835 C   0  0  0  0  0  0  0  0  0  0  0  0
   17.0488    6.0425    9.3693 N   0  0  0  0  0  0  0  0  0  0  0  0
   21.6586   12.2654    3.3293 C   0  0  0  0  0  0  0  0  0  0  0  0
   21.0537   13.2685    4.0615 O   0  0  0  0  0  0  0  0  0  0  0  0
   23.7672    6.7456    7.4643 C   0  0  1  0  0  0  0  0  0  0  0  0
   23.6984    5.6848    8.4292 O   0  0  0  0  0  0  0  0  0  0  0  0
  1  2  1  6  0  0  0
  1  6  1  0  0  0  0
  1 23  1  0  0  0  0
  3  4  1  1  0  0  0
  3  8  1  0  0  0  0
  3 30  1  0  0  0  0
  5  9  1  0  0  0  0
  5 21  1  0  0  0  0
  5 25  1  6  0  0  0
  6  7  1  6  0  0  0
  6 11  1  0  0  0  0
  8 13  1  0  0  0  0
  9 10  1  1  0  0  0
  9 15  1  0  0  0  0
 11 12  1  1  0  0  0
 11 17  1  0  0  0  0
 13 14  1  6  0  0  0
 13 19  1  0  0  0  0
 15 16  1  1  0  0  0
 15 20  1  0  0  0  0
 17 18  1  6  0  0  0
 17 22  1  0  0  0  0
 19  2  1  6  0  0  0
 19 24  1  0  0  0  0
 20 21  1  0  0  0  0
 20 26  1  6  0  0  0
 22 23  1  0  0  0  0
 22 28  1  1  0  0  0
 24 25  1  1  0  0  0
 24 30  1  0  0  0  0
 26 27  1  0  0  0  0
 28 29  1  0  0  0  0
 30 31  1  1  0  0  0
M  END
>  <CHROM.1>
-170.31876729,-170.99021645,-139.95790907,-64.17384232,66.60749139,-177.63430293
21.07340257,8.27377290,6.47115693,1.65516422,0.24709239,-1.01404594

>  <Name>
2o3x_lig

>  <RI>
3.41138e+07

>  <Rbt.Current_Directory>
/home/itssahil/PROJECTS/Mol_Feturizer/New_Systems/rnas/2o3x

>  <Rbt.Executable>
rbdock ($Id: //depot/dev/client3/rdock/2013.1/src/exe/rbdock.cxx#4 $)

>  <Rbt.Library>
libRbt.so (2013.1, Build901 2013/11/27)

>  <Rbt.Parameter_File>
/export/apps/rDock/src/rDock_2013.1_src/data/scripts/dock_solv.prm

>  <Rbt.Receptor>
prm/pocket_docking_2.prm

>  <SCORE>
-17.4471

>  <SCORE.INTER>
-17.0465

>  <SCORE.INTER.CONST>
1

>  <SCORE.INTER.POLAR>
-1.44013

>  <SCORE.INTER.ROT>
6

>  <SCORE.INTER.SOLV>
16.6267

>  <SCORE.INTER.VDW>
-19.7061

>  <SCORE.INTER.norm>
-0.549886

>  <SCORE.INTRA>
-1.01804

>  <SCORE.INTRA.DIHEDRAL>
-2.75347

>  <SCORE.INTRA.DIHEDRAL.0>
9.37739

>  <SCORE.INTRA.POLAR>
0

>  <SCORE.INTRA.POLAR.0>
0

>  <SCORE.INTRA.REPUL>
0

>  <SCORE.INTRA.REPUL.0>
0

>  <SCORE.INTRA.SOLV>
-0.503187

>  <SCORE.INTRA.SOLV.lig_0>
-82.9274

>  <SCORE.INTRA.VDW>
0.610289

>  <SCORE.INTRA.VDW.0>
-3.84922

>  <SCORE.INTRA.norm>
-0.03284

>  <SCORE.RESTR>
0.617386

>  <SCORE.RESTR.CAVITY>
0.617386

>  <SCORE.RESTR.norm>
0.0199157

>  <SCORE.SYSTEM>
0

>  <SCORE.SYSTEM.CONST>
0

>  <SCORE.SYSTEM.DIHEDRAL>
0

>  <SCORE.SYSTEM.SOLV>
0

>  <SCORE.SYSTEM.norm>
0

>  <SCORE.heavy>
31

>  <SCORE.norm>
-0.56281

>  <RMSD>
0.999

$$$$
2o3x_lig
 OpenBabel11021811463D
libRbt.so/2013.1/901 2013/11/27
 31 33  0  0  0  0  0  0  0  0999 V2000
   20.2815    9.0949    5.4745 C   0  0  2  0  0  0  0  0  0  0  0  0
   21.2187    8.1348    4.9691 O   0  0  0  0  0  0  0  0  0  0  0  0
   24.8521    6.3763    6.3847 C   0  0  2  0  0  0  0  0  0  0  0  0
   26.1561    6.1504    7.0466 N   0  0  0  0  0  0  0  0  0  0  0  0
   21.3193    7.2776    9.1109 C   0  0  1  0  0  0  0  0  0  0  0  0
   18.8903    8.8153    4.8228 C   0  0  2  0  0  0  0  0  0  0  0  0
   18.5186    7.3790    4.8918 N   0  0  0  0  0  0  0  0  0  0  0  0
   24.9534    7.4254    5.2278 C   0  0  0  0  0  0  0  0  0  0  0  0
   20.2536    8.0685    9.9385 C   0  0  2  0  0  0  0  0  0  0  0  0
   20.7665    9.1307   10.7888 O   0  0  0  0  0  0  0  0  0  0  0  0
   18.8593    9.2448    3.3438 C   0  0  1  0  0  0  0  0  0  0  0  0
   17.5844    9.0313    2.7929 O   0  0  0  0  0  0  0  0  0  0  0  0
   23.5321    7.5723    4.5716 C   0  0  2  0  0  0  0  0  0  0  0  0
   23.5475    8.5470    3.4398 N   0  0  0  0  0  0  0  0  0  0  0  0
   19.6122    6.8905   10.6525 C   0  0  2  0  0  0  0  0  0  0  0  0
   20.4299    6.4539   11.7920 O   0  0  0  0  0  0  0  0  0  0  0  0
   19.2521   10.7079    3.2267 C   0  0  2  0  0  0  0  0  0  0  0  0
   19.2026   11.1044    1.8940 O   0  0  0  0  0  0  0  0  0  0  0  0
   22.4929    8.0545    5.6236 C   0  0  2  0  0  0  0  0  0  0  0  0
   19.5307    5.8001    9.5906 C   0  0  2  0  0  0  0  0  0  0  0  0
   20.7986    5.9515    8.9582 O   0  0  0  0  0  0  0  0  0  0  0  0
   20.6827   10.9201    3.7977 C   0  0  2  0  0  0  0  0  0  0  0  0
   20.7245   10.4907    5.1757 O   0  0  0  0  0  0  0  0  0  0  0  0
   22.3932    7.1274    6.8511 C   0  0  2  0  0  0  0  0  0  0  0  0
   21.5708    7.8630    7.8240 O   0  0  0  0  0  0  0  0  0  0  0  0
   18.3716    5.9760    8.5518 C   0  0  0  0  0  0  0  0  0  0  0  0
   17.1112    5.9470    9.2155 N   0  0  0  0  0  0  0  0  0  0  0  0
   21.1252   12.3632    3.7272 C   0  0  0  0  0  0  0  0  0  0  0  0
   21.3531   12.7613    2.4243 O   0  0  0  0  0  0  0  0  0  0  0  0
   23.8421    6.8442    7.4480 C   0  0  1  0  0  0  0  0  0  0  0  0
   23.8049    5.8162    8.4495 O   0  0  0  0  0  0  0  0  0  0  0  0
  1  2  1  6  0  0  0
  1  6  1  0  0  0  0
  1 23  1  0  0  0  0
  3  4  1  1  0  0  0
  3  8  1  0  0  0  0
  3 30  1  0  0  0  0
  5  9  1  0  0  0  0
  5 21  1  0  0  0  0
  5 25  1  6  0  0  0
  6  7  1  6  0  0  0
  6 11  1  0  0  0  0
  8 13  1  0  0  0  0
  9 10  1  1  0  0  0
  9 15  1  0  0  0  0
 11 12  1  1  0  0  0
 11 17  1  0  0  0  0
 13 14  1  6  0  0  0
 13 19  1  0  0  0  0
 15 16  1  1  0  0  0
 15 20  1  0  0  0  0
 17 18  1  6  0  0  0
 17 22  1  0  0  0  0
 19  2  1  6  0  0  0
 19 24  1  0  0  0  0
 20 21  1  0  0  0  0
 20 26  1  6  0  0  0
 22 23  1  0  0  0  0
 22 28  1  1  0  0  0
 24 25  1  1  0  0  0
 24 30  1  0  0  0  0
 26 27  1  0  0  0  0
 28 29  1  0  0  0  0
 30 31  1  1  0  0  0
M  END
>  <CHROM.1>
-168.64030555,-170.90118211,-151.44520506,-61.42766563,-69.85425503,-178.17177802
21.04914310,8.19801056,6.38945356,1.68283534,0.19447586,-1.03525774

>  <Name>
2o3x_lig

>  <RI>
3.41138e+07

>  <Rbt.Current_Directory>
/home/itssahil/PROJECTS/Mol_Feturizer/New_Systems/rnas/2o3x

>  <Rbt.Executable>
rbdock ($Id: //depot/dev/client3/rdock/2013.1/src/exe/rbdock.cxx#4 $)

>  <Rbt.Library>
libRbt.so (2013.1, Build901 2013/11/27)

>  <Rbt.Parameter_File>
/export/apps/rDock/src/rDock_2013.1_src/data/scripts/dock_solv.prm

>  <Rbt.Receptor>
prm/pocket_docking_2.prm

>  <SCORE>
-19.2881

>  <SCORE.INTER>
-17.3185

>  <SCORE.INTER.CONST>
1

>  <SCORE.INTER.POLAR>
-1.57807

>  <SCORE.INTER.ROT>
6

>  <SCORE.INTER.SOLV>
16.5272

>  <SCORE.INTER.VDW>
-19.3945

>  <SCORE.INTER.norm>
-0.558662

>  <SCORE.INTRA>
-1.98355

>  <SCORE.INTRA.DIHEDRAL>
-4.52497

>  <SCORE.INTRA.DIHEDRAL.0>
9.37739

>  <SCORE.INTRA.POLAR>
0

>  <SCORE.INTRA.POLAR.0>
0

>  <SCORE.INTRA.REPUL>
0

>  <SCORE.INTRA.REPUL.0>
0

>  <SCORE.INTRA.SOLV>
-1.15027

>  <SCORE.INTRA.SOLV.lig_0>
-82.9274

>  <SCORE.INTRA.VDW>
0.854063

>  <SCORE.INTRA.VDW.0>
-3.84922

>  <SCORE.INTRA.norm>
-0.0639856

>  <SCORE.RESTR>
0.0140016

>  <SCORE.RESTR.CAVITY>
0.0140016

>  <SCORE.RESTR.norm>
0.000451665

>  <SCORE.SYSTEM>
0

>  <SCORE.SYSTEM.CONST>
0

>  <SCORE.SYSTEM.DIHEDRAL>
0

>  <SCORE.SYSTEM.SOLV>
0

>  <SCORE.SYSTEM.norm>
0

>  <SCORE.heavy>
31

>  <SCORE.norm>
-0.622196

>  <RMSD>
1.013

$$$$
2o3x_lig
 OpenBabel11021811463D
libRbt.so/2013.1/901 2013/11/27
 31 33  0  0  0  0  0  0  0  0999 V2000
   20.4157    9.4157    5.4829 C   0  0  2  0  0  0  0  0  0  0  0  0
   21.1853    8.2663    5.1057 O   0  0  0  0  0  0  0  0  0  0  0  0
   24.7815    6.3085    6.3436 C   0  0  2  0  0  0  0  0  0  0  0  0
   26.0929    6.0042    6.9576 N   0  0  0  0  0  0  0  0  0  0  0  0
   21.3503    7.2308    9.1993 C   0  0  1  0  0  0  0  0  0  0  0  0
   18.9815    9.2664    4.8835 C   0  0  2  0  0  0  0  0  0  0  0  0
   18.4015    7.9250    5.1478 N   0  0  0  0  0  0  0  0  0  0  0  0
   24.8936    7.3991    5.2268 C   0  0  0  0  0  0  0  0  0  0  0  0
   20.3272    8.0218   10.0788 C   0  0  2  0  0  0  0  0  0  0  0  0
   20.8918    9.0246   10.9676 O   0  0  0  0  0  0  0  0  0  0  0  0
   18.9759    9.4962    3.3603 C   0  0  1  0  0  0  0  0  0  0  0  0
   17.6692    9.4073    2.8512 O   0  0  0  0  0  0  0  0  0  0  0  0
   23.4619    7.6290    4.6187 C   0  0  2  0  0  0  0  0  0  0  0  0
   23.4858    8.6477    3.5265 N   0  0  0  0  0  0  0  0  0  0  0  0
   19.6526    6.8368   10.7494 C   0  0  2  0  0  0  0  0  0  0  0  0
   20.4699    6.3192   11.8548 O   0  0  0  0  0  0  0  0  0  0  0  0
   19.5795   10.8543    3.0447 C   0  0  2  0  0  0  0  0  0  0  0  0
   19.5545   11.0739    1.6710 O   0  0  0  0  0  0  0  0  0  0  0  0
   22.4728    8.1088    5.7190 C   0  0  2  0  0  0  0  0  0  0  0  0
   19.5148    5.7997    9.6411 C   0  0  2  0  0  0  0  0  0  0  0  0
   20.7782    5.9331    8.9956 O   0  0  0  0  0  0  0  0  0  0  0  0
   21.0404   10.9209    3.5729 C   0  0  2  0  0  0  0  0  0  0  0  0
   21.0541   10.6763    4.9959 O   0  0  0  0  0  0  0  0  0  0  0  0
   22.3692    7.1371    6.9112 C   0  0  2  0  0  0  0  0  0  0  0  0
   21.6047    7.8646    7.9361 O   0  0  0  0  0  0  0  0  0  0  0  0
   18.3481    6.0651    8.6303 C   0  0  0  0  0  0  0  0  0  0  0  0
   17.0942    6.0073    9.3042 N   0  0  0  0  0  0  0  0  0  0  0  0
   21.6915   12.2580    3.3057 C   0  0  0  0  0  0  0  0  0  0  0  0
   21.0618   13.2762    3.9948 O   0  0  0  0  0  0  0  0  0  0  0  0
   23.8212    6.7724    7.4537 C   0  0  1  0  0  0  0  0  0  0  0  0
   23.7698    5.7068    8.4143 O   0  0  0  0  0  0  0  0  0  0  0  0
  1  2  1  6  0  0  0
  1  6  1  0  0  0  0
  1 23  1  0  0  0  0
  3  4  1  1  0  0  0
  3  8  1  0  0  0  0
  3 30  1  0  0  0  0
  5  9  1  0  0  0  0
  5 21  1  0  0  0  0
  5 25  1  6  0  0  0
  6  7  1  6  0  0  0
  6 11  1  0  0  0  0
  8 13  1  0  0  0  0
  9 10  1  1  0  0  0
  9 15  1  0  0  0  0
 11 12  1  1  0  0  0
 11 17  1  0  0  0  0
 13 14  1  6  0  0  0
 13 19  1  0  0  0  0
 15 16  1  1  0  0  0
 15 20  1  0  0  0  0
 17 18  1  6  0  0  0
 17 22  1  0  0  0  0
 19  2  1  6  0  0  0
 19 24  1  0  0  0  0
 20 21  1  0  0  0  0
 20 26  1  6  0  0  0
 22 23  1  0  0  0  0
 22 28  1  1  0  0  0
 24 25  1  1  0  0  0
 24 30  1  0  0  0  0
 26 27  1  0  0  0  0
 28 29  1  0  0  0  0
 30 31  1  1  0  0  0
M  END
>  <CHROM.1>
-170.98851343,-170.08076110,-138.67202114,-63.38962389,64.64631785,-178.97252032
21.10564379,8.27363107,6.45838457,1.65473136,0.23534022,-1.00964626

>  <Name>
2o3x_lig

>  <RI>
3.41138e+07

>  <Rbt.Current_Directory>
/home/itssahil/PROJECTS/Mol_Feturizer/New_Systems/rnas/2o3x

>  <Rbt.Executable>
rbdock ($Id: //depot/dev/client3/rdock/2013.1/src/exe/rbdock.cxx#4 $)

>  <Rbt.Library>
libRbt.so (2013.1, Build901 2013/11/27)

>  <Rbt.Parameter_File>
/export/apps/rDock/src/rDock_2013.1_src/data/scripts/dock_solv.prm

>  <Rbt.Receptor>
prm/pocket_docking_2.prm

>  <SCORE>
-17.3335

>  <SCORE.INTER>
-16.9638

>  <SCORE.INTER.CONST>
1

>  <SCORE.INTER.POLAR>
-1.39737

>  <SCORE.INTER.ROT>
6

>  <SCORE.INTER.SOLV>
16.6589

>  <SCORE.INTER.VDW>
-19.8043

>  <SCORE.INTER.norm>
-0.54722

>  <SCORE.INTRA>
-0.961393

>  <SCORE.INTRA.DIHEDRAL>
-2.65255

>  <SCORE.INTRA.DIHEDRAL.0>
9.37739

>  <SCORE.INTRA.POLAR>
0

>  <SCORE.INTRA.POLAR.0>
0

>  <SCORE.INTRA.REPUL>
0

>  <SCORE.INTRA.REPUL.0>
0

>  <SCORE.INTRA.SOLV>
-0.359214

>  <SCORE.INTRA.SOLV.lig_0>
-82.9274

>  <SCORE.INTRA.VDW>
0.54449

>  <SCORE.INTRA.VDW.0>
-3.84922

>  <SCORE.INTRA.norm>
-0.0310127

>  <SCORE.RESTR>
0.591738

>  <SCORE.RESTR.CAVITY>
0.591738

>  <SCORE.RESTR.norm>
0.0190883

>  <SCORE.SYSTEM>
0

>  <SCORE.SYSTEM.CONST>
0

>  <SCORE.SYSTEM.DIHEDRAL>
0

>  <SCORE.SYSTEM.SOLV>
0

>  <SCORE.SYSTEM.norm>
0

>  <SCORE.heavy>
31

>  <SCORE.norm>
-0.559144

>  <RMSD>
1.020

$$$$
2o3x_lig
 OpenBabel11021811463D
libRbt.so/2013.1/901 2013/11/27
 31 33  0  0  0  0  0  0  0  0999 V2000
   20.3072    9.1010    5.4584 C   0  0  2  0  0  0  0  0  0  0  0  0
   21.2429    8.1424    4.9475 O   0  0  0  0  0  0  0  0  0  0  0  0
   24.8537    6.3479    6.3758 C   0  0  2  0  0  0  0  0  0  0  0  0
   26.1523    6.1086    7.0436 N   0  0  0  0  0  0  0  0  0  0  0  0
   21.3347    7.2818    9.0956 C   0  0  1  0  0  0  0  0  0  0  0  0
   18.9135    8.8216    4.8120 C   0  0  2  0  0  0  0  0  0  0  0  0
   18.5430    7.3850    4.8803 N   0  0  0  0  0  0  0  0  0  0  0  0
   24.9700    7.3997    5.2228 C   0  0  0  0  0  0  0  0  0  0  0  0
   20.2506    8.0595    9.9117 C   0  0  2  0  0  0  0  0  0  0  0  0
   20.7392    9.1408   10.7522 O   0  0  0  0  0  0  0  0  0  0  0  0
   18.8760    9.2534    3.3338 C   0  0  1  0  0  0  0  0  0  0  0  0
   17.5990    9.0399    2.7880 O   0  0  0  0  0  0  0  0  0  0  0  0
   23.5533    7.5610    4.5598 C   0  0  2  0  0  0  0  0  0  0  0  0
   23.5829    8.5391    3.4313 N   0  0  0  0  0  0  0  0  0  0  0  0
   19.6311    6.8763   10.6363 C   0  0  2  0  0  0  0  0  0  0  0  0
   20.4539    6.4686   11.7827 O   0  0  0  0  0  0  0  0  0  0  0  0
   19.2674   10.7170    3.2175 C   0  0  2  0  0  0  0  0  0  0  0  0
   19.2121   11.1155    1.8856 O   0  0  0  0  0  0  0  0  0  0  0  0
   22.5131    8.0489    5.6082 C   0  0  2  0  0  0  0  0  0  0  0  0
   19.5750    5.7733    9.5858 C   0  0  2  0  0  0  0  0  0  0  0  0
   20.8416    5.9438    8.9555 O   0  0  0  0  0  0  0  0  0  0  0  0
   20.7003   10.9291    3.7828 C   0  0  2  0  0  0  0  0  0  0  0  0
   20.7481   10.4976    5.1599 O   0  0  0  0  0  0  0  0  0  0  0  0
   22.3991    7.1189    6.8322 C   0  0  2  0  0  0  0  0  0  0  0  0
   21.5782    7.8586    7.8033 O   0  0  0  0  0  0  0  0  0  0  0  0
   18.4158    5.9146    8.5419 C   0  0  0  0  0  0  0  0  0  0  0  0
   17.1562    5.9215    9.2076 N   0  0  0  0  0  0  0  0  0  0  0  0
   21.1416   12.3726    3.7127 C   0  0  0  0  0  0  0  0  0  0  0  0
   21.3880   12.7656    2.4116 O   0  0  0  0  0  0  0  0  0  0  0  0
   23.8424    6.8212    7.4355 C   0  0  1  0  0  0  0  0  0  0  0  0
   23.7913    5.7905    8.4335 O   0  0  0  0  0  0  0  0  0  0  0  0
  1  2  1  6  0  0  0
  1  6  1  0  0  0  0
  1 23  1  0  0  0  0
  3  4  1  1  0  0  0
  3  8  1  0  0  0  0
  3 30  1  0  0  0  0
  5  9  1  0  0  0  0
  5 21  1  0  0  0  0
  5 25  1  6  0  0  0
  6  7  1  6  0  0  0
  6 11  1  0  0  0  0
  8 13  1  0  0  0  0
  9 10  1  1  0  0  0
  9 15  1  0  0  0  0
 11 12  1  1  0  0  0
 11 17  1  0  0  0  0
 13 14  1  6  0  0  0
 13 19  1  0  0  0  0
 15 16  1  1  0  0  0
 15 20  1  0  0  0  0
 17 18  1  6  0  0  0
 17 22  1  0  0  0  0
 19  2  1  6  0  0  0
 19 24  1  0  0  0  0
 20 21  1  0  0  0  0
 20 26  1  6  0  0  0
 22 23  1  0  0  0  0
 22 28  1  1  0  0  0
 24 25  1  1  0  0  0
 24 30  1  0  0  0  0
 26 27  1  0  0  0  0
 28 29  1  0  0  0  0
 30 31  1  1  0  0  0
M  END
>  <CHROM.1>
-167.80176053,-169.84865859,-151.96125043,-59.07603417,-70.99017211,-177.08484868
21.06651504,8.19179558,6.37646850,1.68286575,0.20036988,-1.03164896

>  <Name>
2o3x_lig

>  <RI>
3.41138e+07

>  <Rbt.Current_Directory>
/home/itssahil/PROJECTS/Mol_Feturizer/New_Systems/rnas/2o3x

>  <Rbt.Executable>
rbdock ($Id: //depot/dev/client3/rdock/2013.1/src/exe/rbdock.cxx#4 $)

>  <Rbt.Library>
libRbt.so (2013.1, Build901 2013/11/27)

>  <Rbt.Parameter_File>
/export/apps/rDock/src/rDock_2013.1_src/data/scripts/dock_solv.prm

>  <Rbt.Receptor>
prm/pocket_docking_2.prm

>  <SCORE>
-19.2783

>  <SCORE.INTER>
-17.4611

>  <SCORE.INTER.CONST>
1

>  <SCORE.INTER.POLAR>
-1.60491

>  <SCORE.INTER.ROT>
6

>  <SCORE.INTER.SOLV>
16.4645

>  <SCORE.INTER.VDW>
-19.3792

>  <SCORE.INTER.norm>
-0.563261

>  <SCORE.INTRA>
-1.83719

>  <SCORE.INTRA.DIHEDRAL>
-4.33698

>  <SCORE.INTRA.DIHEDRAL.0>
9.37739

>  <SCORE.INTRA.POLAR>
0

>  <SCORE.INTRA.POLAR.0>
0

>  <SCORE.INTRA.REPUL>
0

>  <SCORE.INTRA.REPUL.0>
0

>  <SCORE.INTRA.SOLV>
-1.10369

>  <SCORE.INTRA.SOLV.lig_0>
-82.9274

>  <SCORE.INTRA.VDW>
0.883149

>  <SCORE.INTRA.VDW.0>
-3.84922

>  <SCORE.INTRA.norm>
-0.0592641

>  <SCORE.RESTR>
0.0199355

>  <SCORE.RESTR.CAVITY>
0.0199355

>  <SCORE.RESTR.norm>
0.00064308

>  <SCORE.SYSTEM>
0

>  <SCORE.SYSTEM.CONST>
0

>  <SCORE.SYSTEM.DIHEDRAL>
0

>  <SCORE.SYSTEM.SOLV>
0

>  <SCORE.SYSTEM.norm>
0

>  <SCORE.heavy>
31

>  <SCORE.norm>
-0.621882

>  <RMSD>
1.031

$$$$
2o3x_lig
 OpenBabel11021811463D
libRbt.so/2013.1/901 2013/11/27
 31 33  0  0  0  0  0  0  0  0999 V2000
   20.3582    9.4140    5.3192 C   0  0  2  0  0  0  0  0  0  0  0  0
   21.2170    8.3445    4.9018 O   0  0  0  0  0  0  0  0  0  0  0  0
   24.8142    6.4909    6.2882 C   0  0  2  0  0  0  0  0  0  0  0  0
   26.1100    6.2261    6.9516 N   0  0  0  0  0  0  0  0  0  0  0  0
   21.2973    7.3738    9.0264 C   0  0  1  0  0  0  0  0  0  0  0  0
   18.9576    9.2067    4.6604 C   0  0  2  0  0  0  0  0  0  0  0  0
   18.4635    7.8156    4.8228 N   0  0  0  0  0  0  0  0  0  0  0  0
   24.9390    7.5724    5.1639 C   0  0  0  0  0  0  0  0  0  0  0  0
   20.2640    8.1717    9.8878 C   0  0  2  0  0  0  0  0  0  0  0  0
   20.8159    9.2006   10.7544 O   0  0  0  0  0  0  0  0  0  0  0  0
   18.9848    9.5298    3.1546 C   0  0  1  0  0  0  0  0  0  0  0  0
   17.7044    9.3855    2.5942 O   0  0  0  0  0  0  0  0  0  0  0  0
   23.5246    7.7599    4.5029 C   0  0  2  0  0  0  0  0  0  0  0  0
   23.5623    8.7676    3.4010 N   0  0  0  0  0  0  0  0  0  0  0  0
   19.6033    6.9938   10.5841 C   0  0  2  0  0  0  0  0  0  0  0  0
   20.4260    6.5106   11.7010 O   0  0  0  0  0  0  0  0  0  0  0  0
   19.5030   10.9424    2.9429 C   0  0  2  0  0  0  0  0  0  0  0  0
   19.5068   11.2448    1.5848 O   0  0  0  0  0  0  0  0  0  0  0  0
   22.4852    8.2258    5.5620 C   0  0  2  0  0  0  0  0  0  0  0  0
   19.4789    5.9308    9.4989 C   0  0  2  0  0  0  0  0  0  0  0  0
   20.7410    6.0651    8.8513 O   0  0  0  0  0  0  0  0  0  0  0  0
   20.9382   11.0736    3.5266 C   0  0  2  0  0  0  0  0  0  0  0  0
   20.9232   10.7424    4.9320 O   0  0  0  0  0  0  0  0  0  0  0  0
   22.3633    7.2641    6.7606 C   0  0  2  0  0  0  0  0  0  0  0  0
   21.5449    7.9825    7.7496 O   0  0  0  0  0  0  0  0  0  0  0  0
   18.3098    6.1596    8.4820 C   0  0  0  0  0  0  0  0  0  0  0  0
   17.0560    6.0971    9.1557 N   0  0  0  0  0  0  0  0  0  0  0  0
   21.5035   12.4654    3.3637 C   0  0  0  0  0  0  0  0  0  0  0  0
   20.9452   13.3492    4.2665 O   0  0  0  0  0  0  0  0  0  0  0  0
   23.8037    6.9418    7.3583 C   0  0  1  0  0  0  0  0  0  0  0  0
   23.7444    5.8850    8.3283 O   0  0  0  0  0  0  0  0  0  0  0  0
  1  2  1  6  0  0  0
  1  6  1  0  0  0  0
  1 23  1  0  0  0  0
  3  4  1  1  0  0  0
  3  8  1  0  0  0  0
  3 30  1  0  0  0  0
  5  9  1  0  0  0  0
  5 21  1  0  0  0  0
  5 25  1  6  0  0  0
  6  7  1  6  0  0  0
  6 11  1  0  0  0  0
  8 13  1  0  0  0  0
  9 10  1  1  0  0  0
  9 15  1  0  0  0  0
 11 12  1  1  0  0  0
 11 17  1  0  0  0  0
 13 14  1  6  0  0  0
 13 19  1  0  0  0  0
 15 16  1  1  0  0  0
 15 20  1  0  0  0  0
 17 18  1  6  0  0  0
 17 22  1  0  0  0  0
 19  2  1  6  0  0  0
 19 24  1  0  0  0  0
 20 21  1  0  0  0  0
 20 26  1  6  0  0  0
 22 23  1  0  0  0  0
 22 28  1  1  0  0  0
 24 25  1  1  0  0  0
 24 30  1  0  0  0  0
 26 27  1  0  0  0  0
 28 29  1  0  0  0  0
 30 31  1  1  0  0  0
M  END
>  <CHROM.1>
-170.24577147,-172.45952569,-143.76802339,-63.58542595,75.55300083,-176.98400594
21.07563919,8.38618227,6.33474235,1.66726680,0.21787818,-1.01508898

>  <Name>
2o3x_lig

>  <RI>
0

>  <Rbt.Current_Directory>
/home/itssahil/PROJECTS/Mol_Feturizer/New_Systems/rnas/2o3x

>  <Rbt.Executable>
rbdock ($Id: //depot/dev/client3/rdock/2013.1/src/exe/rbdock.cxx#4 $)

>  <Rbt.Library>
libRbt.so (2013.1, Build901 2013/11/27)

>  <Rbt.Parameter_File>
/export/apps/rDock/src/rDock_2013.1_src/data/scripts/dock_solv.prm

>  <Rbt.Receptor>
prm/pocket_docking_4.prm

>  <SCORE>
-18.4226

>  <SCORE.INTER>
-17.34

>  <SCORE.INTER.CONST>
1

>  <SCORE.INTER.POLAR>
-1.58695

>  <SCORE.INTER.ROT>
6

>  <SCORE.INTER.SOLV>
18.2639

>  <SCORE.INTER.VDW>
-19.9582

>  <SCORE.INTER.norm>
-0.559356

>  <SCORE.INTRA>
-1.08753

>  <SCORE.INTRA.DIHEDRAL>
-2.83317

>  <SCORE.INTRA.DIHEDRAL.0>
9.37739

>  <SCORE.INTRA.POLAR>
0

>  <SCORE.INTRA.POLAR.0>
0

>  <SCORE.INTRA.REPUL>
0

>  <SCORE.INTRA.REPUL.0>
0

>  <SCORE.INTRA.SOLV>
-0.818348

>  <SCORE.INTRA.SOLV.lig_0>
-82.9274

>  <SCORE.INTRA.VDW>
0.738232

>  <SCORE.INTRA.VDW.0>
-3.84922

>  <SCORE.INTRA.norm>
-0.0350816

>  <SCORE.RESTR>
0.00493193

>  <SCORE.RESTR.CAVITY>
0.00493193

>  <SCORE.RESTR.norm>
0.000159094

>  <SCORE.SYSTEM>
0

>  <SCORE.SYSTEM.CONST>
0

>  <SCORE.SYSTEM.DIHEDRAL>
0

>  <SCORE.SYSTEM.SOLV>
0

>  <SCORE.SYSTEM.norm>
0

>  <SCORE.heavy>
31

>  <SCORE.norm>
-0.594278

>  <RMSD>
1.039

$$$$
2o3x_lig
 OpenBabel11021811463D
libRbt.so/2013.1/901 2013/11/27
 31 33  0  0  0  0  0  0  0  0999 V2000
   20.4301    9.5260    5.2188 C   0  0  2  0  0  0  0  0  0  0  0  0
   21.3102    8.5114    4.7175 O   0  0  0  0  0  0  0  0  0  0  0  0
   24.6650    6.3667    6.2806 C   0  0  2  0  0  0  0  0  0  0  0  0
   25.9019    5.9974    7.0041 N   0  0  0  0  0  0  0  0  0  0  0  0
   21.0652    7.5654    8.8214 C   0  0  1  0  0  0  0  0  0  0  0  0
   19.0021    9.2684    4.6417 C   0  0  2  0  0  0  0  0  0  0  0  0
   18.5851    7.8509    4.7925 N   0  0  0  0  0  0  0  0  0  0  0  0
   24.9343    7.4190    5.1539 C   0  0  0  0  0  0  0  0  0  0  0  0
   20.0623    8.4641    9.6168 C   0  0  2  0  0  0  0  0  0  0  0  0
   20.6551    9.4144   10.5442 O   0  0  0  0  0  0  0  0  0  0  0  0
   18.9191    9.6330    3.1474 C   0  0  1  0  0  0  0  0  0  0  0  0
   17.6141    9.4415    2.6630 O   0  0  0  0  0  0  0  0  0  0  0  0
   23.5727    7.7216    4.4282 C   0  0  2  0  0  0  0  0  0  0  0  0
   23.7478    8.7084    3.3206 N   0  0  0  0  0  0  0  0  0  0  0  0
   19.2221    7.3598   10.2361 C   0  0  2  0  0  0  0  0  0  0  0  0
   19.8956    6.7743   11.4028 O   0  0  0  0  0  0  0  0  0  0  0  0
   19.3559   11.0744    2.9466 C   0  0  2  0  0  0  0  0  0  0  0  0
   19.2599   11.4131    1.6006 O   0  0  0  0  0  0  0  0  0  0  0  0
   22.5326    8.2901    5.4353 C   0  0  2  0  0  0  0  0  0  0  0  0
   19.0662    6.3303    9.1230 C   0  0  2  0  0  0  0  0  0  0  0  0
   20.3825    6.3296    8.5772 O   0  0  0  0  0  0  0  0  0  0  0  0
   20.8172   11.2597    3.4445 C   0  0  2  0  0  0  0  0  0  0  0  0
   20.9065   10.8904    4.8375 O   0  0  0  0  0  0  0  0  0  0  0  0
   22.2734    7.3578    6.6352 C   0  0  2  0  0  0  0  0  0  0  0  0
   21.4786    8.1574    7.5801 O   0  0  0  0  0  0  0  0  0  0  0  0
   18.0135    6.7009    8.0241 C   0  0  0  0  0  0  0  0  0  0  0  0
   17.8440    5.6115    7.1217 N   0  0  0  0  0  0  0  0  0  0  0  0
   21.3051   12.6813    3.2888 C   0  0  0  0  0  0  0  0  0  0  0  0
   22.6844   12.7435    3.2501 O   0  0  0  0  0  0  0  0  0  0  0  0
   23.6519    6.9177    7.3000 C   0  0  1  0  0  0  0  0  0  0  0  0
   23.4568    5.8824    8.2753 O   0  0  0  0  0  0  0  0  0  0  0  0
  1  2  1  6  0  0  0
  1  6  1  0  0  0  0
  1 23  1  0  0  0  0
  3  4  1  1  0  0  0
  3  8  1  0  0  0  0
  3 30  1  0  0  0  0
  5  9  1  0  0  0  0
  5 21  1  0  0  0  0
  5 25  1  6  0  0  0
  6  7  1  6  0  0  0
  6 11  1  0  0  0  0
  8 13  1  0  0  0  0
  9 10  1  1  0  0  0
  9 15  1  0  0  0  0
 11 12  1  1  0  0  0
 11 17  1  0  0  0  0
 13 14  1  6  0  0  0
 13 19  1  0  0  0  0
 15 16  1  1  0  0  0
 15 20  1  0  0  0  0
 17 18  1  6  0  0  0
 17 22  1  0  0  0  0
 19  2  1  6  0  0  0
 19 24  1  0  0  0  0
 20 21  1  0  0  0  0
 20 26  1  6  0  0  0
 22 23  1  0  0  0  0
 22 28  1  1  0  0  0
 24 25  1  1  0  0  0
 24 30  1  0  0  0  0
 26 27  1  0  0  0  0
 28 29  1  0  0  0  0
 30 31  1  1  0  0  0
M  END
>  <CHROM.1>
-160.25730257,-171.71087579,-153.31077544,-173.62815714,-157.57714337,179.92893294
21.03921651,8.46642524,6.11727336,1.64396189,0.19519596,-0.99954590

>  <Name>
2o3x_lig

>  <RI>
0

>  <Rbt.Current_Directory>
/home/itssahil/PROJECTS/Mol_Feturizer/New_Systems/rnas/2o3x

>  <Rbt.Executable>
rbdock ($Id: //depot/dev/client3/rdock/2013.1/src/exe/rbdock.cxx#4 $)

>  <Rbt.Library>
libRbt.so (2013.1, Build901 2013/11/27)

>  <Rbt.Parameter_File>
/export/apps/rDock/src/rDock_2013.1_src/data/scripts/dock_solv.prm

>  <Rbt.Receptor>
prm/pocket_docking_3.prm

>  <SCORE>
-19.2463

>  <SCORE.INTER>
-18.3762

>  <SCORE.INTER.CONST>
1

>  <SCORE.INTER.POLAR>
-1.64276

>  <SCORE.INTER.ROT>
6

>  <SCORE.INTER.SOLV>
17.0368

>  <SCORE.INTER.VDW>
-20.0539

>  <SCORE.INTER.norm>
-0.59278

>  <SCORE.INTRA>
-0.896048

>  <SCORE.INTRA.DIHEDRAL>
-2.41215

>  <SCORE.INTRA.DIHEDRAL.0>
9.37739

>  <SCORE.INTRA.POLAR>
0

>  <SCORE.INTRA.POLAR.0>
0

>  <SCORE.INTRA.REPUL>
0

>  <SCORE.INTRA.REPUL.0>
0

>  <SCORE.INTRA.SOLV>
-0.085201

>  <SCORE.INTRA.SOLV.lig_0>
-82.9274

>  <SCORE.INTRA.VDW>
0.352628

>  <SCORE.INTRA.VDW.0>
-3.84922

>  <SCORE.INTRA.norm>
-0.0289048

>  <SCORE.RESTR>
0.0259252

>  <SCORE.RESTR.CAVITY>
0.0259252

>  <SCORE.RESTR.norm>
0.000836296

>  <SCORE.SYSTEM>
0

>  <SCORE.SYSTEM.CONST>
0

>  <SCORE.SYSTEM.DIHEDRAL>
0

>  <SCORE.SYSTEM.SOLV>
0

>  <SCORE.SYSTEM.norm>
0

>  <SCORE.heavy>
31

>  <SCORE.norm>
-0.620848

>  <RMSD>
1.045

$$$$
2o3x_lig
 OpenBabel11021811463D
libRbt.so/2013.1/901 2013/11/27
 31 33  0  0  0  0  0  0  0  0999 V2000
   20.2196    9.4696    6.0538 C   0  0  2  0  0  0  0  0  0  0  0  0
   20.8409    8.1820    5.9465 O   0  0  0  0  0  0  0  0  0  0  0  0
   24.5753    6.3126    6.8727 C   0  0  2  0  0  0  0  0  0  0  0  0
   25.9361    6.0361    7.3836 N   0  0  0  0  0  0  0  0  0  0  0  0
   21.2249    7.0068    9.9469 C   0  0  1  0  0  0  0  0  0  0  0  0
   18.7388    9.3435    5.5744 C   0  0  2  0  0  0  0  0  0  0  0  0
   18.0469    8.1847    6.1943 N   0  0  0  0  0  0  0  0  0  0  0  0
   24.5732    7.4337    5.7807 C   0  0  0  0  0  0  0  0  0  0  0  0
   20.6036    7.9081   11.0638 C   0  0  2  0  0  0  0  0  0  0  0  0
   21.5495    8.5841   11.9372 O   0  0  0  0  0  0  0  0  0  0  0  0
   18.6484    9.1896    4.0444 C   0  0  1  0  0  0  0  0  0  0  0  0
   17.3067    9.1291    3.6314 O   0  0  0  0  0  0  0  0  0  0  0  0
   23.0952    7.6317    5.2821 C   0  0  2  0  0  0  0  0  0  0  0  0
   23.0093    8.6775    4.2190 N   0  0  0  0  0  0  0  0  0  0  0  0
   19.7156    6.8639   11.7195 C   0  0  2  0  0  0  0  0  0  0  0  0
   20.4934    5.9926   12.6104 O   0  0  0  0  0  0  0  0  0  0  0  0
   19.3618   10.3491    3.3697 C   0  0  2  0  0  0  0  0  0  0  0  0
   19.2617   10.2245    1.9876 O   0  0  0  0  0  0  0  0  0  0  0  0
   22.1733    8.0514    6.4624 C   0  0  2  0  0  0  0  0  0  0  0  0
   19.1343    6.0723   10.5540 C   0  0  2  0  0  0  0  0  0  0  0  0
   20.2813    5.9533    9.7169 O   0  0  0  0  0  0  0  0  0  0  0  0
   20.8557   10.3750    3.8001 C   0  0  2  0  0  0  0  0  0  0  0  0
   20.9455   10.4890    5.2367 O   0  0  0  0  0  0  0  0  0  0  0  0
   22.1855    7.0476    7.6322 C   0  0  2  0  0  0  0  0  0  0  0  0
   21.4745    7.7239    8.7281 O   0  0  0  0  0  0  0  0  0  0  0  0
   17.9658    6.7834    9.7909 C   0  0  0  0  0  0  0  0  0  0  0  0
   17.4459    5.9232    8.7811 N   0  0  0  0  0  0  0  0  0  0  0  0
   21.6175   11.5208    3.1754 C   0  0  0  0  0  0  0  0  0  0  0  0
   21.1604   12.7423    3.6302 O   0  0  0  0  0  0  0  0  0  0  0  0
   23.6833    6.7172    8.0602 C   0  0  1  0  0  0  0  0  0  0  0  0
   23.7338    5.6268    8.9928 O   0  0  0  0  0  0  0  0  0  0  0  0
  1  2  1  6  0  0  0
  1  6  1  0  0  0  0
  1 23  1  0  0  0  0
  3  4  1  1  0  0  0
  3  8  1  0  0  0  0
  3 30  1  0  0  0  0
  5  9  1  0  0  0  0
  5 21  1  0  0  0  0
  5 25  1  6  0  0  0
  6  7  1  1  0  0  0
  6 11  1  0  0  0  0
  8 13  1  0  0  0  0
  9 10  1  1  0  0  0
  9 15  1  0  0  0  0
 11 12  1  6  0  0  0
 11 17  1  0  0  0  0
 13 14  1  6  0  0  0
 13 19  1  0  0  0  0
 15 16  1  1  0  0  0
 15 20  1  0  0  0  0
 17 18  1  6  0  0  0
 17 22  1  0  0  0  0
 19  2  1  6  0  0  0
 19 24  1  0  0  0  0
 20 21  1  0  0  0  0
 20 26  1  6  0  0  0
 22 23  1  0  0  0  0
 22 28  1  6  0  0  0
 24 25  1  1  0  0  0
 24 30  1  0  0  0  0
 26 27  1  0  0  0  0
 28 29  1  0  0  0  0
 30 31  1  1  0  0  0
M  END
>  <CHROM.1>
-174.08924095,173.69629667,-119.53259487,-176.37067668,65.76440070,175.43789102
20.94988195,8.13312109,7.04287048,1.67671387,0.18118445,-1.09258521

>  <Name>
2o3x_lig

>  <RI>
3.41138e+07

>  <Rbt.Current_Directory>
/home/itssahil/PROJECTS/Mol_Feturizer/New_Systems/rnas/2o3x

>  <Rbt.Executable>
rbdock ($Id: //depot/dev/client3/rdock/2013.1/src/exe/rbdock.cxx#4 $)

>  <Rbt.Library>
libRbt.so (2013.1, Build901 2013/11/27)

>  <Rbt.Parameter_File>
/export/apps/rDock/src/rDock_2013.1_src/data/scripts/dock_solv.prm

>  <Rbt.Receptor>
prm/pocket_docking_2.prm

>  <SCORE>
-12.461

>  <SCORE.INTER>
-13.2813

>  <SCORE.INTER.CONST>
1

>  <SCORE.INTER.POLAR>
-0.894427

>  <SCORE.INTER.ROT>
6

>  <SCORE.INTER.SOLV>
15.171

>  <SCORE.INTER.VDW>
-18.5298

>  <SCORE.INTER.norm>
-0.428428

>  <SCORE.INTRA>
0.735447

>  <SCORE.INTRA.DIHEDRAL>
-1.45821

>  <SCORE.INTRA.DIHEDRAL.0>
9.37739

>  <SCORE.INTRA.POLAR>
0

>  <SCORE.INTRA.POLAR.0>
0

>  <SCORE.INTRA.REPUL>
0

>  <SCORE.INTRA.REPUL.0>
0

>  <SCORE.INTRA.SOLV>
1.90417

>  <SCORE.INTRA.SOLV.lig_0>
-82.9274

>  <SCORE.INTRA.VDW>
0.512463

>  <SCORE.INTRA.VDW.0>
-3.84922

>  <SCORE.INTRA.norm>
0.0237241

>  <SCORE.RESTR>
0.0848399

>  <SCORE.RESTR.CAVITY>
0.0848399

>  <SCORE.RESTR.norm>
0.00273677

>  <SCORE.SYSTEM>
0

>  <SCORE.SYSTEM.CONST>
0

>  <SCORE.SYSTEM.DIHEDRAL>
0

>  <SCORE.SYSTEM.SOLV>
0

>  <SCORE.SYSTEM.norm>
0

>  <SCORE.heavy>
31

>  <SCORE.norm>
-0.401967

>  <RMSD>
1.064

$$$$
2o3x_lig
 OpenBabel11021811463D
libRbt.so/2013.1/901 2013/11/27
 31 33  0  0  0  0  0  0  0  0999 V2000
   20.3159    9.5046    5.2620 C   0  0  2  0  0  0  0  0  0  0  0  0
   21.3062    8.5738    4.8057 O   0  0  0  0  0  0  0  0  0  0  0  0
   24.1888    6.3717    7.0727 C   0  0  2  0  0  0  0  0  0  0  0  0
   25.3084    5.9989    7.9655 N   0  0  0  0  0  0  0  0  0  0  0  0
   20.3081    8.5029    8.7186 C   0  0  1  0  0  0  0  0  0  0  0  0
   18.9330    9.0802    4.6738 C   0  0  2  0  0  0  0  0  0  0  0  0
   18.6648    7.6319    4.8642 N   0  0  0  0  0  0  0  0  0  0  0  0
   24.6843    7.1072    5.7832 C   0  0  0  0  0  0  0  0  0  0  0  0
   19.8690    9.7515    9.5517 C   0  0  2  0  0  0  0  0  0  0  0  0
   20.6816   10.0578   10.7179 O   0  0  0  0  0  0  0  0  0  0  0  0
   18.8377    9.3883    3.1676 C   0  0  1  0  0  0  0  0  0  0  0  0
   17.5685    9.0455    2.6716 O   0  0  0  0  0  0  0  0  0  0  0  0
   23.4314    7.4325    4.8906 C   0  0  2  0  0  0  0  0  0  0  0  0
   23.8227    8.1219    3.6246 N   0  0  0  0  0  0  0  0  0  0  0  0
   18.4330    9.3376    9.8266 C   0  0  2  0  0  0  0  0  0  0  0  0
   18.3645    8.3628   10.9233 O   0  0  0  0  0  0  0  0  0  0  0  0
   19.1240   10.8610    2.9267 C   0  0  2  0  0  0  0  0  0  0  0  0
   19.0159   11.1466    1.5693 O   0  0  0  0  0  0  0  0  0  0  0  0
   22.4349    8.3448    5.6613 C   0  0  2  0  0  0  0  0  0  0  0  0
   17.9576    8.7193    8.5171 C   0  0  2  0  0  0  0  0  0  0  0  0
   19.1090    7.9657    8.1471 O   0  0  0  0  0  0  0  0  0  0  0  0
   20.5490   11.2146    3.4385 C   0  0  2  0  0  0  0  0  0  0  0  0
   20.6527   10.8994    4.8437 O   0  0  0  0  0  0  0  0  0  0  0  0
   21.9637    7.7397    6.9985 C   0  0  2  0  0  0  0  0  0  0  0  0
   21.2487    8.8277    7.6833 O   0  0  0  0  0  0  0  0  0  0  0  0
   17.5891    9.7496    7.3964 C   0  0  0  0  0  0  0  0  0  0  0  0
   16.6319   10.6842    7.8865 N   0  0  0  0  0  0  0  0  0  0  0  0
   20.8873   12.6744    3.2440 C   0  0  0  0  0  0  0  0  0  0  0  0
   22.2272   12.9200    3.4727 O   0  0  0  0  0  0  0  0  0  0  0  0
   23.2154    7.2661    7.8614 C   0  0  1  0  0  0  0  0  0  0  0  0
   22.8047    6.5039    9.0066 O   0  0  0  0  0  0  0  0  0  0  0  0
  1  2  1  6  0  0  0
  1  6  1  0  0  0  0
  1 23  1  0  0  0  0
  3  4  1  1  0  0  0
  3  8  1  0  0  0  0
  3 30  1  0  0  0  0
  5  9  1  0  0  0  0
  5 21  1  0  0  0  0
  5 25  1  6  0  0  0
  6  7  1  6  0  0  0
  6 11  1  0  0  0  0
  8 13  1  0  0  0  0
  9 10  1  1  0  0  0
  9 15  1  0  0  0  0
 11 12  1  1  0  0  0
 11 17  1  0  0  0  0
 13 14  1  6  0  0  0
 13 19  1  0  0  0  0
 15 16  1  1  0  0  0
 15 20  1  0  0  0  0
 17 18  1  6  0  0  0
 17 22  1  0  0  0  0
 19  2  1  6  0  0  0
 19 24  1  0  0  0  0
 20 21  1  0  0  0  0
 20 26  1  6  0  0  0
 22 23  1  0  0  0  0
 22 28  1  1  0  0  0
 24 25  1  1  0  0  0
 24 30  1  0  0  0  0
 26 27  1  0  0  0  0
 28 29  1  0  0  0  0
 30 31  1  1  0  0  0
M  END
>  <CHROM.1>
-150.38764237,167.54741418,-173.86902896,-54.31746366,-168.95607779,158.96740742
20.63241667,9.05016385,6.23519871,-1.86975144,-0.42669780,1.91441773

>  <Name>
2o3x_lig

>  <RI>
0

>  <Rbt.Current_Directory>
/home/itssahil/PROJECTS/Mol_Feturizer/New_Systems/rnas/2o3x

>  <Rbt.Executable>
rbdock ($Id: //depot/dev/client3/rdock/2013.1/src/exe/rbdock.cxx#4 $)

>  <Rbt.Library>
libRbt.so (2013.1, Build901 2013/11/27)

>  <Rbt.Parameter_File>
/export/apps/rDock/src/rDock_2013.1_src/data/scripts/dock_solv.prm

>  <Rbt.Receptor>
prm/pocket_docking_3.prm

>  <SCORE>
-15.0933

>  <SCORE.INTER>
-14.7365

>  <SCORE.INTER.CONST>
1

>  <SCORE.INTER.POLAR>
-1.13791

>  <SCORE.INTER.ROT>
6

>  <SCORE.INTER.SOLV>
22.8973

>  <SCORE.INTER.VDW>
-21.2637

>  <SCORE.INTER.norm>
-0.47537

>  <SCORE.INTRA>
-0.370395

>  <SCORE.INTRA.DIHEDRAL>
-2.25185

>  <SCORE.INTRA.DIHEDRAL.0>
9.37739

>  <SCORE.INTRA.POLAR>
0

>  <SCORE.INTRA.POLAR.0>
0

>  <SCORE.INTRA.REPUL>
0

>  <SCORE.INTRA.REPUL.0>
0

>  <SCORE.INTRA.SOLV>
-0.0823761

>  <SCORE.INTRA.SOLV.lig_0>
-82.9274

>  <SCORE.INTRA.VDW>
0.796721

>  <SCORE.INTRA.VDW.0>
-3.84922

>  <SCORE.INTRA.norm>
-0.0119482

>  <SCORE.RESTR>
0.0135166

>  <SCORE.RESTR.CAVITY>
0.0135166

>  <SCORE.RESTR.norm>
0.000436018

>  <SCORE.SYSTEM>
0

>  <SCORE.SYSTEM.CONST>
0

>  <SCORE.SYSTEM.DIHEDRAL>
0

>  <SCORE.SYSTEM.SOLV>
0

>  <SCORE.SYSTEM.norm>
0

>  <SCORE.heavy>
31

>  <SCORE.norm>
-0.486882

>  <RMSD>
1.071

$$$$
2o3x_lig
 OpenBabel11021811463D
libRbt.so/2013.1/901 2013/11/27
 31 33  0  0  0  0  0  0  0  0999 V2000
   20.3763    9.4716    5.3259 C   0  0  2  0  0  0  0  0  0  0  0  0
   21.1574    8.3438    4.9095 O   0  0  0  0  0  0  0  0  0  0  0  0
   24.5370    6.1808    6.3922 C   0  0  2  0  0  0  0  0  0  0  0  0
   25.7912    5.8062    7.0821 N   0  0  0  0  0  0  0  0  0  0  0  0
   21.0945    7.4646    9.0584 C   0  0  1  0  0  0  0  0  0  0  0  0
   18.9634    9.3612    4.6701 C   0  0  2  0  0  0  0  0  0  0  0  0
   18.3735    8.0083    4.8366 N   0  0  0  0  0  0  0  0  0  0  0  0
   24.7825    7.2205    5.2484 C   0  0  0  0  0  0  0  0  0  0  0  0
   20.1272    8.3736    9.8855 C   0  0  2  0  0  0  0  0  0  0  0  0
   20.7591    9.3734   10.7312 O   0  0  0  0  0  0  0  0  0  0  0  0
   19.0101    9.6784    3.1635 C   0  0  1  0  0  0  0  0  0  0  0  0
   17.7217    9.6226    2.6057 O   0  0  0  0  0  0  0  0  0  0  0  0
   23.4028    7.5297    4.5605 C   0  0  2  0  0  0  0  0  0  0  0  0
   23.5541    8.5048    3.4392 N   0  0  0  0  0  0  0  0  0  0  0  0
   19.3581    7.2780   10.6046 C   0  0  2  0  0  0  0  0  0  0  0  0
   20.1238    6.7552   11.7439 O   0  0  0  0  0  0  0  0  0  0  0  0
   19.6254   11.0508    2.9476 C   0  0  2  0  0  0  0  0  0  0  0  0
   19.6476   11.3492    1.5888 O   0  0  0  0  0  0  0  0  0  0  0  0
   22.3985    8.1171    5.5927 C   0  0  2  0  0  0  0  0  0  0  0  0
   19.1512    6.2006    9.5465 C   0  0  2  0  0  0  0  0  0  0  0  0
   20.4266    6.2055    8.9111 O   0  0  0  0  0  0  0  0  0  0  0  0
   21.0673   11.0827    3.5284 C   0  0  2  0  0  0  0  0  0  0  0  0
   21.0320   10.7564    4.9346 O   0  0  0  0  0  0  0  0  0  0  0  0
   22.1664    7.1981    6.8084 C   0  0  2  0  0  0  0  0  0  0  0  0
   21.4075    8.0138    7.7690 O   0  0  0  0  0  0  0  0  0  0  0  0
   18.0170    6.5035    8.5095 C   0  0  0  0  0  0  0  0  0  0  0  0
   17.8911    5.4208    7.5920 N   0  0  0  0  0  0  0  0  0  0  0  0
   21.7282   12.4312    3.3613 C   0  0  0  0  0  0  0  0  0  0  0  0
   21.0646   13.4133    4.0705 O   0  0  0  0  0  0  0  0  0  0  0  0
   23.5598    6.7508    7.4361 C   0  0  1  0  0  0  0  0  0  0  0  0
   23.3841    5.7261    8.4262 O   0  0  0  0  0  0  0  0  0  0  0  0
  1  2  1  6  0  0  0
  1  6  1  0  0  0  0
  1 23  1  0  0  0  0
  3  4  1  1  0  0  0
  3  8  1  0  0  0  0
  3 30  1  0  0  0  0
  5  9  1  0  0  0  0
  5 21  1  0  0  0  0
  5 25  1  6  0  0  0
  6  7  1  6  0  0  0
  6 11  1  0  0  0  0
  8 13  1  0  0  0  0
  9 10  1  1  0  0  0
  9 15  1  0  0  0  0
 11 12  1  1  0  0  0
 11 17  1  0  0  0  0
 13 14  1  6  0  0  0
 13 19  1  0  0  0  0
 15 16  1  1  0  0  0
 15 20  1  0  0  0  0
 17 18  1  6  0  0  0
 17 22  1  0  0  0  0
 19  2  1  6  0  0  0
 19 24  1  0  0  0  0
 20 21  1  0  0  0  0
 20 26  1  6  0  0  0
 22 23  1  0  0  0  0
 22 28  1  1  0  0  0
 24 25  1  1  0  0  0
 24 30  1  0  0  0  0
 26 27  1  0  0  0  0
 28 29  1  0  0  0  0
 30 31  1  1  0  0  0
M  END
>  <CHROM.1>
-168.58814922,-172.31606763,-146.08223089,-178.63239088,63.76884265,-176.40076687
21.00562967,8.39097435,6.30849317,1.66581057,0.28800039,-1.00622465

>  <Name>
2o3x_lig

>  <RI>
0

>  <Rbt.Current_Directory>
/home/itssahil/PROJECTS/Mol_Feturizer/New_Systems/rnas/2o3x

>  <Rbt.Executable>
rbdock ($Id: //depot/dev/client3/rdock/2013.1/src/exe/rbdock.cxx#4 $)

>  <Rbt.Library>
libRbt.so (2013.1, Build901 2013/11/27)

>  <Rbt.Parameter_File>
/export/apps/rDock/src/rDock_2013.1_src/data/scripts/dock_solv.prm

>  <Rbt.Receptor>
prm/pocket_docking_3.prm

>  <SCORE>
-18.0896

>  <SCORE.INTER>
-16.6201

>  <SCORE.INTER.CONST>
1

>  <SCORE.INTER.POLAR>
-1.61126

>  <SCORE.INTER.ROT>
6

>  <SCORE.INTER.SOLV>
16.9991

>  <SCORE.INTER.VDW>
-18.9756

>  <SCORE.INTER.norm>
-0.536133

>  <SCORE.INTRA>
-1.46946

>  <SCORE.INTRA.DIHEDRAL>
-3.88412

>  <SCORE.INTRA.DIHEDRAL.0>
9.37739

>  <SCORE.INTRA.POLAR>
0

>  <SCORE.INTRA.POLAR.0>
0

>  <SCORE.INTRA.REPUL>
0

>  <SCORE.INTRA.REPUL.0>
0

>  <SCORE.INTRA.SOLV>
-0.34966

>  <SCORE.INTRA.SOLV.lig_0>
-82.9274

>  <SCORE.INTRA.VDW>
0.647424

>  <SCORE.INTRA.VDW.0>
-3.84922

>  <SCORE.INTRA.norm>
-0.0474021

>  <SCORE.RESTR>
0

>  <SCORE.RESTR.CAVITY>
0

>  <SCORE.RESTR.norm>
0

>  <SCORE.SYSTEM>
0

>  <SCORE.SYSTEM.CONST>
0

>  <SCORE.SYSTEM.DIHEDRAL>
0

>  <SCORE.SYSTEM.SOLV>
0

>  <SCORE.SYSTEM.norm>
0

>  <SCORE.heavy>
31

>  <SCORE.norm>
-0.583535

>  <RMSD>
1.075

$$$$
2o3x_lig
 OpenBabel11021811463D
libRbt.so/2013.1/901 2013/11/27
 31 33  0  0  0  0  0  0  0  0999 V2000
   20.3208    9.0491    5.4617 C   0  0  2  0  0  0  0  0  0  0  0  0
   21.2871    8.1204    4.9524 O   0  0  0  0  0  0  0  0  0  0  0  0
   25.0113    6.5254    6.3252 C   0  0  2  0  0  0  0  0  0  0  0  0
   26.3338    6.3595    6.9677 N   0  0  0  0  0  0  0  0  0  0  0  0
   21.4443    7.2855    9.0805 C   0  0  1  0  0  0  0  0  0  0  0  0
   18.9467    8.7526    4.7818 C   0  0  2  0  0  0  0  0  0  0  0  0
   18.6060    7.3074    4.8158 N   0  0  0  0  0  0  0  0  0  0  0  0
   25.0512    7.5658    5.1567 C   0  0  0  0  0  0  0  0  0  0  0  0
   20.3593    8.0471    9.9105 C   0  0  2  0  0  0  0  0  0  0  0  0
   20.8479    9.1059   10.7792 O   0  0  0  0  0  0  0  0  0  0  0  0
   18.9298    9.2116    3.3115 C   0  0  1  0  0  0  0  0  0  0  0  0
   17.6689    8.9816    2.7357 O   0  0  0  0  0  0  0  0  0  0  0  0
   23.6148    7.6481    4.5224 C   0  0  2  0  0  0  0  0  0  0  0  0
   23.5724    8.6109    3.3812 N   0  0  0  0  0  0  0  0  0  0  0  0
   19.7324    6.8489   10.6034 C   0  0  2  0  0  0  0  0  0  0  0  0
   20.5487    6.4104   11.7432 O   0  0  0  0  0  0  0  0  0  0  0  0
   19.2918   10.6851    3.2304 C   0  0  2  0  0  0  0  0  0  0  0  0
   19.2547   11.1076    1.9053 O   0  0  0  0  0  0  0  0  0  0  0  0
   22.5738    8.0986    5.5867 C   0  0  2  0  0  0  0  0  0  0  0  0
   19.6772    5.7720    9.5262 C   0  0  2  0  0  0  0  0  0  0  0  0
   20.9471    5.9532    8.9058 O   0  0  0  0  0  0  0  0  0  0  0  0
   20.7081   10.9167    3.8289 C   0  0  2  0  0  0  0  0  0  0  0  0
   20.7374   10.4602    5.1984 O   0  0  0  0  0  0  0  0  0  0  0  0
   22.5316    7.1810    6.8246 C   0  0  2  0  0  0  0  0  0  0  0  0
   21.6956    7.8926    7.8037 O   0  0  0  0  0  0  0  0  0  0  0  0
   18.5231    5.9427    8.4810 C   0  0  0  0  0  0  0  0  0  0  0  0
   17.2598    5.9234    9.1394 N   0  0  0  0  0  0  0  0  0  0  0  0
   21.1195   12.3703    3.7947 C   0  0  0  0  0  0  0  0  0  0  0  0
   21.3338   12.8070    2.5019 O   0  0  0  0  0  0  0  0  0  0  0  0
   24.0002    6.9629    7.4003 C   0  0  1  0  0  0  0  0  0  0  0  0
   24.0210    5.9447    8.4122 O   0  0  0  0  0  0  0  0  0  0  0  0
  1  2  1  6  0  0  0
  1  6  1  0  0  0  0
  1 23  1  0  0  0  0
  3  4  1  1  0  0  0
  3  8  1  0  0  0  0
  3 30  1  0  0  0  0
  5  9  1  0  0  0  0
  5 21  1  0  0  0  0
  5 25  1  6  0  0  0
  6  7  1  6  0  0  0
  6 11  1  0  0  0  0
  8 13  1  0  0  0  0
  9 10  1  1  0  0  0
  9 15  1  0  0  0  0
 11 12  1  1  0  0  0
 11 17  1  0  0  0  0
 13 14  1  6  0  0  0
 13 19  1  0  0  0  0
 15 16  1  1  0  0  0
 15 20  1  0  0  0  0
 17 18  1  6  0  0  0
 17 22  1  0  0  0  0
 19  2  1  6  0  0  0
 19 24  1  0  0  0  0
 20 21  1  0  0  0  0
 20 26  1  6  0  0  0
 22 23  1  0  0  0  0
 22 28  1  1  0  0  0
 24 25  1  1  0  0  0
 24 30  1  0  0  0  0
 26 27  1  0  0  0  0
 28 29  1  0  0  0  0
 30 31  1  1  0  0  0
M  END
>  <CHROM.1>
-171.46229133,-170.57657319,-151.29447808,-59.70948522,-68.67678686,179.32307604
21.14296988,8.21459452,6.36002500,1.69850702,0.16908903,-1.03658005

>  <Name>
2o3x_lig

>  <RI>
3.41138e+07

>  <Rbt.Current_Directory>
/home/itssahil/PROJECTS/Mol_Feturizer/New_Systems/rnas/2o3x

>  <Rbt.Executable>
rbdock ($Id: //depot/dev/client3/rdock/2013.1/src/exe/rbdock.cxx#4 $)

>  <Rbt.Library>
libRbt.so (2013.1, Build901 2013/11/27)

>  <Rbt.Parameter_File>
/export/apps/rDock/src/rDock_2013.1_src/data/scripts/dock_solv.prm

>  <Rbt.Receptor>
prm/pocket_docking_2.prm

>  <SCORE>
-19.2537

>  <SCORE.INTER>
-17.0664

>  <SCORE.INTER.CONST>
1

>  <SCORE.INTER.POLAR>
-1.55127

>  <SCORE.INTER.ROT>
6

>  <SCORE.INTER.SOLV>
17.2817

>  <SCORE.INTER.VDW>
-19.5673

>  <SCORE.INTER.norm>
-0.550529

>  <SCORE.INTRA>
-2.19658

>  <SCORE.INTRA.DIHEDRAL>
-4.83241

>  <SCORE.INTRA.DIHEDRAL.0>
9.37739

>  <SCORE.INTRA.POLAR>
0

>  <SCORE.INTRA.POLAR.0>
0

>  <SCORE.INTRA.REPUL>
0

>  <SCORE.INTRA.REPUL.0>
0

>  <SCORE.INTRA.SOLV>
-1.15169

>  <SCORE.INTRA.SOLV.lig_0>
-82.9274

>  <SCORE.INTRA.VDW>
0.795468

>  <SCORE.INTRA.VDW.0>
-3.84922

>  <SCORE.INTRA.norm>
-0.0708575

>  <SCORE.RESTR>
0.00929849

>  <SCORE.RESTR.CAVITY>
0.00929849

>  <SCORE.RESTR.norm>
0.000299951

>  <SCORE.SYSTEM>
0

>  <SCORE.SYSTEM.CONST>
0

>  <SCORE.SYSTEM.DIHEDRAL>
0

>  <SCORE.SYSTEM.SOLV>
0

>  <SCORE.SYSTEM.norm>
0

>  <SCORE.heavy>
31

>  <SCORE.norm>
-0.621086

>  <RMSD>
1.080

$$$$
2o3x_lig
 OpenBabel11021811463D
libRbt.so/2013.1/901 2013/11/27
 31 33  0  0  0  0  0  0  0  0999 V2000
   20.2971    9.0764    5.4645 C   0  0  2  0  0  0  0  0  0  0  0  0
   21.2467    8.1255    4.9649 O   0  0  0  0  0  0  0  0  0  0  0  0
   24.8936    6.4003    6.3868 C   0  0  2  0  0  0  0  0  0  0  0  0
   26.1947    6.1838    7.0574 N   0  0  0  0  0  0  0  0  0  0  0  0
   21.4063    7.2525    9.1296 C   0  0  1  0  0  0  0  0  0  0  0  0
   18.9166    8.7940    4.7915 C   0  0  2  0  0  0  0  0  0  0  0  0
   18.5522    7.3552    4.8446 N   0  0  0  0  0  0  0  0  0  0  0  0
   24.9893    7.4697    5.2480 C   0  0  0  0  0  0  0  0  0  0  0  0
   20.3205    7.9998    9.9715 C   0  0  2  0  0  0  0  0  0  0  0  0
   20.7925    9.1180   10.7722 O   0  0  0  0  0  0  0  0  0  0  0  0
   18.9036    9.2346    3.3155 C   0  0  1  0  0  0  0  0  0  0  0  0
   17.6377    9.0180    2.7455 O   0  0  0  0  0  0  0  0  0  0  0  0
   23.5721    7.6053    4.5806 C   0  0  2  0  0  0  0  0  0  0  0  0
   23.5830    8.5986    3.4650 N   0  0  0  0  0  0  0  0  0  0  0  0
   19.7803    6.8062   10.7414 C   0  0  2  0  0  0  0  0  0  0  0  0
   20.6622    6.4577   11.8632 O   0  0  0  0  0  0  0  0  0  0  0  0
   19.2896   10.7007    3.2150 C   0  0  2  0  0  0  0  0  0  0  0  0
   19.2562   11.1070    1.8847 O   0  0  0  0  0  0  0  0  0  0  0  0
   22.5158    8.0542    5.6302 C   0  0  2  0  0  0  0  0  0  0  0  0
   19.7333    5.6806    9.7148 C   0  0  2  0  0  0  0  0  0  0  0  0
   20.9669    5.8921    9.0337 O   0  0  0  0  0  0  0  0  0  0  0  0
   20.7109   10.9165    3.8073 C   0  0  2  0  0  0  0  0  0  0  0  0
   20.7361   10.4770    5.1824 O   0  0  0  0  0  0  0  0  0  0  0  0
   22.4190    7.1057    6.8416 C   0  0  2  0  0  0  0  0  0  0  0  0
   21.5762    7.8125    7.8183 O   0  0  0  0  0  0  0  0  0  0  0  0
   18.5310    5.7507    8.7133 C   0  0  0  0  0  0  0  0  0  0  0  0
   18.6024    6.9492    7.9462 N   0  0  0  0  0  0  0  0  0  0  0  0
   21.1461   12.3626    3.7537 C   0  0  0  0  0  0  0  0  0  0  0  0
   21.3547   12.7822    2.4543 O   0  0  0  0  0  0  0  0  0  0  0  0
   23.8665    6.8352    7.4477 C   0  0  1  0  0  0  0  0  0  0  0  0
   23.8360    5.7905    8.4320 O   0  0  0  0  0  0  0  0  0  0  0  0
  1  2  1  6  0  0  0
  1  6  1  0  0  0  0
  1 23  1  0  0  0  0
  3  4  1  1  0  0  0
  3  8  1  0  0  0  0
  3 30  1  0  0  0  0
  5  9  1  0  0  0  0
  5 21  1  0  0  0  0
  5 25  1  6  0  0  0
  6  7  1  6  0  0  0
  6 11  1  0  0  0  0
  8 13  1  0  0  0  0
  9 10  1  1  0  0  0
  9 15  1  0  0  0  0
 11 12  1  1  0  0  0
 11 17  1  0  0  0  0
 13 14  1  6  0  0  0
 13 19  1  0  0  0  0
 15 16  1  1  0  0  0
 15 20  1  0  0  0  0
 17 18  1  6  0  0  0
 17 22  1  0  0  0  0
 19  2  1  6  0  0  0
 19 24  1  0  0  0  0
 20 21  1  0  0  0  0
 20 26  1  6  0  0  0
 22 23  1  0  0  0  0
 22 28  1  1  0  0  0
 24 25  1  1  0  0  0
 24 30  1  0  0  0  0
 26 27  1  0  0  0  0
 28 29  1  0  0  0  0
 30 31  1  1  0  0  0
M  END
>  <CHROM.1>
-169.08093485,-171.35439272,-150.55512349,61.62077165,-68.22535022,-173.38519448
21.15366004,8.21051181,6.36430724,1.74545938,0.21875515,-1.04899243

>  <Name>
2o3x_lig

>  <RI>
3.41138e+07

>  <Rbt.Current_Directory>
/home/itssahil/PROJECTS/Mol_Feturizer/New_Systems/rnas/2o3x

>  <Rbt.Executable>
rbdock ($Id: //depot/dev/client3/rdock/2013.1/src/exe/rbdock.cxx#4 $)

>  <Rbt.Library>
libRbt.so (2013.1, Build901 2013/11/27)

>  <Rbt.Parameter_File>
/export/apps/rDock/src/rDock_2013.1_src/data/scripts/dock_solv.prm

>  <Rbt.Receptor>
prm/pocket_docking_2.prm

>  <SCORE>
-16.7211

>  <SCORE.INTER>
-17.604

>  <SCORE.INTER.CONST>
1

>  <SCORE.INTER.POLAR>
-1.64263

>  <SCORE.INTER.ROT>
6

>  <SCORE.INTER.SOLV>
16.6368

>  <SCORE.INTER.VDW>
-19.4062

>  <SCORE.INTER.norm>
-0.567871

>  <SCORE.INTRA>
0.87432

>  <SCORE.INTRA.DIHEDRAL>
-4.35253

>  <SCORE.INTRA.DIHEDRAL.0>
9.37739

>  <SCORE.INTRA.POLAR>
0

>  <SCORE.INTRA.POLAR.0>
0

>  <SCORE.INTRA.REPUL>
0

>  <SCORE.INTRA.REPUL.0>
0

>  <SCORE.INTRA.SOLV>
4.52583

>  <SCORE.INTRA.SOLV.lig_0>
-82.9274

>  <SCORE.INTRA.VDW>
0.787668

>  <SCORE.INTRA.VDW.0>
-3.84922

>  <SCORE.INTRA.norm>
0.0282039

>  <SCORE.RESTR>
0.00853842

>  <SCORE.RESTR.CAVITY>
0.00853842

>  <SCORE.RESTR.norm>
0.000275433

>  <SCORE.SYSTEM>
0

>  <SCORE.SYSTEM.CONST>
0

>  <SCORE.SYSTEM.DIHEDRAL>
0

>  <SCORE.SYSTEM.SOLV>
0

>  <SCORE.SYSTEM.norm>
0

>  <SCORE.heavy>
31

>  <SCORE.norm>
-0.539392

>  <RMSD>
1.097

$$$$
2o3x_lig
 OpenBabel11021811463D
libRbt.so/2013.1/901 2013/11/27
 31 33  0  0  0  0  0  0  0  0999 V2000
   20.1820    9.1422    5.4723 C   0  0  2  0  0  0  0  0  0  0  0  0
   21.1059    8.1510    5.0040 O   0  0  0  0  0  0  0  0  0  0  0  0
   24.8294    6.5013    6.3127 C   0  0  2  0  0  0  0  0  0  0  0  0
   26.1525    6.3101    6.9468 N   0  0  0  0  0  0  0  0  0  0  0  0
   21.4054    7.2498    9.1577 C   0  0  1  0  0  0  0  0  0  0  0  0
   18.7942    8.8746    4.8084 C   0  0  2  0  0  0  0  0  0  0  0  0
   18.3921    7.4484    4.9080 N   0  0  0  0  0  0  0  0  0  0  0  0
   24.8694    7.5831    5.1824 C   0  0  0  0  0  0  0  0  0  0  0  0
   20.3589    7.9917   10.0524 C   0  0  2  0  0  0  0  0  0  0  0  0
   20.8675    9.1031   10.8402 O   0  0  0  0  0  0  0  0  0  0  0  0
   18.7919    9.2674    3.3189 C   0  0  1  0  0  0  0  0  0  0  0  0
   17.5204    9.0659    2.7558 O   0  0  0  0  0  0  0  0  0  0  0  0
   23.4322    7.6906    4.5537 C   0  0  2  0  0  0  0  0  0  0  0  0
   23.3898    8.6940    3.4480 N   0  0  0  0  0  0  0  0  0  0  0  0
   19.8514    6.7928   10.8360 C   0  0  2  0  0  0  0  0  0  0  0  0
   20.7813    6.4345   11.9152 O   0  0  0  0  0  0  0  0  0  0  0  0
   19.2163   10.7188    3.1710 C   0  0  2  0  0  0  0  0  0  0  0  0
   19.1929   11.0825    1.8283 O   0  0  0  0  0  0  0  0  0  0  0  0
   22.3936    8.1042    5.6351 C   0  0  2  0  0  0  0  0  0  0  0  0
   19.7574    5.6753    9.8038 C   0  0  2  0  0  0  0  0  0  0  0  0
   20.9601    5.8907    9.0707 O   0  0  0  0  0  0  0  0  0  0  0  0
   20.6432   10.9162    3.7564 C   0  0  2  0  0  0  0  0  0  0  0  0
   20.6576   10.5209    5.1451 O   0  0  0  0  0  0  0  0  0  0  0  0
   22.3516    7.1426    6.8392 C   0  0  2  0  0  0  0  0  0  0  0  0
   21.5182    7.8198    7.8445 O   0  0  0  0  0  0  0  0  0  0  0  0
   18.5123    5.7547    8.8569 C   0  0  0  0  0  0  0  0  0  0  0  0
   18.5563    6.9548    8.0902 N   0  0  0  0  0  0  0  0  0  0  0  0
   21.1163   12.3478    3.6561 C   0  0  0  0  0  0  0  0  0  0  0  0
   21.3620   12.7108    2.3462 O   0  0  0  0  0  0  0  0  0  0  0  0
   23.8206    6.9015    7.4044 C   0  0  1  0  0  0  0  0  0  0  0  0
   23.8412    5.8474    8.3789 O   0  0  0  0  0  0  0  0  0  0  0  0
  1  2  1  6  0  0  0
  1  6  1  0  0  0  0
  1 23  1  0  0  0  0
  3  4  1  1  0  0  0
  3  8  1  0  0  0  0
  3 30  1  0  0  0  0
  5  9  1  0  0  0  0
  5 21  1  0  0  0  0
  5 25  1  6  0  0  0
  6  7  1  6  0  0  0
  6 11  1  0  0  0  0
  8 13  1  0  0  0  0
  9 10  1  1  0  0  0
  9 15  1  0  0  0  0
 11 12  1  1  0  0  0
 11 17  1  0  0  0  0
 13 14  1  6  0  0  0
 13 19  1  0  0  0  0
 15 16  1  1  0  0  0
 15 20  1  0  0  0  0
 17 18  1  6  0  0  0
 17 22  1  0  0  0  0
 19  2  1  6  0  0  0
 19 24  1  0  0  0  0
 20 21  1  0  0  0  0
 20 26  1  6  0  0  0
 22 23  1  0  0  0  0
 22 28  1  1  0  0  0
 24 25  1  1  0  0  0
 24 30  1  0  0  0  0
 26 27  1  0  0  0  0
 28 29  1  0  0  0  0
 30 31  1  1  0  0  0
M  END
>  <CHROM.1>
-171.57208193,-173.32206474,-146.03338439,62.00899794,-69.48505606,-172.87288244
21.10130265,8.24062796,6.36788023,1.74434824,0.20274538,-1.05721514

>  <Name>
2o3x_lig

>  <RI>
3.41138e+07

>  <Rbt.Current_Directory>
/home/itssahil/PROJECTS/Mol_Feturizer/New_Systems/rnas/2o3x

>  <Rbt.Executable>
rbdock ($Id: //depot/dev/client3/rdock/2013.1/src/exe/rbdock.cxx#4 $)

>  <Rbt.Library>
libRbt.so (2013.1, Build901 2013/11/27)

>  <Rbt.Parameter_File>
/export/apps/rDock/src/rDock_2013.1_src/data/scripts/dock_solv.prm

>  <Rbt.Receptor>
prm/pocket_docking_2.prm

>  <SCORE>
-16.7563

>  <SCORE.INTER>
-17.8229

>  <SCORE.INTER.CONST>
1

>  <SCORE.INTER.POLAR>
-1.62884

>  <SCORE.INTER.ROT>
6

>  <SCORE.INTER.SOLV>
16.3026

>  <SCORE.INTER.VDW>
-19.4866

>  <SCORE.INTER.norm>
-0.574932

>  <SCORE.INTRA>
1.05967

>  <SCORE.INTRA.DIHEDRAL>
-3.77289

>  <SCORE.INTRA.DIHEDRAL.0>
9.37739

>  <SCORE.INTRA.POLAR>
0

>  <SCORE.INTRA.POLAR.0>
0

>  <SCORE.INTRA.REPUL>
0

>  <SCORE.INTRA.REPUL.0>
0

>  <SCORE.INTRA.SOLV>
4.44471

>  <SCORE.INTRA.SOLV.lig_0>
-82.9274

>  <SCORE.INTRA.VDW>
0.723759

>  <SCORE.INTRA.VDW.0>
-3.84922

>  <SCORE.INTRA.norm>
0.0341829

>  <SCORE.RESTR>
0.00695256

>  <SCORE.RESTR.CAVITY>
0.00695256

>  <SCORE.RESTR.norm>
0.000224276

>  <SCORE.SYSTEM>
0

>  <SCORE.SYSTEM.CONST>
0

>  <SCORE.SYSTEM.DIHEDRAL>
0

>  <SCORE.SYSTEM.SOLV>
0

>  <SCORE.SYSTEM.norm>
0

>  <SCORE.heavy>
31

>  <SCORE.norm>
-0.540525

>  <RMSD>
1.106

$$$$
2o3x_lig
 OpenBabel11021811463D
libRbt.so/2013.1/901 2013/11/27
 31 33  0  0  0  0  0  0  0  0999 V2000
   20.2171    9.4289    5.4341 C   0  0  2  0  0  0  0  0  0  0  0  0
   21.0652    8.3450    5.0327 O   0  0  0  0  0  0  0  0  0  0  0  0
   24.6932    6.5113    6.3645 C   0  0  2  0  0  0  0  0  0  0  0  0
   25.9934    6.2485    7.0202 N   0  0  0  0  0  0  0  0  0  0  0  0
   21.2423    7.2986    9.1615 C   0  0  1  0  0  0  0  0  0  0  0  0
   18.7867    9.1728    4.8624 C   0  0  2  0  0  0  0  0  0  0  0  0
   18.3176    7.7889    5.1280 N   0  0  0  0  0  0  0  0  0  0  0  0
   24.7997    7.6281    5.2732 C   0  0  0  0  0  0  0  0  0  0  0  0
   20.2611    8.0916   10.0860 C   0  0  2  0  0  0  0  0  0  0  0  0
   20.8599    9.1295   10.9098 O   0  0  0  0  0  0  0  0  0  0  0  0
   18.7319    9.4107    3.3415 C   0  0  1  0  0  0  0  0  0  0  0  0
   17.4259    9.2241    2.8580 O   0  0  0  0  0  0  0  0  0  0  0  0
   23.3824    7.8114    4.6175 C   0  0  2  0  0  0  0  0  0  0  0  0
   23.4030    8.8523    3.5463 N   0  0  0  0  0  0  0  0  0  0  0  0
   19.6585    6.9114   10.8295 C   0  0  2  0  0  0  0  0  0  0  0  0
   20.5576    6.4407   11.8915 O   0  0  0  0  0  0  0  0  0  0  0  0
   19.2222   10.8135    3.0243 C   0  0  2  0  0  0  0  0  0  0  0  0
   19.1519   11.0388    1.6532 O   0  0  0  0  0  0  0  0  0  0  0  0
   22.3354    8.2279    5.6896 C   0  0  2  0  0  0  0  0  0  0  0  0
   19.4722    5.8421    9.7594 C   0  0  2  0  0  0  0  0  0  0  0  0
   20.6874    5.9843    9.0291 O   0  0  0  0  0  0  0  0  0  0  0  0
   20.6841   10.9897    3.5237 C   0  0  2  0  0  0  0  0  0  0  0  0
   20.7459   10.7382    4.9442 O   0  0  0  0  0  0  0  0  0  0  0  0
   22.2297    7.2288    6.8588 C   0  0  2  0  0  0  0  0  0  0  0  0
   21.3994    7.9033    7.8685 O   0  0  0  0  0  0  0  0  0  0  0  0
   18.2363    6.0560    8.8212 C   0  0  0  0  0  0  0  0  0  0  0  0
   18.2061    5.0482    7.8145 N   0  0  0  0  0  0  0  0  0  0  0  0
   21.2242   12.3749    3.2538 C   0  0  0  0  0  0  0  0  0  0  0  0
   22.5880   12.4380    3.4638 O   0  0  0  0  0  0  0  0  0  0  0  0
   23.6753    6.9129    7.4471 C   0  0  1  0  0  0  0  0  0  0  0  0
   23.6339    5.8267    8.3850 O   0  0  0  0  0  0  0  0  0  0  0  0
  1  2  1  6  0  0  0
  1  6  1  0  0  0  0
  1 23  1  0  0  0  0
  3  4  1  1  0  0  0
  3  8  1  0  0  0  0
  3 30  1  0  0  0  0
  5  9  1  0  0  0  0
  5 21  1  0  0  0  0
  5 25  1  6  0  0  0
  6  7  1  6  0  0  0
  6 11  1  0  0  0  0
  8 13  1  0  0  0  0
  9 10  1  1  0  0  0
  9 15  1  0  0  0  0
 11 12  1  1  0  0  0
 11 17  1  0  0  0  0
 13 14  1  6  0  0  0
 13 19  1  0  0  0  0
 15 16  1  1  0  0  0
 15 20  1  0  0  0  0
 17 18  1  6  0  0  0
 17 22  1  0  0  0  0
 19  2  1  6  0  0  0
 19 24  1  0  0  0  0
 20 21  1  0  0  0  0
 20 26  1  6  0  0  0
 22 23  1  0  0  0  0
 22 28  1  1  0  0  0
 24 25  1  1  0  0  0
 24 30  1  0  0  0  0
 26 27  1  0  0  0  0
 28 29  1  0  0  0  0
 30 31  1  1  0  0  0
M  END
>  <CHROM.1>
-166.58823181,-176.39862782,-140.64613438,176.50435975,-168.39284470,-172.46624107
21.05023452,8.27158332,6.38985247,1.67201825,0.12404578,-1.02242576

>  <Name>
2o3x_lig

>  <RI>
3.41138e+07

>  <Rbt.Current_Directory>
/home/itssahil/PROJECTS/Mol_Feturizer/New_Systems/rnas/2o3x

>  <Rbt.Executable>
rbdock ($Id: //depot/dev/client3/rdock/2013.1/src/exe/rbdock.cxx#4 $)

>  <Rbt.Library>
libRbt.so (2013.1, Build901 2013/11/27)

>  <Rbt.Parameter_File>
/export/apps/rDock/src/rDock_2013.1_src/data/scripts/dock_solv.prm

>  <Rbt.Receptor>
prm/pocket_docking_2.prm

>  <SCORE>
-18.0722

>  <SCORE.INTER>
-18.1778

>  <SCORE.INTER.CONST>
1

>  <SCORE.INTER.POLAR>
-1.54996

>  <SCORE.INTER.ROT>
6

>  <SCORE.INTER.SOLV>
16.061

>  <SCORE.INTER.VDW>
-19.9056

>  <SCORE.INTER.norm>
-0.58638

>  <SCORE.INTRA>
-0.479174

>  <SCORE.INTRA.DIHEDRAL>
-2.24845

>  <SCORE.INTRA.DIHEDRAL.0>
9.37739

>  <SCORE.INTRA.POLAR>
0

>  <SCORE.INTRA.POLAR.0>
0

>  <SCORE.INTRA.REPUL>
0

>  <SCORE.INTRA.REPUL.0>
0

>  <SCORE.INTRA.SOLV>
0.161739

>  <SCORE.INTRA.SOLV.lig_0>
-82.9274

>  <SCORE.INTRA.VDW>
0.564179

>  <SCORE.INTRA.VDW.0>
-3.84922

>  <SCORE.INTRA.norm>
-0.0154572

>  <SCORE.RESTR>
0.584717

>  <SCORE.RESTR.CAVITY>
0.584717

>  <SCORE.RESTR.norm>
0.0188618

>  <SCORE.SYSTEM>
0

>  <SCORE.SYSTEM.CONST>
0

>  <SCORE.SYSTEM.DIHEDRAL>
0

>  <SCORE.SYSTEM.SOLV>
0

>  <SCORE.SYSTEM.norm>
0

>  <SCORE.heavy>
31

>  <SCORE.norm>
-0.582976

>  <RMSD>
1.114

$$$$
2o3x_lig
 OpenBabel11021811463D
libRbt.so/2013.1/901 2013/11/27
 31 33  0  0  0  0  0  0  0  0999 V2000
   20.2846    9.3042    5.4171 C   0  0  2  0  0  0  0  0  0  0  0  0
   21.1802    8.2854    4.9528 O   0  0  0  0  0  0  0  0  0  0  0  0
   24.8525    6.5194    6.2541 C   0  0  2  0  0  0  0  0  0  0  0  0
   26.1637    6.2816    6.8972 N   0  0  0  0  0  0  0  0  0  0  0  0
   21.4368    7.2728    9.0912 C   0  0  1  0  0  0  0  0  0  0  0  0
   18.8912    9.0763    4.7501 C   0  0  2  0  0  0  0  0  0  0  0  0
   18.4471    7.6627    4.8510 N   0  0  0  0  0  0  0  0  0  0  0  0
   24.9286    7.6329    5.1569 C   0  0  0  0  0  0  0  0  0  0  0  0
   20.3667    7.9821    9.9846 C   0  0  2  0  0  0  0  0  0  0  0  0
   20.8451    9.0929   10.7918 O   0  0  0  0  0  0  0  0  0  0  0  0
   18.9042    9.4664    3.2600 C   0  0  1  0  0  0  0  0  0  0  0  0
   17.6287    9.3014    2.6941 O   0  0  0  0  0  0  0  0  0  0  0  0
   23.5015    7.7893    4.5154 C   0  0  2  0  0  0  0  0  0  0  0  0
   23.4933    8.8255    3.4396 N   0  0  0  0  0  0  0  0  0  0  0  0
   19.8753    6.7633   10.7474 C   0  0  2  0  0  0  0  0  0  0  0  0
   20.8013    6.4092   11.8313 O   0  0  0  0  0  0  0  0  0  0  0  0
   19.3714   10.9045    3.1108 C   0  0  2  0  0  0  0  0  0  0  0  0
   19.3620   11.2665    1.7675 O   0  0  0  0  0  0  0  0  0  0  0  0
   22.4589    8.1928    5.5968 C   0  0  2  0  0  0  0  0  0  0  0  0
   19.8140    5.6577    9.6999 C   0  0  2  0  0  0  0  0  0  0  0  0
   21.0196    5.9064    8.9820 O   0  0  0  0  0  0  0  0  0  0  0  0
   20.8020   11.0609    3.6995 C   0  0  2  0  0  0  0  0  0  0  0  0
   20.8013   10.6677    5.0889 O   0  0  0  0  0  0  0  0  0  0  0  0
   22.3825    7.1973    6.7712 C   0  0  2  0  0  0  0  0  0  0  0  0
   21.5515    7.8622    7.7867 O   0  0  0  0  0  0  0  0  0  0  0  0
   18.5772    5.7249    8.7412 C   0  0  0  0  0  0  0  0  0  0  0  0
   18.5450    4.5735    7.9026 N   0  0  0  0  0  0  0  0  0  0  0  0
   21.3172   12.4778    3.5981 C   0  0  0  0  0  0  0  0  0  0  0  0
   21.5590   12.8375    2.2866 O   0  0  0  0  0  0  0  0  0  0  0  0
   23.8393    6.9085    7.3457 C   0  0  1  0  0  0  0  0  0  0  0  0
   23.8262    5.8260    8.2886 O   0  0  0  0  0  0  0  0  0  0  0  0
  1  2  1  6  0  0  0
  1  6  1  0  0  0  0
  1 23  1  0  0  0  0
  3  4  1  1  0  0  0
  3  8  1  0  0  0  0
  3 30  1  0  0  0  0
  5  9  1  0  0  0  0
  5 21  1  0  0  0  0
  5 25  1  6  0  0  0
  6  7  1  6  0  0  0
  6 11  1  0  0  0  0
  8 13  1  0  0  0  0
  9 10  1  1  0  0  0
  9 15  1  0  0  0  0
 11 12  1  1  0  0  0
 11 17  1  0  0  0  0
 13 14  1  6  0  0  0
 13 19  1  0  0  0  0
 15 16  1  1  0  0  0
 15 20  1  0  0  0  0
 17 18  1  6  0  0  0
 17 22  1  0  0  0  0
 19  2  1  6  0  0  0
 19 24  1  0  0  0  0
 20 21  1  0  0  0  0
 20 26  1  6  0  0  0
 22 23  1  0  0  0  0
 22 28  1  1  0  0  0
 24 25  1  1  0  0  0
 24 30  1  0  0  0  0
 26 27  1  0  0  0  0
 28 29  1  0  0  0  0
 30 31  1  1  0  0  0
M  END
>  <CHROM.1>
-170.93239747,-171.86297803,-144.48790351,-173.85413298,-68.64634375,-171.39988518
21.17275614,8.24317145,6.30203443,1.70132100,0.15829050,-0.99772898

>  <Name>
2o3x_lig

>  <RI>
0

>  <Rbt.Current_Directory>
/home/itssahil/PROJECTS/Mol_Feturizer/New_Systems/rnas/2o3x

>  <Rbt.Executable>
rbdock ($Id: //depot/dev/client3/rdock/2013.1/src/exe/rbdock.cxx#4 $)

>  <Rbt.Library>
libRbt.so (2013.1, Build901 2013/11/27)

>  <Rbt.Parameter_File>
/export/apps/rDock/src/rDock_2013.1_src/data/scripts/dock_solv.prm

>  <Rbt.Receptor>
prm/pocket_docking_3.prm

>  <SCORE>
-19.5414

>  <SCORE.INTER>
-18.232

>  <SCORE.INTER.CONST>
1

>  <SCORE.INTER.POLAR>
-1.64276

>  <SCORE.INTER.ROT>
6

>  <SCORE.INTER.SOLV>
16.3821

>  <SCORE.INTER.VDW>
-19.7395

>  <SCORE.INTER.norm>
-0.58813

>  <SCORE.INTRA>
-1.3094

>  <SCORE.INTRA.DIHEDRAL>
-3.17185

>  <SCORE.INTRA.DIHEDRAL.0>
9.37739

>  <SCORE.INTRA.POLAR>
0

>  <SCORE.INTRA.POLAR.0>
0

>  <SCORE.INTRA.REPUL>
0

>  <SCORE.INTRA.REPUL.0>
0

>  <SCORE.INTRA.SOLV>
-1.24357

>  <SCORE.INTRA.SOLV.lig_0>
-82.9274

>  <SCORE.INTRA.VDW>
0.898314

>  <SCORE.INTRA.VDW.0>
-3.84922

>  <SCORE.INTRA.norm>
-0.0422387

>  <SCORE.RESTR>
0

>  <SCORE.RESTR.CAVITY>
0

>  <SCORE.RESTR.norm>
0

>  <SCORE.SYSTEM>
0

>  <SCORE.SYSTEM.CONST>
0

>  <SCORE.SYSTEM.DIHEDRAL>
0

>  <SCORE.SYSTEM.SOLV>
0

>  <SCORE.SYSTEM.norm>
0

>  <SCORE.heavy>
31

>  <SCORE.norm>
-0.630368

>  <RMSD>
1.324

$$$$
2o3x_lig
 OpenBabel11021811463D
libRbt.so/2013.1/901 2013/11/27
 31 33  0  0  0  0  0  0  0  0999 V2000
   20.0914    9.7360    5.3221 C   0  0  2  0  0  0  0  0  0  0  0  0
   21.0254    8.6754    5.0807 O   0  0  0  0  0  0  0  0  0  0  0  0
   23.7948    6.7478    7.7099 C   0  0  2  0  0  0  0  0  0  0  0  0
   24.8777    6.4793    8.6819 N   0  0  0  0  0  0  0  0  0  0  0  0
   20.1876    9.1973    9.1559 C   0  0  1  0  0  0  0  0  0  0  0  0
   18.7321    9.3569    4.6535 C   0  0  2  0  0  0  0  0  0  0  0  0
   18.3116    7.9721    4.9871 N   0  0  0  0  0  0  0  0  0  0  0  0
   24.3451    7.3072    6.3557 C   0  0  0  0  0  0  0  0  0  0  0  0
   19.4476   10.5188    9.5460 C   0  0  2  0  0  0  0  0  0  0  0  0
   20.2210   11.4789   10.3168 O   0  0  0  0  0  0  0  0  0  0  0  0
   18.8005    9.4776    3.1194 C   0  0  1  0  0  0  0  0  0  0  0  0
   17.5535    9.1814    2.5435 O   0  0  0  0  0  0  0  0  0  0  0  0
   23.1282    7.5301    5.3852 C   0  0  2  0  0  0  0  0  0  0  0  0
   23.5728    8.0479    4.0565 N   0  0  0  0  0  0  0  0  0  0  0  0
   18.2528    9.9005   10.2524 C   0  0  2  0  0  0  0  0  0  0  0  0
   18.6021    9.4861   11.6177 O   0  0  0  0  0  0  0  0  0  0  0  0
   19.2457   10.8785    2.7349 C   0  0  2  0  0  0  0  0  0  0  0  0
   19.2861   10.9969    1.3492 O   0  0  0  0  0  0  0  0  0  0  0  0
   22.1209    8.5446    5.9979 C   0  0  2  0  0  0  0  0  0  0  0  0
   17.8846    8.6958    9.3944 C   0  0  2  0  0  0  0  0  0  0  0  0
   19.1786    8.1821    9.0906 O   0  0  0  0  0  0  0  0  0  0  0  0
   20.6469   11.1744    3.3406 C   0  0  2  0  0  0  0  0  0  0  0  0
   20.5951   11.0333    4.7766 O   0  0  0  0  0  0  0  0  0  0  0  0
   21.5954    8.1204    7.3836 C   0  0  2  0  0  0  0  0  0  0  0  0
   20.8751    9.2949    7.8989 O   0  0  0  0  0  0  0  0  0  0  0  0
   17.1034    9.0357    8.0801 C   0  0  0  0  0  0  0  0  0  0  0  0
   15.8069    9.5346    8.3966 N   0  0  0  0  0  0  0  0  0  0  0  0
   21.1384   12.5643    3.0086 C   0  0  0  0  0  0  0  0  0  0  0  0
   22.4544   12.7417    3.3887 O   0  0  0  0  0  0  0  0  0  0  0  0
   22.8097    7.7465    8.3436 C   0  0  1  0  0  0  0  0  0  0  0  0
   22.3487    7.1414    9.5611 O   0  0  0  0  0  0  0  0  0  0  0  0
  1  2  1  6  0  0  0
  1  6  1  0  0  0  0
  1 23  1  0  0  0  0
  3  4  1  1  0  0  0
  3  8  1  0  0  0  0
  3 30  1  0  0  0  0
  5  9  1  0  0  0  0
  5 21  1  0  0  0  0
  5 25  1  6  0  0  0
  6  7  1  6  0  0  0
  6 11  1  0  0  0  0
  8 13  1  0  0  0  0
  9 10  1  1  0  0  0
  9 15  1  0  0  0  0
 11 12  1  6  0  0  0
 11 17  1  0  0  0  0
 13 14  1  6  0  0  0
 13 19  1  0  0  0  0
 15 16  1  1  0  0  0
 15 20  1  0  0  0  0
 17 18  1  6  0  0  0
 17 22  1  0  0  0  0
 19  2  1  6  0  0  0
 19 24  1  0  0  0  0
 20 21  1  0  0  0  0
 20 26  1  6  0  0  0
 22 23  1  0  0  0  0
 22 28  1  1  0  0  0
 24 25  1  1  0  0  0
 24 30  1  0  0  0  0
 26 27  1  0  0  0  0
 28 29  1  0  0  0  0
 30 31  1  1  0  0  0
M  END
>  <CHROM.1>
-156.17318909,-178.73257670,-169.12757289,-67.44557271,-171.40018792,176.23530997
20.44106642,9.28101019,6.50066718,1.58721196,0.36874689,-1.30240932

>  <Name>
2o3x_lig

>  <RI>
0

>  <Rbt.Current_Directory>
/home/itssahil/PROJECTS/Mol_Feturizer/New_Systems/rnas/2o3x

>  <Rbt.Executable>
rbdock ($Id: //depot/dev/client3/rdock/2013.1/src/exe/rbdock.cxx#4 $)

>  <Rbt.Library>
libRbt.so (2013.1, Build901 2013/11/27)

>  <Rbt.Parameter_File>
/export/apps/rDock/src/rDock_2013.1_src/data/scripts/dock_solv.prm

>  <Rbt.Receptor>
prm/pocket_docking_4.prm

>  <SCORE>
-18.7267

>  <SCORE.INTER>
-15.9248

>  <SCORE.INTER.CONST>
1

>  <SCORE.INTER.POLAR>
-0.894427

>  <SCORE.INTER.ROT>
6

>  <SCORE.INTER.SOLV>
19.5858

>  <SCORE.INTER.VDW>
-21.7637

>  <SCORE.INTER.norm>
-0.513702

>  <SCORE.INTRA>
-2.80191

>  <SCORE.INTRA.DIHEDRAL>
-5.62955

>  <SCORE.INTRA.DIHEDRAL.0>
9.37739

>  <SCORE.INTRA.POLAR>
0

>  <SCORE.INTRA.POLAR.0>
0

>  <SCORE.INTRA.REPUL>
0

>  <SCORE.INTRA.REPUL.0>
0

>  <SCORE.INTRA.SOLV>
-1.7768

>  <SCORE.INTRA.SOLV.lig_0>
-82.9274

>  <SCORE.INTRA.VDW>
0.901267

>  <SCORE.INTRA.VDW.0>
-3.84922

>  <SCORE.INTRA.norm>
-0.0903841

>  <SCORE.RESTR>
0

>  <SCORE.RESTR.CAVITY>
0

>  <SCORE.RESTR.norm>
0

>  <SCORE.SYSTEM>
0

>  <SCORE.SYSTEM.CONST>
0

>  <SCORE.SYSTEM.DIHEDRAL>
0

>  <SCORE.SYSTEM.SOLV>
0

>  <SCORE.SYSTEM.norm>
0

>  <SCORE.heavy>
31

>  <SCORE.norm>
-0.604086

>  <RMSD>
1.325

$$$$
2o3x_lig
 OpenBabel11021811463D
libRbt.so/2013.1/901 2013/11/27
 31 33  0  0  0  0  0  0  0  0999 V2000
   20.3330    9.3619    5.4925 C   0  0  2  0  0  0  0  0  0  0  0  0
   21.1237    8.2286    5.1104 O   0  0  0  0  0  0  0  0  0  0  0  0
   24.8327    6.4004    6.2052 C   0  0  2  0  0  0  0  0  0  0  0  0
   26.1650    6.1326    6.7906 N   0  0  0  0  0  0  0  0  0  0  0  0
   21.6223    7.1118    9.2249 C   0  0  1  0  0  0  0  0  0  0  0  0
   18.9169    9.2131    4.8514 C   0  0  2  0  0  0  0  0  0  0  0  0
   18.3432    7.8607    5.0699 N   0  0  0  0  0  0  0  0  0  0  0  0
   24.8743    7.5584    5.1533 C   0  0  0  0  0  0  0  0  0  0  0  0
   20.5416    7.7224   10.1764 C   0  0  2  0  0  0  0  0  0  0  0  0
   20.9507    8.8908   10.9391 O   0  0  0  0  0  0  0  0  0  0  0  0
   18.9497    9.4773    3.3342 C   0  0  1  0  0  0  0  0  0  0  0  0
   17.6581    9.3879    2.7882 O   0  0  0  0  0  0  0  0  0  0  0  0
   23.4260    7.7451    4.5702 C   0  0  2  0  0  0  0  0  0  0  0  0
   23.3837    8.8253    3.5394 N   0  0  0  0  0  0  0  0  0  0  0  0
   20.2282    6.4730   10.9825 C   0  0  2  0  0  0  0  0  0  0  0  0
   21.2515    6.2359   12.0093 O   0  0  0  0  0  0  0  0  0  0  0  0
   19.5482   10.8478    3.0655 C   0  0  2  0  0  0  0  0  0  0  0  0
   19.5577   11.0982    1.6969 O   0  0  0  0  0  0  0  0  0  0  0  0
   22.4241    8.1059    5.7039 C   0  0  2  0  0  0  0  0  0  0  0  0
   20.2177    5.3487    9.9535 C   0  0  2  0  0  0  0  0  0  0  0  0
   21.3439    5.7079    9.1578 O   0  0  0  0  0  0  0  0  0  0  0  0
   20.9937   10.9157    3.6342 C   0  0  2  0  0  0  0  0  0  0  0  0
   20.9718   10.6391    5.0512 O   0  0  0  0  0  0  0  0  0  0  0  0
   22.3855    7.0624    6.8380 C   0  0  2  0  0  0  0  0  0  0  0  0
   21.5939    7.6866    7.9093 O   0  0  0  0  0  0  0  0  0  0  0  0
   18.9235    5.2706    9.0746 C   0  0  0  0  0  0  0  0  0  0  0  0
   18.8168    6.4322    8.2566 N   0  0  0  0  0  0  0  0  0  0  0  0
   21.6385   12.2646    3.4147 C   0  0  0  0  0  0  0  0  0  0  0  0
   21.0167   13.2512    4.1550 O   0  0  0  0  0  0  0  0  0  0  0  0
   23.8607    6.7462    7.3475 C   0  0  1  0  0  0  0  0  0  0  0  0
   23.8767    5.6254    8.2445 O   0  0  0  0  0  0  0  0  0  0  0  0
  1  2  1  6  0  0  0
  1  6  1  0  0  0  0
  1 23  1  0  0  0  0
  3  4  1  1  0  0  0
  3  8  1  0  0  0  0
  3 30  1  0  0  0  0
  5  9  1  0  0  0  0
  5 21  1  0  0  0  0
  5 25  1  6  0  0  0
  6  7  1  6  0  0  0
  6 11  1  0  0  0  0
  8 13  1  0  0  0  0
  9 10  1  1  0  0  0
  9 15  1  0  0  0  0
 11 12  1  1  0  0  0
 11 17  1  0  0  0  0
 13 14  1  6  0  0  0
 13 19  1  0  0  0  0
 15 16  1  1  0  0  0
 15 20  1  0  0  0  0
 17 18  1  6  0  0  0
 17 22  1  0  0  0  0
 19  2  1  6  0  0  0
 19 24  1  0  0  0  0
 20 21  1  0  0  0  0
 20 26  1  6  0  0  0
 22 23  1  0  0  0  0
 22 28  1  1  0  0  0
 24 25  1  1  0  0  0
 24 30  1  0  0  0  0
 26 27  1  0  0  0  0
 28 29  1  0  0  0  0
 30 31  1  1  0  0  0
M  END
>  <CHROM.1>
-174.07010633,-169.55867353,-134.54091415,65.14922231,67.28125182,-165.69531709
21.26648953,8.20840706,6.45243013,1.75002667,0.24849559,-1.01294343

>  <Name>
2o3x_lig

>  <RI>
0

>  <Rbt.Current_Directory>
/home/itssahil/PROJECTS/Mol_Feturizer/New_Systems/rnas/2o3x

>  <Rbt.Executable>
rbdock ($Id: //depot/dev/client3/rdock/2013.1/src/exe/rbdock.cxx#4 $)

>  <Rbt.Library>
libRbt.so (2013.1, Build901 2013/11/27)

>  <Rbt.Parameter_File>
/export/apps/rDock/src/rDock_2013.1_src/data/scripts/dock_solv.prm

>  <Rbt.Receptor>
prm/pocket_docking_3.prm

>  <SCORE>
-16.0637

>  <SCORE.INTER>
-18.6062

>  <SCORE.INTER.CONST>
1

>  <SCORE.INTER.POLAR>
-1.62979

>  <SCORE.INTER.ROT>
6

>  <SCORE.INTER.SOLV>
16.5902

>  <SCORE.INTER.VDW>
-20.1016

>  <SCORE.INTER.norm>
-0.6002

>  <SCORE.INTRA>
2.54247

>  <SCORE.INTRA.DIHEDRAL>
-1.13405

>  <SCORE.INTRA.DIHEDRAL.0>
9.37739

>  <SCORE.INTRA.POLAR>
0

>  <SCORE.INTRA.POLAR.0>
0

>  <SCORE.INTRA.REPUL>
0

>  <SCORE.INTRA.REPUL.0>
0

>  <SCORE.INTRA.SOLV>
4.32428

>  <SCORE.INTRA.SOLV.lig_0>
-82.9274

>  <SCORE.INTRA.VDW>
0.947356

>  <SCORE.INTRA.VDW.0>
-3.84922

>  <SCORE.INTRA.norm>
0.0820152

>  <SCORE.RESTR>
0

>  <SCORE.RESTR.CAVITY>
0

>  <SCORE.RESTR.norm>
0

>  <SCORE.SYSTEM>
0

>  <SCORE.SYSTEM.CONST>
0

>  <SCORE.SYSTEM.DIHEDRAL>
0

>  <SCORE.SYSTEM.SOLV>
0

>  <SCORE.SYSTEM.norm>
0

>  <SCORE.heavy>
31

>  <SCORE.norm>
-0.518185

>  <RMSD>
1.337

$$$$
2o3x_lig
 OpenBabel11021811463D
libRbt.so/2013.1/901 2013/11/27
 31 33  0  0  0  0  0  0  0  0999 V2000
   20.4008    9.3626    5.4217 C   0  0  2  0  0  0  0  0  0  0  0  0
   21.2107    8.2539    5.0089 O   0  0  0  0  0  0  0  0  0  0  0  0
   24.8217    6.3352    6.2648 C   0  0  2  0  0  0  0  0  0  0  0  0
   26.1293    6.0422    6.8922 N   0  0  0  0  0  0  0  0  0  0  0  0
   21.4726    7.2231    9.1424 C   0  0  1  0  0  0  0  0  0  0  0  0
   18.9839    9.2013    4.7854 C   0  0  2  0  0  0  0  0  0  0  0  0
   18.4376    7.8334    4.9755 N   0  0  0  0  0  0  0  0  0  0  0  0
   24.9310    7.4468    5.1685 C   0  0  0  0  0  0  0  0  0  0  0  0
   20.3902    7.9288   10.0236 C   0  0  2  0  0  0  0  0  0  0  0  0
   20.8548    9.0439   10.8329 O   0  0  0  0  0  0  0  0  0  0  0  0
   19.0024    9.5013    3.2746 C   0  0  1  0  0  0  0  0  0  0  0  0
   17.7094    9.3997    2.7340 O   0  0  0  0  0  0  0  0  0  0  0  0
   23.5044    7.6632    4.5438 C   0  0  2  0  0  0  0  0  0  0  0  0
   23.5265    8.7010    3.4697 N   0  0  0  0  0  0  0  0  0  0  0  0
   19.8978    6.7091   10.7844 C   0  0  2  0  0  0  0  0  0  0  0  0
   20.8149    6.3625   11.8782 O   0  0  0  0  0  0  0  0  0  0  0  0
   19.5728   10.8889    3.0345 C   0  0  2  0  0  0  0  0  0  0  0  0
   19.5692   11.1712    1.6722 O   0  0  0  0  0  0  0  0  0  0  0  0
   22.4919    8.1073    5.6378 C   0  0  2  0  0  0  0  0  0  0  0  0
   19.8525    5.6009    9.7390 C   0  0  2  0  0  0  0  0  0  0  0  0
   21.0636    5.8543    9.0323 O   0  0  0  0  0  0  0  0  0  0  0  0
   21.0202   10.9716    3.5966 C   0  0  2  0  0  0  0  0  0  0  0  0
   21.0122   10.6618    5.0068 O   0  0  0  0  0  0  0  0  0  0  0  0
   22.3879    7.1135    6.8116 C   0  0  2  0  0  0  0  0  0  0  0  0
   21.5969    7.8101    7.8377 O   0  0  0  0  0  0  0  0  0  0  0  0
   18.6247    5.6593    8.7682 C   0  0  0  0  0  0  0  0  0  0  0  0
   18.6260    4.5230    7.9087 N   0  0  0  0  0  0  0  0  0  0  0  0
   21.6376   12.3374    3.4050 C   0  0  0  0  0  0  0  0  0  0  0  0
   20.9755   13.3016    4.1397 O   0  0  0  0  0  0  0  0  0  0  0  0
   23.8382    6.7637    7.3686 C   0  0  1  0  0  0  0  0  0  0  0  0
   23.7913    5.6808    8.3100 O   0  0  0  0  0  0  0  0  0  0  0  0
  1  2  1  6  0  0  0
  1  6  1  0  0  0  0
  1 23  1  0  0  0  0
  3  4  1  1  0  0  0
  3  8  1  0  0  0  0
  3 30  1  0  0  0  0
  5  9  1  0  0  0  0
  5 21  1  0  0  0  0
  5 25  1  6  0  0  0
  6  7  1  6  0  0  0
  6 11  1  0  0  0  0
  8 13  1  0  0  0  0
  9 10  1  1  0  0  0
  9 15  1  0  0  0  0
 11 12  1  1  0  0  0
 11 17  1  0  0  0  0
 13 14  1  6  0  0  0
 13 19  1  0  0  0  0
 15 16  1  1  0  0  0
 15 20  1  0  0  0  0
 17 18  1  6  0  0  0
 17 22  1  0  0  0  0
 19  2  1  6  0  0  0
 19 24  1  0  0  0  0
 20 21  1  0  0  0  0
 20 26  1  6  0  0  0
 22 23  1  0  0  0  0
 22 28  1  1  0  0  0
 24 25  1  1  0  0  0
 24 30  1  0  0  0  0
 26 27  1  0  0  0  0
 28 29  1  0  0  0  0
 30 31  1  1  0  0  0
M  END
>  <CHROM.1>
-171.24117753,-168.90641791,-140.36542893,-175.34193208,65.41621139,-171.42509039
21.21297201,8.20457772,6.37954980,1.71306695,0.22558225,-0.98446404

>  <Name>
2o3x_lig

>  <RI>
3.34184e+07

>  <Rbt.Current_Directory>
/home/itssahil/PROJECTS/Mol_Feturizer/New_Systems/rnas/2o3x

>  <Rbt.Executable>
rbdock ($Id: //depot/dev/client3/rdock/2013.1/src/exe/rbdock.cxx#4 $)

>  <Rbt.Library>
libRbt.so (2013.1, Build901 2013/11/27)

>  <Rbt.Parameter_File>
/export/apps/rDock/src/rDock_2013.1_src/data/scripts/dock_solv.prm

>  <Rbt.Receptor>
prm/pocket_docking_6.prm

>  <SCORE>
-18.6104

>  <SCORE.INTER>
-17.7028

>  <SCORE.INTER.CONST>
1

>  <SCORE.INTER.POLAR>
-1.61848

>  <SCORE.INTER.ROT>
6

>  <SCORE.INTER.SOLV>
17.0415

>  <SCORE.INTER.VDW>
-19.6874

>  <SCORE.INTER.norm>
-0.571057

>  <SCORE.INTRA>
-0.907605

>  <SCORE.INTRA.DIHEDRAL>
-2.43042

>  <SCORE.INTRA.DIHEDRAL.0>
9.37739

>  <SCORE.INTRA.POLAR>
0

>  <SCORE.INTRA.POLAR.0>
0

>  <SCORE.INTRA.REPUL>
0

>  <SCORE.INTRA.REPUL.0>
0

>  <SCORE.INTRA.SOLV>
-0.955252

>  <SCORE.INTRA.SOLV.lig_0>
-82.9274

>  <SCORE.INTRA.VDW>
0.78523

>  <SCORE.INTRA.VDW.0>
-3.84922

>  <SCORE.INTRA.norm>
-0.0292776

>  <SCORE.RESTR>
0

>  <SCORE.RESTR.CAVITY>
0

>  <SCORE.RESTR.norm>
0

>  <SCORE.SYSTEM>
0

>  <SCORE.SYSTEM.CONST>
0

>  <SCORE.SYSTEM.DIHEDRAL>
0

>  <SCORE.SYSTEM.SOLV>
0

>  <SCORE.SYSTEM.norm>
0

>  <SCORE.heavy>
31

>  <SCORE.norm>
-0.600334

>  <RMSD>
1.364

$$$$
2o3x_lig
 OpenBabel11021811463D
libRbt.so/2013.1/901 2013/11/27
 31 33  0  0  0  0  0  0  0  0999 V2000
   19.7617    9.2779    5.6641 C   0  0  2  0  0  0  0  0  0  0  0  0
   20.5426    8.1072    5.3897 O   0  0  0  0  0  0  0  0  0  0  0  0
   24.0637    6.1685    6.8530 C   0  0  2  0  0  0  0  0  0  0  0  0
   25.2274    5.7712    7.6761 N   0  0  0  0  0  0  0  0  0  0  0  0
   20.5102    7.5776    8.9747 C   0  0  1  0  0  0  0  0  0  0  0  0
   18.3817    9.1281    4.9488 C   0  0  2  0  0  0  0  0  0  0  0  0
   17.7603    7.8035    5.2036 N   0  0  0  0  0  0  0  0  0  0  0  0
   24.2145    7.6177    6.2816 C   0  0  0  0  0  0  0  0  0  0  0  0
   20.0928    9.0378    8.6011 C   0  0  2  0  0  0  0  0  0  0  0  0
   21.1442    9.8819    8.0566 O   0  0  0  0  0  0  0  0  0  0  0  0
   18.5095    9.3090    3.4244 C   0  0  1  0  0  0  0  0  0  0  0  0
   17.2498    9.2208    2.8082 O   0  0  0  0  0  0  0  0  0  0  0  0
   22.9501    7.9334    5.4019 C   0  0  2  0  0  0  0  0  0  0  0  0
   23.0256    9.2988    4.8011 N   0  0  0  0  0  0  0  0  0  0  0  0
   19.5293    9.4563    9.9488 C   0  0  2  0  0  0  0  0  0  0  0  0
   20.6046    9.8153   10.8830 O   0  0  0  0  0  0  0  0  0  0  0  0
   19.1590   10.6485    3.1200 C   0  0  2  0  0  0  0  0  0  0  0  0
   19.2546   10.8243    1.7432 O   0  0  0  0  0  0  0  0  0  0  0  0
   21.6542    7.8420    6.2572 C   0  0  2  0  0  0  0  0  0  0  0  0
   18.7670    8.2312   10.4398 C   0  0  2  0  0  0  0  0  0  0  0  0
   19.6689    7.1923   10.0687 O   0  0  0  0  0  0  0  0  0  0  0  0
   20.5704   10.7130    3.7692 C   0  0  2  0  0  0  0  0  0  0  0  0
   20.4589   10.5140    5.1950 O   0  0  0  0  0  0  0  0  0  0  0  0
   21.4699    6.4723    6.9401 C   0  0  2  0  0  0  0  0  0  0  0  0
   20.3558    6.6582    7.8825 O   0  0  0  0  0  0  0  0  0  0  0  0
   17.3679    8.0125    9.7704 C   0  0  0  0  0  0  0  0  0  0  0  0
   16.7457    6.8483   10.3063 N   0  0  0  0  0  0  0  0  0  0  0  0
   21.2627   12.0324    3.5177 C   0  0  0  0  0  0  0  0  0  0  0  0
   22.6314   11.9246    3.6687 O   0  0  0  0  0  0  0  0  0  0  0  0
   22.7962    6.0615    7.7198 C   0  0  1  0  0  0  0  0  0  0  0  0
   22.7349    4.7027    8.1792 O   0  0  0  0  0  0  0  0  0  0  0  0
  1  2  1  6  0  0  0
  1  6  1  0  0  0  0
  1 23  1  0  0  0  0
  3  4  1  1  0  0  0
  3  8  1  0  0  0  0
  3 30  1  0  0  0  0
  5  9  1  0  0  0  0
  5 21  1  0  0  0  0
  5 25  1  6  0  0  0
  6  7  1  6  0  0  0
  6 11  1  0  0  0  0
  8 13  1  0  0  0  0
  9 10  1  1  0  0  0
  9 15  1  0  0  0  0
 11 12  1  6  0  0  0
 11 17  1  0  0  0  0
 13 14  1  1  0  0  0
 13 19  1  0  0  0  0
 15 16  1  1  0  0  0
 15 20  1  0  0  0  0
 17 18  1  6  0  0  0
 17 22  1  0  0  0  0
 19  2  1  6  0  0  0
 19 24  1  0  0  0  0
 20 21  1  0  0  0  0
 20 26  1  6  0  0  0
 22 23  1  0  0  0  0
 22 28  1  1  0  0  0
 24 25  1  1  0  0  0
 24 30  1  0  0  0  0
 26 27  1  0  0  0  0
 28 29  1  0  0  0  0
 30 31  1  6  0  0  0
M  END
>  <CHROM.1>
-161.36169480,88.47114339,-116.09544168,-179.74932757,-158.83109841,-63.79110260
20.59005133,8.53858126,6.55597280,1.68854527,0.31624298,-1.10014467

>  <Name>
2o3x_lig

>  <RI>
0

>  <Rbt.Current_Directory>
/home/itssahil/PROJECTS/Mol_Feturizer/New_Systems/rnas/2o3x

>  <Rbt.Executable>
rbdock ($Id: //depot/dev/client3/rdock/2013.1/src/exe/rbdock.cxx#4 $)

>  <Rbt.Library>
libRbt.so (2013.1, Build901 2013/11/27)

>  <Rbt.Parameter_File>
/export/apps/rDock/src/rDock_2013.1_src/data/scripts/dock_solv.prm

>  <Rbt.Receptor>
prm/pocket_docking_3.prm

>  <SCORE>
-12.3929

>  <SCORE.INTER>
-16.453

>  <SCORE.INTER.CONST>
1

>  <SCORE.INTER.POLAR>
-1.64276

>  <SCORE.INTER.ROT>
6

>  <SCORE.INTER.SOLV>
15.0242

>  <SCORE.INTER.VDW>
-18.1009

>  <SCORE.INTER.norm>
-0.530743

>  <SCORE.INTRA>
4.0601

>  <SCORE.INTRA.DIHEDRAL>
4.26382

>  <SCORE.INTRA.DIHEDRAL.0>
9.37739

>  <SCORE.INTRA.POLAR>
0

>  <SCORE.INTRA.POLAR.0>
0

>  <SCORE.INTRA.REPUL>
0

>  <SCORE.INTRA.REPUL.0>
0

>  <SCORE.INTRA.SOLV>
2.6293

>  <SCORE.INTRA.SOLV.lig_0>
-82.9274

>  <SCORE.INTRA.VDW>
0.613542

>  <SCORE.INTRA.VDW.0>
-3.84922

>  <SCORE.INTRA.norm>
0.130971

>  <SCORE.RESTR>
0

>  <SCORE.RESTR.CAVITY>
0

>  <SCORE.RESTR.norm>
0

>  <SCORE.SYSTEM>
0

>  <SCORE.SYSTEM.CONST>
0

>  <SCORE.SYSTEM.DIHEDRAL>
0

>  <SCORE.SYSTEM.SOLV>
0

>  <SCORE.SYSTEM.norm>
0

>  <SCORE.heavy>
31

>  <SCORE.norm>
-0.399772

>  <RMSD>
1.372

$$$$
2o3x_lig
 OpenBabel11021811463D
libRbt.so/2013.1/901 2013/11/27
 31 33  0  0  0  0  0  0  0  0999 V2000
   20.3196    9.4312    5.3592 C   0  0  2  0  0  0  0  0  0  0  0  0
   21.1748    8.3860    4.8780 O   0  0  0  0  0  0  0  0  0  0  0  0
   24.8228    6.4958    6.0686 C   0  0  2  0  0  0  0  0  0  0  0  0
   26.1300    6.2017    6.6963 N   0  0  0  0  0  0  0  0  0  0  0  0
   20.9154    6.9365    8.6599 C   0  0  1  0  0  0  0  0  0  0  0  0
   18.8716    9.1606    4.8410 C   0  0  2  0  0  0  0  0  0  0  0  0
   18.4484    7.7557    5.0713 N   0  0  0  0  0  0  0  0  0  0  0  0
   24.9144    7.6742    5.0428 C   0  0  0  0  0  0  0  0  0  0  0  0
   21.6458    6.9720   10.0424 C   0  0  2  0  0  0  0  0  0  0  0  0
   22.7095    5.9979   10.2267 O   0  0  0  0  0  0  0  0  0  0  0  0
   18.7430    9.4560    3.3347 C   0  0  1  0  0  0  0  0  0  0  0  0
   17.4215    9.2546    2.9019 O   0  0  0  0  0  0  0  0  0  0  0  0
   23.4902    7.8884    4.4117 C   0  0  2  0  0  0  0  0  0  0  0  0
   23.4965    8.9896    3.4024 N   0  0  0  0  0  0  0  0  0  0  0  0
   20.4286    6.8114   10.9376 C   0  0  2  0  0  0  0  0  0  0  0  0
   20.0011    5.4075   11.0017 O   0  0  0  0  0  0  0  0  0  0  0  0
   19.1846   10.8822    3.0526 C   0  0  2  0  0  0  0  0  0  0  0  0
   19.0475   11.1588    1.6960 O   0  0  0  0  0  0  0  0  0  0  0  0
   22.4515    8.2372    5.5155 C   0  0  2  0  0  0  0  0  0  0  0  0
   19.3584    7.6779   10.2841 C   0  0  2  0  0  0  0  0  0  0  0  0
   19.5732    7.3715    8.9092 O   0  0  0  0  0  0  0  0  0  0  0  0
   20.6627   11.0766    3.4940 C   0  0  2  0  0  0  0  0  0  0  0  0
   20.7943   10.7718    4.8993 O   0  0  0  0  0  0  0  0  0  0  0  0
   22.3609    7.1716    6.6258 C   0  0  2  0  0  0  0  0  0  0  0  0
   21.5372    7.7826    7.6803 O   0  0  0  0  0  0  0  0  0  0  0  0
   19.5098    9.2162   10.5369 C   0  0  0  0  0  0  0  0  0  0  0  0
   19.4626    9.4895   11.9343 N   0  0  0  0  0  0  0  0  0  0  0  0
   21.1567   12.4847    3.2563 C   0  0  0  0  0  0  0  0  0  0  0  0
   22.5255   12.5766    3.4166 O   0  0  0  0  0  0  0  0  0  0  0  0
   23.8133    6.8292    7.1818 C   0  0  1  0  0  0  0  0  0  0  0  0
   23.7852    5.6904    8.0556 O   0  0  0  0  0  0  0  0  0  0  0  0
  1  2  1  6  0  0  0
  1  6  1  0  0  0  0
  1 23  1  0  0  0  0
  3  4  1  1  0  0  0
  3  8  1  0  0  0  0
  3 30  1  0  0  0  0
  5  9  1  0  0  0  0
  5 21  1  0  0  0  0
  5 25  1  6  0  0  0
  6  7  1  6  0  0  0
  6 11  1  0  0  0  0
  8 13  1  0  0  0  0
  9 10  1  6  0  0  0
  9 15  1  0  0  0  0
 11 12  1  1  0  0  0
 11 17  1  0  0  0  0
 13 14  1  6  0  0  0
 13 19  1  0  0  0  0
 15 16  1  6  0  0  0
 15 20  1  0  0  0  0
 17 18  1  6  0  0  0
 17 22  1  0  0  0  0
 19  2  1  6  0  0  0
 19 24  1  0  0  0  0
 20 21  1  0  0  0  0
 20 26  1  6  0  0  0
 22 23  1  0  0  0  0
 22 28  1  1  0  0  0
 24 25  1  1  0  0  0
 24 30  1  0  0  0  0
 26 27  1  0  0  0  0
 28 29  1  0  0  0  0
 30 31  1  1  0  0  0
M  END
>  <CHROM.1>
-163.78647277,103.86793791,-141.33256914,-59.45473284,-168.76018874,160.87327667
21.23346756,8.43435069,6.43026231,1.73400000,0.37278186,-1.11308687

>  <Name>
2o3x_lig

>  <RI>
3.41138e+07

>  <Rbt.Current_Directory>
/home/itssahil/PROJECTS/Mol_Feturizer/New_Systems/rnas/2o3x

>  <Rbt.Executable>
rbdock ($Id: //depot/dev/client3/rdock/2013.1/src/exe/rbdock.cxx#4 $)

>  <Rbt.Library>
libRbt.so (2013.1, Build901 2013/11/27)

>  <Rbt.Parameter_File>
/export/apps/rDock/src/rDock_2013.1_src/data/scripts/dock_solv.prm

>  <Rbt.Receptor>
prm/pocket_docking_2.prm

>  <SCORE>
-11.3301

>  <SCORE.INTER>
-15.3364

>  <SCORE.INTER.CONST>
1

>  <SCORE.INTER.POLAR>
-0.862688

>  <SCORE.INTER.ROT>
6

>  <SCORE.INTER.SOLV>
16.1819

>  <SCORE.INTER.VDW>
-20.3426

>  <SCORE.INTER.norm>
-0.494724

>  <SCORE.INTRA>
3.4206

>  <SCORE.INTRA.DIHEDRAL>
5.22082

>  <SCORE.INTRA.DIHEDRAL.0>
9.37739

>  <SCORE.INTRA.POLAR>
0

>  <SCORE.INTRA.POLAR.0>
0

>  <SCORE.INTRA.REPUL>
0

>  <SCORE.INTRA.REPUL.0>
0

>  <SCORE.INTRA.SOLV>
0.0638211

>  <SCORE.INTRA.SOLV.lig_0>
-82.9274

>  <SCORE.INTRA.VDW>
0.778281

>  <SCORE.INTRA.VDW.0>
-3.84922

>  <SCORE.INTRA.norm>
0.110342

>  <SCORE.RESTR>
0.585752

>  <SCORE.RESTR.CAVITY>
0.585752

>  <SCORE.RESTR.norm>
0.0188952

>  <SCORE.SYSTEM>
0

>  <SCORE.SYSTEM.CONST>
0

>  <SCORE.SYSTEM.DIHEDRAL>
0

>  <SCORE.SYSTEM.SOLV>
0

>  <SCORE.SYSTEM.norm>
0

>  <SCORE.heavy>
31

>  <SCORE.norm>
-0.365487

>  <RMSD>
1.394

$$$$
2o3x_lig
 OpenBabel11021811463D
libRbt.so/2013.1/901 2013/11/27
 31 33  0  0  0  0  0  0  0  0999 V2000
   20.4440    9.4802    5.5327 C   0  0  2  0  0  0  0  0  0  0  0  0
   21.1870    8.3206    5.1345 O   0  0  0  0  0  0  0  0  0  0  0  0
   24.8486    6.3594    6.1568 C   0  0  2  0  0  0  0  0  0  0  0  0
   26.1801    6.0423    6.7187 N   0  0  0  0  0  0  0  0  0  0  0  0
   21.2657    6.9519    9.0452 C   0  0  1  0  0  0  0  0  0  0  0  0
   18.9774    9.3257    5.0192 C   0  0  2  0  0  0  0  0  0  0  0  0
   18.4091    7.9921    5.3423 N   0  0  0  0  0  0  0  0  0  0  0  0
   24.9128    7.5229    5.1120 C   0  0  0  0  0  0  0  0  0  0  0  0
   22.0342    7.3123   10.3589 C   0  0  2  0  0  0  0  0  0  0  0  0
   23.2632    6.5741   10.6015 O   0  0  0  0  0  0  0  0  0  0  0  0
   18.8852    9.5261    3.4947 C   0  0  1  0  0  0  0  0  0  0  0  0
   17.5513    9.4330    3.0629 O   0  0  0  0  0  0  0  0  0  0  0  0
   23.4626    7.7630    4.5538 C   0  0  2  0  0  0  0  0  0  0  0  0
   23.4406    8.8514    3.5310 N   0  0  0  0  0  0  0  0  0  0  0  0
   20.9042    7.0739   11.3463 C   0  0  2  0  0  0  0  0  0  0  0  0
   20.7407    5.6413   11.6268 O   0  0  0  0  0  0  0  0  0  0  0  0
   19.4742   10.8753    3.1187 C   0  0  2  0  0  0  0  0  0  0  0  0
   19.3712   11.0685    1.7447 O   0  0  0  0  0  0  0  0  0  0  0  0
   22.4919    8.1495    5.7060 C   0  0  2  0  0  0  0  0  0  0  0  0
   19.6688    7.6385   10.6548 C   0  0  2  0  0  0  0  0  0  0  0  0
   19.8784    7.1791    9.3223 O   0  0  0  0  0  0  0  0  0  0  0  0
   20.9631   10.9457    3.5612 C   0  0  2  0  0  0  0  0  0  0  0  0
   21.0574   10.7286    4.9855 O   0  0  0  0  0  0  0  0  0  0  0  0
   22.4358    7.0998    6.8336 C   0  0  2  0  0  0  0  0  0  0  0  0
   21.6831    7.7428    7.9217 O   0  0  0  0  0  0  0  0  0  0  0  0
   19.5498    9.1999   10.6878 C   0  0  0  0  0  0  0  0  0  0  0  0
   19.2968    9.6434   12.0179 N   0  0  0  0  0  0  0  0  0  0  0  0
   21.6020   12.2747    3.2312 C   0  0  0  0  0  0  0  0  0  0  0  0
   22.9716   12.2371    3.4062 O   0  0  0  0  0  0  0  0  0  0  0  0
   23.9073    6.7300    7.3170 C   0  0  1  0  0  0  0  0  0  0  0  0
   23.8994    5.6028    8.2061 O   0  0  0  0  0  0  0  0  0  0  0  0
  1  2  1  6  0  0  0
  1  6  1  0  0  0  0
  1 23  1  0  0  0  0
  3  4  1  1  0  0  0
  3  8  1  0  0  0  0
  3 30  1  0  0  0  0
  5  9  1  0  0  0  0
  5 21  1  0  0  0  0
  5 25  1  6  0  0  0
  6  7  1  6  0  0  0
  6 11  1  0  0  0  0
  8 13  1  0  0  0  0
  9 10  1  1  0  0  0
  9 15  1  0  0  0  0
 11 12  1  1  0  0  0
 11 17  1  0  0  0  0
 13 14  1  6  0  0  0
 13 19  1  0  0  0  0
 15 16  1  6  0  0  0
 15 20  1  0  0  0  0
 17 18  1  6  0  0  0
 17 22  1  0  0  0  0
 19  2  1  6  0  0  0
 19 24  1  0  0  0  0
 20 21  1  0  0  0  0
 20 26  1  6  0  0  0
 22 23  1  0  0  0  0
 22 28  1  1  0  0  0
 24 25  1  1  0  0  0
 24 30  1  0  0  0  0
 26 27  1  0  0  0  0
 28 29  1  0  0  0  0
 30 31  1  1  0  0  0
M  END
>  <CHROM.1>
-169.23828293,110.50372506,-134.29264186,-68.72449679,-169.08618671,170.05230976
21.43205127,8.43604120,6.62325976,1.73493216,0.40888637,-1.16264965

>  <Name>
2o3x_lig

>  <RI>
0

>  <Rbt.Current_Directory>
/home/itssahil/PROJECTS/Mol_Feturizer/New_Systems/rnas/2o3x

>  <Rbt.Executable>
rbdock ($Id: //depot/dev/client3/rdock/2013.1/src/exe/rbdock.cxx#4 $)

>  <Rbt.Library>
libRbt.so (2013.1, Build901 2013/11/27)

>  <Rbt.Parameter_File>
/export/apps/rDock/src/rDock_2013.1_src/data/scripts/dock_solv.prm

>  <Rbt.Receptor>
prm/pocket_docking_3.prm

>  <SCORE>
-13.8747

>  <SCORE.INTER>
-16.6607

>  <SCORE.INTER.CONST>
1

>  <SCORE.INTER.POLAR>
-0.894427

>  <SCORE.INTER.ROT>
6

>  <SCORE.INTER.SOLV>
15.4703

>  <SCORE.INTER.VDW>
-20.8824

>  <SCORE.INTER.norm>
-0.537441

>  <SCORE.INTRA>
2.78595

>  <SCORE.INTRA.DIHEDRAL>
5.44767

>  <SCORE.INTRA.DIHEDRAL.0>
9.37739

>  <SCORE.INTRA.POLAR>
0

>  <SCORE.INTRA.POLAR.0>
0

>  <SCORE.INTRA.REPUL>
0

>  <SCORE.INTRA.REPUL.0>
0

>  <SCORE.INTRA.SOLV>
0.0173508

>  <SCORE.INTRA.SOLV.lig_0>
-82.9274

>  <SCORE.INTRA.VDW>
0.0534359

>  <SCORE.INTRA.VDW.0>
-3.84922

>  <SCORE.INTRA.norm>
0.0898693

>  <SCORE.RESTR>
0

>  <SCORE.RESTR.CAVITY>
0

>  <SCORE.RESTR.norm>
0

>  <SCORE.SYSTEM>
0

>  <SCORE.SYSTEM.CONST>
0

>  <SCORE.SYSTEM.DIHEDRAL>
0

>  <SCORE.SYSTEM.SOLV>
0

>  <SCORE.SYSTEM.norm>
0

>  <SCORE.heavy>
31

>  <SCORE.norm>
-0.447572

>  <RMSD>
1.405

$$$$
2o3x_lig
 OpenBabel11021811463D
libRbt.so/2013.1/901 2013/11/27
 31 33  0  0  0  0  0  0  0  0999 V2000
   20.2738    9.1931    5.5146 C   0  0  2  0  0  0  0  0  0  0  0  0
   21.1100    8.1444    5.0082 O   0  0  0  0  0  0  0  0  0  0  0  0
   24.6519    6.0850    6.2378 C   0  0  2  0  0  0  0  0  0  0  0  0
   25.9344    5.7280    6.8836 N   0  0  0  0  0  0  0  0  0  0  0  0
   20.9753    6.7157    8.9368 C   0  0  1  0  0  0  0  0  0  0  0  0
   18.8293    8.9824    4.9600 C   0  0  2  0  0  0  0  0  0  0  0  0
   18.3646    7.5818    5.1272 N   0  0  0  0  0  0  0  0  0  0  0  0
   24.8118    7.2686    5.2264 C   0  0  0  0  0  0  0  0  0  0  0  0
   21.8012    7.0196   10.2297 C   0  0  2  0  0  0  0  0  0  0  0  0
   22.9971    6.2160   10.4260 O   0  0  0  0  0  0  0  0  0  0  0  0
   18.7375    9.3395    3.4643 C   0  0  1  0  0  0  0  0  0  0  0  0
   17.4196    9.1912    3.0001 O   0  0  0  0  0  0  0  0  0  0  0  0
   23.4091    7.5510    4.5744 C   0  0  2  0  0  0  0  0  0  0  0  0
   23.4801    8.6608    3.5772 N   0  0  0  0  0  0  0  0  0  0  0  0
   20.6910    6.8276   11.2492 C   0  0  2  0  0  0  0  0  0  0  0  0
   20.4619    5.4020   11.5192 O   0  0  0  0  0  0  0  0  0  0  0  0
   19.2221   10.7630    3.2466 C   0  0  2  0  0  0  0  0  0  0  0  0
   19.1185   11.0957    1.8997 O   0  0  0  0  0  0  0  0  0  0  0  0
   22.3681    7.9337    5.6649 C   0  0  2  0  0  0  0  0  0  0  0  0
   19.4661    7.4637   10.6026 C   0  0  2  0  0  0  0  0  0  0  0  0
   19.6108    7.0107    9.2594 O   0  0  0  0  0  0  0  0  0  0  0  0
   20.6962   10.8997    3.7221 C   0  0  2  0  0  0  0  0  0  0  0  0
   20.7926   10.5371    5.1164 O   0  0  0  0  0  0  0  0  0  0  0  0
   22.2127    6.8621    6.7620 C   0  0  2  0  0  0  0  0  0  0  0  0
   21.3988    7.4979    7.8094 O   0  0  0  0  0  0  0  0  0  0  0  0
   19.4294    9.0287   10.6562 C   0  0  0  0  0  0  0  0  0  0  0  0
   20.4547    9.5707    9.8286 N   0  0  0  0  0  0  0  0  0  0  0  0
   21.2318   12.3020    3.5489 C   0  0  0  0  0  0  0  0  0  0  0  0
   21.3447   12.6413    2.2148 O   0  0  0  0  0  0  0  0  0  0  0  0
   23.6393    6.4510    7.3380 C   0  0  1  0  0  0  0  0  0  0  0  0
   23.5472    5.3059    8.1989 O   0  0  0  0  0  0  0  0  0  0  0  0
  1  2  1  6  0  0  0
  1  6  1  0  0  0  0
  1 23  1  0  0  0  0
  3  4  1  1  0  0  0
  3  8  1  0  0  0  0
  3 30  1  0  0  0  0
  5  9  1  0  0  0  0
  5 21  1  0  0  0  0
  5 25  1  6  0  0  0
  6  7  1  6  0  0  0
  6 11  1  0  0  0  0
  8 13  1  0  0  0  0
  9 10  1  1  0  0  0
  9 15  1  0  0  0  0
 11 12  1  1  0  0  0
 11 17  1  0  0  0  0
 13 14  1  6  0  0  0
 13 19  1  0  0  0  0
 15 16  1  6  0  0  0
 15 20  1  0  0  0  0
 17 18  1  6  0  0  0
 17 22  1  0  0  0  0
 19  2  1  6  0  0  0
 19 24  1  0  0  0  0
 20 21  1  0  0  0  0
 20 26  1  6  0  0  0
 22 23  1  0  0  0  0
 22 28  1  1  0  0  0
 24 25  1  1  0  0  0
 24 30  1  0  0  0  0
 26 27  1  0  0  0  0
 28 29  1  0  0  0  0
 30 31  1  1  0  0  0
M  END
>  <CHROM.1>
-163.61442034,103.78255882,-143.31129812,68.09408886,-66.91280336,174.83293890
21.22145952,8.24500583,6.50379326,1.81702012,0.41731953,-1.12033640

>  <Name>
2o3x_lig

>  <RI>
3.41138e+07

>  <Rbt.Current_Directory>
/home/itssahil/PROJECTS/Mol_Feturizer/New_Systems/rnas/2o3x

>  <Rbt.Executable>
rbdock ($Id: //depot/dev/client3/rdock/2013.1/src/exe/rbdock.cxx#4 $)

>  <Rbt.Library>
libRbt.so (2013.1, Build901 2013/11/27)

>  <Rbt.Parameter_File>
/export/apps/rDock/src/rDock_2013.1_src/data/scripts/dock_solv.prm

>  <Rbt.Receptor>
prm/pocket_docking_2.prm

>  <SCORE>
-13.8266

>  <SCORE.INTER>
-18.2926

>  <SCORE.INTER.CONST>
1

>  <SCORE.INTER.POLAR>
-1.64276

>  <SCORE.INTER.ROT>
6

>  <SCORE.INTER.SOLV>
16.6958

>  <SCORE.INTER.VDW>
-19.8845

>  <SCORE.INTER.norm>
-0.590084

>  <SCORE.INTRA>
4.03232

>  <SCORE.INTRA.DIHEDRAL>
3.29216

>  <SCORE.INTRA.DIHEDRAL.0>
9.37739

>  <SCORE.INTRA.POLAR>
0

>  <SCORE.INTRA.POLAR.0>
0

>  <SCORE.INTRA.REPUL>
0

>  <SCORE.INTRA.REPUL.0>
0

>  <SCORE.INTRA.SOLV>
2.73841

>  <SCORE.INTRA.SOLV.lig_0>
-82.9274

>  <SCORE.INTRA.VDW>
1.01704

>  <SCORE.INTRA.VDW.0>
-3.84922

>  <SCORE.INTRA.norm>
0.130075

>  <SCORE.RESTR>
0.433723

>  <SCORE.RESTR.CAVITY>
0.433723

>  <SCORE.RESTR.norm>
0.0139911

>  <SCORE.SYSTEM>
0

>  <SCORE.SYSTEM.CONST>
0

>  <SCORE.SYSTEM.DIHEDRAL>
0

>  <SCORE.SYSTEM.SOLV>
0

>  <SCORE.SYSTEM.norm>
0

>  <SCORE.heavy>
31

>  <SCORE.norm>
-0.446018

>  <RMSD>
1.415

$$$$
2o3x_lig
 OpenBabel11021811463D
libRbt.so/2013.1/901 2013/11/27
 31 33  0  0  0  0  0  0  0  0999 V2000
   20.3236    9.1885    5.5905 C   0  0  2  0  0  0  0  0  0  0  0  0
   21.2037    8.1718    5.0933 O   0  0  0  0  0  0  0  0  0  0  0  0
   24.9446    6.4297    6.2197 C   0  0  2  0  0  0  0  0  0  0  0  0
   26.2813    6.1960    6.8099 N   0  0  0  0  0  0  0  0  0  0  0  0
   21.2997    6.9046    9.0436 C   0  0  1  0  0  0  0  0  0  0  0  0
   18.9012    8.9429    4.9947 C   0  0  2  0  0  0  0  0  0  0  0  0
   18.4741    7.5271    5.1314 N   0  0  0  0  0  0  0  0  0  0  0  0
   24.9658    7.5702    5.1483 C   0  0  0  0  0  0  0  0  0  0  0  0
   22.0783    7.3049   10.3396 C   0  0  2  0  0  0  0  0  0  0  0  0
   23.3277    6.5996   10.5762 O   0  0  0  0  0  0  0  0  0  0  0  0
   18.8384    9.3174    3.5018 C   0  0  1  0  0  0  0  0  0  0  0  0
   17.5382    9.1367    3.0005 O   0  0  0  0  0  0  0  0  0  0  0  0
   23.5147    7.7208    4.5619 C   0  0  2  0  0  0  0  0  0  0  0  0
   23.4534    8.7824    3.5128 N   0  0  0  0  0  0  0  0  0  0  0  0
   20.9685    7.0569   11.3474 C   0  0  2  0  0  0  0  0  0  0  0  0
   20.8427    5.6259   11.6539 O   0  0  0  0  0  0  0  0  0  0  0  0
   19.2860   10.7574    3.3154 C   0  0  2  0  0  0  0  0  0  0  0  0
   19.2082   11.1051    1.9705 O   0  0  0  0  0  0  0  0  0  0  0  0
   22.5059    8.0827    5.6891 C   0  0  2  0  0  0  0  0  0  0  0  0
   19.7104    7.5809   10.6650 C   0  0  2  0  0  0  0  0  0  0  0  0
   19.9116    7.1042    9.3373 O   0  0  0  0  0  0  0  0  0  0  0  0
   20.7423   10.9309    3.8319 C   0  0  2  0  0  0  0  0  0  0  0  0
   20.8125   10.5524    5.2236 O   0  0  0  0  0  0  0  0  0  0  0  0
   22.4855    7.0581    6.8407 C   0  0  2  0  0  0  0  0  0  0  0  0
   21.6822    7.6860    7.9011 O   0  0  0  0  0  0  0  0  0  0  0  0
   19.5553    9.1395   10.6740 C   0  0  0  0  0  0  0  0  0  0  0  0
   19.3352    9.6017   12.0036 N   0  0  0  0  0  0  0  0  0  0  0  0
   21.2403   12.3505    3.6911 C   0  0  0  0  0  0  0  0  0  0  0  0
   21.3062   12.7365    2.3665 O   0  0  0  0  0  0  0  0  0  0  0  0
   23.9659    6.7773    7.3558 C   0  0  1  0  0  0  0  0  0  0  0  0
   24.0017    5.6724    8.2717 O   0  0  0  0  0  0  0  0  0  0  0  0
  1  2  1  6  0  0  0
  1  6  1  0  0  0  0
  1 23  1  0  0  0  0
  3  4  1  1  0  0  0
  3  8  1  0  0  0  0
  3 30  1  0  0  0  0
  5  9  1  0  0  0  0
  5 21  1  0  0  0  0
  5 25  1  6  0  0  0
  6  7  1  6  0  0  0
  6 11  1  0  0  0  0
  8 13  1  0  0  0  0
  9 10  1  1  0  0  0
  9 15  1  0  0  0  0
 11 12  1  1  0  0  0
 11 17  1  0  0  0  0
 13 14  1  6  0  0  0
 13 19  1  0  0  0  0
 15 16  1  6  0  0  0
 15 20  1  0  0  0  0
 17 18  1  6  0  0  0
 17 22  1  0  0  0  0
 19  2  1  6  0  0  0
 19 24  1  0  0  0  0
 20 21  1  0  0  0  0
 20 26  1  6  0  0  0
 22 23  1  0  0  0  0
 22 28  1  1  0  0  0
 24 25  1  1  0  0  0
 24 30  1  0  0  0  0
 26 27  1  0  0  0  0
 28 29  1  0  0  0  0
 30 31  1  1  0  0  0
M  END
>  <CHROM.1>
-170.01250190,107.79676943,-142.91202623,-67.67913648,-63.50023873,170.70847224
21.35919314,8.38480075,6.62902913,1.80802285,0.41692883,-1.18368983

>  <Name>
2o3x_lig

>  <RI>
0

>  <Rbt.Current_Directory>
/home/itssahil/PROJECTS/Mol_Feturizer/New_Systems/rnas/2o3x

>  <Rbt.Executable>
rbdock ($Id: //depot/dev/client3/rdock/2013.1/src/exe/rbdock.cxx#4 $)

>  <Rbt.Library>
libRbt.so (2013.1, Build901 2013/11/27)

>  <Rbt.Parameter_File>
/export/apps/rDock/src/rDock_2013.1_src/data/scripts/dock_solv.prm

>  <Rbt.Receptor>
prm/pocket_docking_3.prm

>  <SCORE>
-14.2996

>  <SCORE.INTER>
-16.2189

>  <SCORE.INTER.CONST>
1

>  <SCORE.INTER.POLAR>
-0.894427

>  <SCORE.INTER.ROT>
6

>  <SCORE.INTER.SOLV>
16.3743

>  <SCORE.INTER.VDW>
-20.8893

>  <SCORE.INTER.norm>
-0.52319

>  <SCORE.INTRA>
1.91926

>  <SCORE.INTRA.DIHEDRAL>
3.28226

>  <SCORE.INTRA.DIHEDRAL.0>
9.37739

>  <SCORE.INTRA.POLAR>
0

>  <SCORE.INTRA.POLAR.0>
0

>  <SCORE.INTRA.REPUL>
0

>  <SCORE.INTRA.REPUL.0>
0

>  <SCORE.INTRA.SOLV>
-0.77024

>  <SCORE.INTRA.SOLV.lig_0>
-82.9274

>  <SCORE.INTRA.VDW>
0.663249

>  <SCORE.INTRA.VDW.0>
-3.84922

>  <SCORE.INTRA.norm>
0.0619116

>  <SCORE.RESTR>
0

>  <SCORE.RESTR.CAVITY>
0

>  <SCORE.RESTR.norm>
0

>  <SCORE.SYSTEM>
0

>  <SCORE.SYSTEM.CONST>
0

>  <SCORE.SYSTEM.DIHEDRAL>
0

>  <SCORE.SYSTEM.SOLV>
0

>  <SCORE.SYSTEM.norm>
0

>  <SCORE.heavy>
31

>  <SCORE.norm>
-0.461278

>  <RMSD>
1.443

$$$$
2o3x_lig
 OpenBabel11021811463D
libRbt.so/2013.1/901 2013/11/27
 31 33  0  0  0  0  0  0  0  0999 V2000
   20.2923    9.1534    5.5276 C   0  0  2  0  0  0  0  0  0  0  0  0
   21.1359    8.1199    5.0025 O   0  0  0  0  0  0  0  0  0  0  0  0
   24.7712    6.1543    6.1067 C   0  0  2  0  0  0  0  0  0  0  0  0
   26.0795    5.8268    6.7154 N   0  0  0  0  0  0  0  0  0  0  0  0
   21.0760    6.5863    8.8635 C   0  0  1  0  0  0  0  0  0  0  0  0
   18.8480    8.9388    4.9741 C   0  0  2  0  0  0  0  0  0  0  0  0
   18.3959    7.5317    5.1209 N   0  0  0  0  0  0  0  0  0  0  0  0
   24.8686    7.3636    5.1180 C   0  0  0  0  0  0  0  0  0  0  0  0
   21.8617    6.8518   10.1895 C   0  0  2  0  0  0  0  0  0  0  0  0
   23.0694    6.0655   10.3833 O   0  0  0  0  0  0  0  0  0  0  0  0
   18.7484    9.3182    3.4845 C   0  0  1  0  0  0  0  0  0  0  0  0
   17.4304    9.1656    3.0219 O   0  0  0  0  0  0  0  0  0  0  0  0
   23.4426    7.6127    4.5041 C   0  0  2  0  0  0  0  0  0  0  0  0
   23.4539    8.7451    3.5300 N   0  0  0  0  0  0  0  0  0  0  0  0
   20.7302    6.5933   11.1702 C   0  0  2  0  0  0  0  0  0  0  0  0
   20.5255    5.1530   11.3735 O   0  0  0  0  0  0  0  0  0  0  0  0
   19.2201   10.7491    3.2875 C   0  0  2  0  0  0  0  0  0  0  0  0
   19.1094   11.1017    1.9462 O   0  0  0  0  0  0  0  0  0  0  0  0
   22.4152    7.9375    5.6259 C   0  0  2  0  0  0  0  0  0  0  0  0
   19.5086    7.2309   10.5188 C   0  0  2  0  0  0  0  0  0  0  0  0
   19.6975    6.8388    9.1619 O   0  0  0  0  0  0  0  0  0  0  0  0
   20.6944   10.8912    3.7607 C   0  0  2  0  0  0  0  0  0  0  0  0
   20.7982   10.5078    5.1489 O   0  0  0  0  0  0  0  0  0  0  0  0
   22.3207    6.8385    6.7026 C   0  0  2  0  0  0  0  0  0  0  0  0
   21.5109    7.4246    7.7818 O   0  0  0  0  0  0  0  0  0  0  0  0
   19.4364    8.7910   10.6374 C   0  0  0  0  0  0  0  0  0  0  0  0
   19.5033    9.1814   12.0059 N   0  0  0  0  0  0  0  0  0  0  0  0
   21.2173   12.3006    3.6077 C   0  0  0  0  0  0  0  0  0  0  0  0
   21.3637   12.6464    2.2785 O   0  0  0  0  0  0  0  0  0  0  0  0
   23.7731    6.4632    7.2371 C   0  0  1  0  0  0  0  0  0  0  0  0
   23.7386    5.2977    8.0748 O   0  0  0  0  0  0  0  0  0  0  0  0
  1  2  1  6  0  0  0
  1  6  1  0  0  0  0
  1 23  1  0  0  0  0
  3  4  1  1  0  0  0
  3  8  1  0  0  0  0
  3 30  1  0  0  0  0
  5  9  1  0  0  0  0
  5 21  1  0  0  0  0
  5 25  1  6  0  0  0
  6  7  1  6  0  0  0
  6 11  1  0  0  0  0
  8 13  1  0  0  0  0
  9 10  1  1  0  0  0
  9 15  1  0  0  0  0
 11 12  1  1  0  0  0
 11 17  1  0  0  0  0
 13 14  1  6  0  0  0
 13 19  1  0  0  0  0
 15 16  1  6  0  0  0
 15 20  1  0  0  0  0
 17 18  1  6  0  0  0
 17 22  1  0  0  0  0
 19  2  1  6  0  0  0
 19 24  1  0  0  0  0
 20 21  1  0  0  0  0
 20 26  1  6  0  0  0
 22 23  1  0  0  0  0
 22 28  1  1  0  0  0
 24 25  1  1  0  0  0
 24 30  1  0  0  0  0
 26 27  1  0  0  0  0
 28 29  1  0  0  0  0
 30 31  1  1  0  0  0
M  END
>  <CHROM.1>
-165.49041425,106.18692329,-141.68736983,-55.83968150,-68.84601043,171.34181528
21.24009741,8.18336593,6.53741069,1.78244014,0.42547829,-1.12056691

>  <Name>
2o3x_lig

>  <RI>
3.41138e+07

>  <Rbt.Current_Directory>
/home/itssahil/PROJECTS/Mol_Feturizer/New_Systems/rnas/2o3x

>  <Rbt.Executable>
rbdock ($Id: //depot/dev/client3/rdock/2013.1/src/exe/rbdock.cxx#4 $)

>  <Rbt.Library>
libRbt.so (2013.1, Build901 2013/11/27)

>  <Rbt.Parameter_File>
/export/apps/rDock/src/rDock_2013.1_src/data/scripts/dock_solv.prm

>  <Rbt.Receptor>
prm/pocket_docking_2.prm

>  <SCORE>
-12.0191

>  <SCORE.INTER>
-15.2933

>  <SCORE.INTER.CONST>
1

>  <SCORE.INTER.POLAR>
-0.894427

>  <SCORE.INTER.ROT>
6

>  <SCORE.INTER.SOLV>
14.561

>  <SCORE.INTER.VDW>
-19.6678

>  <SCORE.INTER.norm>
-0.493332

>  <SCORE.INTRA>
2.53794

>  <SCORE.INTRA.DIHEDRAL>
3.81851

>  <SCORE.INTRA.DIHEDRAL.0>
9.37739

>  <SCORE.INTRA.POLAR>
0

>  <SCORE.INTRA.POLAR.0>
0

>  <SCORE.INTRA.REPUL>
0

>  <SCORE.INTRA.REPUL.0>
0

>  <SCORE.INTRA.SOLV>
-0.268865

>  <SCORE.INTRA.SOLV.lig_0>
-82.9274

>  <SCORE.INTRA.VDW>
0.763111

>  <SCORE.INTRA.VDW.0>
-3.84922

>  <SCORE.INTRA.norm>
0.0818689

>  <SCORE.RESTR>
0.736262

>  <SCORE.RESTR.CAVITY>
0.736262

>  <SCORE.RESTR.norm>
0.0237504

>  <SCORE.SYSTEM>
0

>  <SCORE.SYSTEM.CONST>
0

>  <SCORE.SYSTEM.DIHEDRAL>
0

>  <SCORE.SYSTEM.SOLV>
0

>  <SCORE.SYSTEM.norm>
0

>  <SCORE.heavy>
31

>  <SCORE.norm>
-0.387713

>  <RMSD>
1.467

$$$$
2o3x_lig
 OpenBabel11021811463D
libRbt.so/2013.1/901 2013/11/27
 31 33  0  0  0  0  0  0  0  0999 V2000
   19.3315    9.2785    5.9454 C   0  0  2  0  0  0  0  0  0  0  0  0
   20.0090    8.0156    5.9058 O   0  0  0  0  0  0  0  0  0  0  0  0
   23.3518    6.1642    7.8283 C   0  0  2  0  0  0  0  0  0  0  0  0
   24.3968    5.7856    8.8051 N   0  0  0  0  0  0  0  0  0  0  0  0
   19.5566    7.0791    9.6174 C   0  0  1  0  0  0  0  0  0  0  0  0
   18.0394    9.1717    5.0750 C   0  0  2  0  0  0  0  0  0  0  0  0
   17.2529    7.9515    5.3886 N   0  0  0  0  0  0  0  0  0  0  0  0
   23.5266    7.6339    7.3197 C   0  0  0  0  0  0  0  0  0  0  0  0
   19.4610    8.6398    9.5813 C   0  0  2  0  0  0  0  0  0  0  0  0
   20.7239    9.3537    9.4827 O   0  0  0  0  0  0  0  0  0  0  0  0
   18.3682    9.1528    3.5702 C   0  0  1  0  0  0  0  0  0  0  0  0
   17.1896    9.1077    2.8065 O   0  0  0  0  0  0  0  0  0  0  0  0
   22.3935    7.9289    6.2701 C   0  0  2  0  0  0  0  0  0  0  0  0
   22.5017    9.3131    5.7192 N   0  0  0  0  0  0  0  0  0  0  0  0
   18.6770    8.8411   10.8672 C   0  0  2  0  0  0  0  0  0  0  0  0
   19.5543    8.7467   12.0416 O   0  0  0  0  0  0  0  0  0  0  0  0
   19.1901   10.3789    3.2098 C   0  0  2  0  0  0  0  0  0  0  0  0
   19.4689   10.3759    1.8467 O   0  0  0  0  0  0  0  0  0  0  0  0
   20.9907    7.7658    6.9219 C   0  0  2  0  0  0  0  0  0  0  0  0
   17.6466    7.7180   10.8647 C   0  0  2  0  0  0  0  0  0  0  0  0
   18.4409    6.6314   10.3970 O   0  0  0  0  0  0  0  0  0  0  0  0
   20.5119   10.3905    4.0286 C   0  0  2  0  0  0  0  0  0  0  0  0
   20.2090   10.3779    5.4404 O   0  0  0  0  0  0  0  0  0  0  0  0
   20.7632    6.3710    7.5377 C   0  0  2  0  0  0  0  0  0  0  0  0
   19.5161    6.4889    8.3089 O   0  0  0  0  0  0  0  0  0  0  0  0
   16.4190    7.9508    9.9202 C   0  0  0  0  0  0  0  0  0  0  0  0
   15.9370    9.2838   10.0637 N   0  0  0  0  0  0  0  0  0  0  0  0
   21.3674   11.5992    3.7282 C   0  0  0  0  0  0  0  0  0  0  0  0
   20.7061   12.7754    4.0233 O   0  0  0  0  0  0  0  0  0  0  0  0
   21.9759    5.9861    8.4952 C   0  0  1  0  0  0  0  0  0  0  0  0
   21.9024    4.6132    8.9086 O   0  0  0  0  0  0  0  0  0  0  0  0
  1  2  1  6  0  0  0
  1  6  1  0  0  0  0
  1 23  1  0  0  0  0
  3  4  1  1  0  0  0
  3  8  1  0  0  0  0
  3 30  1  0  0  0  0
  5  9  1  0  0  0  0
  5 21  1  0  0  0  0
  5 25  1  6  0  0  0
  6  7  1  1  0  0  0
  6 11  1  0  0  0  0
  8 13  1  0  0  0  0
  9 10  1  1  0  0  0
  9 15  1  0  0  0  0
 11 12  1  6  0  0  0
 11 17  1  0  0  0  0
 13 14  1  1  0  0  0
 13 19  1  0  0  0  0
 15 16  1  1  0  0  0
 15 20  1  0  0  0  0
 17 18  1  6  0  0  0
 17 22  1  0  0  0  0
 19  2  1  6  0  0  0
 19 24  1  0  0  0  0
 20 21  1  0  0  0  0
 20 26  1  6  0  0  0
 22 23  1  0  0  0  0
 22 28  1  1  0  0  0
 24 25  1  1  0  0  0
 24 30  1  0  0  0  0
 26 27  1  0  0  0  0
 28 29  1  0  0  0  0
 30 31  1  6  0  0  0
M  END
>  <CHROM.1>
-162.47085098,85.09181825,-104.14921276,-44.68726180,60.05984324,-80.47000381
19.96940817,8.43244501,7.08497817,1.61347966,0.33718980,-1.12302548

>  <Name>
2o3x_lig

>  <RI>
3.41138e+07

>  <Rbt.Current_Directory>
/home/itssahil/PROJECTS/Mol_Feturizer/New_Systems/rnas/2o3x

>  <Rbt.Executable>
rbdock ($Id: //depot/dev/client3/rdock/2013.1/src/exe/rbdock.cxx#4 $)

>  <Rbt.Library>
libRbt.so (2013.1, Build901 2013/11/27)

>  <Rbt.Parameter_File>
/export/apps/rDock/src/rDock_2013.1_src/data/scripts/dock_solv.prm

>  <Rbt.Receptor>
prm/pocket_docking_2.prm

>  <SCORE>
-5.39694

>  <SCORE.INTER>
-10.3103

>  <SCORE.INTER.CONST>
1

>  <SCORE.INTER.POLAR>
-1.34793

>  <SCORE.INTER.ROT>
6

>  <SCORE.INTER.SOLV>
15.5724

>  <SCORE.INTER.VDW>
-15.1712

>  <SCORE.INTER.norm>
-0.33259

>  <SCORE.INTRA>
3.95166

>  <SCORE.INTRA.DIHEDRAL>
3.46419

>  <SCORE.INTRA.DIHEDRAL.0>
9.37739

>  <SCORE.INTRA.POLAR>
0

>  <SCORE.INTRA.POLAR.0>
0

>  <SCORE.INTRA.REPUL>
0

>  <SCORE.INTRA.REPUL.0>
0

>  <SCORE.INTRA.SOLV>
2.49577

>  <SCORE.INTRA.SOLV.lig_0>
-82.9274

>  <SCORE.INTRA.VDW>
0.971681

>  <SCORE.INTRA.VDW.0>
-3.84922

>  <SCORE.INTRA.norm>
0.127473

>  <SCORE.RESTR>
0.961695

>  <SCORE.RESTR.CAVITY>
0.961695

>  <SCORE.RESTR.norm>
0.0310224

>  <SCORE.SYSTEM>
0

>  <SCORE.SYSTEM.CONST>
0

>  <SCORE.SYSTEM.DIHEDRAL>
0

>  <SCORE.SYSTEM.SOLV>
0

>  <SCORE.SYSTEM.norm>
0

>  <SCORE.heavy>
31

>  <SCORE.norm>
-0.174095

>  <RMSD>
1.523

$$$$
2o3x_lig
 OpenBabel11021811463D
libRbt.so/2013.1/901 2013/11/27
 31 33  0  0  0  0  0  0  0  0999 V2000
   20.3907    9.4253    5.5474 C   0  0  2  0  0  0  0  0  0  0  0  0
   21.1178    8.2517    5.1606 O   0  0  0  0  0  0  0  0  0  0  0  0
   24.8123    6.3063    6.0900 C   0  0  2  0  0  0  0  0  0  0  0  0
   26.1511    5.9872    6.6333 N   0  0  0  0  0  0  0  0  0  0  0  0
   21.3737    6.7763    9.0862 C   0  0  1  0  0  0  0  0  0  0  0  0
   18.9399    9.3150    4.9805 C   0  0  2  0  0  0  0  0  0  0  0  0
   18.3268    7.9928    5.2658 N   0  0  0  0  0  0  0  0  0  0  0  0
   24.8545    7.5102    5.0909 C   0  0  0  0  0  0  0  0  0  0  0  0
   22.2165    7.2204   10.3266 C   0  0  2  0  0  0  0  0  0  0  0  0
   23.5144    6.5825   10.4770 O   0  0  0  0  0  0  0  0  0  0  0  0
   18.9074    9.5363    3.4564 C   0  0  1  0  0  0  0  0  0  0  0  0
   17.5878    9.4831    2.9766 O   0  0  0  0  0  0  0  0  0  0  0  0
   23.3982    7.7504    4.5487 C   0  0  2  0  0  0  0  0  0  0  0  0
   23.3555    8.8772    3.5690 N   0  0  0  0  0  0  0  0  0  0  0  0
   21.1923    6.9170   11.4074 C   0  0  2  0  0  0  0  0  0  0  0  0
   21.1633    5.4821   11.7203 O   0  0  0  0  0  0  0  0  0  0  0  0
   19.5435   10.8743    3.1191 C   0  0  2  0  0  0  0  0  0  0  0  0
   19.4946   11.0868    1.7450 O   0  0  0  0  0  0  0  0  0  0  0  0
   22.4278    8.0778    5.7193 C   0  0  2  0  0  0  0  0  0  0  0  0
   19.8649    7.3722   10.8126 C   0  0  2  0  0  0  0  0  0  0  0  0
   20.0002    6.9033    9.4739 O   0  0  0  0  0  0  0  0  0  0  0  0
   21.0170   10.9008    3.6149 C   0  0  2  0  0  0  0  0  0  0  0  0
   21.0549   10.6639    5.0387 O   0  0  0  0  0  0  0  0  0  0  0  0
   22.3924    6.9845    6.8056 C   0  0  2  0  0  0  0  0  0  0  0  0
   21.6360    7.5738    7.9211 O   0  0  0  0  0  0  0  0  0  0  0  0
   19.6288    8.9205   10.8336 C   0  0  0  0  0  0  0  0  0  0  0  0
   20.5057    9.5618    9.9119 N   0  0  0  0  0  0  0  0  0  0  0  0
   21.7009   12.2167    3.3251 C   0  0  0  0  0  0  0  0  0  0  0  0
   21.1061   13.2594    4.0085 O   0  0  0  0  0  0  0  0  0  0  0  0
   23.8715    6.6179    7.2678 C   0  0  1  0  0  0  0  0  0  0  0  0
   23.8843    5.4571    8.1126 O   0  0  0  0  0  0  0  0  0  0  0  0
  1  2  1  6  0  0  0
  1  6  1  0  0  0  0
  1 23  1  0  0  0  0
  3  4  1  1  0  0  0
  3  8  1  0  0  0  0
  3 30  1  0  0  0  0
  5  9  1  0  0  0  0
  5 21  1  0  0  0  0
  5 25  1  6  0  0  0
  6  7  1  6  0  0  0
  6 11  1  0  0  0  0
  8 13  1  0  0  0  0
  9 10  1  1  0  0  0
  9 15  1  0  0  0  0
 11 12  1  1  0  0  0
 11 17  1  0  0  0  0
 13 14  1  6  0  0  0
 13 19  1  0  0  0  0
 15 16  1  6  0  0  0
 15 20  1  0  0  0  0
 17 18  1  6  0  0  0
 17 22  1  0  0  0  0
 19  2  1  6  0  0  0
 19 24  1  0  0  0  0
 20 21  1  0  0  0  0
 20 26  1  6  0  0  0
 22 23  1  0  0  0  0
 22 28  1  1  0  0  0
 24 25  1  1  0  0  0
 24 30  1  0  0  0  0
 26 27  1  0  0  0  0
 28 29  1  0  0  0  0
 30 31  1  1  0  0  0
M  END
>  <CHROM.1>
-172.58930594,108.05275864,-130.76496809,69.81617042,63.88894260,177.41381517
21.44744477,8.39504442,6.58438656,1.84819937,0.43864977,-1.13988318

>  <Name>
2o3x_lig

>  <RI>
0

>  <Rbt.Current_Directory>
/home/itssahil/PROJECTS/Mol_Feturizer/New_Systems/rnas/2o3x

>  <Rbt.Executable>
rbdock ($Id: //depot/dev/client3/rdock/2013.1/src/exe/rbdock.cxx#4 $)

>  <Rbt.Library>
libRbt.so (2013.1, Build901 2013/11/27)

>  <Rbt.Parameter_File>
/export/apps/rDock/src/rDock_2013.1_src/data/scripts/dock_solv.prm

>  <Rbt.Receptor>
prm/pocket_docking_3.prm

>  <SCORE>
-15.096

>  <SCORE.INTER>
-19.4606

>  <SCORE.INTER.CONST>
1

>  <SCORE.INTER.POLAR>
-1.64276

>  <SCORE.INTER.ROT>
6

>  <SCORE.INTER.SOLV>
18.8152

>  <SCORE.INTER.VDW>
-21.3696

>  <SCORE.INTER.norm>
-0.627763

>  <SCORE.INTRA>
4.36468

>  <SCORE.INTRA.DIHEDRAL>
4.53072

>  <SCORE.INTRA.DIHEDRAL.0>
9.37739

>  <SCORE.INTRA.POLAR>
0

>  <SCORE.INTRA.POLAR.0>
0

>  <SCORE.INTRA.REPUL>
0

>  <SCORE.INTRA.REPUL.0>
0

>  <SCORE.INTRA.SOLV>
3.46951

>  <SCORE.INTRA.SOLV.lig_0>
-82.9274

>  <SCORE.INTRA.VDW>
0.364561

>  <SCORE.INTRA.VDW.0>
-3.84922

>  <SCORE.INTRA.norm>
0.140796

>  <SCORE.RESTR>
0

>  <SCORE.RESTR.CAVITY>
0

>  <SCORE.RESTR.norm>
0

>  <SCORE.SYSTEM>
0

>  <SCORE.SYSTEM.CONST>
0

>  <SCORE.SYSTEM.DIHEDRAL>
0

>  <SCORE.SYSTEM.SOLV>
0

>  <SCORE.SYSTEM.norm>
0

>  <SCORE.heavy>
31

>  <SCORE.norm>
-0.486967

>  <RMSD>
1.548

$$$$
2o3x_lig
 OpenBabel11021811463D
libRbt.so/2013.1/901 2013/11/27
 31 33  0  0  0  0  0  0  0  0999 V2000
   20.3039    9.5100    5.4495 C   0  0  2  0  0  0  0  0  0  0  0  0
   21.2010    8.4791    5.0159 O   0  0  0  0  0  0  0  0  0  0  0  0
   23.0597    5.1879    7.0187 C   0  0  2  0  0  0  0  0  0  0  0  0
   23.7749    4.3459    8.0030 N   0  0  0  0  0  0  0  0  0  0  0  0
   20.5180    8.1376    8.8155 C   0  0  1  0  0  0  0  0  0  0  0  0
   18.9062    9.2503    4.8036 C   0  0  2  0  0  0  0  0  0  0  0  0
   18.4705    7.8392    4.9611 N   0  0  0  0  0  0  0  0  0  0  0  0
   23.9908    6.2773    6.3896 C   0  0  0  0  0  0  0  0  0  0  0  0
   19.5994    9.2858    9.3483 C   0  0  2  0  0  0  0  0  0  0  0  0
   19.9705   10.6349    8.9525 O   0  0  0  0  0  0  0  0  0  0  0  0
   18.9045    9.5844    3.2998 C   0  0  1  0  0  0  0  0  0  0  0  0
   17.6252    9.3919    2.7515 O   0  0  0  0  0  0  0  0  0  0  0  0
   23.1517    7.0953    5.3412 C   0  0  2  0  0  0  0  0  0  0  0  0
   23.9774    8.1488    4.6782 N   0  0  0  0  0  0  0  0  0  0  0  0
   19.6962    8.9732   10.8322 C   0  0  2  0  0  0  0  0  0  0  0  0
   20.9540    9.4787   11.3980 O   0  0  0  0  0  0  0  0  0  0  0  0
   19.3627   11.0182    3.0929 C   0  0  2  0  0  0  0  0  0  0  0  0
   19.3400   11.3295    1.7371 O   0  0  0  0  0  0  0  0  0  0  0  0
   21.9377    7.7812    6.0302 C   0  0  2  0  0  0  0  0  0  0  0  0
   19.6380    7.4519   10.9054 C   0  0  2  0  0  0  0  0  0  0  0  0
   20.4725    7.1020    9.8047 O   0  0  0  0  0  0  0  0  0  0  0  0
   20.7974   11.2037    3.6629 C   0  0  2  0  0  0  0  0  0  0  0  0
   20.8106   10.8629    5.0660 O   0  0  0  0  0  0  0  0  0  0  0  0
   21.0111    6.7894    6.7609 C   0  0  2  0  0  0  0  0  0  0  0  0
   20.0896    7.6275    7.5433 O   0  0  0  0  0  0  0  0  0  0  0  0
   18.2080    6.8371   10.7309 C   0  0  0  0  0  0  0  0  0  0  0  0
   17.6972    7.1458    9.4371 N   0  0  0  0  0  0  0  0  0  0  0  0
   21.3041   12.6184    3.5041 C   0  0  0  0  0  0  0  0  0  0  0  0
   21.4936   12.9437    2.1751 O   0  0  0  0  0  0  0  0  0  0  0  0
   21.8606    5.8473    7.7235 C   0  0  1  0  0  0  0  0  0  0  0  0
   21.0615    4.7760    8.2478 O   0  0  0  0  0  0  0  0  0  0  0  0
  1  2  1  6  0  0  0
  1  6  1  0  0  0  0
  1 23  1  0  0  0  0
  3  4  1  1  0  0  0
  3  8  1  0  0  0  0
  3 30  1  0  0  0  0
  5  9  1  0  0  0  0
  5 21  1  0  0  0  0
  5 25  1  6  0  0  0
  6  7  1  6  0  0  0
  6 11  1  0  0  0  0
  8 13  1  0  0  0  0
  9 10  1  1  0  0  0
  9 15  1  0  0  0  0
 11 12  1  1  0  0  0
 11 17  1  0  0  0  0
 13 14  1  1  0  0  0
 13 19  1  0  0  0  0
 15 16  1  6  0  0  0
 15 20  1  0  0  0  0
 17 18  1  6  0  0  0
 17 22  1  0  0  0  0
 19  2  1  6  0  0  0
 19 24  1  0  0  0  0
 20 21  1  0  0  0  0
 20 26  1  6  0  0  0
 22 23  1  0  0  0  0
 22 28  1  1  0  0  0
 24 25  1  1  0  0  0
 24 30  1  0  0  0  0
 26 27  1  0  0  0  0
 28 29  1  0  0  0  0
 30 31  1  6  0  0  0
M  END
>  <CHROM.1>
-128.63464039,165.27572019,-160.94542172,62.68464527,-66.78577839,-82.12801211
20.60452882,8.52141400,6.54793236,1.66320312,0.74768600,-1.06702040

>  <Name>
2o3x_lig

>  <RI>
0

>  <Rbt.Current_Directory>
/home/itssahil/PROJECTS/Mol_Feturizer/New_Systems/rnas/2o3x

>  <Rbt.Executable>
rbdock ($Id: //depot/dev/client3/rdock/2013.1/src/exe/rbdock.cxx#4 $)

>  <Rbt.Library>
libRbt.so (2013.1, Build901 2013/11/27)

>  <Rbt.Parameter_File>
/export/apps/rDock/src/rDock_2013.1_src/data/scripts/dock_solv.prm

>  <Rbt.Receptor>
prm/pocket_docking_3.prm

>  <SCORE>
-13.0443

>  <SCORE.INTER>
-17.1694

>  <SCORE.INTER.CONST>
1

>  <SCORE.INTER.POLAR>
-1.88246

>  <SCORE.INTER.ROT>
6

>  <SCORE.INTER.SOLV>
13.0542

>  <SCORE.INTER.VDW>
-17.1228

>  <SCORE.INTER.norm>
-0.553852

>  <SCORE.INTRA>
4.09031

>  <SCORE.INTRA.DIHEDRAL>
2.6114

>  <SCORE.INTRA.DIHEDRAL.0>
9.37739

>  <SCORE.INTRA.POLAR>
0

>  <SCORE.INTRA.POLAR.0>
0

>  <SCORE.INTRA.REPUL>
0

>  <SCORE.INTRA.REPUL.0>
0

>  <SCORE.INTRA.SOLV>
2.79146

>  <SCORE.INTRA.SOLV.lig_0>
-82.9274

>  <SCORE.INTRA.VDW>
1.38888

>  <SCORE.INTRA.VDW.0>
-3.84922

>  <SCORE.INTRA.norm>
0.131946

>  <SCORE.RESTR>
0.0348575

>  <SCORE.RESTR.CAVITY>
0.0348575

>  <SCORE.RESTR.norm>
0.00112444

>  <SCORE.SYSTEM>
0

>  <SCORE.SYSTEM.CONST>
0

>  <SCORE.SYSTEM.DIHEDRAL>
0

>  <SCORE.SYSTEM.SOLV>
0

>  <SCORE.SYSTEM.norm>
0

>  <SCORE.heavy>
31

>  <SCORE.norm>
-0.420782

>  <RMSD>
1.582

$$$$
2o3x_lig
 OpenBabel11021811463D
libRbt.so/2013.1/901 2013/11/27
 31 33  0  0  0  0  0  0  0  0999 V2000
   20.2752    9.2478    6.0625 C   0  0  2  0  0  0  0  0  0  0  0  0
   21.0790    8.1320    5.6568 O   0  0  0  0  0  0  0  0  0  0  0  0
   24.9852    6.5499    6.3892 C   0  0  2  0  0  0  0  0  0  0  0  0
   26.3802    6.3686    6.8483 N   0  0  0  0  0  0  0  0  0  0  0  0
   21.6956    6.8201    9.5883 C   0  0  1  0  0  0  0  0  0  0  0  0
   18.8076    8.9940    5.5932 C   0  0  2  0  0  0  0  0  0  0  0  0
   18.3344    7.6318    5.9483 N   0  0  0  0  0  0  0  0  0  0  0  0
   24.8540    7.7144    5.3517 C   0  0  0  0  0  0  0  0  0  0  0  0
   22.5771    7.3459   10.7683 C   0  0  2  0  0  0  0  0  0  0  0  0
   23.9209    6.7969   10.8541 O   0  0  0  0  0  0  0  0  0  0  0  0
   18.6605    9.1675    4.0697 C   0  0  1  0  0  0  0  0  0  0  0  0
   17.3236    8.9846    3.6776 O   0  0  0  0  0  0  0  0  0  0  0  0
   23.3494    7.8071    4.9045 C   0  0  2  0  0  0  0  0  0  0  0  0
   23.1418    8.8880    3.8948 N   0  0  0  0  0  0  0  0  0  0  0  0
   21.6391    7.0014   11.9130 C   0  0  2  0  0  0  0  0  0  0  0  0
   21.7229    5.5751   12.2542 O   0  0  0  0  0  0  0  0  0  0  0  0
   19.1519   10.5459    3.6610 C   0  0  2  0  0  0  0  0  0  0  0  0
   18.9985   10.7135    2.2884 O   0  0  0  0  0  0  0  0  0  0  0  0
   22.4334    8.0932    6.1286 C   0  0  2  0  0  0  0  0  0  0  0  0
   20.2525    7.3561   11.3890 C   0  0  2  0  0  0  0  0  0  0  0  0
   20.3413    6.8666   10.0537 O   0  0  0  0  0  0  0  0  0  0  0  0
   20.6451   10.7161    4.0597 C   0  0  2  0  0  0  0  0  0  0  0  0
   20.7928   10.5247    5.4832 O   0  0  0  0  0  0  0  0  0  0  0  0
   22.5674    7.0429    7.2489 C   0  0  2  0  0  0  0  0  0  0  0  0
   21.8372    7.6062    8.3949 O   0  0  0  0  0  0  0  0  0  0  0  0
   19.9164    8.8860   11.3946 C   0  0  0  0  0  0  0  0  0  0  0  0
   18.5639    9.0913   10.9967 N   0  0  0  0  0  0  0  0  0  0  0  0
   21.1890   12.0782    3.6959 C   0  0  0  0  0  0  0  0  0  0  0  0
   21.2160   12.2652    2.3276 O   0  0  0  0  0  0  0  0  0  0  0  0
   24.1006    6.8232    7.6189 C   0  0  1  0  0  0  0  0  0  0  0  0
   24.2725    5.7007    8.4973 O   0  0  0  0  0  0  0  0  0  0  0  0
  1  2  1  6  0  0  0
  1  6  1  0  0  0  0
  1 23  1  0  0  0  0
  3  4  1  1  0  0  0
  3  8  1  0  0  0  0
  3 30  1  0  0  0  0
  5  9  1  0  0  0  0
  5 21  1  0  0  0  0
  5 25  1  6  0  0  0
  6  7  1  6  0  0  0
  6 11  1  0  0  0  0
  8 13  1  0  0  0  0
  9 10  1  1  0  0  0
  9 15  1  0  0  0  0
 11 12  1  1  0  0  0
 11 17  1  0  0  0  0
 13 14  1  6  0  0  0
 13 19  1  0  0  0  0
 15 16  1  6  0  0  0
 15 20  1  0  0  0  0
 17 18  1  6  0  0  0
 17 22  1  0  0  0  0
 19  2  1  6  0  0  0
 19 24  1  0  0  0  0
 20 21  1  0  0  0  0
 20 26  1  6  0  0  0
 22 23  1  0  0  0  0
 22 28  1  1  0  0  0
 24 25  1  1  0  0  0
 24 30  1  0  0  0  0
 26 27  1  0  0  0  0
 28 29  1  0  0  0  0
 30 31  1  1  0  0  0
M  END
>  <CHROM.1>
-172.86478052,107.94985594,-131.14665847,-174.99898783,-65.15300624,175.85146669
21.43701439,8.30806776,6.99493703,1.87773289,0.34300128,-1.20065106

>  <Name>
2o3x_lig

>  <RI>
0

>  <Rbt.Current_Directory>
/home/itssahil/PROJECTS/Mol_Feturizer/New_Systems/rnas/2o3x

>  <Rbt.Executable>
rbdock ($Id: //depot/dev/client3/rdock/2013.1/src/exe/rbdock.cxx#4 $)

>  <Rbt.Library>
libRbt.so (2013.1, Build901 2013/11/27)

>  <Rbt.Parameter_File>
/export/apps/rDock/src/rDock_2013.1_src/data/scripts/dock_solv.prm

>  <Rbt.Receptor>
prm/pocket_docking_5.prm

>  <SCORE>
-14.5645

>  <SCORE.INTER>
-17.1902

>  <SCORE.INTER.CONST>
1

>  <SCORE.INTER.POLAR>
-0.894427

>  <SCORE.INTER.ROT>
6

>  <SCORE.INTER.SOLV>
15.7692

>  <SCORE.INTER.VDW>
-21.3351

>  <SCORE.INTER.norm>
-0.554524

>  <SCORE.INTRA>
2.62572

>  <SCORE.INTRA.DIHEDRAL>
4.31873

>  <SCORE.INTRA.DIHEDRAL.0>
9.37739

>  <SCORE.INTRA.POLAR>
0

>  <SCORE.INTRA.POLAR.0>
0

>  <SCORE.INTRA.REPUL>
0

>  <SCORE.INTRA.REPUL.0>
0

>  <SCORE.INTRA.SOLV>
0.034539

>  <SCORE.INTRA.SOLV.lig_0>
-82.9274

>  <SCORE.INTRA.VDW>
0.449084

>  <SCORE.INTRA.VDW.0>
-3.84922

>  <SCORE.INTRA.norm>
0.0847006

>  <SCORE.RESTR>
0

>  <SCORE.RESTR.CAVITY>
0

>  <SCORE.RESTR.norm>
0

>  <SCORE.SYSTEM>
0

>  <SCORE.SYSTEM.CONST>
0

>  <SCORE.SYSTEM.DIHEDRAL>
0

>  <SCORE.SYSTEM.SOLV>
0

>  <SCORE.SYSTEM.norm>
0

>  <SCORE.heavy>
31

>  <SCORE.norm>
-0.469823

>  <RMSD>
1.616

$$$$
2o3x_lig
 OpenBabel11021811463D
libRbt.so/2013.1/901 2013/11/27
 31 33  0  0  0  0  0  0  0  0999 V2000
   20.2977    9.2969    6.0484 C   0  0  2  0  0  0  0  0  0  0  0  0
   21.0777    8.1522    5.6784 O   0  0  0  0  0  0  0  0  0  0  0  0
   24.9715    6.5378    6.4063 C   0  0  2  0  0  0  0  0  0  0  0  0
   26.3665    6.3463    6.8608 N   0  0  0  0  0  0  0  0  0  0  0  0
   21.6925    6.8619    9.6147 C   0  0  1  0  0  0  0  0  0  0  0  0
   18.8234    9.0563    5.5933 C   0  0  2  0  0  0  0  0  0  0  0  0
   18.3251    7.7166    5.9965 N   0  0  0  0  0  0  0  0  0  0  0  0
   24.8470    7.6954    5.3604 C   0  0  0  0  0  0  0  0  0  0  0  0
   22.5861    7.3793   10.7894 C   0  0  2  0  0  0  0  0  0  0  0  0
   23.9212    6.8096   10.8736 O   0  0  0  0  0  0  0  0  0  0  0  0
   18.6733    9.1804    4.0653 C   0  0  1  0  0  0  0  0  0  0  0  0
   17.3315    9.0107    3.6844 O   0  0  0  0  0  0  0  0  0  0  0  0
   23.3415    7.7994    4.9190 C   0  0  2  0  0  0  0  0  0  0  0  0
   23.1401    8.8745    3.9018 N   0  0  0  0  0  0  0  0  0  0  0  0
   21.6464    7.0550   11.9388 C   0  0  2  0  0  0  0  0  0  0  0  0
   21.7088    5.6292   12.2864 O   0  0  0  0  0  0  0  0  0  0  0  0
   19.1899   10.5341    3.6079 C   0  0  2  0  0  0  0  0  0  0  0  0
   19.0341   10.6577    2.2309 O   0  0  0  0  0  0  0  0  0  0  0  0
   22.4337    8.1038    6.1447 C   0  0  2  0  0  0  0  0  0  0  0  0
   20.2639    7.4291   11.4174 C   0  0  2  0  0  0  0  0  0  0  0  0
   20.3406    6.9320   10.0842 O   0  0  0  0  0  0  0  0  0  0  0  0
   20.6879   10.6883    3.9952 C   0  0  2  0  0  0  0  0  0  0  0  0
   20.8377   10.5428    5.4239 O   0  0  0  0  0  0  0  0  0  0  0  0
   22.5623    7.0608    7.2725 C   0  0  2  0  0  0  0  0  0  0  0  0
   21.8426    7.6401    8.4172 O   0  0  0  0  0  0  0  0  0  0  0  0
   19.9520    8.9641   11.4169 C   0  0  0  0  0  0  0  0  0  0  0  0
   18.6302    9.1946   10.9376 N   0  0  0  0  0  0  0  0  0  0  0  0
   21.2568   12.0261    3.5830 C   0  0  0  0  0  0  0  0  0  0  0  0
   21.2649   12.1730    2.2096 O   0  0  0  0  0  0  0  0  0  0  0  0
   24.0949    6.8291    7.6376 C   0  0  1  0  0  0  0  0  0  0  0  0
   24.2597    5.7117    8.5239 O   0  0  0  0  0  0  0  0  0  0  0  0
  1  2  1  6  0  0  0
  1  6  1  0  0  0  0
  1 23  1  0  0  0  0
  3  4  1  1  0  0  0
  3  8  1  0  0  0  0
  3 30  1  0  0  0  0
  5  9  1  0  0  0  0
  5 21  1  0  0  0  0
  5 25  1  6  0  0  0
  6  7  1  6  0  0  0
  6 11  1  0  0  0  0
  8 13  1  0  0  0  0
  9 10  1  1  0  0  0
  9 15  1  0  0  0  0
 11 12  1  1  0  0  0
 11 17  1  0  0  0  0
 13 14  1  6  0  0  0
 13 19  1  0  0  0  0
 15 16  1  6  0  0  0
 15 20  1  0  0  0  0
 17 18  1  6  0  0  0
 17 22  1  0  0  0  0
 19  2  1  6  0  0  0
 19 24  1  0  0  0  0
 20 21  1  0  0  0  0
 20 26  1  6  0  0  0
 22 23  1  0  0  0  0
 22 28  1  1  0  0  0
 24 25  1  1  0  0  0
 24 30  1  0  0  0  0
 26 27  1  0  0  0  0
 28 29  1  0  0  0  0
 30 31  1  1  0  0  0
M  END
>  <CHROM.1>
-172.95963830,107.83545734,-129.48147074,-178.83139398,-64.33313131,175.53031955
21.44923502,8.32543283,6.99151322,1.87141126,0.34883930,-1.21155201

>  <Name>
2o3x_lig

>  <RI>
0

>  <Rbt.Current_Directory>
/home/itssahil/PROJECTS/Mol_Feturizer/New_Systems/rnas/2o3x

>  <Rbt.Executable>
rbdock ($Id: //depot/dev/client3/rdock/2013.1/src/exe/rbdock.cxx#4 $)

>  <Rbt.Library>
libRbt.so (2013.1, Build901 2013/11/27)

>  <Rbt.Parameter_File>
/export/apps/rDock/src/rDock_2013.1_src/data/scripts/dock_solv.prm

>  <Rbt.Receptor>
prm/pocket_docking_4.prm

>  <SCORE>
-14.5192

>  <SCORE.INTER>
-17.3306

>  <SCORE.INTER.CONST>
1

>  <SCORE.INTER.POLAR>
-0.894427

>  <SCORE.INTER.ROT>
6

>  <SCORE.INTER.SOLV>
15.6361

>  <SCORE.INTER.VDW>
-21.3843

>  <SCORE.INTER.norm>
-0.55905

>  <SCORE.INTRA>
2.8114

>  <SCORE.INTRA.DIHEDRAL>
4.37189

>  <SCORE.INTRA.DIHEDRAL.0>
9.37739

>  <SCORE.INTRA.POLAR>
0

>  <SCORE.INTRA.POLAR.0>
0

>  <SCORE.INTRA.REPUL>
0

>  <SCORE.INTRA.REPUL.0>
0

>  <SCORE.INTRA.SOLV>
0.270667

>  <SCORE.INTRA.SOLV.lig_0>
-82.9274

>  <SCORE.INTRA.VDW>
0.490119

>  <SCORE.INTRA.VDW.0>
-3.84922

>  <SCORE.INTRA.norm>
0.0906903

>  <SCORE.RESTR>
0

>  <SCORE.RESTR.CAVITY>
0

>  <SCORE.RESTR.norm>
0

>  <SCORE.SYSTEM>
0

>  <SCORE.SYSTEM.CONST>
0

>  <SCORE.SYSTEM.DIHEDRAL>
0

>  <SCORE.SYSTEM.SOLV>
0

>  <SCORE.SYSTEM.norm>
0

>  <SCORE.heavy>
31

>  <SCORE.norm>
-0.46836

>  <RMSD>
1.619

$$$$
2o3x_lig
 OpenBabel11021811463D
libRbt.so/2013.1/901 2013/11/27
 31 33  0  0  0  0  0  0  0  0999 V2000
   20.0568    9.0429    5.5858 C   0  0  2  0  0  0  0  0  0  0  0  0
   20.8257    7.9697    5.0268 O   0  0  0  0  0  0  0  0  0  0  0  0
   24.6894    6.2158    5.5687 C   0  0  2  0  0  0  0  0  0  0  0  0
   25.9776    5.7693    6.1435 N   0  0  0  0  0  0  0  0  0  0  0  0
   21.4196    6.1169    8.3516 C   0  0  1  0  0  0  0  0  0  0  0  0
   18.6126    8.9734    4.9961 C   0  0  2  0  0  0  0  0  0  0  0  0
   18.0451    7.6027    5.0661 N   0  0  0  0  0  0  0  0  0  0  0  0
   24.6075    7.7740    5.4477 C   0  0  0  0  0  0  0  0  0  0  0  0
   21.6305    7.6385    8.6453 C   0  0  2  0  0  0  0  0  0  0  0  0
   22.9857    8.1382    8.4783 O   0  0  0  0  0  0  0  0  0  0  0  0
   18.5772    9.4291    3.5251 C   0  0  1  0  0  0  0  0  0  0  0  0
   17.2618    9.4067    3.0315 O   0  0  0  0  0  0  0  0  0  0  0  0
   23.2226    8.1449    4.8022 C   0  0  2  0  0  0  0  0  0  0  0  0
   23.0727    9.6216    4.6339 N   0  0  0  0  0  0  0  0  0  0  0  0
   21.0760    7.6677   10.0598 C   0  0  2  0  0  0  0  0  0  0  0  0
   22.0627    7.1649   11.0248 O   0  0  0  0  0  0  0  0  0  0  0  0
   19.1672   10.8242    3.4065 C   0  0  2  0  0  0  0  0  0  0  0  0
   19.1153   11.2472    2.0820 O   0  0  0  0  0  0  0  0  0  0  0  0
   22.0526    7.6283    5.6874 C   0  0  2  0  0  0  0  0  0  0  0  0
   19.8526    6.7601   10.0079 C   0  0  2  0  0  0  0  0  0  0  0  0
   20.3487    5.6932    9.2041 O   0  0  0  0  0  0  0  0  0  0  0  0
   20.6373   10.8229    3.9129 C   0  0  2  0  0  0  0  0  0  0  0  0
   20.6789   10.3677    5.2826 O   0  0  0  0  0  0  0  0  0  0  0  0
   22.1052    6.1086    5.9408 C   0  0  2  0  0  0  0  0  0  0  0  0
   21.0931    5.8555    6.9779 O   0  0  0  0  0  0  0  0  0  0  0  0
   18.5829    7.4009    9.3519 C   0  0  0  0  0  0  0  0  0  0  0  0
   18.1784    8.5507   10.0896 N   0  0  0  0  0  0  0  0  0  0  0  0
   21.2757   12.1905    3.8382 C   0  0  0  0  0  0  0  0  0  0  0  0
   21.4059   12.6193    2.5317 O   0  0  0  0  0  0  0  0  0  0  0  0
   23.5505    5.6850    6.4579 C   0  0  1  0  0  0  0  0  0  0  0  0
   23.6974    4.2573    6.4926 O   0  0  0  0  0  0  0  0  0  0  0  0
  1  2  1  6  0  0  0
  1  6  1  0  0  0  0
  1 23  1  0  0  0  0
  3  4  1  1  0  0  0
  3  8  1  0  0  0  0
  3 30  1  0  0  0  0
  5  9  1  0  0  0  0
  5 21  1  0  0  0  0
  5 25  1  6  0  0  0
  6  7  1  6  0  0  0
  6 11  1  0  0  0  0
  8 13  1  0  0  0  0
  9 10  1  1  0  0  0
  9 15  1  0  0  0  0
 11 12  1  1  0  0  0
 11 17  1  0  0  0  0
 13 14  1  1  0  0  0
 13 19  1  0  0  0  0
 15 16  1  1  0  0  0
 15 20  1  0  0  0  0
 17 18  1  6  0  0  0
 17 22  1  0  0  0  0
 19  2  1  6  0  0  0
 19 24  1  0  0  0  0
 20 21  1  0  0  0  0
 20 26  1  6  0  0  0
 22 23  1  0  0  0  0
 22 28  1  1  0  0  0
 24 25  1  1  0  0  0
 24 30  1  0  0  0  0
 26 27  1  0  0  0  0
 28 29  1  0  0  0  0
 30 31  1  6  0  0  0
M  END
>  <CHROM.1>
-163.69580599,66.86998054,-106.33914843,-60.84519154,-65.24063581,-80.30443183
21.14649270,8.16367938,6.17376049,1.93949477,0.37736594,-1.00858755

>  <Name>
2o3x_lig

>  <RI>
0

>  <Rbt.Current_Directory>
/home/itssahil/PROJECTS/Mol_Feturizer/New_Systems/rnas/2o3x

>  <Rbt.Executable>
rbdock ($Id: //depot/dev/client3/rdock/2013.1/src/exe/rbdock.cxx#4 $)

>  <Rbt.Library>
libRbt.so (2013.1, Build901 2013/11/27)

>  <Rbt.Parameter_File>
/export/apps/rDock/src/rDock_2013.1_src/data/scripts/dock_solv.prm

>  <Rbt.Receptor>
prm/pocket_docking_5.prm

>  <SCORE>
-9.3877

>  <SCORE.INTER>
-11.8439

>  <SCORE.INTER.CONST>
1

>  <SCORE.INTER.POLAR>
-0.898007

>  <SCORE.INTER.ROT>
6

>  <SCORE.INTER.SOLV>
12.1464

>  <SCORE.INTER.VDW>
-16.5514

>  <SCORE.INTER.norm>
-0.382061

>  <SCORE.INTRA>
2.45619

>  <SCORE.INTRA.DIHEDRAL>
0.455275

>  <SCORE.INTRA.DIHEDRAL.0>
9.37739

>  <SCORE.INTRA.POLAR>
0

>  <SCORE.INTRA.POLAR.0>
0

>  <SCORE.INTRA.REPUL>
0

>  <SCORE.INTRA.REPUL.0>
0

>  <SCORE.INTRA.SOLV>
2.52713

>  <SCORE.INTRA.SOLV.lig_0>
-82.9274

>  <SCORE.INTRA.VDW>
0.964988

>  <SCORE.INTRA.VDW.0>
-3.84922

>  <SCORE.INTRA.norm>
0.079232

>  <SCORE.RESTR>
0

>  <SCORE.RESTR.CAVITY>
0

>  <SCORE.RESTR.norm>
0

>  <SCORE.SYSTEM>
0

>  <SCORE.SYSTEM.CONST>
0

>  <SCORE.SYSTEM.DIHEDRAL>
0

>  <SCORE.SYSTEM.SOLV>
0

>  <SCORE.SYSTEM.norm>
0

>  <SCORE.heavy>
31

>  <SCORE.norm>
-0.302829

>  <RMSD>
1.631

$$$$
2o3x_lig
 OpenBabel11021811463D
libRbt.so/2013.1/901 2013/11/27
 31 33  0  0  0  0  0  0  0  0999 V2000
   20.1542    9.4948    5.4434 C   0  0  2  0  0  0  0  0  0  0  0  0
   21.1023    8.4749    5.1021 O   0  0  0  0  0  0  0  0  0  0  0  0
   24.0939    6.4953    7.4321 C   0  0  2  0  0  0  0  0  0  0  0  0
   25.2353    6.2086    8.3291 N   0  0  0  0  0  0  0  0  0  0  0  0
   19.8545    8.5302    8.6866 C   0  0  1  0  0  0  0  0  0  0  0  0
   18.8065    9.1757    4.7219 C   0  0  2  0  0  0  0  0  0  0  0  0
   18.3976    7.7593    4.9014 N   0  0  0  0  0  0  0  0  0  0  0  0
   24.5476    7.1961    6.1083 C   0  0  0  0  0  0  0  0  0  0  0  0
   20.1373    7.8820   10.0817 C   0  0  2  0  0  0  0  0  0  0  0  0
   20.2459    6.4322   10.1008 O   0  0  0  0  0  0  0  0  0  0  0  0
   18.8905    9.4594    3.2102 C   0  0  1  0  0  0  0  0  0  0  0  0
   17.6533    9.2140    2.5911 O   0  0  0  0  0  0  0  0  0  0  0  0
   23.2751    7.4297    5.2147 C   0  0  2  0  0  0  0  0  0  0  0  0
   23.6267    8.0810    3.9173 N   0  0  0  0  0  0  0  0  0  0  0  0
   18.9624    8.4753   10.8411 C   0  0  2  0  0  0  0  0  0  0  0  0
   17.7229    7.7409   10.5550 O   0  0  0  0  0  0  0  0  0  0  0  0
   19.3246   10.8975    2.9821 C   0  0  2  0  0  0  0  0  0  0  0  0
   19.3789   11.1630    1.6174 O   0  0  0  0  0  0  0  0  0  0  0  0
   22.2463    8.3305    5.9558 C   0  0  2  0  0  0  0  0  0  0  0  0
   18.8724    9.9123   10.3411 C   0  0  2  0  0  0  0  0  0  0  0  0
   19.1045    9.7227    8.9481 O   0  0  0  0  0  0  0  0  0  0  0  0
   20.7156   11.1410    3.6327 C   0  0  2  0  0  0  0  0  0  0  0  0
   20.6496   10.8475    5.0449 O   0  0  0  0  0  0  0  0  0  0  0  0
   21.8117    7.7630    7.3216 C   0  0  2  0  0  0  0  0  0  0  0  0
   21.0560    8.8476    7.9669 O   0  0  0  0  0  0  0  0  0  0  0  0
   19.9341   10.8903   10.9493 C   0  0  0  0  0  0  0  0  0  0  0  0
   19.9110   12.1325   10.2520 N   0  0  0  0  0  0  0  0  0  0  0  0
   21.1955   12.5629    3.4562 C   0  0  0  0  0  0  0  0  0  0  0  0
   21.4756   12.8438    2.1331 O   0  0  0  0  0  0  0  0  0  0  0  0
   23.0892    7.3800    8.1918 C   0  0  1  0  0  0  0  0  0  0  0  0
   22.7202    6.6502    9.3718 O   0  0  0  0  0  0  0  0  0  0  0  0
  1  2  1  6  0  0  0
  1  6  1  0  0  0  0
  1 23  1  0  0  0  0
  3  4  1  1  0  0  0
  3  8  1  0  0  0  0
  3 30  1  0  0  0  0
  5  9  1  0  0  0  0
  5 21  1  0  0  0  0
  5 25  1  1  0  0  0
  6  7  1  6  0  0  0
  6 11  1  0  0  0  0
  8 13  1  0  0  0  0
  9 10  1  6  0  0  0
  9 15  1  0  0  0  0
 11 12  1  1  0  0  0
 11 17  1  0  0  0  0
 13 14  1  6  0  0  0
 13 19  1  0  0  0  0
 15 16  1  6  0  0  0
 15 20  1  0  0  0  0
 17 18  1  6  0  0  0
 17 22  1  0  0  0  0
 19  2  1  6  0  0  0
 19 24  1  0  0  0  0
 20 21  1  0  0  0  0
 20 26  1  1  0  0  0
 22 23  1  0  0  0  0
 22 28  1  1  0  0  0
 24 25  1  1  0  0  0
 24 30  1  0  0  0  0
 26 27  1  0  0  0  0
 28 29  1  0  0  0  0
 30 31  1  1  0  0  0
M  END
>  <CHROM.1>
-161.06512550,75.93925661,-166.59603160,170.01722272,-67.54506041,138.73897878
20.75176145,9.02133920,6.61018888,1.67504151,0.55358764,-1.25422501

>  <Name>
2o3x_lig

>  <RI>
0

>  <Rbt.Current_Directory>
/home/itssahil/PROJECTS/Mol_Feturizer/New_Systems/rnas/2o3x

>  <Rbt.Executable>
rbdock ($Id: //depot/dev/client3/rdock/2013.1/src/exe/rbdock.cxx#4 $)

>  <Rbt.Library>
libRbt.so (2013.1, Build901 2013/11/27)

>  <Rbt.Parameter_File>
/export/apps/rDock/src/rDock_2013.1_src/data/scripts/dock_solv.prm

>  <Rbt.Receptor>
prm/pocket_docking_4.prm

>  <SCORE>
-18.7063

>  <SCORE.INTER>
-19.4469

>  <SCORE.INTER.CONST>
1

>  <SCORE.INTER.POLAR>
-1.85359

>  <SCORE.INTER.ROT>
6

>  <SCORE.INTER.SOLV>
20.6743

>  <SCORE.INTER.VDW>
-21.2774

>  <SCORE.INTER.norm>
-0.627321

>  <SCORE.INTRA>
0.708138

>  <SCORE.INTRA.DIHEDRAL>
0.607398

>  <SCORE.INTRA.DIHEDRAL.0>
9.37739

>  <SCORE.INTRA.POLAR>
0

>  <SCORE.INTRA.POLAR.0>
0

>  <SCORE.INTRA.REPUL>
0

>  <SCORE.INTRA.REPUL.0>
0

>  <SCORE.INTRA.SOLV>
-1.18153

>  <SCORE.INTRA.SOLV.lig_0>
-82.9274

>  <SCORE.INTRA.VDW>
0.995202

>  <SCORE.INTRA.VDW.0>
-3.84922

>  <SCORE.INTRA.norm>
0.0228432

>  <SCORE.RESTR>
0.0325474

>  <SCORE.RESTR.CAVITY>
0.0325474

>  <SCORE.RESTR.norm>
0.00104992

>  <SCORE.SYSTEM>
0

>  <SCORE.SYSTEM.CONST>
0

>  <SCORE.SYSTEM.DIHEDRAL>
0

>  <SCORE.SYSTEM.SOLV>
0

>  <SCORE.SYSTEM.norm>
0

>  <SCORE.heavy>
31

>  <SCORE.norm>
-0.603428

>  <RMSD>
1.663

$$$$
2o3x_lig
 OpenBabel11021811463D
libRbt.so/2013.1/901 2013/11/27
 31 33  0  0  0  0  0  0  0  0999 V2000
   20.9073    9.5659    6.0681 C   0  0  2  0  0  0  0  0  0  0  0  0
   21.4343    8.2623    5.7879 O   0  0  0  0  0  0  0  0  0  0  0  0
   24.9727    5.9798    6.5411 C   0  0  2  0  0  0  0  0  0  0  0  0
   26.3073    5.5420    7.0068 N   0  0  0  0  0  0  0  0  0  0  0  0
   21.8339    6.8843    9.7457 C   0  0  1  0  0  0  0  0  0  0  0  0
   19.3967    9.5819    5.6727 C   0  0  2  0  0  0  0  0  0  0  0  0
   18.6651    8.4067    6.2108 N   0  0  0  0  0  0  0  0  0  0  0  0
   25.0657    7.1451    5.5006 C   0  0  0  0  0  0  0  0  0  0  0  0
   22.6626    7.4350   10.9524 C   0  0  2  0  0  0  0  0  0  0  0  0
   23.9804    6.8501   11.1407 O   0  0  0  0  0  0  0  0  0  0  0  0
   19.2100    9.6001    4.1438 C   0  0  1  0  0  0  0  0  0  0  0  0
   17.8461    9.6657    3.8125 O   0  0  0  0  0  0  0  0  0  0  0  0
   23.6068    7.5163    5.0465 C   0  0  2  0  0  0  0  0  0  0  0  0
   23.6092    8.6141    4.0335 N   0  0  0  0  0  0  0  0  0  0  0  0
   21.6492    7.1701   12.0533 C   0  0  2  0  0  0  0  0  0  0  0  0
   21.6664    5.7585   12.4591 O   0  0  0  0  0  0  0  0  0  0  0  0
   19.9599   10.7807    3.5500 C   0  0  2  0  0  0  0  0  0  0  0  0
   19.7739   10.8126    2.1716 O   0  0  0  0  0  0  0  0  0  0  0  0
   22.7556    7.9723    6.2658 C   0  0  2  0  0  0  0  0  0  0  0  0
   20.3075    7.5429   11.4335 C   0  0  2  0  0  0  0  0  0  0  0  0
   20.4572    6.9922   10.1279 O   0  0  0  0  0  0  0  0  0  0  0  0
   21.4742   10.6697    3.8855 C   0  0  2  0  0  0  0  0  0  0  0  0
   21.6523   10.6221    5.3175 O   0  0  0  0  0  0  0  0  0  0  0  0
   22.6864    6.9187    7.3890 C   0  0  2  0  0  0  0  0  0  0  0  0
   22.0699    7.6120    8.5305 O   0  0  0  0  0  0  0  0  0  0  0  0
   20.0219    9.0809   11.3542 C   0  0  0  0  0  0  0  0  0  0  0  0
   19.0056    9.3408   10.3902 N   0  0  0  0  0  0  0  0  0  0  0  0
   22.2742   11.8283    3.3369 C   0  0  0  0  0  0  0  0  0  0  0  0
   22.2438   11.8578    1.9562 O   0  0  0  0  0  0  0  0  0  0  0  0
   24.1499    6.4172    7.7663 C   0  0  1  0  0  0  0  0  0  0  0  0
   24.1053    5.2849    8.6478 O   0  0  0  0  0  0  0  0  0  0  0  0
  1  2  1  6  0  0  0
  1  6  1  0  0  0  0
  1 23  1  0  0  0  0
  3  4  1  1  0  0  0
  3  8  1  0  0  0  0
  3 30  1  0  0  0  0
  5  9  1  0  0  0  0
  5 21  1  0  0  0  0
  5 25  1  6  0  0  0
  6  7  1  6  0  0  0
  6 11  1  0  0  0  0
  8 13  1  0  0  0  0
  9 10  1  1  0  0  0
  9 15  1  0  0  0  0
 11 12  1  1  0  0  0
 11 17  1  0  0  0  0
 13 14  1  6  0  0  0
 13 19  1  0  0  0  0
 15 16  1  6  0  0  0
 15 20  1  0  0  0  0
 17 18  1  6  0  0  0
 17 22  1  0  0  0  0
 19  2  1  6  0  0  0
 19 24  1  0  0  0  0
 20 21  1  0  0  0  0
 20 26  1  6  0  0  0
 22 23  1  0  0  0  0
 22 28  1  1  0  0  0
 24 25  1  1  0  0  0
 24 30  1  0  0  0  0
 26 27  1  0  0  0  0
 28 29  1  0  0  0  0
 30 31  1  1  0  0  0
M  END
>  <CHROM.1>
-170.80438574,116.08271844,-124.71058999,160.51479060,-63.81151872,178.61732901
21.78516408,8.32132365,7.03540573,1.78273173,0.46524197,-1.18915671

>  <Name>
2o3x_lig

>  <RI>
224

>  <Rbt.Current_Directory>
/home/itssahil/PROJECTS/Mol_Feturizer/New_Systems/rnas/2o3x

>  <Rbt.Executable>
rbdock ($Id: //depot/dev/client3/rdock/2013.1/src/exe/rbdock.cxx#4 $)

>  <Rbt.Library>
libRbt.so (2013.1, Build901 2013/11/27)

>  <Rbt.Parameter_File>
/export/apps/rDock/src/rDock_2013.1_src/data/scripts/dock_solv.prm

>  <Rbt.Receptor>
prm/blind_docking_100.prm

>  <SCORE>
-5.84033

>  <SCORE.INTER>
-14.5329

>  <SCORE.INTER.CONST>
1

>  <SCORE.INTER.POLAR>
-0.579199

>  <SCORE.INTER.ROT>
6

>  <SCORE.INTER.SOLV>
15.095

>  <SCORE.INTER.VDW>
-20.3896

>  <SCORE.INTER.norm>
-0.468802

>  <SCORE.INTRA>
4.26686

>  <SCORE.INTRA.DIHEDRAL>
6.62397

>  <SCORE.INTRA.DIHEDRAL.0>
9.37739

>  <SCORE.INTRA.POLAR>
0

>  <SCORE.INTRA.POLAR.0>
0

>  <SCORE.INTRA.REPUL>
0

>  <SCORE.INTRA.REPUL.0>
0

>  <SCORE.INTRA.SOLV>
1.34082

>  <SCORE.INTRA.SOLV.lig_0>
-82.9274

>  <SCORE.INTRA.VDW>
0.284468

>  <SCORE.INTRA.VDW.0>
-3.84922

>  <SCORE.INTRA.norm>
0.137641

>  <SCORE.RESTR>
4.42568

>  <SCORE.RESTR.CAVITY>
4.42568

>  <SCORE.RESTR.norm>
0.142764

>  <SCORE.SYSTEM>
0

>  <SCORE.SYSTEM.CONST>
0

>  <SCORE.SYSTEM.DIHEDRAL>
0

>  <SCORE.SYSTEM.SOLV>
0

>  <SCORE.SYSTEM.norm>
0

>  <SCORE.heavy>
31

>  <SCORE.norm>
-0.188398

>  <RMSD>
1.675

$$$$
2o3x_lig
 OpenBabel11021811463D
libRbt.so/2013.1/901 2013/11/27
 31 33  0  0  0  0  0  0  0  0999 V2000
   20.3542    9.5971    5.9565 C   0  0  2  0  0  0  0  0  0  0  0  0
   21.0296    8.3533    5.7277 O   0  0  0  0  0  0  0  0  0  0  0  0
   24.8750    6.5997    6.3874 C   0  0  2  0  0  0  0  0  0  0  0  0
   26.2627    6.3487    6.8356 N   0  0  0  0  0  0  0  0  0  0  0  0
   21.7066    6.9117    9.6449 C   0  0  1  0  0  0  0  0  0  0  0  0
   18.8786    9.4538    5.4663 C   0  0  2  0  0  0  0  0  0  0  0  0
   18.2388    8.2128    5.9727 N   0  0  0  0  0  0  0  0  0  0  0  0
   24.7861    7.8083    5.3971 C   0  0  0  0  0  0  0  0  0  0  0  0
   22.7051    7.4075   10.7418 C   0  0  2  0  0  0  0  0  0  0  0  0
   24.0317    6.8127   10.7121 O   0  0  0  0  0  0  0  0  0  0  0  0
   18.7896    9.4422    3.9285 C   0  0  1  0  0  0  0  0  0  0  0  0
   17.4503    9.3638    3.5108 O   0  0  0  0  0  0  0  0  0  0  0  0
   23.2856    7.9744    4.9576 C   0  0  2  0  0  0  0  0  0  0  0  0
   23.1174    9.1014    3.9918 N   0  0  0  0  0  0  0  0  0  0  0  0
   21.8593    7.0961   11.9651 C   0  0  2  0  0  0  0  0  0  0  0  0
   21.9236    5.6680   12.3027 O   0  0  0  0  0  0  0  0  0  0  0  0
   19.4506   10.6900    3.3675 C   0  0  2  0  0  0  0  0  0  0  0  0
   19.3511   10.6931    1.9798 O   0  0  0  0  0  0  0  0  0  0  0  0
   22.3820    8.2456    6.1942 C   0  0  2  0  0  0  0  0  0  0  0  0
   20.4452    7.4980   11.5626 C   0  0  2  0  0  0  0  0  0  0  0  0
   20.4004    7.0050   10.2264 O   0  0  0  0  0  0  0  0  0  0  0  0
   20.9434   10.7389    3.7994 C   0  0  2  0  0  0  0  0  0  0  0  0
   21.0332   10.7197    5.2404 O   0  0  0  0  0  0  0  0  0  0  0  0
   22.4781    7.1475    7.2719 C   0  0  2  0  0  0  0  0  0  0  0  0
   21.7704    7.6918    8.4410 O   0  0  0  0  0  0  0  0  0  0  0  0
   20.1634    9.0385   11.5921 C   0  0  0  0  0  0  0  0  0  0  0  0
   19.1389    9.3664   10.6579 N   0  0  0  0  0  0  0  0  0  0  0  0
   21.6535   11.9704    3.2870 C   0  0  0  0  0  0  0  0  0  0  0  0
   23.0134   11.9065    3.5204 O   0  0  0  0  0  0  0  0  0  0  0  0
   24.0024    6.8567    7.6291 C   0  0  1  0  0  0  0  0  0  0  0  0
   24.1333    5.6947    8.4621 O   0  0  0  0  0  0  0  0  0  0  0  0
  1  2  1  6  0  0  0
  1  6  1  0  0  0  0
  1 23  1  0  0  0  0
  3  4  1  1  0  0  0
  3  8  1  0  0  0  0
  3 30  1  0  0  0  0
  5  9  1  0  0  0  0
  5 21  1  0  0  0  0
  5 25  1  6  0  0  0
  6  7  1  1  0  0  0
  6 11  1  0  0  0  0
  8 13  1  0  0  0  0
  9 10  1  1  0  0  0
  9 15  1  0  0  0  0
 11 12  1  1  0  0  0
 11 17  1  0  0  0  0
 13 14  1  6  0  0  0
 13 19  1  0  0  0  0
 15 16  1  6  0  0  0
 15 20  1  0  0  0  0
 17 18  1  6  0  0  0
 17 22  1  0  0  0  0
 19  2  1  6  0  0  0
 19 24  1  0  0  0  0
 20 21  1  0  0  0  0
 20 26  1  6  0  0  0
 22 23  1  0  0  0  0
 22 28  1  1  0  0  0
 24 25  1  1  0  0  0
 24 30  1  0  0  0  0
 26 27  1  0  0  0  0
 28 29  1  0  0  0  0
 30 31  1  1  0  0  0
M  END
>  <CHROM.1>
-175.91511343,102.84231952,-119.20615482,152.61338984,-171.65146374,-178.52346510
21.59389121,8.43636316,6.99000012,1.83617423,0.33583593,-1.19891345

>  <Name>
2o3x_lig

>  <RI>
224

>  <Rbt.Current_Directory>
/home/itssahil/PROJECTS/Mol_Feturizer/New_Systems/rnas/2o3x

>  <Rbt.Executable>
rbdock ($Id: //depot/dev/client3/rdock/2013.1/src/exe/rbdock.cxx#4 $)

>  <Rbt.Library>
libRbt.so (2013.1, Build901 2013/11/27)

>  <Rbt.Parameter_File>
/export/apps/rDock/src/rDock_2013.1_src/data/scripts/dock_solv.prm

>  <Rbt.Receptor>
prm/blind_docking_100.prm

>  <SCORE>
-7.28939

>  <SCORE.INTER>
-17.4172

>  <SCORE.INTER.CONST>
1

>  <SCORE.INTER.POLAR>
-0.891004

>  <SCORE.INTER.ROT>
6

>  <SCORE.INTER.SOLV>
16.5179

>  <SCORE.INTER.VDW>
-21.7474

>  <SCORE.INTER.norm>
-0.561845

>  <SCORE.INTRA>
5.65284

>  <SCORE.INTRA.DIHEDRAL>
6.30875

>  <SCORE.INTRA.DIHEDRAL.0>
9.37739

>  <SCORE.INTRA.POLAR>
0

>  <SCORE.INTRA.POLAR.0>
0

>  <SCORE.INTRA.REPUL>
0

>  <SCORE.INTRA.REPUL.0>
0

>  <SCORE.INTRA.SOLV>
2.71922

>  <SCORE.INTRA.SOLV.lig_0>
-82.9274

>  <SCORE.INTRA.VDW>
1.13885

>  <SCORE.INTRA.VDW.0>
-3.84922

>  <SCORE.INTRA.norm>
0.18235

>  <SCORE.RESTR>
4.47497

>  <SCORE.RESTR.CAVITY>
4.47497

>  <SCORE.RESTR.norm>
0.144354

>  <SCORE.SYSTEM>
0

>  <SCORE.SYSTEM.CONST>
0

>  <SCORE.SYSTEM.DIHEDRAL>
0

>  <SCORE.SYSTEM.SOLV>
0

>  <SCORE.SYSTEM.norm>
0

>  <SCORE.heavy>
31

>  <SCORE.norm>
-0.235142

>  <RMSD>
1.681

$$$$
2o3x_lig
 OpenBabel11021811463D
libRbt.so/2013.1/901 2013/11/27
 31 33  0  0  0  0  0  0  0  0999 V2000
   20.1962    9.4267    5.5171 C   0  0  2  0  0  0  0  0  0  0  0  0
   21.0631    8.3500    5.1367 O   0  0  0  0  0  0  0  0  0  0  0  0
   24.5437    6.5159    6.8158 C   0  0  2  0  0  0  0  0  0  0  0  0
   25.8265    6.2791    7.5141 N   0  0  0  0  0  0  0  0  0  0  0  0
   19.9969    8.2261    8.2126 C   0  0  1  0  0  0  0  0  0  0  0  0
   18.7929    9.1783    4.8787 C   0  0  2  0  0  0  0  0  0  0  0  0
   18.3148    7.7900    5.1014 N   0  0  0  0  0  0  0  0  0  0  0  0
   24.7275    7.3810    5.5247 C   0  0  0  0  0  0  0  0  0  0  0  0
   19.7066    6.9072    9.0014 C   0  0  2  0  0  0  0  0  0  0  0  0
   19.5361    5.7077    8.1974 O   0  0  0  0  0  0  0  0  0  0  0  0
   18.8052    9.4402    3.3607 C   0  0  1  0  0  0  0  0  0  0  0  0
   17.5221    9.2600    2.8170 O   0  0  0  0  0  0  0  0  0  0  0  0
   23.3213    7.5503    4.8419 C   0  0  2  0  0  0  0  0  0  0  0  0
   23.4136    8.3525    3.5853 N   0  0  0  0  0  0  0  0  0  0  0  0
   18.4832    7.3767    9.7707 C   0  0  2  0  0  0  0  0  0  0  0  0
   17.2822    7.3430    8.9256 O   0  0  0  0  0  0  0  0  0  0  0  0
   19.3068   10.8482    3.0876 C   0  0  2  0  0  0  0  0  0  0  0  0
   19.2970   11.0951    1.7185 O   0  0  0  0  0  0  0  0  0  0  0  0
   22.3282    8.2583    5.8071 C   0  0  2  0  0  0  0  0  0  0  0  0
   18.8186    8.8047   10.1846 C   0  0  2  0  0  0  0  0  0  0  0  0
   19.4347    9.2874    8.9939 O   0  0  0  0  0  0  0  0  0  0  0  0
   20.7449   11.0178    3.6540 C   0  0  2  0  0  0  0  0  0  0  0  0
   20.7441   10.7441    5.0717 O   0  0  0  0  0  0  0  0  0  0  0  0
   22.1561    7.5233    7.1512 C   0  0  2  0  0  0  0  0  0  0  0  0
   21.3996    8.4525    8.0046 O   0  0  0  0  0  0  0  0  0  0  0  0
   19.7979    8.9264   11.4010 C   0  0  0  0  0  0  0  0  0  0  0  0
   21.1183    8.5676   11.0039 N   0  0  0  0  0  0  0  0  0  0  0  0
   21.2942   12.4076    3.4301 C   0  0  0  0  0  0  0  0  0  0  0  0
   21.5556   12.6411    2.0940 O   0  0  0  0  0  0  0  0  0  0  0  0
   23.5785    7.2089    7.7944 C   0  0  1  0  0  0  0  0  0  0  0  0
   23.4598    6.3377    8.9293 O   0  0  0  0  0  0  0  0  0  0  0  0
  1  2  1  6  0  0  0
  1  6  1  0  0  0  0
  1 23  1  0  0  0  0
  3  4  1  1  0  0  0
  3  8  1  0  0  0  0
  3 30  1  0  0  0  0
  5  9  1  0  0  0  0
  5 21  1  0  0  0  0
  5 25  1  1  0  0  0
  6  7  1  6  0  0  0
  6 11  1  0  0  0  0
  8 13  1  0  0  0  0
  9 10  1  6  0  0  0
  9 15  1  0  0  0  0
 11 12  1  1  0  0  0
 11 17  1  0  0  0  0
 13 14  1  6  0  0  0
 13 19  1  0  0  0  0
 15 16  1  6  0  0  0
 15 20  1  0  0  0  0
 17 18  1  6  0  0  0
 17 22  1  0  0  0  0
 19  2  1  6  0  0  0
 19 24  1  0  0  0  0
 20 21  1  0  0  0  0
 20 26  1  1  0  0  0
 22 23  1  0  0  0  0
 22 28  1  1  0  0  0
 24 25  1  1  0  0  0
 24 30  1  0  0  0  0
 26 27  1  0  0  0  0
 28 29  1  0  0  0  0
 30 31  1  1  0  0  0
M  END
>  <CHROM.1>
-169.22217387,65.56304582,-152.85816298,72.76258142,-69.60119096,102.53650570
20.82692269,8.63871197,6.35260769,1.69282280,0.27787627,-1.12135984

>  <Name>
2o3x_lig

>  <RI>
3.41138e+07

>  <Rbt.Current_Directory>
/home/itssahil/PROJECTS/Mol_Feturizer/New_Systems/rnas/2o3x

>  <Rbt.Executable>
rbdock ($Id: //depot/dev/client3/rdock/2013.1/src/exe/rbdock.cxx#4 $)

>  <Rbt.Library>
libRbt.so (2013.1, Build901 2013/11/27)

>  <Rbt.Parameter_File>
/export/apps/rDock/src/rDock_2013.1_src/data/scripts/dock_solv.prm

>  <Rbt.Receptor>
prm/pocket_docking_2.prm

>  <SCORE>
-15.1936

>  <SCORE.INTER>
-17.6729

>  <SCORE.INTER.CONST>
1

>  <SCORE.INTER.POLAR>
-1.64276

>  <SCORE.INTER.ROT>
6

>  <SCORE.INTER.SOLV>
18.2177

>  <SCORE.INTER.VDW>
-19.9786

>  <SCORE.INTER.norm>
-0.570093

>  <SCORE.INTRA>
2.47744

>  <SCORE.INTRA.DIHEDRAL>
1.17067

>  <SCORE.INTRA.DIHEDRAL.0>
9.37739

>  <SCORE.INTRA.POLAR>
0

>  <SCORE.INTRA.POLAR.0>
0

>  <SCORE.INTRA.REPUL>
0

>  <SCORE.INTRA.REPUL.0>
0

>  <SCORE.INTRA.SOLV>
3.37241

>  <SCORE.INTRA.SOLV.lig_0>
-82.9274

>  <SCORE.INTRA.VDW>
0.205899

>  <SCORE.INTRA.VDW.0>
-3.84922

>  <SCORE.INTRA.norm>
0.0799173

>  <SCORE.RESTR>
0.00185498

>  <SCORE.RESTR.CAVITY>
0.00185498

>  <SCORE.RESTR.norm>
5.98381e-05

>  <SCORE.SYSTEM>
0

>  <SCORE.SYSTEM.CONST>
0

>  <SCORE.SYSTEM.DIHEDRAL>
0

>  <SCORE.SYSTEM.SOLV>
0

>  <SCORE.SYSTEM.norm>
0

>  <SCORE.heavy>
31

>  <SCORE.norm>
-0.490116

>  <RMSD>
1.760

$$$$
2o3x_lig
 OpenBabel11021811463D
libRbt.so/2013.1/901 2013/11/27
 31 33  0  0  0  0  0  0  0  0999 V2000
   19.8717    9.3082    5.5799 C   0  0  2  0  0  0  0  0  0  0  0  0
   20.6804    8.1742    5.2402 O   0  0  0  0  0  0  0  0  0  0  0  0
   24.2973    6.2861    6.5254 C   0  0  2  0  0  0  0  0  0  0  0  0
   25.5197    5.9225    7.2757 N   0  0  0  0  0  0  0  0  0  0  0  0
   21.0235    7.5844    8.9999 C   0  0  1  0  0  0  0  0  0  0  0  0
   18.4664    9.1251    4.9243 C   0  0  2  0  0  0  0  0  0  0  0  0
   17.9052    7.7726    5.1725 N   0  0  0  0  0  0  0  0  0  0  0  0
   24.4085    7.7033    5.8706 C   0  0  0  0  0  0  0  0  0  0  0  0
   19.7711    8.1614    9.7378 C   0  0  2  0  0  0  0  0  0  0  0  0
   19.3489    9.4923    9.3319 O   0  0  0  0  0  0  0  0  0  0  0  0
   18.5170    9.3476    3.4009 C   0  0  1  0  0  0  0  0  0  0  0  0
   17.2341    9.2280    2.8403 O   0  0  0  0  0  0  0  0  0  0  0  0
   23.0810    7.9832    5.0758 C   0  0  2  0  0  0  0  0  0  0  0  0
   23.1147    9.3157    4.4017 N   0  0  0  0  0  0  0  0  0  0  0  0
   20.2755    8.0254   11.1647 C   0  0  2  0  0  0  0  0  0  0  0  0
   21.1976    9.1167   11.5058 O   0  0  0  0  0  0  0  0  0  0  0  0
   19.1034   10.7171    3.1023 C   0  0  2  0  0  0  0  0  0  0  0  0
   19.1289   10.9297    1.7275 O   0  0  0  0  0  0  0  0  0  0  0  0
   21.8548    7.9451    6.0319 C   0  0  2  0  0  0  0  0  0  0  0  0
   20.9907    6.6797   11.1891 C   0  0  2  0  0  0  0  0  0  0  0  0
   21.6748    6.7211    9.9399 O   0  0  0  0  0  0  0  0  0  0  0  0
   20.5401   10.8178    3.6883 C   0  0  2  0  0  0  0  0  0  0  0  0
   20.5018   10.5802    5.1120 O   0  0  0  0  0  0  0  0  0  0  0  0
   21.7190    6.6134    6.7963 C   0  0  2  0  0  0  0  0  0  0  0  0
   20.6817    6.8552    7.8109 O   0  0  0  0  0  0  0  0  0  0  0  0
   20.0466    5.4318   11.2600 C   0  0  0  0  0  0  0  0  0  0  0  0
   19.2777    5.4675   12.4589 N   0  0  0  0  0  0  0  0  0  0  0  0
   21.1724   12.1676    3.4401 C   0  0  0  0  0  0  0  0  0  0  0  0
   22.5470   12.1150    3.5646 O   0  0  0  0  0  0  0  0  0  0  0  0
   23.1002    6.2328    7.4916 C   0  0  1  0  0  0  0  0  0  0  0  0
   23.0698    4.8996    8.0234 O   0  0  0  0  0  0  0  0  0  0  0  0
  1  2  1  6  0  0  0
  1  6  1  0  0  0  0
  1 23  1  0  0  0  0
  3  4  1  1  0  0  0
  3  8  1  0  0  0  0
  3 30  1  0  0  0  0
  5  9  1  0  0  0  0
  5 21  1  0  0  0  0
  5 25  1  6  0  0  0
  6  7  1  6  0  0  0
  6 11  1  0  0  0  0
  8 13  1  0  0  0  0
  9 10  1  6  0  0  0
  9 15  1  0  0  0  0
 11 12  1  1  0  0  0
 11 17  1  0  0  0  0
 13 14  1  1  0  0  0
 13 19  1  0  0  0  0
 15 16  1  6  0  0  0
 15 20  1  0  0  0  0
 17 18  1  6  0  0  0
 17 22  1  0  0  0  0
 19  2  1  6  0  0  0
 19 24  1  0  0  0  0
 20 21  1  0  0  0  0
 20 26  1  6  0  0  0
 22 23  1  0  0  0  0
 22 28  1  1  0  0  0
 24 25  1  1  0  0  0
 24 30  1  0  0  0  0
 26 27  1  0  0  0  0
 28 29  1  0  0  0  0
 30 31  1  6  0  0  0
M  END
>  <CHROM.1>
-162.61799374,161.16477672,-120.70407378,-61.49291088,-160.59059168,-77.90526580
20.95749045,8.30780185,6.72291786,1.74429927,0.33764236,-1.12254990

>  <Name>
2o3x_lig

>  <RI>
3.41138e+07

>  <Rbt.Current_Directory>
/home/itssahil/PROJECTS/Mol_Feturizer/New_Systems/rnas/2o3x

>  <Rbt.Executable>
rbdock ($Id: //depot/dev/client3/rdock/2013.1/src/exe/rbdock.cxx#4 $)

>  <Rbt.Library>
libRbt.so (2013.1, Build901 2013/11/27)

>  <Rbt.Parameter_File>
/export/apps/rDock/src/rDock_2013.1_src/data/scripts/dock_solv.prm

>  <Rbt.Receptor>
prm/pocket_docking_2.prm

>  <SCORE>
-14.0042

>  <SCORE.INTER>
-17.0394

>  <SCORE.INTER.CONST>
1

>  <SCORE.INTER.POLAR>
-1.49134

>  <SCORE.INTER.ROT>
6

>  <SCORE.INTER.SOLV>
16.492

>  <SCORE.INTER.VDW>
-19.4858

>  <SCORE.INTER.norm>
-0.549658

>  <SCORE.INTRA>
2.86557

>  <SCORE.INTRA.DIHEDRAL>
3.64628

>  <SCORE.INTRA.DIHEDRAL.0>
9.37739

>  <SCORE.INTRA.POLAR>
0

>  <SCORE.INTRA.POLAR.0>
0

>  <SCORE.INTRA.REPUL>
0

>  <SCORE.INTRA.REPUL.0>
0

>  <SCORE.INTRA.SOLV>
1.19857

>  <SCORE.INTRA.SOLV.lig_0>
-82.9274

>  <SCORE.INTRA.VDW>
0.443145

>  <SCORE.INTRA.VDW.0>
-3.84922

>  <SCORE.INTRA.norm>
0.0924377

>  <SCORE.RESTR>
0.169579

>  <SCORE.RESTR.CAVITY>
0.169579

>  <SCORE.RESTR.norm>
0.00547029

>  <SCORE.SYSTEM>
0

>  <SCORE.SYSTEM.CONST>
0

>  <SCORE.SYSTEM.DIHEDRAL>
0

>  <SCORE.SYSTEM.SOLV>
0

>  <SCORE.SYSTEM.norm>
0

>  <SCORE.heavy>
31

>  <SCORE.norm>
-0.45175

>  <RMSD>
1.779

$$$$
2o3x_lig
 OpenBabel11021811463D
libRbt.so/2013.1/901 2013/11/27
 31 33  0  0  0  0  0  0  0  0999 V2000
   20.3312    9.6347    5.4225 C   0  0  2  0  0  0  0  0  0  0  0  0
   21.1543    8.5156    5.0681 O   0  0  0  0  0  0  0  0  0  0  0  0
   24.6011    6.5983    6.7236 C   0  0  2  0  0  0  0  0  0  0  0  0
   25.8797    6.3297    7.4184 N   0  0  0  0  0  0  0  0  0  0  0  0
   20.0729    8.4240    8.0780 C   0  0  1  0  0  0  0  0  0  0  0  0
   18.8917    9.3809    4.8731 C   0  0  2  0  0  0  0  0  0  0  0  0
   18.3968    8.0212    5.2080 N   0  0  0  0  0  0  0  0  0  0  0  0
   24.8005    7.4750    5.4426 C   0  0  0  0  0  0  0  0  0  0  0  0
   19.6755    7.0815    8.7751 C   0  0  2  0  0  0  0  0  0  0  0  0
   19.4698    5.9426    7.8948 O   0  0  0  0  0  0  0  0  0  0  0  0
   18.8302    9.5467    3.3429 C   0  0  1  0  0  0  0  0  0  0  0  0
   17.5171    9.3640    2.8776 O   0  0  0  0  0  0  0  0  0  0  0  0
   23.3973    7.6781    4.7626 C   0  0  2  0  0  0  0  0  0  0  0  0
   23.5039    8.4932    3.5155 N   0  0  0  0  0  0  0  0  0  0  0  0
   18.4504    7.5780    9.5245 C   0  0  2  0  0  0  0  0  0  0  0  0
   17.2852    7.6644    8.6343 O   0  0  0  0  0  0  0  0  0  0  0  0
   19.3463   10.9223    2.9555 C   0  0  2  0  0  0  0  0  0  0  0  0
   19.2703   11.0831    1.5756 O   0  0  0  0  0  0  0  0  0  0  0  0
   22.4177    8.3928    5.7367 C   0  0  2  0  0  0  0  0  0  0  0  0
   18.8497    8.9573   10.0354 C   0  0  2  0  0  0  0  0  0  0  0  0
   19.5407    9.4702    8.8997 O   0  0  0  0  0  0  0  0  0  0  0  0
   20.8152   11.0922    3.4362 C   0  0  2  0  0  0  0  0  0  0  0  0
   20.8826   10.9079    4.8667 O   0  0  0  0  0  0  0  0  0  0  0  0
   22.2326    7.6454    7.0721 C   0  0  2  0  0  0  0  0  0  0  0  0
   21.4936    8.5782    7.9367 O   0  0  0  0  0  0  0  0  0  0  0  0
   19.7837    8.9504   11.2928 C   0  0  0  0  0  0  0  0  0  0  0  0
   21.1093    8.5892   10.9157 N   0  0  0  0  0  0  0  0  0  0  0  0
   21.3811   12.4515    3.0965 C   0  0  0  0  0  0  0  0  0  0  0  0
   22.7489   12.4934    3.2840 O   0  0  0  0  0  0  0  0  0  0  0  0
   23.6492    7.2974    7.7108 C   0  0  1  0  0  0  0  0  0  0  0  0
   23.5149    6.4152    8.8355 O   0  0  0  0  0  0  0  0  0  0  0  0
  1  2  1  6  0  0  0
  1  6  1  0  0  0  0
  1 23  1  0  0  0  0
  3  4  1  1  0  0  0
  3  8  1  0  0  0  0
  3 30  1  0  0  0  0
  5  9  1  0  0  0  0
  5 21  1  0  0  0  0
  5 25  1  1  0  0  0
  6  7  1  6  0  0  0
  6 11  1  0  0  0  0
  8 13  1  0  0  0  0
  9 10  1  6  0  0  0
  9 15  1  0  0  0  0
 11 12  1  1  0  0  0
 11 17  1  0  0  0  0
 13 14  1  6  0  0  0
 13 19  1  0  0  0  0
 15 16  1  6  0  0  0
 15 20  1  0  0  0  0
 17 18  1  6  0  0  0
 17 22  1  0  0  0  0
 19  2  1  6  0  0  0
 19 24  1  0  0  0  0
 20 21  1  0  0  0  0
 20 26  1  1  0  0  0
 22 23  1  0  0  0  0
 22 28  1  1  0  0  0
 24 25  1  1  0  0  0
 24 30  1  0  0  0  0
 26 27  1  0  0  0  0
 28 29  1  0  0  0  0
 30 31  1  1  0  0  0
M  END
>  <CHROM.1>
-165.64637554,64.77105180,-150.36983042,75.09633529,-167.90751874,98.77035287
20.91908986,8.75972514,6.28251837,1.67598708,0.25328421,-1.11947252

>  <Name>
2o3x_lig

>  <RI>
3.41138e+07

>  <Rbt.Current_Directory>
/home/itssahil/PROJECTS/Mol_Feturizer/New_Systems/rnas/2o3x

>  <Rbt.Executable>
rbdock ($Id: //depot/dev/client3/rdock/2013.1/src/exe/rbdock.cxx#4 $)

>  <Rbt.Library>
libRbt.so (2013.1, Build901 2013/11/27)

>  <Rbt.Parameter_File>
/export/apps/rDock/src/rDock_2013.1_src/data/scripts/dock_solv.prm

>  <Rbt.Receptor>
prm/pocket_docking_2.prm

>  <SCORE>
-15.3316

>  <SCORE.INTER>
-18.4672

>  <SCORE.INTER.CONST>
1

>  <SCORE.INTER.POLAR>
-1.64276

>  <SCORE.INTER.ROT>
6

>  <SCORE.INTER.SOLV>
19.3209

>  <SCORE.INTER.VDW>
-20.8759

>  <SCORE.INTER.norm>
-0.595717

>  <SCORE.INTRA>
3.13539

>  <SCORE.INTRA.DIHEDRAL>
1.79931

>  <SCORE.INTRA.DIHEDRAL.0>
9.37739

>  <SCORE.INTRA.POLAR>
0

>  <SCORE.INTRA.POLAR.0>
0

>  <SCORE.INTRA.REPUL>
0

>  <SCORE.INTRA.REPUL.0>
0

>  <SCORE.INTRA.SOLV>
4.44592

>  <SCORE.INTRA.SOLV.lig_0>
-82.9274

>  <SCORE.INTRA.VDW>
0.0127743

>  <SCORE.INTRA.VDW.0>
-3.84922

>  <SCORE.INTRA.norm>
0.101142

>  <SCORE.RESTR>
0.000276338

>  <SCORE.RESTR.CAVITY>
0.000276338

>  <SCORE.RESTR.norm>
8.91413e-06

>  <SCORE.SYSTEM>
0

>  <SCORE.SYSTEM.CONST>
0

>  <SCORE.SYSTEM.DIHEDRAL>
0

>  <SCORE.SYSTEM.SOLV>
0

>  <SCORE.SYSTEM.norm>
0

>  <SCORE.heavy>
31

>  <SCORE.norm>
-0.494567

>  <RMSD>
1.791

$$$$
2o3x_lig
 OpenBabel11021811463D
libRbt.so/2013.1/901 2013/11/27
 31 33  0  0  0  0  0  0  0  0999 V2000
   20.4716    9.7309    5.4192 C   0  0  2  0  0  0  0  0  0  0  0  0
   21.2530    8.5894    5.0427 O   0  0  0  0  0  0  0  0  0  0  0  0
   24.7261    6.6095    6.5645 C   0  0  2  0  0  0  0  0  0  0  0  0
   26.0268    6.3181    7.2068 N   0  0  0  0  0  0  0  0  0  0  0  0
   20.2899    8.5677    8.0566 C   0  0  1  0  0  0  0  0  0  0  0  0
   19.0159    9.5268    4.8921 C   0  0  2  0  0  0  0  0  0  0  0  0
   18.4840    8.1807    5.2248 N   0  0  0  0  0  0  0  0  0  0  0  0
   24.8895    7.4750    5.2708 C   0  0  0  0  0  0  0  0  0  0  0  0
   19.8361    7.1945    8.6521 C   0  0  2  0  0  0  0  0  0  0  0  0
   19.5531    6.1437    7.6877 O   0  0  0  0  0  0  0  0  0  0  0  0
   18.9346    9.7069    3.3644 C   0  0  1  0  0  0  0  0  0  0  0  0
   17.6089    9.5693    2.9196 O   0  0  0  0  0  0  0  0  0  0  0  0
   23.4636    7.7036    4.6489 C   0  0  2  0  0  0  0  0  0  0  0  0
   23.5345    8.5097    3.3933 N   0  0  0  0  0  0  0  0  0  0  0  0
   18.6540    7.6896    9.4685 C   0  0  2  0  0  0  0  0  0  0  0  0
   17.4775    7.9082    8.6166 O   0  0  0  0  0  0  0  0  0  0  0  0
   19.4874   11.0688    2.9788 C   0  0  2  0  0  0  0  0  0  0  0  0
   19.3938   11.2430    1.6016 O   0  0  0  0  0  0  0  0  0  0  0  0
   22.5406    8.4438    5.6586 C   0  0  2  0  0  0  0  0  0  0  0  0
   19.1356    9.0001   10.0797 C   0  0  2  0  0  0  0  0  0  0  0  0
   19.8301    9.5686    8.9730 O   0  0  0  0  0  0  0  0  0  0  0  0
   20.9686   11.1885    3.4363 C   0  0  2  0  0  0  0  0  0  0  0  0
   21.0537   10.9906    4.8640 O   0  0  0  0  0  0  0  0  0  0  0  0
   22.3963    7.7076    7.0053 C   0  0  2  0  0  0  0  0  0  0  0  0
   21.7136    8.6603    7.8942 O   0  0  0  0  0  0  0  0  0  0  0  0
   20.0927    8.8423   11.3096 C   0  0  0  0  0  0  0  0  0  0  0  0
   19.3835    8.2870   12.4134 N   0  0  0  0  0  0  0  0  0  0  0  0
   21.5714   12.5321    3.0975 C   0  0  0  0  0  0  0  0  0  0  0  0
   22.9383   12.5399    3.2959 O   0  0  0  0  0  0  0  0  0  0  0  0
   23.8310    7.3336    7.5862 C   0  0  1  0  0  0  0  0  0  0  0  0
   23.7259    6.4605    8.7210 O   0  0  0  0  0  0  0  0  0  0  0  0
  1  2  1  6  0  0  0
  1  6  1  0  0  0  0
  1 23  1  0  0  0  0
  3  4  1  1  0  0  0
  3  8  1  0  0  0  0
  3 30  1  0  0  0  0
  5  9  1  0  0  0  0
  5 21  1  0  0  0  0
  5 25  1  1  0  0  0
  6  7  1  6  0  0  0
  6 11  1  0  0  0  0
  8 13  1  0  0  0  0
  9 10  1  6  0  0  0
  9 15  1  0  0  0  0
 11 12  1  1  0  0  0
 11 17  1  0  0  0  0
 13 14  1  6  0  0  0
 13 19  1  0  0  0  0
 15 16  1  6  0  0  0
 15 20  1  0  0  0  0
 17 18  1  6  0  0  0
 17 22  1  0  0  0  0
 19  2  1  6  0  0  0
 19 24  1  0  0  0  0
 20 21  1  0  0  0  0
 20 26  1  1  0  0  0
 22 23  1  0  0  0  0
 22 28  1  1  0  0  0
 24 25  1  1  0  0  0
 24 30  1  0  0  0  0
 26 27  1  0  0  0  0
 28 29  1  0  0  0  0
 30 31  1  1  0  0  0
M  END
>  <CHROM.1>
-167.52597084,60.83706273,-150.06712699,-67.46558363,-169.48048134,96.46248692
21.01681431,8.83622021,6.28698568,1.56996852,0.30566664,-1.12821188

>  <Name>
2o3x_lig

>  <RI>
0

>  <Rbt.Current_Directory>
/home/itssahil/PROJECTS/Mol_Feturizer/New_Systems/rnas/2o3x

>  <Rbt.Executable>
rbdock ($Id: //depot/dev/client3/rdock/2013.1/src/exe/rbdock.cxx#4 $)

>  <Rbt.Library>
libRbt.so (2013.1, Build901 2013/11/27)

>  <Rbt.Parameter_File>
/export/apps/rDock/src/rDock_2013.1_src/data/scripts/dock_solv.prm

>  <Rbt.Receptor>
prm/pocket_docking_3.prm

>  <SCORE>
-15.2111

>  <SCORE.INTER>
-16.1863

>  <SCORE.INTER.CONST>
1

>  <SCORE.INTER.POLAR>
-0.894427

>  <SCORE.INTER.ROT>
6

>  <SCORE.INTER.SOLV>
17.5766

>  <SCORE.INTER.VDW>
-21.2683

>  <SCORE.INTER.norm>
-0.52214

>  <SCORE.INTRA>
0.975297

>  <SCORE.INTRA.DIHEDRAL>
0.484785

>  <SCORE.INTRA.DIHEDRAL.0>
9.37739

>  <SCORE.INTRA.POLAR>
0

>  <SCORE.INTRA.POLAR.0>
0

>  <SCORE.INTRA.REPUL>
0

>  <SCORE.INTRA.REPUL.0>
0

>  <SCORE.INTRA.SOLV>
0.924218

>  <SCORE.INTRA.SOLV.lig_0>
-82.9274

>  <SCORE.INTRA.VDW>
0.270795

>  <SCORE.INTRA.VDW.0>
-3.84922

>  <SCORE.INTRA.norm>
0.0314612

>  <SCORE.RESTR>
0

>  <SCORE.RESTR.CAVITY>
0

>  <SCORE.RESTR.norm>
0

>  <SCORE.SYSTEM>
0

>  <SCORE.SYSTEM.CONST>
0

>  <SCORE.SYSTEM.DIHEDRAL>
0

>  <SCORE.SYSTEM.SOLV>
0

>  <SCORE.SYSTEM.norm>
0

>  <SCORE.heavy>
31

>  <SCORE.norm>
-0.490679

>  <RMSD>
1.791

$$$$
2o3x_lig
 OpenBabel11021811463D
libRbt.so/2013.1/901 2013/11/27
 31 33  0  0  0  0  0  0  0  0999 V2000
   20.1768    9.7326    5.3913 C   0  0  2  0  0  0  0  0  0  0  0  0
   20.9798    8.5749    5.1261 O   0  0  0  0  0  0  0  0  0  0  0  0
   23.8324    6.6197    7.6436 C   0  0  2  0  0  0  0  0  0  0  0  0
   24.9993    6.3249    8.5044 N   0  0  0  0  0  0  0  0  0  0  0  0
   20.2658    9.6248    8.8179 C   0  0  1  0  0  0  0  0  0  0  0  0
   18.7538    9.4921    4.7950 C   0  0  2  0  0  0  0  0  0  0  0  0
   18.2054    8.1649    5.1739 N   0  0  0  0  0  0  0  0  0  0  0  0
   24.2524    6.9244    6.1671 C   0  0  0  0  0  0  0  0  0  0  0  0
   18.8785    9.1412    8.2817 C   0  0  2  0  0  0  0  0  0  0  0  0
   18.0375   10.1620    7.6775 O   0  0  0  0  0  0  0  0  0  0  0  0
   18.7594    9.5838    3.2573 C   0  0  1  0  0  0  0  0  0  0  0  0
   17.4613    9.4149    2.7466 O   0  0  0  0  0  0  0  0  0  0  0  0
   22.9485    7.1934    5.3306 C   0  0  2  0  0  0  0  0  0  0  0  0
   23.2632    7.4752    3.8978 N   0  0  0  0  0  0  0  0  0  0  0  0
   18.3546    8.5147    9.5631 C   0  0  2  0  0  0  0  0  0  0  0  0
   17.8398    9.5398   10.4807 O   0  0  0  0  0  0  0  0  0  0  0  0
   19.3316   10.9237    2.8260 C   0  0  2  0  0  0  0  0  0  0  0  0
   19.3164   11.0181    1.4380 O   0  0  0  0  0  0  0  0  0  0  0  0
   22.1683    8.4068    5.9120 C   0  0  2  0  0  0  0  0  0  0  0  0
   19.5631    7.8047   10.1616 C   0  0  2  0  0  0  0  0  0  0  0  0
   20.5822    8.7721    9.9251 O   0  0  0  0  0  0  0  0  0  0  0  0
   20.7842   11.0761    3.3591 C   0  0  2  0  0  0  0  0  0  0  0  0
   20.7881   10.9609    4.7984 O   0  0  0  0  0  0  0  0  0  0  0  0
   21.7935    8.2353    7.3974 C   0  0  2  0  0  0  0  0  0  0  0  0
   21.3013    9.5538    7.8255 O   0  0  0  0  0  0  0  0  0  0  0  0
   19.9294    6.4407    9.4843 C   0  0  0  0  0  0  0  0  0  0  0  0
   18.8753    5.5012    9.6747 N   0  0  0  0  0  0  0  0  0  0  0  0
   21.4037   12.4007    2.9783 C   0  0  0  0  0  0  0  0  0  0  0  0
   22.7584   12.4237    3.2470 O   0  0  0  0  0  0  0  0  0  0  0  0
   23.0750    7.8172    8.2452 C   0  0  1  0  0  0  0  0  0  0  0  0
   22.7179    7.4381    9.5831 O   0  0  0  0  0  0  0  0  0  0  0  0
  1  2  1  6  0  0  0
  1  6  1  0  0  0  0
  1 23  1  0  0  0  0
  3  4  1  1  0  0  0
  3  8  1  0  0  0  0
  3 30  1  0  0  0  0
  5  9  1  0  0  0  0
  5 21  1  0  0  0  0
  5 25  1  6  0  0  0
  6  7  1  6  0  0  0
  6 11  1  0  0  0  0
  8 13  1  0  0  0  0
  9 10  1  1  0  0  0
  9 15  1  0  0  0  0
 11 12  1  1  0  0  0
 11 17  1  0  0  0  0
 13 14  1  6  0  0  0
 13 19  1  0  0  0  0
 15 16  1  1  0  0  0
 15 20  1  0  0  0  0
 17 18  1  6  0  0  0
 17 22  1  0  0  0  0
 19  2  1  6  0  0  0
 19 24  1  0  0  0  0
 20 21  1  0  0  0  0
 20 26  1  6  0  0  0
 22 23  1  0  0  0  0
 22 28  1  1  0  0  0
 24 25  1  1  0  0  0
 24 30  1  0  0  0  0
 26 27  1  0  0  0  0
 28 29  1  0  0  0  0
 30 31  1  1  0  0  0
M  END
>  <CHROM.1>
-161.82128602,-70.51844600,-173.26930008,-64.12688978,-169.18022411,147.14867245
20.66940580,8.92054278,6.43334444,1.70113116,0.31755901,-1.13954956

>  <Name>
2o3x_lig

>  <RI>
0

>  <Rbt.Current_Directory>
/home/itssahil/PROJECTS/Mol_Feturizer/New_Systems/rnas/2o3x

>  <Rbt.Executable>
rbdock ($Id: //depot/dev/client3/rdock/2013.1/src/exe/rbdock.cxx#4 $)

>  <Rbt.Library>
libRbt.so (2013.1, Build901 2013/11/27)

>  <Rbt.Parameter_File>
/export/apps/rDock/src/rDock_2013.1_src/data/scripts/dock_solv.prm

>  <Rbt.Receptor>
prm/pocket_docking_3.prm

>  <SCORE>
-19.0572

>  <SCORE.INTER>
-18.5378

>  <SCORE.INTER.CONST>
1

>  <SCORE.INTER.POLAR>
-1.64276

>  <SCORE.INTER.ROT>
6

>  <SCORE.INTER.SOLV>
17.2389

>  <SCORE.INTER.VDW>
-20.229

>  <SCORE.INTER.norm>
-0.597993

>  <SCORE.INTRA>
-0.520535

>  <SCORE.INTRA.DIHEDRAL>
-2.31781

>  <SCORE.INTRA.DIHEDRAL.0>
9.37739

>  <SCORE.INTRA.POLAR>
0

>  <SCORE.INTRA.POLAR.0>
0

>  <SCORE.INTRA.REPUL>
0

>  <SCORE.INTRA.REPUL.0>
0

>  <SCORE.INTRA.SOLV>
0.144895

>  <SCORE.INTRA.SOLV.lig_0>
-82.9274

>  <SCORE.INTRA.VDW>
0.565923

>  <SCORE.INTRA.VDW.0>
-3.84922

>  <SCORE.INTRA.norm>
-0.0167914

>  <SCORE.RESTR>
0.00113477

>  <SCORE.RESTR.CAVITY>
0.00113477

>  <SCORE.RESTR.norm>
3.66055e-05

>  <SCORE.SYSTEM>
0

>  <SCORE.SYSTEM.CONST>
0

>  <SCORE.SYSTEM.DIHEDRAL>
0

>  <SCORE.SYSTEM.SOLV>
0

>  <SCORE.SYSTEM.norm>
0

>  <SCORE.heavy>
31

>  <SCORE.norm>
-0.614748

>  <RMSD>
1.804

$$$$
2o3x_lig
 OpenBabel11021811463D
libRbt.so/2013.1/901 2013/11/27
 31 33  0  0  0  0  0  0  0  0999 V2000
   20.4844    9.4904    5.5678 C   0  0  2  0  0  0  0  0  0  0  0  0
   21.2946    8.3748    5.1749 O   0  0  0  0  0  0  0  0  0  0  0  0
   25.0203    6.6416    6.3639 C   0  0  2  0  0  0  0  0  0  0  0  0
   26.3812    6.4364    6.9072 N   0  0  0  0  0  0  0  0  0  0  0  0
   20.5303    8.1352    8.2077 C   0  0  1  0  0  0  0  0  0  0  0  0
   19.0424    9.2727    5.0095 C   0  0  2  0  0  0  0  0  0  0  0  0
   18.5314    7.9081    5.2967 N   0  0  0  0  0  0  0  0  0  0  0  0
   25.0215    7.5844    5.1146 C   0  0  0  0  0  0  0  0  0  0  0  0
   20.2021    6.7069    8.7541 C   0  0  2  0  0  0  0  0  0  0  0  0
   19.9523    5.6829    7.7523 O   0  0  0  0  0  0  0  0  0  0  0  0
   18.9840    9.4925    3.4860 C   0  0  1  0  0  0  0  0  0  0  0  0
   17.6692    9.3415    3.0142 O   0  0  0  0  0  0  0  0  0  0  0  0
   23.5430    7.7147    4.5957 C   0  0  2  0  0  0  0  0  0  0  0  0
   23.4600    8.5880    3.3867 N   0  0  0  0  0  0  0  0  0  0  0  0
   19.0250    7.0768    9.6410 C   0  0  2  0  0  0  0  0  0  0  0  0
   17.7995    7.2471    8.8493 O   0  0  0  0  0  0  0  0  0  0  0  0
   19.5164   10.8746    3.1469 C   0  0  2  0  0  0  0  0  0  0  0  0
   19.4433   11.0843    1.7734 O   0  0  0  0  0  0  0  0  0  0  0  0
   22.6280    8.3147    5.7011 C   0  0  2  0  0  0  0  0  0  0  0  0
   19.4386    8.3900   10.2947 C   0  0  2  0  0  0  0  0  0  0  0  0
   20.0414    9.0573    9.1893 O   0  0  0  0  0  0  0  0  0  0  0  0
   20.9869   11.0105    3.6337 C   0  0  2  0  0  0  0  0  0  0  0  0
   21.0512   10.7756    5.0569 O   0  0  0  0  0  0  0  0  0  0  0  0
   22.6380    7.4995    7.0095 C   0  0  2  0  0  0  0  0  0  0  0  0
   21.9354    8.3389    7.9921 O   0  0  0  0  0  0  0  0  0  0  0  0
   20.4578    8.2471   11.4755 C   0  0  0  0  0  0  0  0  0  0  0  0
   19.8783    7.4882   12.5329 N   0  0  0  0  0  0  0  0  0  0  0  0
   21.5689   12.3740    3.3417 C   0  0  0  0  0  0  0  0  0  0  0  0
   21.7017   12.5893    1.9838 O   0  0  0  0  0  0  0  0  0  0  0  0
   24.1352    7.2275    7.4787 C   0  0  1  0  0  0  0  0  0  0  0  0
   24.1821    6.2906    8.5656 O   0  0  0  0  0  0  0  0  0  0  0  0
  1  2  1  6  0  0  0
  1  6  1  0  0  0  0
  1 23  1  0  0  0  0
  3  4  1  1  0  0  0
  3  8  1  0  0  0  0
  3 30  1  0  0  0  0
  5  9  1  0  0  0  0
  5 21  1  0  0  0  0
  5 25  1  1  0  0  0
  6  7  1  6  0  0  0
  6 11  1  0  0  0  0
  8 13  1  0  0  0  0
  9 10  1  6  0  0  0
  9 15  1  0  0  0  0
 11 12  1  1  0  0  0
 11 17  1  0  0  0  0
 13 14  1  6  0  0  0
 13 19  1  0  0  0  0
 15 16  1  6  0  0  0
 15 20  1  0  0  0  0
 17 18  1  6  0  0  0
 17 22  1  0  0  0  0
 19  2  1  6  0  0  0
 19 24  1  0  0  0  0
 20 21  1  0  0  0  0
 20 26  1  1  0  0  0
 22 23  1  0  0  0  0
 22 28  1  1  0  0  0
 24 25  1  1  0  0  0
 24 30  1  0  0  0  0
 26 27  1  0  0  0  0
 28 29  1  0  0  0  0
 30 31  1  1  0  0  0
M  END
>  <CHROM.1>
-173.98276537,62.16695217,-144.39179841,-62.31674069,-66.40847990,94.66471593
21.14935682,8.57568635,6.31371238,1.63257551,0.27237302,-1.10569598

>  <Name>
2o3x_lig

>  <RI>
3.41138e+07

>  <Rbt.Current_Directory>
/home/itssahil/PROJECTS/Mol_Feturizer/New_Systems/rnas/2o3x

>  <Rbt.Executable>
rbdock ($Id: //depot/dev/client3/rdock/2013.1/src/exe/rbdock.cxx#4 $)

>  <Rbt.Library>
libRbt.so (2013.1, Build901 2013/11/27)

>  <Rbt.Parameter_File>
/export/apps/rDock/src/rDock_2013.1_src/data/scripts/dock_solv.prm

>  <Rbt.Receptor>
prm/pocket_docking_2.prm

>  <SCORE>
-15.2768

>  <SCORE.INTER>
-15.9875

>  <SCORE.INTER.CONST>
1

>  <SCORE.INTER.POLAR>
-0.894427

>  <SCORE.INTER.ROT>
6

>  <SCORE.INTER.SOLV>
16.2861

>  <SCORE.INTER.VDW>
-20.7056

>  <SCORE.INTER.norm>
-0.515727

>  <SCORE.INTRA>
0.710722

>  <SCORE.INTRA.DIHEDRAL>
0.224625

>  <SCORE.INTRA.DIHEDRAL.0>
9.37739

>  <SCORE.INTRA.POLAR>
0

>  <SCORE.INTRA.POLAR.0>
0

>  <SCORE.INTRA.REPUL>
0

>  <SCORE.INTRA.REPUL.0>
0

>  <SCORE.INTRA.SOLV>
0.878706

>  <SCORE.INTRA.SOLV.lig_0>
-82.9274

>  <SCORE.INTRA.VDW>
0.159057

>  <SCORE.INTRA.VDW.0>
-3.84922

>  <SCORE.INTRA.norm>
0.0229265

>  <SCORE.RESTR>
0

>  <SCORE.RESTR.CAVITY>
0

>  <SCORE.RESTR.norm>
0

>  <SCORE.SYSTEM>
0

>  <SCORE.SYSTEM.CONST>
0

>  <SCORE.SYSTEM.DIHEDRAL>
0

>  <SCORE.SYSTEM.SOLV>
0

>  <SCORE.SYSTEM.norm>
0

>  <SCORE.heavy>
31

>  <SCORE.norm>
-0.492801

>  <RMSD>
1.834

$$$$
2o3x_lig
 OpenBabel11021811463D
libRbt.so/2013.1/901 2013/11/27
 31 33  0  0  0  0  0  0  0  0999 V2000
   20.3971    9.6766    5.5060 C   0  0  2  0  0  0  0  0  0  0  0  0
   21.1067    8.4572    5.2511 O   0  0  0  0  0  0  0  0  0  0  0  0
   24.6815    6.5224    6.5836 C   0  0  2  0  0  0  0  0  0  0  0  0
   26.0054    6.2425    7.1821 N   0  0  0  0  0  0  0  0  0  0  0  0
   20.1911    8.3331    8.1584 C   0  0  1  0  0  0  0  0  0  0  0  0
   18.9531    9.5361    4.9284 C   0  0  2  0  0  0  0  0  0  0  0  0
   18.3098    8.2605    5.3344 N   0  0  0  0  0  0  0  0  0  0  0  0
   24.7855    7.4694    5.3419 C   0  0  0  0  0  0  0  0  0  0  0  0
   19.6526    7.0224    8.8204 C   0  0  2  0  0  0  0  0  0  0  0  0
   19.4036    5.9087    7.9192 O   0  0  0  0  0  0  0  0  0  0  0  0
   18.9478    9.6036    3.3895 C   0  0  1  0  0  0  0  0  0  0  0  0
   17.6348    9.5263    2.8951 O   0  0  0  0  0  0  0  0  0  0  0  0
   23.3393    7.6808    4.7623 C   0  0  2  0  0  0  0  0  0  0  0  0
   23.3539    8.5628    3.5568 N   0  0  0  0  0  0  0  0  0  0  0  0
   18.4332    7.6104    9.5106 C   0  0  2  0  0  0  0  0  0  0  0  0
   17.3267    7.7948    8.5623 O   0  0  0  0  0  0  0  0  0  0  0  0
   19.6151   10.8893    2.9307 C   0  0  2  0  0  0  0  0  0  0  0  0
   19.5911   10.9634    1.5415 O   0  0  0  0  0  0  0  0  0  0  0  0
   22.4116    8.3237    5.8324 C   0  0  2  0  0  0  0  0  0  0  0  0
   18.9133    8.9505   10.0554 C   0  0  2  0  0  0  0  0  0  0  0  0
   19.7013    9.4134    8.9622 O   0  0  0  0  0  0  0  0  0  0  0  0
   21.0812   10.9388    3.4462 C   0  0  2  0  0  0  0  0  0  0  0  0
   21.0931   10.8456    4.8870 O   0  0  0  0  0  0  0  0  0  0  0  0
   22.3230    7.5032    7.1344 C   0  0  2  0  0  0  0  0  0  0  0  0
   21.6250    8.3744    8.0924 O   0  0  0  0  0  0  0  0  0  0  0  0
   19.7767    8.8616   11.3592 C   0  0  0  0  0  0  0  0  0  0  0  0
   21.1250    8.5375   11.0321 N   0  0  0  0  0  0  0  0  0  0  0  0
   21.7952   12.2063    3.0376 C   0  0  0  0  0  0  0  0  0  0  0  0
   21.2449   13.3177    3.6459 O   0  0  0  0  0  0  0  0  0  0  0  0
   23.7824    7.1496    7.6642 C   0  0  1  0  0  0  0  0  0  0  0  0
   23.7336    6.2067    8.7458 O   0  0  0  0  0  0  0  0  0  0  0  0
  1  2  1  6  0  0  0
  1  6  1  0  0  0  0
  1 23  1  0  0  0  0
  3  4  1  1  0  0  0
  3  8  1  0  0  0  0
  3 30  1  0  0  0  0
  5  9  1  0  0  0  0
  5 21  1  0  0  0  0
  5 25  1  1  0  0  0
  6  7  1  6  0  0  0
  6 11  1  0  0  0  0
  8 13  1  0  0  0  0
  9 10  1  6  0  0  0
  9 15  1  0  0  0  0
 11 12  1  1  0  0  0
 11 17  1  0  0  0  0
 13 14  1  6  0  0  0
 13 19  1  0  0  0  0
 15 16  1  6  0  0  0
 15 20  1  0  0  0  0
 17 18  1  6  0  0  0
 17 22  1  0  0  0  0
 19  2  1  6  0  0  0
 19 24  1  0  0  0  0
 20 21  1  0  0  0  0
 20 26  1  1  0  0  0
 22 23  1  0  0  0  0
 22 28  1  1  0  0  0
 24 25  1  1  0  0  0
 24 30  1  0  0  0  0
 26 27  1  0  0  0  0
 28 29  1  0  0  0  0
 30 31  1  1  0  0  0
M  END
>  <CHROM.1>
-173.36786451,72.22449253,-138.09157124,81.31068435,66.34995388,88.91182636
20.94773339,8.75343791,6.31202981,1.70759283,0.31514766,-1.10569634

>  <Name>
2o3x_lig

>  <RI>
3.41138e+07

>  <Rbt.Current_Directory>
/home/itssahil/PROJECTS/Mol_Feturizer/New_Systems/rnas/2o3x

>  <Rbt.Executable>
rbdock ($Id: //depot/dev/client3/rdock/2013.1/src/exe/rbdock.cxx#4 $)

>  <Rbt.Library>
libRbt.so (2013.1, Build901 2013/11/27)

>  <Rbt.Parameter_File>
/export/apps/rDock/src/rDock_2013.1_src/data/scripts/dock_solv.prm

>  <Rbt.Receptor>
prm/pocket_docking_2.prm

>  <SCORE>
-13.8191

>  <SCORE.INTER>
-17.6917

>  <SCORE.INTER.CONST>
1

>  <SCORE.INTER.POLAR>
-1.64161

>  <SCORE.INTER.ROT>
6

>  <SCORE.INTER.SOLV>
19.514

>  <SCORE.INTER.VDW>
-20.4271

>  <SCORE.INTER.norm>
-0.570699

>  <SCORE.INTRA>
3.42921

>  <SCORE.INTRA.DIHEDRAL>
2.28069

>  <SCORE.INTRA.DIHEDRAL.0>
9.37739

>  <SCORE.INTRA.POLAR>
0

>  <SCORE.INTRA.POLAR.0>
0

>  <SCORE.INTRA.REPUL>
0

>  <SCORE.INTRA.REPUL.0>
0

>  <SCORE.INTRA.SOLV>
5.08734

>  <SCORE.INTRA.SOLV.lig_0>
-82.9274

>  <SCORE.INTRA.VDW>
-0.254798

>  <SCORE.INTRA.VDW.0>
-3.84922

>  <SCORE.INTRA.norm>
0.11062

>  <SCORE.RESTR>
0.443303

>  <SCORE.RESTR.CAVITY>
0.443303

>  <SCORE.RESTR.norm>
0.0143001

>  <SCORE.SYSTEM>
0

>  <SCORE.SYSTEM.CONST>
0

>  <SCORE.SYSTEM.DIHEDRAL>
0

>  <SCORE.SYSTEM.SOLV>
0

>  <SCORE.SYSTEM.norm>
0

>  <SCORE.heavy>
31

>  <SCORE.norm>
-0.445779

>  <RMSD>
1.836

$$$$
2o3x_lig
 OpenBabel11021811463D
libRbt.so/2013.1/901 2013/11/27
 31 33  0  0  0  0  0  0  0  0999 V2000
   20.5105    9.6596    5.3727 C   0  0  2  0  0  0  0  0  0  0  0  0
   21.2974    8.5297    4.9732 O   0  0  0  0  0  0  0  0  0  0  0  0
   24.8513    6.5643    6.3166 C   0  0  2  0  0  0  0  0  0  0  0  0
   26.1613    6.2681    6.9376 N   0  0  0  0  0  0  0  0  0  0  0  0
   20.3164    8.1915    7.9256 C   0  0  1  0  0  0  0  0  0  0  0  0
   19.0592    9.4656    4.8299 C   0  0  2  0  0  0  0  0  0  0  0  0
   18.5281    8.1104    5.1247 N   0  0  0  0  0  0  0  0  0  0  0  0
   24.9803    7.5640    5.1194 C   0  0  0  0  0  0  0  0  0  0  0  0
   19.8736    6.7357    8.2870 C   0  0  2  0  0  0  0  0  0  0  0  0
   19.6366    5.8438    7.1633 O   0  0  0  0  0  0  0  0  0  0  0  0
   18.9886    9.6840    3.3067 C   0  0  1  0  0  0  0  0  0  0  0  0
   17.6664    9.5546    2.8489 O   0  0  0  0  0  0  0  0  0  0  0  0
   23.5481    7.7900    4.5112 C   0  0  2  0  0  0  0  0  0  0  0  0
   23.5873    8.7226    3.3449 N   0  0  0  0  0  0  0  0  0  0  0  0
   18.6610    7.0797    9.1357 C   0  0  2  0  0  0  0  0  0  0  0  0
   17.5035    7.4108    8.2941 O   0  0  0  0  0  0  0  0  0  0  0  0
   19.5408   11.0563    2.9596 C   0  0  2  0  0  0  0  0  0  0  0  0
   19.4568   11.2651    1.5866 O   0  0  0  0  0  0  0  0  0  0  0  0
   22.5877    8.3805    5.5826 C   0  0  2  0  0  0  0  0  0  0  0  0
   19.1008    8.2861    9.9568 C   0  0  2  0  0  0  0  0  0  0  0  0
   19.8132    9.0305    8.9725 O   0  0  0  0  0  0  0  0  0  0  0  0
   21.0184   11.1679    3.4307 C   0  0  2  0  0  0  0  0  0  0  0  0
   21.0936   10.9342    4.8536 O   0  0  0  0  0  0  0  0  0  0  0  0
   22.4716    7.5048    6.8459 C   0  0  2  0  0  0  0  0  0  0  0  0
   21.7419    8.3296    7.8211 O   0  0  0  0  0  0  0  0  0  0  0  0
   20.0278    7.9530   11.1746 C   0  0  0  0  0  0  0  0  0  0  0  0
   20.7545    9.1135   11.5683 N   0  0  0  0  0  0  0  0  0  0  0  0
   21.6204   12.5209    3.1303 C   0  0  0  0  0  0  0  0  0  0  0  0
   22.9896   12.5192    3.3124 O   0  0  0  0  0  0  0  0  0  0  0  0
   23.9194    7.1388    7.3987 C   0  0  1  0  0  0  0  0  0  0  0  0
   23.8497    6.1504    8.4376 O   0  0  0  0  0  0  0  0  0  0  0  0
  1  2  1  6  0  0  0
  1  6  1  0  0  0  0
  1 23  1  0  0  0  0
  3  4  1  1  0  0  0
  3  8  1  0  0  0  0
  3 30  1  0  0  0  0
  5  9  1  0  0  0  0
  5 21  1  0  0  0  0
  5 25  1  1  0  0  0
  6  7  1  6  0  0  0
  6 11  1  0  0  0  0
  8 13  1  0  0  0  0
  9 10  1  6  0  0  0
  9 15  1  0  0  0  0
 11 12  1  1  0  0  0
 11 17  1  0  0  0  0
 13 14  1  6  0  0  0
 13 19  1  0  0  0  0
 15 16  1  6  0  0  0
 15 20  1  0  0  0  0
 17 18  1  6  0  0  0
 17 22  1  0  0  0  0
 19  2  1  6  0  0  0
 19 24  1  0  0  0  0
 20 21  1  0  0  0  0
 20 26  1  1  0  0  0
 22 23  1  0  0  0  0
 22 28  1  1  0  0  0
 24 25  1  1  0  0  0
 24 30  1  0  0  0  0
 26 27  1  0  0  0  0
 28 29  1  0  0  0  0
 30 31  1  1  0  0  0
M  END
>  <CHROM.1>
-168.26425775,58.82522142,-144.70185768,159.17198527,-168.24459771,94.18202808
21.10893811,8.68129027,6.13188586,1.63467770,0.24574462,-1.06635892

>  <Name>
2o3x_lig

>  <RI>
0

>  <Rbt.Current_Directory>
/home/itssahil/PROJECTS/Mol_Feturizer/New_Systems/rnas/2o3x

>  <Rbt.Executable>
rbdock ($Id: //depot/dev/client3/rdock/2013.1/src/exe/rbdock.cxx#4 $)

>  <Rbt.Library>
libRbt.so (2013.1, Build901 2013/11/27)

>  <Rbt.Parameter_File>
/export/apps/rDock/src/rDock_2013.1_src/data/scripts/dock_solv.prm

>  <Rbt.Receptor>
prm/pocket_docking_3.prm

>  <SCORE>
-16.2194

>  <SCORE.INTER>
-18.4656

>  <SCORE.INTER.CONST>
1

>  <SCORE.INTER.POLAR>
-1.6386

>  <SCORE.INTER.ROT>
6

>  <SCORE.INTER.SOLV>
19.2378

>  <SCORE.INTER.VDW>
-20.861

>  <SCORE.INTER.norm>
-0.595665

>  <SCORE.INTRA>
2.24624

>  <SCORE.INTRA.DIHEDRAL>
2.26326

>  <SCORE.INTRA.DIHEDRAL.0>
9.37739

>  <SCORE.INTRA.POLAR>
0

>  <SCORE.INTRA.POLAR.0>
0

>  <SCORE.INTRA.REPUL>
0

>  <SCORE.INTRA.REPUL.0>
0

>  <SCORE.INTRA.SOLV>
2.4743

>  <SCORE.INTRA.SOLV.lig_0>
-82.9274

>  <SCORE.INTRA.VDW>
-0.122539

>  <SCORE.INTRA.VDW.0>
-3.84922

>  <SCORE.INTRA.norm>
0.0724595

>  <SCORE.RESTR>
0

>  <SCORE.RESTR.CAVITY>
0

>  <SCORE.RESTR.norm>
0

>  <SCORE.SYSTEM>
0

>  <SCORE.SYSTEM.CONST>
0

>  <SCORE.SYSTEM.DIHEDRAL>
0

>  <SCORE.SYSTEM.SOLV>
0

>  <SCORE.SYSTEM.norm>
0

>  <SCORE.heavy>
31

>  <SCORE.norm>
-0.523206

>  <RMSD>
1.883

$$$$
2o3x_lig
 OpenBabel11021811463D
libRbt.so/2013.1/901 2013/11/27
 31 33  0  0  0  0  0  0  0  0999 V2000
   20.4767    9.5640    5.4145 C   0  0  2  0  0  0  0  0  0  0  0  0
   21.2967    8.4711    4.9801 O   0  0  0  0  0  0  0  0  0  0  0  0
   24.8814    6.5566    6.3150 C   0  0  2  0  0  0  0  0  0  0  0  0
   26.1972    6.2792    6.9326 N   0  0  0  0  0  0  0  0  0  0  0  0
   20.3296    8.1162    7.9405 C   0  0  1  0  0  0  0  0  0  0  0  0
   19.0460    9.3735    4.8186 C   0  0  2  0  0  0  0  0  0  0  0  0
   18.5327    7.9952    5.0254 N   0  0  0  0  0  0  0  0  0  0  0  0
   24.9931    7.5571    5.1167 C   0  0  0  0  0  0  0  0  0  0  0  0
   19.9165    6.6608    8.3368 C   0  0  2  0  0  0  0  0  0  0  0  0
   19.6926    5.7391    7.2347 O   0  0  0  0  0  0  0  0  0  0  0  0
   19.0157    9.6713    3.3076 C   0  0  1  0  0  0  0  0  0  0  0  0
   17.7103    9.5431    2.8038 O   0  0  0  0  0  0  0  0  0  0  0  0
   23.5562    7.7626    4.5123 C   0  0  2  0  0  0  0  0  0  0  0  0
   23.5791    8.6947    3.3453 N   0  0  0  0  0  0  0  0  0  0  0  0
   18.7007    7.0006    9.1825 C   0  0  2  0  0  0  0  0  0  0  0  0
   17.5338    7.2900    8.3386 O   0  0  0  0  0  0  0  0  0  0  0  0
   19.5513   11.0697    3.0501 C   0  0  2  0  0  0  0  0  0  0  0  0
   19.5035   11.3497    1.6881 O   0  0  0  0  0  0  0  0  0  0  0  0
   22.5906    8.3404    5.5860 C   0  0  2  0  0  0  0  0  0  0  0  0
   19.1201    8.2337    9.9741 C   0  0  2  0  0  0  0  0  0  0  0  0
   19.8143    8.9690    8.9702 O   0  0  0  0  0  0  0  0  0  0  0  0
   21.0120   11.1822    3.5709 C   0  0  2  0  0  0  0  0  0  0  0  0
   21.0501   10.8745    4.9812 O   0  0  0  0  0  0  0  0  0  0  0  0
   22.4902    7.4641    6.8503 C   0  0  2  0  0  0  0  0  0  0  0  0
   21.7518    8.2794    7.8269 O   0  0  0  0  0  0  0  0  0  0  0  0
   20.0580    7.9464   11.1953 C   0  0  0  0  0  0  0  0  0  0  0  0
   20.7420    9.1363   11.5776 N   0  0  0  0  0  0  0  0  0  0  0  0
   21.5964   12.5597    3.3605 C   0  0  0  0  0  0  0  0  0  0  0  0
   21.7530   12.8453    2.0182 O   0  0  0  0  0  0  0  0  0  0  0  0
   23.9446    7.1188    7.3993 C   0  0  1  0  0  0  0  0  0  0  0  0
   23.8916    6.1303    8.4391 O   0  0  0  0  0  0  0  0  0  0  0  0
  1  2  1  6  0  0  0
  1  6  1  0  0  0  0
  1 23  1  0  0  0  0
  3  4  1  1  0  0  0
  3  8  1  0  0  0  0
  3 30  1  0  0  0  0
  5  9  1  0  0  0  0
  5 21  1  0  0  0  0
  5 25  1  1  0  0  0
  6  7  1  6  0  0  0
  6 11  1  0  0  0  0
  8 13  1  0  0  0  0
  9 10  1  6  0  0  0
  9 15  1  0  0  0  0
 11 12  1  1  0  0  0
 11 17  1  0  0  0  0
 13 14  1  6  0  0  0
 13 19  1  0  0  0  0
 15 16  1  6  0  0  0
 15 20  1  0  0  0  0
 17 18  1  6  0  0  0
 17 22  1  0  0  0  0
 19  2  1  6  0  0  0
 19 24  1  0  0  0  0
 20 21  1  0  0  0  0
 20 26  1  1  0  0  0
 22 23  1  0  0  0  0
 22 28  1  1  0  0  0
 24 25  1  1  0  0  0
 24 30  1  0  0  0  0
 26 27  1  0  0  0  0
 28 29  1  0  0  0  0
 30 31  1  1  0  0  0
M  END
>  <CHROM.1>
-170.40777247,59.93126556,-146.78549854,160.41392072,-66.34768201,94.51605921
21.07742456,8.65839157,6.11288292,1.67319414,0.27399453,-1.06195976

>  <Name>
2o3x_lig

>  <RI>
0

>  <Rbt.Current_Directory>
/home/itssahil/PROJECTS/Mol_Feturizer/New_Systems/rnas/2o3x

>  <Rbt.Executable>
rbdock ($Id: //depot/dev/client3/rdock/2013.1/src/exe/rbdock.cxx#4 $)

>  <Rbt.Library>
libRbt.so (2013.1, Build901 2013/11/27)

>  <Rbt.Parameter_File>
/export/apps/rDock/src/rDock_2013.1_src/data/scripts/dock_solv.prm

>  <Rbt.Receptor>
prm/pocket_docking_3.prm

>  <SCORE>
-16.519

>  <SCORE.INTER>
-18.3195

>  <SCORE.INTER.CONST>
1

>  <SCORE.INTER.POLAR>
-1.6253

>  <SCORE.INTER.ROT>
6

>  <SCORE.INTER.SOLV>
18.8516

>  <SCORE.INTER.VDW>
-20.6792

>  <SCORE.INTER.norm>
-0.590952

>  <SCORE.INTRA>
1.80049

>  <SCORE.INTRA.DIHEDRAL>
1.23341

>  <SCORE.INTRA.DIHEDRAL.0>
9.37739

>  <SCORE.INTRA.POLAR>
0

>  <SCORE.INTRA.POLAR.0>
0

>  <SCORE.INTRA.REPUL>
0

>  <SCORE.INTRA.REPUL.0>
0

>  <SCORE.INTRA.SOLV>
1.84664

>  <SCORE.INTRA.SOLV.lig_0>
-82.9274

>  <SCORE.INTRA.VDW>
0.260471

>  <SCORE.INTRA.VDW.0>
-3.84922

>  <SCORE.INTRA.norm>
0.0580804

>  <SCORE.RESTR>
0

>  <SCORE.RESTR.CAVITY>
0

>  <SCORE.RESTR.norm>
0

>  <SCORE.SYSTEM>
0

>  <SCORE.SYSTEM.CONST>
0

>  <SCORE.SYSTEM.DIHEDRAL>
0

>  <SCORE.SYSTEM.SOLV>
0

>  <SCORE.SYSTEM.norm>
0

>  <SCORE.heavy>
31

>  <SCORE.norm>
-0.532872

>  <RMSD>
1.896

$$$$
2o3x_lig
 OpenBabel11021811463D
libRbt.so/2013.1/901 2013/11/27
 31 33  0  0  0  0  0  0  0  0999 V2000
   20.5372    9.5743    5.5454 C   0  0  2  0  0  0  0  0  0  0  0  0
   21.2466    8.3764    5.2028 O   0  0  0  0  0  0  0  0  0  0  0  0
   24.9112    6.4361    6.2534 C   0  0  2  0  0  0  0  0  0  0  0  0
   26.2664    6.1472    6.7726 N   0  0  0  0  0  0  0  0  0  0  0  0
   20.4694    8.0921    8.1179 C   0  0  1  0  0  0  0  0  0  0  0  0
   19.0714    9.4451    5.0227 C   0  0  2  0  0  0  0  0  0  0  0  0
   18.4577    8.1444    5.3936 N   0  0  0  0  0  0  0  0  0  0  0  0
   24.9410    7.4544    5.0653 C   0  0  0  0  0  0  0  0  0  0  0  0
   19.9400    6.6731    8.5083 C   0  0  2  0  0  0  0  0  0  0  0  0
   19.6451    5.7761    7.4025 O   0  0  0  0  0  0  0  0  0  0  0  0
   19.0003    9.5856    3.4904 C   0  0  1  0  0  0  0  0  0  0  0  0
   17.6683    9.5171    3.0483 O   0  0  0  0  0  0  0  0  0  0  0  0
   23.4657    7.6714    4.5667 C   0  0  2  0  0  0  0  0  0  0  0  0
   23.4090    8.6210    3.4150 N   0  0  0  0  0  0  0  0  0  0  0  0
   18.7536    7.1066    9.3531 C   0  0  2  0  0  0  0  0  0  0  0  0
   17.6154    7.4915    8.5080 O   0  0  0  0  0  0  0  0  0  0  0  0
   19.6356   10.8991    3.0663 C   0  0  2  0  0  0  0  0  0  0  0  0
   19.5520   11.0389    1.6845 O   0  0  0  0  0  0  0  0  0  0  0  0
   22.5796    8.2344    5.7142 C   0  0  2  0  0  0  0  0  0  0  0  0
   19.2691    8.2994   10.1498 C   0  0  2  0  0  0  0  0  0  0  0  0
   20.0220    8.9800    9.1497 O   0  0  0  0  0  0  0  0  0  0  0  0
   21.1217   10.9406    3.5217 C   0  0  2  0  0  0  0  0  0  0  0  0
   21.1954   10.7791    4.9547 O   0  0  0  0  0  0  0  0  0  0  0  0
   22.5660    7.3393    6.9691 C   0  0  2  0  0  0  0  0  0  0  0  0
   21.9003    8.1409    8.0074 O   0  0  0  0  0  0  0  0  0  0  0  0
   20.1784    7.9335   11.3715 C   0  0  0  0  0  0  0  0  0  0  0  0
   20.9641    9.0597   11.7513 N   0  0  0  0  0  0  0  0  0  0  0  0
   21.8059   12.2341    3.1449 C   0  0  0  0  0  0  0  0  0  0  0  0
   21.2127   13.3199    3.7590 O   0  0  0  0  0  0  0  0  0  0  0  0
   24.0545    6.9834    7.4092 C   0  0  1  0  0  0  0  0  0  0  0  0
   24.0721    5.9794    8.4353 O   0  0  0  0  0  0  0  0  0  0  0  0
  1  2  1  6  0  0  0
  1  6  1  0  0  0  0
  1 23  1  0  0  0  0
  3  4  1  1  0  0  0
  3  8  1  0  0  0  0
  3 30  1  0  0  0  0
  5  9  1  0  0  0  0
  5 21  1  0  0  0  0
  5 25  1  1  0  0  0
  6  7  1  6  0  0  0
  6 11  1  0  0  0  0
  8 13  1  0  0  0  0
  9 10  1  6  0  0  0
  9 15  1  0  0  0  0
 11 12  1  1  0  0  0
 11 17  1  0  0  0  0
 13 14  1  6  0  0  0
 13 19  1  0  0  0  0
 15 16  1  6  0  0  0
 15 20  1  0  0  0  0
 17 18  1  6  0  0  0
 17 22  1  0  0  0  0
 19  2  1  6  0  0  0
 19 24  1  0  0  0  0
 20 21  1  0  0  0  0
 20 26  1  1  0  0  0
 22 23  1  0  0  0  0
 22 28  1  1  0  0  0
 24 25  1  1  0  0  0
 24 30  1  0  0  0  0
 26 27  1  0  0  0  0
 28 29  1  0  0  0  0
 30 31  1  1  0  0  0
M  END
>  <CHROM.1>
-173.79123338,63.95546500,-137.24798347,159.86578397,62.26582320,87.52485001
21.11453344,8.61210021,6.27095529,1.72373073,0.32660291,-1.08127067

>  <Name>
2o3x_lig

>  <RI>
3.41138e+07

>  <Rbt.Current_Directory>
/home/itssahil/PROJECTS/Mol_Feturizer/New_Systems/rnas/2o3x

>  <Rbt.Executable>
rbdock ($Id: //depot/dev/client3/rdock/2013.1/src/exe/rbdock.cxx#4 $)

>  <Rbt.Library>
libRbt.so (2013.1, Build901 2013/11/27)

>  <Rbt.Parameter_File>
/export/apps/rDock/src/rDock_2013.1_src/data/scripts/dock_solv.prm

>  <Rbt.Receptor>
prm/pocket_docking_2.prm

>  <SCORE>
-14.7458

>  <SCORE.INTER>
-17.1964

>  <SCORE.INTER.CONST>
1

>  <SCORE.INTER.POLAR>
-1.53545

>  <SCORE.INTER.ROT>
6

>  <SCORE.INTER.SOLV>
19.4651

>  <SCORE.INTER.VDW>
-20.4345

>  <SCORE.INTER.norm>
-0.554722

>  <SCORE.INTRA>
1.95188

>  <SCORE.INTRA.DIHEDRAL>
1.29455

>  <SCORE.INTRA.DIHEDRAL.0>
9.37739

>  <SCORE.INTRA.POLAR>
0

>  <SCORE.INTRA.POLAR.0>
0

>  <SCORE.INTRA.REPUL>
0

>  <SCORE.INTRA.REPUL.0>
0

>  <SCORE.INTRA.SOLV>
3.0011

>  <SCORE.INTRA.SOLV.lig_0>
-82.9274

>  <SCORE.INTRA.VDW>
-0.195944

>  <SCORE.INTRA.VDW.0>
-3.84922

>  <SCORE.INTRA.norm>
0.0629639

>  <SCORE.RESTR>
0.498704

>  <SCORE.RESTR.CAVITY>
0.498704

>  <SCORE.RESTR.norm>
0.0160872

>  <SCORE.SYSTEM>
0

>  <SCORE.SYSTEM.CONST>
0

>  <SCORE.SYSTEM.DIHEDRAL>
0

>  <SCORE.SYSTEM.SOLV>
0

>  <SCORE.SYSTEM.norm>
0

>  <SCORE.heavy>
31

>  <SCORE.norm>
-0.475671

>  <RMSD>
1.903

$$$$
2o3x_lig
 OpenBabel11021811463D
libRbt.so/2013.1/901 2013/11/27
 31 33  0  0  0  0  0  0  0  0999 V2000
   20.6865    9.6445    5.6250 C   0  0  2  0  0  0  0  0  0  0  0  0
   21.3543    8.4159    5.3089 O   0  0  0  0  0  0  0  0  0  0  0  0
   25.0003    6.4346    6.3478 C   0  0  2  0  0  0  0  0  0  0  0  0
   26.3698    6.1400    6.8245 N   0  0  0  0  0  0  0  0  0  0  0  0
   20.7695    8.2261    8.4726 C   0  0  1  0  0  0  0  0  0  0  0  0
   19.1958    9.5246    5.1754 C   0  0  2  0  0  0  0  0  0  0  0  0
   18.5730    8.2573    5.6355 N   0  0  0  0  0  0  0  0  0  0  0  0
   25.0036    7.3454    5.0750 C   0  0  0  0  0  0  0  0  0  0  0  0
   20.4316    6.7527    8.8739 C   0  0  2  0  0  0  0  0  0  0  0  0
   19.9880    5.8840    7.7955 O   0  0  0  0  0  0  0  0  0  0  0  0
   19.0575    9.5945    3.6428 C   0  0  1  0  0  0  0  0  0  0  0  0
   17.7055    9.5359    3.2647 O   0  0  0  0  0  0  0  0  0  0  0  0
   23.5128    7.5749    4.6309 C   0  0  2  0  0  0  0  0  0  0  0  0
   23.4293    8.4236    3.4046 N   0  0  0  0  0  0  0  0  0  0  0  0
   19.4089    7.0498    9.9577 C   0  0  2  0  0  0  0  0  0  0  0  0
   18.1008    7.3767    9.3750 O   0  0  0  0  0  0  0  0  0  0  0  0
   19.6999   10.8716    3.1280 C   0  0  2  0  0  0  0  0  0  0  0  0
   19.5559   10.9482    1.7463 O   0  0  0  0  0  0  0  0  0  0  0  0
   22.7062    8.2676    5.7660 C   0  0  2  0  0  0  0  0  0  0  0  0
   19.9854    8.2447   10.7080 C   0  0  2  0  0  0  0  0  0  0  0  0
   20.4736    9.0281    9.6225 O   0  0  0  0  0  0  0  0  0  0  0  0
   21.2058   10.9004    3.5139 C   0  0  2  0  0  0  0  0  0  0  0  0
   21.3418   10.8048    4.9482 O   0  0  0  0  0  0  0  0  0  0  0  0
   22.7268    7.4846    7.0937 C   0  0  2  0  0  0  0  0  0  0  0  0
   22.1426    8.3972    8.0886 O   0  0  0  0  0  0  0  0  0  0  0  0
   21.1434    7.9014   11.7054 C   0  0  0  0  0  0  0  0  0  0  0  0
   20.6715    7.0162   12.7171 N   0  0  0  0  0  0  0  0  0  0  0  0
   21.8988   12.1587    3.0451 C   0  0  0  0  0  0  0  0  0  0  0  0
   21.3401   13.2875    3.6123 O   0  0  0  0  0  0  0  0  0  0  0  0
   24.2229    7.1113    7.4911 C   0  0  1  0  0  0  0  0  0  0  0  0
   24.2592    6.1991    8.5991 O   0  0  0  0  0  0  0  0  0  0  0  0
  1  2  1  6  0  0  0
  1  6  1  0  0  0  0
  1 23  1  0  0  0  0
  3  4  1  1  0  0  0
  3  8  1  0  0  0  0
  3 30  1  0  0  0  0
  5  9  1  0  0  0  0
  5 21  1  0  0  0  0
  5 25  1  1  0  0  0
  6  7  1  6  0  0  0
  6 11  1  0  0  0  0
  8 13  1  0  0  0  0
  9 10  1  6  0  0  0
  9 15  1  0  0  0  0
 11 12  1  1  0  0  0
 11 17  1  0  0  0  0
 13 14  1  6  0  0  0
 13 19  1  0  0  0  0
 15 16  1  6  0  0  0
 15 20  1  0  0  0  0
 17 18  1  6  0  0  0
 17 22  1  0  0  0  0
 19  2  1  6  0  0  0
 19 24  1  0  0  0  0
 20 21  1  0  0  0  0
 20 26  1  1  0  0  0
 22 23  1  0  0  0  0
 22 28  1  1  0  0  0
 24 25  1  1  0  0  0
 24 30  1  0  0  0  0
 26 27  1  0  0  0  0
 28 29  1  0  0  0  0
 30 31  1  1  0  0  0
M  END
>  <CHROM.1>
-173.80277080,50.37086611,-139.64711875,-61.41522771,61.09052888,100.28544284
21.32161059,8.56652281,6.47965638,1.69950040,0.34019247,-1.10957330

>  <Name>
2o3x_lig

>  <RI>
3.41138e+07

>  <Rbt.Current_Directory>
/home/itssahil/PROJECTS/Mol_Feturizer/New_Systems/rnas/2o3x

>  <Rbt.Executable>
rbdock ($Id: //depot/dev/client3/rdock/2013.1/src/exe/rbdock.cxx#4 $)

>  <Rbt.Library>
libRbt.so (2013.1, Build901 2013/11/27)

>  <Rbt.Parameter_File>
/export/apps/rDock/src/rDock_2013.1_src/data/scripts/dock_solv.prm

>  <Rbt.Receptor>
prm/pocket_docking_2.prm

>  <SCORE>
-16.5591

>  <SCORE.INTER>
-18.5928

>  <SCORE.INTER.CONST>
1

>  <SCORE.INTER.POLAR>
-1.51594

>  <SCORE.INTER.ROT>
6

>  <SCORE.INTER.SOLV>
17.7902

>  <SCORE.INTER.VDW>
-20.8721

>  <SCORE.INTER.norm>
-0.599768

>  <SCORE.INTRA>
1.58176

>  <SCORE.INTRA.DIHEDRAL>
2.2866

>  <SCORE.INTRA.DIHEDRAL.0>
9.37739

>  <SCORE.INTRA.POLAR>
0

>  <SCORE.INTRA.POLAR.0>
0

>  <SCORE.INTRA.REPUL>
0

>  <SCORE.INTRA.REPUL.0>
0

>  <SCORE.INTRA.SOLV>
1.16616

>  <SCORE.INTRA.SOLV.lig_0>
-82.9274

>  <SCORE.INTRA.VDW>
-0.144624

>  <SCORE.INTRA.VDW.0>
-3.84922

>  <SCORE.INTRA.norm>
0.0510245

>  <SCORE.RESTR>
0.451921

>  <SCORE.RESTR.CAVITY>
0.451921

>  <SCORE.RESTR.norm>
0.0145781

>  <SCORE.SYSTEM>
0

>  <SCORE.SYSTEM.CONST>
0

>  <SCORE.SYSTEM.DIHEDRAL>
0

>  <SCORE.SYSTEM.SOLV>
0

>  <SCORE.SYSTEM.norm>
0

>  <SCORE.heavy>
31

>  <SCORE.norm>
-0.534165

>  <RMSD>
1.949

$$$$
2o3x_lig
 OpenBabel11021811463D
libRbt.so/2013.1/901 2013/11/27
 31 33  0  0  0  0  0  0  0  0999 V2000
   20.6166    9.4926    5.6285 C   0  0  2  0  0  0  0  0  0  0  0  0
   21.3856    8.3651    5.1893 O   0  0  0  0  0  0  0  0  0  0  0  0
   25.0255    6.4769    6.4073 C   0  0  2  0  0  0  0  0  0  0  0  0
   26.3865    6.2210    6.9285 N   0  0  0  0  0  0  0  0  0  0  0  0
   20.7560    8.2808    8.4095 C   0  0  1  0  0  0  0  0  0  0  0  0
   19.1382    9.2897    5.1684 C   0  0  2  0  0  0  0  0  0  0  0  0
   18.6312    7.9329    5.4969 N   0  0  0  0  0  0  0  0  0  0  0  0
   25.0491    7.3228    5.0907 C   0  0  0  0  0  0  0  0  0  0  0  0
   20.4661    6.7902    8.7840 C   0  0  2  0  0  0  0  0  0  0  0  0
   20.0052    5.9383    7.6995 O   0  0  0  0  0  0  0  0  0  0  0  0
   18.9813    9.5023    3.6508 C   0  0  1  0  0  0  0  0  0  0  0  0
   17.6363    9.3650    3.2682 O   0  0  0  0  0  0  0  0  0  0  0  0
   23.5667    7.5140    4.6026 C   0  0  2  0  0  0  0  0  0  0  0  0
   23.5031    8.2994    3.3336 N   0  0  0  0  0  0  0  0  0  0  0  0
   19.4752    7.0358    9.9095 C   0  0  2  0  0  0  0  0  0  0  0  0
   18.1404    7.3459    9.3805 O   0  0  0  0  0  0  0  0  0  0  0  0
   19.5064   10.8761    3.2689 C   0  0  2  0  0  0  0  0  0  0  0  0
   19.3446   11.0795    1.9021 O   0  0  0  0  0  0  0  0  0  0  0  0
   22.7280    8.2542    5.6832 C   0  0  2  0  0  0  0  0  0  0  0  0
   20.0500    8.2249   10.6702 C   0  0  2  0  0  0  0  0  0  0  0  0
   20.4820    9.0466    9.5891 O   0  0  0  0  0  0  0  0  0  0  0  0
   21.0074   10.9964    3.6562 C   0  0  2  0  0  0  0  0  0  0  0  0
   21.1633   10.7682    5.0734 O   0  0  0  0  0  0  0  0  0  0  0  0
   22.7258    7.5389    7.0487 C   0  0  2  0  0  0  0  0  0  0  0  0
   22.1106    8.4939    7.9832 O   0  0  0  0  0  0  0  0  0  0  0  0
   21.2495    7.8846   11.6181 C   0  0  0  0  0  0  0  0  0  0  0  0
   20.8357    6.9568   12.6171 N   0  0  0  0  0  0  0  0  0  0  0  0
   21.5848   12.3513    3.3182 C   0  0  0  0  0  0  0  0  0  0  0  0
   21.6227   12.5609    1.9534 O   0  0  0  0  0  0  0  0  0  0  0  0
   24.2160    7.2018    7.4976 C   0  0  1  0  0  0  0  0  0  0  0  0
   24.2356    6.3466    8.6506 O   0  0  0  0  0  0  0  0  0  0  0  0
  1  2  1  6  0  0  0
  1  6  1  0  0  0  0
  1 23  1  0  0  0  0
  3  4  1  1  0  0  0
  3  8  1  0  0  0  0
  3 30  1  0  0  0  0
  5  9  1  0  0  0  0
  5 21  1  0  0  0  0
  5 25  1  1  0  0  0
  6  7  1  6  0  0  0
  6 11  1  0  0  0  0
  8 13  1  0  0  0  0
  9 10  1  6  0  0  0
  9 15  1  0  0  0  0
 11 12  1  1  0  0  0
 11 17  1  0  0  0  0
 13 14  1  6  0  0  0
 13 19  1  0  0  0  0
 15 16  1  6  0  0  0
 15 20  1  0  0  0  0
 17 18  1  6  0  0  0
 17 22  1  0  0  0  0
 19  2  1  6  0  0  0
 19 24  1  0  0  0  0
 20 21  1  0  0  0  0
 20 26  1  1  0  0  0
 22 23  1  0  0  0  0
 22 28  1  1  0  0  0
 24 25  1  1  0  0  0
 24 30  1  0  0  0  0
 26 27  1  0  0  0  0
 28 29  1  0  0  0  0
 30 31  1  1  0  0  0
M  END
>  <CHROM.1>
-170.76720958,44.16859711,-150.54494156,-61.04738619,-66.06774701,104.11919145
21.31110638,8.53108296,6.41757458,1.72054679,0.30478296,-1.12824637

>  <Name>
2o3x_lig

>  <RI>
3.41138e+07

>  <Rbt.Current_Directory>
/home/itssahil/PROJECTS/Mol_Feturizer/New_Systems/rnas/2o3x

>  <Rbt.Executable>
rbdock ($Id: //depot/dev/client3/rdock/2013.1/src/exe/rbdock.cxx#4 $)

>  <Rbt.Library>
libRbt.so (2013.1, Build901 2013/11/27)

>  <Rbt.Parameter_File>
/export/apps/rDock/src/rDock_2013.1_src/data/scripts/dock_solv.prm

>  <Rbt.Receptor>
prm/pocket_docking_2.prm

>  <SCORE>
-17.7541

>  <SCORE.INTER>
-19.4626

>  <SCORE.INTER.CONST>
1

>  <SCORE.INTER.POLAR>
-1.5885

>  <SCORE.INTER.ROT>
6

>  <SCORE.INTER.SOLV>
16.9464

>  <SCORE.INTER.VDW>
-20.9289

>  <SCORE.INTER.norm>
-0.627827

>  <SCORE.INTRA>
1.68495

>  <SCORE.INTRA.DIHEDRAL>
1.99197

>  <SCORE.INTRA.DIHEDRAL.0>
9.37739

>  <SCORE.INTRA.POLAR>
0

>  <SCORE.INTRA.POLAR.0>
0

>  <SCORE.INTRA.REPUL>
0

>  <SCORE.INTRA.REPUL.0>
0

>  <SCORE.INTRA.SOLV>
0.637752

>  <SCORE.INTRA.SOLV.lig_0>
-82.9274

>  <SCORE.INTRA.VDW>
0.370088

>  <SCORE.INTRA.VDW.0>
-3.84922

>  <SCORE.INTRA.norm>
0.0543532

>  <SCORE.RESTR>
0.0236207

>  <SCORE.RESTR.CAVITY>
0.0236207

>  <SCORE.RESTR.norm>
0.00076196

>  <SCORE.SYSTEM>
0

>  <SCORE.SYSTEM.CONST>
0

>  <SCORE.SYSTEM.DIHEDRAL>
0

>  <SCORE.SYSTEM.SOLV>
0

>  <SCORE.SYSTEM.norm>
0

>  <SCORE.heavy>
31

>  <SCORE.norm>
-0.572712

>  <RMSD>
1.955

$$$$
2o3x_lig
 OpenBabel11021811463D
libRbt.so/2013.1/901 2013/11/27
 31 33  0  0  0  0  0  0  0  0999 V2000
   20.6149    9.4859    5.6234 C   0  0  2  0  0  0  0  0  0  0  0  0
   21.3882    8.3583    5.1923 O   0  0  0  0  0  0  0  0  0  0  0  0
   25.0509    6.5026    6.3919 C   0  0  2  0  0  0  0  0  0  0  0  0
   26.4159    6.2585    6.9084 N   0  0  0  0  0  0  0  0  0  0  0  0
   20.7632    8.2590    8.4031 C   0  0  1  0  0  0  0  0  0  0  0  0
   19.1421    9.2850    5.1449 C   0  0  2  0  0  0  0  0  0  0  0  0
   18.6299    7.9283    5.4654 N   0  0  0  0  0  0  0  0  0  0  0  0
   25.0623    7.3551    5.0794 C   0  0  0  0  0  0  0  0  0  0  0  0
   20.4804    6.7661    8.7739 C   0  0  2  0  0  0  0  0  0  0  0  0
   20.0310    5.9130    7.6855 O   0  0  0  0  0  0  0  0  0  0  0  0
   19.0041    9.4997    3.6258 C   0  0  1  0  0  0  0  0  0  0  0  0
   17.6638    9.3641    3.2265 O   0  0  0  0  0  0  0  0  0  0  0  0
   23.5767    7.5331    4.5959 C   0  0  2  0  0  0  0  0  0  0  0  0
   23.5016    8.3239    3.3310 N   0  0  0  0  0  0  0  0  0  0  0  0
   19.4815    7.0040    9.8940 C   0  0  2  0  0  0  0  0  0  0  0  0
   18.1479    7.3067    9.3576 O   0  0  0  0  0  0  0  0  0  0  0  0
   19.5351   10.8734    3.2521 C   0  0  2  0  0  0  0  0  0  0  0  0
   19.3904   11.0788    1.8837 O   0  0  0  0  0  0  0  0  0  0  0  0
   22.7330    8.2591    5.6823 C   0  0  2  0  0  0  0  0  0  0  0  0
   20.0445    8.1956   10.6596 C   0  0  2  0  0  0  0  0  0  0  0  0
   20.4778    9.0214    9.5822 O   0  0  0  0  0  0  0  0  0  0  0  0
   21.0314   10.9919    3.6581 C   0  0  2  0  0  0  0  0  0  0  0  0
   21.1696   10.7616    5.0768 O   0  0  0  0  0  0  0  0  0  0  0  0
   22.7418    7.5371    7.0443 C   0  0  2  0  0  0  0  0  0  0  0  0
   22.1190    8.4810    7.9850 O   0  0  0  0  0  0  0  0  0  0  0  0
   21.2406    7.8613   11.6140 C   0  0  0  0  0  0  0  0  0  0  0  0
   20.8234    6.9393   12.6169 N   0  0  0  0  0  0  0  0  0  0  0  0
   21.6142   12.3466    3.3289 C   0  0  0  0  0  0  0  0  0  0  0  0
   21.6570   12.5633    1.9654 O   0  0  0  0  0  0  0  0  0  0  0  0
   24.2366    7.2136    7.4877 C   0  0  1  0  0  0  0  0  0  0  0  0
   24.2682    6.3530    8.6365 O   0  0  0  0  0  0  0  0  0  0  0  0
  1  2  1  6  0  0  0
  1  6  1  0  0  0  0
  1 23  1  0  0  0  0
  3  4  1  1  0  0  0
  3  8  1  0  0  0  0
  3 30  1  0  0  0  0
  5  9  1  0  0  0  0
  5 21  1  0  0  0  0
  5 25  1  1  0  0  0
  6  7  1  6  0  0  0
  6 11  1  0  0  0  0
  8 13  1  0  0  0  0
  9 10  1  6  0  0  0
  9 15  1  0  0  0  0
 11 12  1  1  0  0  0
 11 17  1  0  0  0  0
 13 14  1  6  0  0  0
 13 19  1  0  0  0  0
 15 16  1  6  0  0  0
 15 20  1  0  0  0  0
 17 18  1  6  0  0  0
 17 22  1  0  0  0  0
 19  2  1  6  0  0  0
 19 24  1  0  0  0  0
 20 21  1  0  0  0  0
 20 26  1  1  0  0  0
 22 23  1  0  0  0  0
 22 28  1  1  0  0  0
 24 25  1  1  0  0  0
 24 30  1  0  0  0  0
 26 27  1  0  0  0  0
 28 29  1  0  0  0  0
 30 31  1  1  0  0  0
M  END
>  <CHROM.1>
-171.93117197,44.66081320,-149.65464918,-61.59312715,-65.47741732,103.49523361
21.32463738,8.52650985,6.40775776,1.71416609,0.29656328,-1.12506519

>  <Name>
2o3x_lig

>  <RI>
3.41138e+07

>  <Rbt.Current_Directory>
/home/itssahil/PROJECTS/Mol_Feturizer/New_Systems/rnas/2o3x

>  <Rbt.Executable>
rbdock ($Id: //depot/dev/client3/rdock/2013.1/src/exe/rbdock.cxx#4 $)

>  <Rbt.Library>
libRbt.so (2013.1, Build901 2013/11/27)

>  <Rbt.Parameter_File>
/export/apps/rDock/src/rDock_2013.1_src/data/scripts/dock_solv.prm

>  <Rbt.Receptor>
prm/pocket_docking_2.prm

>  <SCORE>
-17.7318

>  <SCORE.INTER>
-19.3682

>  <SCORE.INTER.CONST>
1

>  <SCORE.INTER.POLAR>
-1.55963

>  <SCORE.INTER.ROT>
6

>  <SCORE.INTER.SOLV>
16.9334

>  <SCORE.INTER.VDW>
-20.9578

>  <SCORE.INTER.norm>
-0.624781

>  <SCORE.INTRA>
1.61189

>  <SCORE.INTRA.DIHEDRAL>
1.88855

>  <SCORE.INTRA.DIHEDRAL.0>
9.37739

>  <SCORE.INTRA.POLAR>
0

>  <SCORE.INTRA.POLAR.0>
0

>  <SCORE.INTRA.REPUL>
0

>  <SCORE.INTRA.REPUL.0>
0

>  <SCORE.INTRA.SOLV>
0.590492

>  <SCORE.INTRA.SOLV.lig_0>
-82.9274

>  <SCORE.INTRA.VDW>
0.372365

>  <SCORE.INTRA.VDW.0>
-3.84922

>  <SCORE.INTRA.norm>
0.0519964

>  <SCORE.RESTR>
0.0244977

>  <SCORE.RESTR.CAVITY>
0.0244977

>  <SCORE.RESTR.norm>
0.00079025

>  <SCORE.SYSTEM>
0

>  <SCORE.SYSTEM.CONST>
0

>  <SCORE.SYSTEM.DIHEDRAL>
0

>  <SCORE.SYSTEM.SOLV>
0

>  <SCORE.SYSTEM.norm>
0

>  <SCORE.heavy>
31

>  <SCORE.norm>
-0.571994

>  <RMSD>
1.958

$$$$
2o3x_lig
 OpenBabel11021811463D
libRbt.so/2013.1/901 2013/11/27
 31 33  0  0  0  0  0  0  0  0999 V2000
   20.2207    9.1450    5.5702 C   0  0  2  0  0  0  0  0  0  0  0  0
   21.1312    8.1447    5.0949 O   0  0  0  0  0  0  0  0  0  0  0  0
   24.9170    6.5188    6.2448 C   0  0  2  0  0  0  0  0  0  0  0  0
   26.2520    6.3220    6.8519 N   0  0  0  0  0  0  0  0  0  0  0  0
   20.6430    6.7665    8.5782 C   0  0  1  0  0  0  0  0  0  0  0  0
   18.8225    8.8845    4.9254 C   0  0  2  0  0  0  0  0  0  0  0  0
   18.4113    7.4617    5.0371 N   0  0  0  0  0  0  0  0  0  0  0  0
   24.9120    7.6836    5.1995 C   0  0  0  0  0  0  0  0  0  0  0  0
   21.3296    5.5775    9.3270 C   0  0  2  0  0  0  0  0  0  0  0  0
   21.5073    4.3567    8.5573 O   0  0  0  0  0  0  0  0  0  0  0  0
   18.8040    9.2700    3.4342 C   0  0  1  0  0  0  0  0  0  0  0  0
   17.5239    9.0753    2.8884 O   0  0  0  0  0  0  0  0  0  0  0  0
   23.4657    7.7930    4.5923 C   0  0  2  0  0  0  0  0  0  0  0  0
   23.3810    8.8753    3.5662 N   0  0  0  0  0  0  0  0  0  0  0  0
   20.3832    5.4894   10.5126 C   0  0  2  0  0  0  0  0  0  0  0  0
   19.1488    4.7795   10.1520 O   0  0  0  0  0  0  0  0  0  0  0  0
   19.2371   10.7176    3.2737 C   0  0  2  0  0  0  0  0  0  0  0  0
   19.1990   11.0751    1.9297 O   0  0  0  0  0  0  0  0  0  0  0  0
   22.4262    8.0909    5.7102 C   0  0  2  0  0  0  0  0  0  0  0  0
   20.0914    6.9406   10.8755 C   0  0  2  0  0  0  0  0  0  0  0  0
   19.9390    7.5119    9.5790 O   0  0  0  0  0  0  0  0  0  0  0  0
   20.6727   10.9073    3.8398 C   0  0  2  0  0  0  0  0  0  0  0  0
   20.7021   10.5185    5.2301 O   0  0  0  0  0  0  0  0  0  0  0  0
   22.4263    7.0403    6.8383 C   0  0  2  0  0  0  0  0  0  0  0  0
   21.5831    7.6132    7.8988 O   0  0  0  0  0  0  0  0  0  0  0  0
   21.2324    7.6652   11.6670 C   0  0  0  0  0  0  0  0  0  0  0  0
   21.0977    9.0775   11.5367 N   0  0  0  0  0  0  0  0  0  0  0  0
   21.1549   12.3348    3.7265 C   0  0  0  0  0  0  0  0  0  0  0  0
   21.3035   12.7174    2.4076 O   0  0  0  0  0  0  0  0  0  0  0  0
   23.9079    6.8035    7.3718 C   0  0  1  0  0  0  0  0  0  0  0  0
   23.9709    5.6800    8.2633 O   0  0  0  0  0  0  0  0  0  0  0  0
  1  2  1  6  0  0  0
  1  6  1  0  0  0  0
  1 23  1  0  0  0  0
  3  4  1  1  0  0  0
  3  8  1  0  0  0  0
  3 30  1  0  0  0  0
  5  9  1  0  0  0  0
  5 21  1  0  0  0  0
  5 25  1  1  0  0  0
  6  7  1  6  0  0  0
  6 11  1  0  0  0  0
  8 13  1  0  0  0  0
  9 10  1  6  0  0  0
  9 15  1  0  0  0  0
 11 12  1  1  0  0  0
 11 17  1  0  0  0  0
 13 14  1  6  0  0  0
 13 19  1  0  0  0  0
 15 16  1  6  0  0  0
 15 20  1  0  0  0  0
 17 18  1  6  0  0  0
 17 22  1  0  0  0  0
 19  2  1  6  0  0  0
 19 24  1  0  0  0  0
 20 21  1  0  0  0  0
 20 26  1  6  0  0  0
 22 23  1  0  0  0  0
 22 28  1  1  0  0  0
 24 25  1  1  0  0  0
 24 30  1  0  0  0  0
 26 27  1  0  0  0  0
 28 29  1  0  0  0  0
 30 31  1  1  0  0  0
M  END
>  <CHROM.1>
-171.53306998,60.94446844,-140.93234193,159.06447145,-65.58217397,137.39033116
21.25445377,8.10169248,6.46018920,1.76089263,0.24579603,-1.01914856

>  <Name>
2o3x_lig

>  <RI>
0

>  <Rbt.Current_Directory>
/home/itssahil/PROJECTS/Mol_Feturizer/New_Systems/rnas/2o3x

>  <Rbt.Executable>
rbdock ($Id: //depot/dev/client3/rdock/2013.1/src/exe/rbdock.cxx#4 $)

>  <Rbt.Library>
libRbt.so (2013.1, Build901 2013/11/27)

>  <Rbt.Parameter_File>
/export/apps/rDock/src/rDock_2013.1_src/data/scripts/dock_solv.prm

>  <Rbt.Receptor>
prm/pocket_docking_3.prm

>  <SCORE>
-14.697

>  <SCORE.INTER>
-17.0573

>  <SCORE.INTER.CONST>
1

>  <SCORE.INTER.POLAR>
-1.5512

>  <SCORE.INTER.ROT>
6

>  <SCORE.INTER.SOLV>
18.5812

>  <SCORE.INTER.VDW>
-19.9946

>  <SCORE.INTER.norm>
-0.550236

>  <SCORE.INTRA>
2.31699

>  <SCORE.INTRA.DIHEDRAL>
3.65924

>  <SCORE.INTRA.DIHEDRAL.0>
9.37739

>  <SCORE.INTRA.POLAR>
0

>  <SCORE.INTRA.POLAR.0>
0

>  <SCORE.INTRA.REPUL>
0

>  <SCORE.INTRA.REPUL.0>
0

>  <SCORE.INTRA.SOLV>
0.325957

>  <SCORE.INTRA.SOLV.lig_0>
-82.9274

>  <SCORE.INTRA.VDW>
0.324392

>  <SCORE.INTRA.VDW.0>
-3.84922

>  <SCORE.INTRA.norm>
0.0747416

>  <SCORE.RESTR>
0.0432851

>  <SCORE.RESTR.CAVITY>
0.0432851

>  <SCORE.RESTR.norm>
0.00139629

>  <SCORE.SYSTEM>
0

>  <SCORE.SYSTEM.CONST>
0

>  <SCORE.SYSTEM.DIHEDRAL>
0

>  <SCORE.SYSTEM.SOLV>
0

>  <SCORE.SYSTEM.norm>
0

>  <SCORE.heavy>
31

>  <SCORE.norm>
-0.474098

>  <RMSD>
1.963

$$$$
2o3x_lig
 OpenBabel11021811463D
libRbt.so/2013.1/901 2013/11/27
 31 33  0  0  0  0  0  0  0  0999 V2000
   20.5934    9.5497    5.6182 C   0  0  2  0  0  0  0  0  0  0  0  0
   21.3492    8.3985    5.2197 O   0  0  0  0  0  0  0  0  0  0  0  0
   25.0515    6.5708    6.3380 C   0  0  2  0  0  0  0  0  0  0  0  0
   26.4276    6.3363    6.8290 N   0  0  0  0  0  0  0  0  0  0  0  0
   20.7648    8.2851    8.4050 C   0  0  1  0  0  0  0  0  0  0  0  0
   19.1226    9.3677    5.1264 C   0  0  2  0  0  0  0  0  0  0  0  0
   18.5800    8.0282    5.4686 N   0  0  0  0  0  0  0  0  0  0  0  0
   25.0315    7.4368    5.0345 C   0  0  0  0  0  0  0  0  0  0  0  0
   20.4668    6.7906    8.7571 C   0  0  2  0  0  0  0  0  0  0  0  0
   20.0199    5.9530    7.6557 O   0  0  0  0  0  0  0  0  0  0  0  0
   19.0064    9.5533    3.6016 C   0  0  1  0  0  0  0  0  0  0  0  0
   17.6684    9.4355    3.1891 O   0  0  0  0  0  0  0  0  0  0  0  0
   23.5361    7.6034    4.5780 C   0  0  2  0  0  0  0  0  0  0  0  0
   23.4310    8.4064    3.3228 N   0  0  0  0  0  0  0  0  0  0  0  0
   19.4602    7.0245    9.8711 C   0  0  2  0  0  0  0  0  0  0  0  0
   18.1338    7.3439    9.3268 O   0  0  0  0  0  0  0  0  0  0  0  0
   19.5687   10.9083    3.2060 C   0  0  2  0  0  0  0  0  0  0  0  0
   19.4440   11.0878    1.8320 O   0  0  0  0  0  0  0  0  0  0  0  0
   22.7031    8.3090    5.6859 C   0  0  2  0  0  0  0  0  0  0  0  0
   20.0263    8.2031   10.6545 C   0  0  2  0  0  0  0  0  0  0  0  0
   20.4754    9.0369    9.5899 O   0  0  0  0  0  0  0  0  0  0  0  0
   21.0623   11.0059    3.6273 C   0  0  2  0  0  0  0  0  0  0  0  0
   21.1795   10.8027    5.0520 O   0  0  0  0  0  0  0  0  0  0  0  0
   22.7428    7.5732    7.0400 C   0  0  2  0  0  0  0  0  0  0  0  0
   22.1258    8.5006    8.0008 O   0  0  0  0  0  0  0  0  0  0  0  0
   21.2114    7.8487   11.6153 C   0  0  0  0  0  0  0  0  0  0  0  0
   20.7639    6.9641   12.6386 N   0  0  0  0  0  0  0  0  0  0  0  0
   21.6755   12.3419    3.2773 C   0  0  0  0  0  0  0  0  0  0  0  0
   21.7004   12.5469    1.9115 O   0  0  0  0  0  0  0  0  0  0  0  0
   24.2483    7.2615    7.4548 C   0  0  1  0  0  0  0  0  0  0  0  0
   24.3086    6.3896    8.5938 O   0  0  0  0  0  0  0  0  0  0  0  0
  1  2  1  6  0  0  0
  1  6  1  0  0  0  0
  1 23  1  0  0  0  0
  3  4  1  1  0  0  0
  3  8  1  0  0  0  0
  3 30  1  0  0  0  0
  5  9  1  0  0  0  0
  5 21  1  0  0  0  0
  5 25  1  1  0  0  0
  6  7  1  6  0  0  0
  6 11  1  0  0  0  0
  8 13  1  0  0  0  0
  9 10  1  6  0  0  0
  9 15  1  0  0  0  0
 11 12  1  1  0  0  0
 11 17  1  0  0  0  0
 13 14  1  6  0  0  0
 13 19  1  0  0  0  0
 15 16  1  6  0  0  0
 15 20  1  0  0  0  0
 17 18  1  6  0  0  0
 17 22  1  0  0  0  0
 19  2  1  6  0  0  0
 19 24  1  0  0  0  0
 20 21  1  0  0  0  0
 20 26  1  1  0  0  0
 22 23  1  0  0  0  0
 22 28  1  1  0  0  0
 24 25  1  1  0  0  0
 24 30  1  0  0  0  0
 26 27  1  0  0  0  0
 28 29  1  0  0  0  0
 30 31  1  1  0  0  0
M  END
>  <CHROM.1>
-174.26265293,45.55310610,-146.43778944,-64.08324887,-63.60735438,101.41937055
21.32021906,8.56605969,6.38665085,1.69924574,0.28969416,-1.12510387

>  <Name>
2o3x_lig

>  <RI>
3.41138e+07

>  <Rbt.Current_Directory>
/home/itssahil/PROJECTS/Mol_Feturizer/New_Systems/rnas/2o3x

>  <Rbt.Executable>
rbdock ($Id: //depot/dev/client3/rdock/2013.1/src/exe/rbdock.cxx#4 $)

>  <Rbt.Library>
libRbt.so (2013.1, Build901 2013/11/27)

>  <Rbt.Parameter_File>
/export/apps/rDock/src/rDock_2013.1_src/data/scripts/dock_solv.prm

>  <Rbt.Receptor>
prm/pocket_docking_2.prm

>  <SCORE>
-17.8034

>  <SCORE.INTER>
-19.3817

>  <SCORE.INTER.CONST>
1

>  <SCORE.INTER.POLAR>
-1.57403

>  <SCORE.INTER.ROT>
6

>  <SCORE.INTER.SOLV>
16.8777

>  <SCORE.INTER.VDW>
-20.9003

>  <SCORE.INTER.norm>
-0.625215

>  <SCORE.INTRA>
1.52887

>  <SCORE.INTRA.DIHEDRAL>
1.89427

>  <SCORE.INTRA.DIHEDRAL.0>
9.37739

>  <SCORE.INTRA.POLAR>
0

>  <SCORE.INTRA.POLAR.0>
0

>  <SCORE.INTRA.REPUL>
0

>  <SCORE.INTRA.REPUL.0>
0

>  <SCORE.INTRA.SOLV>
0.692954

>  <SCORE.INTRA.SOLV.lig_0>
-82.9274

>  <SCORE.INTRA.VDW>
0.235261

>  <SCORE.INTRA.VDW.0>
-3.84922

>  <SCORE.INTRA.norm>
0.0493185

>  <SCORE.RESTR>
0.0493522

>  <SCORE.RESTR.CAVITY>
0.0493522

>  <SCORE.RESTR.norm>
0.00159201

>  <SCORE.SYSTEM>
0

>  <SCORE.SYSTEM.CONST>
0

>  <SCORE.SYSTEM.DIHEDRAL>
0

>  <SCORE.SYSTEM.SOLV>
0

>  <SCORE.SYSTEM.norm>
0

>  <SCORE.heavy>
31

>  <SCORE.norm>
-0.574304

>  <RMSD>
1.964

$$$$
2o3x_lig
 OpenBabel11021811463D
libRbt.so/2013.1/901 2013/11/27
 31 33  0  0  0  0  0  0  0  0999 V2000
   19.2868    9.3537    5.7732 C   0  0  2  0  0  0  0  0  0  0  0  0
   20.2245    8.2695    5.7491 O   0  0  0  0  0  0  0  0  0  0  0  0
   23.0212    6.6257    8.5374 C   0  0  2  0  0  0  0  0  0  0  0  0
   24.0344    6.4641    9.6036 N   0  0  0  0  0  0  0  0  0  0  0  0
   19.8918    9.1811    9.8736 C   0  0  1  0  0  0  0  0  0  0  0  0
   18.1314    9.0280    4.7745 C   0  0  2  0  0  0  0  0  0  0  0  0
   17.6057    7.6510    4.9571 N   0  0  0  0  0  0  0  0  0  0  0  0
   23.5933    7.3807    7.2916 C   0  0  0  0  0  0  0  0  0  0  0  0
   18.9990   10.4387   10.1336 C   0  0  2  0  0  0  0  0  0  0  0  0
   19.5760   11.7191    9.7568 O   0  0  0  0  0  0  0  0  0  0  0  0
   18.5882    9.1733    3.3106 C   0  0  1  0  0  0  0  0  0  0  0  0
   17.5202    8.9253    2.4319 O   0  0  0  0  0  0  0  0  0  0  0  0
   22.4567    7.4747    6.2091 C   0  0  2  0  0  0  0  0  0  0  0  0
   22.9302    8.1689    4.9741 N   0  0  0  0  0  0  0  0  0  0  0  0
   18.7500   10.2277   11.6177 C   0  0  2  0  0  0  0  0  0  0  0  0
   19.9040   10.6645   12.4147 O   0  0  0  0  0  0  0  0  0  0  0  0
   19.1511   10.5665    3.0853 C   0  0  2  0  0  0  0  0  0  0  0  0
   19.5433   10.7078    1.7579 O   0  0  0  0  0  0  0  0  0  0  0  0
   21.2311    8.2498    6.7713 C   0  0  2  0  0  0  0  0  0  0  0  0
   18.5284    8.7262   11.7568 C   0  0  2  0  0  0  0  0  0  0  0  0
   19.5374    8.2278   10.8828 O   0  0  0  0  0  0  0  0  0  0  0  0
   20.3608   10.8089    4.0317 C   0  0  2  0  0  0  0  0  0  0  0  0
   19.9443   10.6443    5.4044 O   0  0  0  0  0  0  0  0  0  0  0  0
   20.6562    7.6292    8.0600 C   0  0  2  0  0  0  0  0  0  0  0  0
   19.6928    8.6181    8.5676 O   0  0  0  0  0  0  0  0  0  0  0  0
   17.1138    8.2237   11.3097 C   0  0  0  0  0  0  0  0  0  0  0  0
   16.9917    6.8253   11.5533 N   0  0  0  0  0  0  0  0  0  0  0  0
   20.9549   12.1887    3.8687 C   0  0  0  0  0  0  0  0  0  0  0  0
   21.4799   12.3693    2.6040 O   0  0  0  0  0  0  0  0  0  0  0  0
   21.8180    7.3874    9.1219 C   0  0  1  0  0  0  0  0  0  0  0  0
   21.3546    6.6139   10.2391 O   0  0  0  0  0  0  0  0  0  0  0  0
  1  2  1  6  0  0  0
  1  6  1  0  0  0  0
  1 23  1  0  0  0  0
  3  4  1  1  0  0  0
  3  8  1  0  0  0  0
  3 30  1  0  0  0  0
  5  9  1  0  0  0  0
  5 21  1  0  0  0  0
  5 25  1  6  0  0  0
  6  7  1  6  0  0  0
  6 11  1  0  0  0  0
  8 13  1  0  0  0  0
  9 10  1  1  0  0  0
  9 15  1  0  0  0  0
 11 12  1  6  0  0  0
 11 17  1  0  0  0  0
 13 14  1  6  0  0  0
 13 19  1  0  0  0  0
 15 16  1  1  0  0  0
 15 20  1  0  0  0  0
 17 18  1  6  0  0  0
 17 22  1  0  0  0  0
 19  2  1  6  0  0  0
 19 24  1  0  0  0  0
 20 21  1  0  0  0  0
 20 26  1  6  0  0  0
 22 23  1  0  0  0  0
 22 28  1  1  0  0  0
 24 25  1  1  0  0  0
 24 30  1  0  0  0  0
 26 27  1  0  0  0  0
 28 29  1  0  0  0  0
 30 31  1  1  0  0  0
M  END
>  <CHROM.1>
-168.73480341,166.53916448,-153.73027838,-176.69483849,-63.61256093,-120.13088942
20.08391893,9.01830513,7.28757038,1.55718471,0.49073560,-1.33668126

>  <Name>
2o3x_lig

>  <RI>
0

>  <Rbt.Current_Directory>
/home/itssahil/PROJECTS/Mol_Feturizer/New_Systems/rnas/2o3x

>  <Rbt.Executable>
rbdock ($Id: //depot/dev/client3/rdock/2013.1/src/exe/rbdock.cxx#4 $)

>  <Rbt.Library>
libRbt.so (2013.1, Build901 2013/11/27)

>  <Rbt.Parameter_File>
/export/apps/rDock/src/rDock_2013.1_src/data/scripts/dock_solv.prm

>  <Rbt.Receptor>
prm/pocket_docking_4.prm

>  <SCORE>
-15.1657

>  <SCORE.INTER>
-18.2792

>  <SCORE.INTER.CONST>
1

>  <SCORE.INTER.POLAR>
-1.84032

>  <SCORE.INTER.ROT>
6

>  <SCORE.INTER.SOLV>
14.701

>  <SCORE.INTER.VDW>
-18.5521

>  <SCORE.INTER.norm>
-0.589652

>  <SCORE.INTRA>
3.10689

>  <SCORE.INTRA.DIHEDRAL>
2.40405

>  <SCORE.INTRA.DIHEDRAL.0>
9.37739

>  <SCORE.INTRA.POLAR>
0

>  <SCORE.INTRA.POLAR.0>
0

>  <SCORE.INTRA.REPUL>
0

>  <SCORE.INTRA.REPUL.0>
0

>  <SCORE.INTRA.SOLV>
-1.86596

>  <SCORE.INTRA.SOLV.lig_0>
-82.9274

>  <SCORE.INTRA.VDW>
2.83784

>  <SCORE.INTRA.VDW.0>
-3.84922

>  <SCORE.INTRA.norm>
0.100222

>  <SCORE.RESTR>
0.00659855

>  <SCORE.RESTR.CAVITY>
0.00659855

>  <SCORE.RESTR.norm>
0.000212856

>  <SCORE.SYSTEM>
0

>  <SCORE.SYSTEM.CONST>
0

>  <SCORE.SYSTEM.DIHEDRAL>
0

>  <SCORE.SYSTEM.SOLV>
0

>  <SCORE.SYSTEM.norm>
0

>  <SCORE.heavy>
31

>  <SCORE.norm>
-0.489217

>  <RMSD>
1.999

$$$$
2o3x_lig
 OpenBabel11021811463D
libRbt.so/2013.1/901 2013/11/27
 31 33  0  0  0  0  0  0  0  0999 V2000
   19.6101    9.5912    5.6525 C   0  0  2  0  0  0  0  0  0  0  0  0
   20.4616    8.4407    5.5702 O   0  0  0  0  0  0  0  0  0  0  0  0
   23.0852    6.5932    8.3989 C   0  0  2  0  0  0  0  0  0  0  0  0
   24.1226    6.3527    9.4262 N   0  0  0  0  0  0  0  0  0  0  0  0
   19.0667    9.0637    9.2064 C   0  0  1  0  0  0  0  0  0  0  0  0
   18.2611    9.2575    4.9402 C   0  0  2  0  0  0  0  0  0  0  0  0
   17.7066    7.9506    5.3763 N   0  0  0  0  0  0  0  0  0  0  0  0
   23.7002    7.0776    7.0437 C   0  0  0  0  0  0  0  0  0  0  0  0
   17.8152    8.4893    8.4647 C   0  0  2  0  0  0  0  0  0  0  0  0
   16.9358    9.4683    7.8460 O   0  0  0  0  0  0  0  0  0  0  0  0
   18.4216    9.2197    3.4087 C   0  0  1  0  0  0  0  0  0  0  0  0
   17.1865    8.9683    2.7876 O   0  0  0  0  0  0  0  0  0  0  0  0
   22.5279    7.2750    6.0146 C   0  0  2  0  0  0  0  0  0  0  0  0
   23.0356    7.7209    4.6824 N   0  0  0  0  0  0  0  0  0  0  0  0
   17.2247    7.6924    9.6159 C   0  0  2  0  0  0  0  0  0  0  0  0
   16.4931    8.5658   10.5430 O   0  0  0  0  0  0  0  0  0  0  0  0
   19.0048   10.5356    2.9219 C   0  0  2  0  0  0  0  0  0  0  0  0
   19.1293   10.5124    1.5364 O   0  0  0  0  0  0  0  0  0  0  0  0
   21.5165    8.3349    6.5369 C   0  0  2  0  0  0  0  0  0  0  0  0
   18.4313    7.0604   10.2998 C   0  0  2  0  0  0  0  0  0  0  0  0
   19.3514    8.1480   10.2710 O   0  0  0  0  0  0  0  0  0  0  0  0
   20.3917   10.7773    3.5821 C   0  0  2  0  0  0  0  0  0  0  0  0
   20.2512   10.7837    5.0191 O   0  0  0  0  0  0  0  0  0  0  0  0
   20.9276    7.9866    7.9182 C   0  0  2  0  0  0  0  0  0  0  0  0
   20.2098    9.1967    8.3475 O   0  0  0  0  0  0  0  0  0  0  0  0
   19.0284    5.8130    9.5642 C   0  0  0  0  0  0  0  0  0  0  0  0
   18.0108    4.8400    9.3462 N   0  0  0  0  0  0  0  0  0  0  0  0
   21.0171   12.0836    3.1515 C   0  0  0  0  0  0  0  0  0  0  0  0
   22.3362   12.1715    3.5519 O   0  0  0  0  0  0  0  0  0  0  0  0
   22.0948    7.6380    8.9438 C   0  0  1  0  0  0  0  0  0  0  0  0
   21.5734    7.0999   10.1685 O   0  0  0  0  0  0  0  0  0  0  0  0
  1  2  1  6  0  0  0
  1  6  1  0  0  0  0
  1 23  1  0  0  0  0
  3  4  1  1  0  0  0
  3  8  1  0  0  0  0
  3 30  1  0  0  0  0
  5  9  1  0  0  0  0
  5 21  1  0  0  0  0
  5 25  1  6  0  0  0
  6  7  1  1  0  0  0
  6 11  1  0  0  0  0
  8 13  1  0  0  0  0
  9 10  1  1  0  0  0
  9 15  1  0  0  0  0
 11 12  1  6  0  0  0
 11 17  1  0  0  0  0
 13 14  1  6  0  0  0
 13 19  1  0  0  0  0
 15 16  1  1  0  0  0
 15 20  1  0  0  0  0
 17 18  1  6  0  0  0
 17 22  1  0  0  0  0
 19  2  1  6  0  0  0
 19 24  1  0  0  0  0
 20 21  1  0  0  0  0
 20 26  1  6  0  0  0
 22 23  1  0  0  0  0
 22 28  1  6  0  0  0
 24 25  1  1  0  0  0
 24 30  1  0  0  0  0
 26 27  1  0  0  0  0
 28 29  1  0  0  0  0
 30 31  1  1  0  0  0
M  END
>  <CHROM.1>
-158.00345849,-72.76624053,-163.81281799,-54.42096551,-169.22706684,150.46306856
19.94225418,8.57507824,6.76660113,1.55031623,0.13750902,-1.09021425

>  <Name>
2o3x_lig

>  <RI>
3.41138e+07

>  <Rbt.Current_Directory>
/home/itssahil/PROJECTS/Mol_Feturizer/New_Systems/rnas/2o3x

>  <Rbt.Executable>
rbdock ($Id: //depot/dev/client3/rdock/2013.1/src/exe/rbdock.cxx#4 $)

>  <Rbt.Library>
libRbt.so (2013.1, Build901 2013/11/27)

>  <Rbt.Parameter_File>
/export/apps/rDock/src/rDock_2013.1_src/data/scripts/dock_solv.prm

>  <Rbt.Receptor>
prm/pocket_docking_2.prm

>  <SCORE>
-11.0241

>  <SCORE.INTER>
-12.8691

>  <SCORE.INTER.CONST>
1

>  <SCORE.INTER.POLAR>
-0.892218

>  <SCORE.INTER.ROT>
6

>  <SCORE.INTER.SOLV>
13.7238

>  <SCORE.INTER.VDW>
-17.78

>  <SCORE.INTER.norm>
-0.415132

>  <SCORE.INTRA>
0.602109

>  <SCORE.INTRA.DIHEDRAL>
-1.06828

>  <SCORE.INTRA.DIHEDRAL.0>
9.37739

>  <SCORE.INTRA.POLAR>
0

>  <SCORE.INTRA.POLAR.0>
0

>  <SCORE.INTRA.REPUL>
0

>  <SCORE.INTRA.REPUL.0>
0

>  <SCORE.INTRA.SOLV>
1.27262

>  <SCORE.INTRA.SOLV.lig_0>
-82.9274

>  <SCORE.INTRA.VDW>
0.499936

>  <SCORE.INTRA.VDW.0>
-3.84922

>  <SCORE.INTRA.norm>
0.0194229

>  <SCORE.RESTR>
1.24288

>  <SCORE.RESTR.CAVITY>
1.24288

>  <SCORE.RESTR.norm>
0.040093

>  <SCORE.SYSTEM>
0

>  <SCORE.SYSTEM.CONST>
0

>  <SCORE.SYSTEM.DIHEDRAL>
0

>  <SCORE.SYSTEM.SOLV>
0

>  <SCORE.SYSTEM.norm>
0

>  <SCORE.heavy>
31

>  <SCORE.norm>
-0.355616

>  <RMSD>
2.037

$$$$
2o3x_lig
 OpenBabel11021811463D
libRbt.so/2013.1/901 2013/11/27
 31 33  0  0  0  0  0  0  0  0999 V2000
   20.4253    9.4242    5.3961 C   0  0  2  0  0  0  0  0  0  0  0  0
   21.2130    8.3104    4.9551 O   0  0  0  0  0  0  0  0  0  0  0  0
   24.8401    6.3326    6.0642 C   0  0  2  0  0  0  0  0  0  0  0  0
   26.1485    6.0025    6.6713 N   0  0  0  0  0  0  0  0  0  0  0  0
   20.5259    6.8748    8.3235 C   0  0  1  0  0  0  0  0  0  0  0  0
   18.9862    9.2729    4.8090 C   0  0  2  0  0  0  0  0  0  0  0  0
   18.4376    7.9085    5.0173 N   0  0  0  0  0  0  0  0  0  0  0  0
   24.9414    7.5326    5.0645 C   0  0  0  0  0  0  0  0  0  0  0  0
   21.0110    5.5145    8.9238 C   0  0  2  0  0  0  0  0  0  0  0  0
   21.0038    4.3783    8.0163 O   0  0  0  0  0  0  0  0  0  0  0  0
   18.9545    9.5737    3.2986 C   0  0  1  0  0  0  0  0  0  0  0  0
   17.6430    9.4811    2.8029 O   0  0  0  0  0  0  0  0  0  0  0  0
   23.5148    7.7850    4.4534 C   0  0  2  0  0  0  0  0  0  0  0  0
   23.5295    8.9086    3.4693 N   0  0  0  0  0  0  0  0  0  0  0  0
   20.0506    5.4386   10.0989 C   0  0  2  0  0  0  0  0  0  0  0  0
   18.7242    4.9768    9.6686 O   0  0  0  0  0  0  0  0  0  0  0  0
   19.5257   10.9577    3.0396 C   0  0  2  0  0  0  0  0  0  0  0  0
   19.4769   11.2408    1.6783 O   0  0  0  0  0  0  0  0  0  0  0  0
   22.4933    8.1257    5.5757 C   0  0  2  0  0  0  0  0  0  0  0  0
   19.9852    6.8657   10.6299 C   0  0  2  0  0  0  0  0  0  0  0  0
   19.9368    7.6000    9.4097 O   0  0  0  0  0  0  0  0  0  0  0  0
   20.9921   11.0303    3.5514 C   0  0  2  0  0  0  0  0  0  0  0  0
   21.0307   10.7196    4.9610 O   0  0  0  0  0  0  0  0  0  0  0  0
   22.3959    7.0367    6.6624 C   0  0  2  0  0  0  0  0  0  0  0  0
   21.5933    7.6371    7.7390 O   0  0  0  0  0  0  0  0  0  0  0  0
   21.2173    7.3067   11.4907 C   0  0  0  0  0  0  0  0  0  0  0  0
   21.2283    8.7236   11.6395 N   0  0  0  0  0  0  0  0  0  0  0  0
   21.6117   12.3920    3.3392 C   0  0  0  0  0  0  0  0  0  0  0  0
   21.0226   13.3487    4.1426 O   0  0  0  0  0  0  0  0  0  0  0  0
   23.8478    6.6573    7.1952 C   0  0  1  0  0  0  0  0  0  0  0  0
   23.8092    5.4995    8.0432 O   0  0  0  0  0  0  0  0  0  0  0  0
  1  2  1  6  0  0  0
  1  6  1  0  0  0  0
  1 23  1  0  0  0  0
  3  4  1  1  0  0  0
  3  8  1  0  0  0  0
  3 30  1  0  0  0  0
  5  9  1  0  0  0  0
  5 21  1  0  0  0  0
  5 25  1  1  0  0  0
  6  7  1  6  0  0  0
  6 11  1  0  0  0  0
  8 13  1  0  0  0  0
  9 10  1  6  0  0  0
  9 15  1  0  0  0  0
 11 12  1  1  0  0  0
 11 17  1  0  0  0  0
 13 14  1  6  0  0  0
 13 19  1  0  0  0  0
 15 16  1  6  0  0  0
 15 20  1  0  0  0  0
 17 18  1  6  0  0  0
 17 22  1  0  0  0  0
 19  2  1  6  0  0  0
 19 24  1  0  0  0  0
 20 21  1  0  0  0  0
 20 26  1  6  0  0  0
 22 23  1  0  0  0  0
 22 28  1  1  0  0  0
 24 25  1  1  0  0  0
 24 30  1  0  0  0  0
 26 27  1  0  0  0  0
 28 29  1  0  0  0  0
 30 31  1  1  0  0  0
M  END
>  <CHROM.1>
-168.95176796,57.57412841,-136.48978519,164.95656060,68.20203416,133.59799322
21.26164366,8.17154833,6.31968885,1.72821370,0.30313676,-0.96253431

>  <Name>
2o3x_lig

>  <RI>
0

>  <Rbt.Current_Directory>
/home/itssahil/PROJECTS/Mol_Feturizer/New_Systems/rnas/2o3x

>  <Rbt.Executable>
rbdock ($Id: //depot/dev/client3/rdock/2013.1/src/exe/rbdock.cxx#4 $)

>  <Rbt.Library>
libRbt.so (2013.1, Build901 2013/11/27)

>  <Rbt.Parameter_File>
/export/apps/rDock/src/rDock_2013.1_src/data/scripts/dock_solv.prm

>  <Rbt.Receptor>
prm/pocket_docking_3.prm

>  <SCORE>
-14.017

>  <SCORE.INTER>
-16.6431

>  <SCORE.INTER.CONST>
1

>  <SCORE.INTER.POLAR>
-1.57044

>  <SCORE.INTER.ROT>
6

>  <SCORE.INTER.SOLV>
18.8948

>  <SCORE.INTER.VDW>
-19.7589

>  <SCORE.INTER.norm>
-0.536873

>  <SCORE.INTRA>
2.59047

>  <SCORE.INTRA.DIHEDRAL>
4.62232

>  <SCORE.INTRA.DIHEDRAL.0>
9.37739

>  <SCORE.INTRA.POLAR>
0

>  <SCORE.INTRA.POLAR.0>
0

>  <SCORE.INTRA.REPUL>
0

>  <SCORE.INTRA.REPUL.0>
0

>  <SCORE.INTRA.SOLV>
0.478519

>  <SCORE.INTRA.SOLV.lig_0>
-82.9274

>  <SCORE.INTRA.VDW>
0.0400468

>  <SCORE.INTRA.VDW.0>
-3.84922

>  <SCORE.INTRA.norm>
0.0835634

>  <SCORE.RESTR>
0.0355681

>  <SCORE.RESTR.CAVITY>
0.0355681

>  <SCORE.RESTR.norm>
0.00114736

>  <SCORE.SYSTEM>
0

>  <SCORE.SYSTEM.CONST>
0

>  <SCORE.SYSTEM.DIHEDRAL>
0

>  <SCORE.SYSTEM.SOLV>
0

>  <SCORE.SYSTEM.norm>
0

>  <SCORE.heavy>
31

>  <SCORE.norm>
-0.452163

>  <RMSD>
2.037

$$$$
2o3x_lig
 OpenBabel11021811463D
libRbt.so/2013.1/901 2013/11/27
 31 33  0  0  0  0  0  0  0  0999 V2000
   20.2189    9.8773    5.5486 C   0  0  2  0  0  0  0  0  0  0  0  0
   20.9779    8.6842    5.3119 O   0  0  0  0  0  0  0  0  0  0  0  0
   23.7598    6.5946    7.8003 C   0  0  2  0  0  0  0  0  0  0  0  0
   24.9000    6.2540    8.6797 N   0  0  0  0  0  0  0  0  0  0  0  0
   19.7950    9.6512    8.2981 C   0  0  1  0  0  0  0  0  0  0  0  0
   18.8295    9.7233    4.8527 C   0  0  2  0  0  0  0  0  0  0  0  0
   18.1893    8.4198    5.1638 N   0  0  0  0  0  0  0  0  0  0  0  0
   24.2255    6.9889    6.3592 C   0  0  0  0  0  0  0  0  0  0  0  0
   19.2369    8.6340    9.3468 C   0  0  2  0  0  0  0  0  0  0  0  0
   18.7739    7.3615    8.8169 O   0  0  0  0  0  0  0  0  0  0  0  0
   18.9448    9.8440    3.3214 C   0  0  1  0  0  0  0  0  0  0  0  0
   17.6777    9.7533    2.7209 O   0  0  0  0  0  0  0  0  0  0  0  0
   22.9477    7.3017    5.4979 C   0  0  2  0  0  0  0  0  0  0  0  0
   23.3069    7.6700    4.0956 N   0  0  0  0  0  0  0  0  0  0  0  0
   18.1762    9.5241    9.9725 C   0  0  2  0  0  0  0  0  0  0  0  0
   16.9738    9.5853    9.1310 O   0  0  0  0  0  0  0  0  0  0  0  0
   19.6129   11.1599    2.9599 C   0  0  2  0  0  0  0  0  0  0  0  0
   19.6974   11.2816    1.5765 O   0  0  0  0  0  0  0  0  0  0  0  0
   22.1414    8.4747    6.1248 C   0  0  2  0  0  0  0  0  0  0  0  0
   18.8397   10.8924   10.0755 C   0  0  2  0  0  0  0  0  0  0  0  0
   19.5128   10.9550    8.8212 O   0  0  0  0  0  0  0  0  0  0  0  0
   21.0316   11.2256    3.5928 C   0  0  2  0  0  0  0  0  0  0  0  0
   20.9313   11.0828    5.0261 O   0  0  0  0  0  0  0  0  0  0  0  0
   21.7198    8.2131    7.5843 C   0  0  2  0  0  0  0  0  0  0  0  0
   21.2055    9.5014    8.0739 O   0  0  0  0  0  0  0  0  0  0  0  0
   19.8577   11.0449   11.2561 C   0  0  0  0  0  0  0  0  0  0  0  0
   20.7292    9.9186   11.2993 N   0  0  0  0  0  0  0  0  0  0  0  0
   21.7426   12.5228    3.2846 C   0  0  0  0  0  0  0  0  0  0  0  0
   21.8927   12.7088    1.9241 O   0  0  0  0  0  0  0  0  0  0  0  0
   22.9757    7.7506    8.4471 C   0  0  1  0  0  0  0  0  0  0  0  0
   22.5779    7.2906    9.7476 O   0  0  0  0  0  0  0  0  0  0  0  0
  1  2  1  6  0  0  0
  1  6  1  0  0  0  0
  1 23  1  0  0  0  0
  3  4  1  1  0  0  0
  3  8  1  0  0  0  0
  3 30  1  0  0  0  0
  5  9  1  0  0  0  0
  5 21  1  0  0  0  0
  5 25  1  1  0  0  0
  6  7  1  6  0  0  0
  6 11  1  0  0  0  0
  8 13  1  0  0  0  0
  9 10  1  6  0  0  0
  9 15  1  0  0  0  0
 11 12  1  6  0  0  0
 11 17  1  0  0  0  0
 13 14  1  6  0  0  0
 13 19  1  0  0  0  0
 15 16  1  6  0  0  0
 15 20  1  0  0  0  0
 17 18  1  6  0  0  0
 17 22  1  0  0  0  0
 19  2  1  6  0  0  0
 19 24  1  0  0  0  0
 20 21  1  0  0  0  0
 20 26  1  1  0  0  0
 22 23  1  0  0  0  0
 22 28  1  1  0  0  0
 24 25  1  1  0  0  0
 24 30  1  0  0  0  0
 26 27  1  0  0  0  0
 28 29  1  0  0  0  0
 30 31  1  1  0  0  0
M  END
>  <CHROM.1>
-165.06662958,59.37463800,-168.39564121,46.53092431,-59.45185384,108.76660800
20.66354515,9.37723919,6.57935017,1.66328225,0.52997662,-1.29492516

>  <Name>
2o3x_lig

>  <RI>
0

>  <Rbt.Current_Directory>
/home/itssahil/PROJECTS/Mol_Feturizer/New_Systems/rnas/2o3x

>  <Rbt.Executable>
rbdock ($Id: //depot/dev/client3/rdock/2013.1/src/exe/rbdock.cxx#4 $)

>  <Rbt.Library>
libRbt.so (2013.1, Build901 2013/11/27)

>  <Rbt.Parameter_File>
/export/apps/rDock/src/rDock_2013.1_src/data/scripts/dock_solv.prm

>  <Rbt.Receptor>
prm/pocket_docking_4.prm

>  <SCORE>
-16.8904

>  <SCORE.INTER>
-20.2977

>  <SCORE.INTER.CONST>
1

>  <SCORE.INTER.POLAR>
-1.97025

>  <SCORE.INTER.ROT>
6

>  <SCORE.INTER.SOLV>
19.6951

>  <SCORE.INTER.VDW>
-21.1293

>  <SCORE.INTER.norm>
-0.654766

>  <SCORE.INTRA>
3.40738

>  <SCORE.INTRA.DIHEDRAL>
-0.290176

>  <SCORE.INTRA.DIHEDRAL.0>
9.37739

>  <SCORE.INTRA.POLAR>
0

>  <SCORE.INTRA.POLAR.0>
0

>  <SCORE.INTRA.REPUL>
0

>  <SCORE.INTRA.REPUL.0>
0

>  <SCORE.INTRA.SOLV>
2.81878

>  <SCORE.INTRA.SOLV.lig_0>
-82.9274

>  <SCORE.INTRA.VDW>
2.14308

>  <SCORE.INTRA.VDW.0>
-3.84922

>  <SCORE.INTRA.norm>
0.109915

>  <SCORE.RESTR>
0

>  <SCORE.RESTR.CAVITY>
0

>  <SCORE.RESTR.norm>
0

>  <SCORE.SYSTEM>
0

>  <SCORE.SYSTEM.CONST>
0

>  <SCORE.SYSTEM.DIHEDRAL>
0

>  <SCORE.SYSTEM.SOLV>
0

>  <SCORE.SYSTEM.norm>
0

>  <SCORE.heavy>
31

>  <SCORE.norm>
-0.54485

>  <RMSD>
2.157

$$$$
2o3x_lig
 OpenBabel11021811463D
libRbt.so/2013.1/901 2013/11/27
 31 33  0  0  0  0  0  0  0  0999 V2000
   20.2118    9.7732    5.4372 C   0  0  2  0  0  0  0  0  0  0  0  0
   21.0768    8.6621    5.1674 O   0  0  0  0  0  0  0  0  0  0  0  0
   23.7745    6.6645    7.8188 C   0  0  2  0  0  0  0  0  0  0  0  0
   24.8805    6.3582    8.7528 N   0  0  0  0  0  0  0  0  0  0  0  0
   19.8361    9.6007    8.4216 C   0  0  1  0  0  0  0  0  0  0  0  0
   18.8186    9.4798    4.7960 C   0  0  2  0  0  0  0  0  0  0  0  0
   18.3252    8.1189    5.1283 N   0  0  0  0  0  0  0  0  0  0  0  0
   24.2960    7.0307    6.3893 C   0  0  0  0  0  0  0  0  0  0  0  0
   19.6791    8.8850    9.8034 C   0  0  2  0  0  0  0  0  0  0  0  0
   19.3473    7.4701    9.7545 O   0  0  0  0  0  0  0  0  0  0  0  0
   18.8608    9.6097    3.2617 C   0  0  1  0  0  0  0  0  0  0  0  0
   17.5865    9.3917    2.7112 O   0  0  0  0  0  0  0  0  0  0  0  0
   23.0521    7.3080    5.4683 C   0  0  2  0  0  0  0  0  0  0  0  0
   23.4658    7.6479    4.0738 N   0  0  0  0  0  0  0  0  0  0  0  0
   18.6250    9.7992   10.4052 C   0  0  2  0  0  0  0  0  0  0  0  0
   17.2883    9.4769    9.8884 O   0  0  0  0  0  0  0  0  0  0  0  0
   19.3787   10.9857    2.8780 C   0  0  2  0  0  0  0  0  0  0  0  0
   19.3960   11.1137    1.4927 O   0  0  0  0  0  0  0  0  0  0  0  0
   22.2073    8.4856    6.0330 C   0  0  2  0  0  0  0  0  0  0  0  0
   19.0499   11.2005    9.9820 C   0  0  2  0  0  0  0  0  0  0  0  0
   19.4419   10.9619    8.6330 O   0  0  0  0  0  0  0  0  0  0  0  0
   20.8074   11.1942    3.4548 C   0  0  2  0  0  0  0  0  0  0  0  0
   20.7785   11.0437    4.8906 O   0  0  0  0  0  0  0  0  0  0  0  0
   21.7277    8.2530    7.4794 C   0  0  2  0  0  0  0  0  0  0  0  0
   21.1792    9.5460    7.9163 O   0  0  0  0  0  0  0  0  0  0  0  0
   20.2384   11.8058   10.8032 C   0  0  0  0  0  0  0  0  0  0  0  0
   19.8585   11.9683   12.1667 N   0  0  0  0  0  0  0  0  0  0  0  0
   21.3720   12.5559    3.1226 C   0  0  0  0  0  0  0  0  0  0  0  0
   21.5516   12.7130    1.7621 O   0  0  0  0  0  0  0  0  0  0  0  0
   22.9513    7.8258    8.4046 C   0  0  1  0  0  0  0  0  0  0  0  0
   22.5043    7.3915    9.6979 O   0  0  0  0  0  0  0  0  0  0  0  0
  1  2  1  6  0  0  0
  1  6  1  0  0  0  0
  1 23  1  0  0  0  0
  3  4  1  1  0  0  0
  3  8  1  0  0  0  0
  3 30  1  0  0  0  0
  5  9  1  0  0  0  0
  5 21  1  0  0  0  0
  5 25  1  1  0  0  0
  6  7  1  6  0  0  0
  6 11  1  0  0  0  0
  8 13  1  0  0  0  0
  9 10  1  6  0  0  0
  9 15  1  0  0  0  0
 11 12  1  1  0  0  0
 11 17  1  0  0  0  0
 13 14  1  6  0  0  0
 13 19  1  0  0  0  0
 15 16  1  6  0  0  0
 15 20  1  0  0  0  0
 17 18  1  6  0  0  0
 17 22  1  0  0  0  0
 19  2  1  6  0  0  0
 19 24  1  0  0  0  0
 20 21  1  0  0  0  0
 20 26  1  1  0  0  0
 22 23  1  0  0  0  0
 22 28  1  1  0  0  0
 24 25  1  1  0  0  0
 24 30  1  0  0  0  0
 26 27  1  0  0  0  0
 28 29  1  0  0  0  0
 30 31  1  1  0  0  0
M  END
>  <CHROM.1>
-158.17145478,68.82151912,-175.03258332,-63.51313776,-64.39562653,125.36193985
20.66679896,9.45220113,6.62310387,1.65045228,0.64929800,-1.40706080

>  <Name>
2o3x_lig

>  <RI>
0

>  <Rbt.Current_Directory>
/home/itssahil/PROJECTS/Mol_Feturizer/New_Systems/rnas/2o3x

>  <Rbt.Executable>
rbdock ($Id: //depot/dev/client3/rdock/2013.1/src/exe/rbdock.cxx#4 $)

>  <Rbt.Library>
libRbt.so (2013.1, Build901 2013/11/27)

>  <Rbt.Parameter_File>
/export/apps/rDock/src/rDock_2013.1_src/data/scripts/dock_solv.prm

>  <Rbt.Receptor>
prm/pocket_docking_4.prm

>  <SCORE>
-18.1376

>  <SCORE.INTER>
-19.1738

>  <SCORE.INTER.CONST>
1

>  <SCORE.INTER.POLAR>
-1.16739

>  <SCORE.INTER.ROT>
6

>  <SCORE.INTER.SOLV>
18.4016

>  <SCORE.INTER.VDW>
-22.6251

>  <SCORE.INTER.norm>
-0.61851

>  <SCORE.INTRA>
0.969476

>  <SCORE.INTRA.DIHEDRAL>
0.576092

>  <SCORE.INTRA.DIHEDRAL.0>
9.37739

>  <SCORE.INTRA.POLAR>
0

>  <SCORE.INTRA.POLAR.0>
0

>  <SCORE.INTRA.REPUL>
0

>  <SCORE.INTRA.REPUL.0>
0

>  <SCORE.INTRA.SOLV>
-1.52348

>  <SCORE.INTRA.SOLV.lig_0>
-82.9274

>  <SCORE.INTRA.VDW>
1.44317

>  <SCORE.INTRA.VDW.0>
-3.84922

>  <SCORE.INTRA.norm>
0.0312734

>  <SCORE.RESTR>
0.0666803

>  <SCORE.RESTR.CAVITY>
0.0666803

>  <SCORE.RESTR.norm>
0.00215098

>  <SCORE.SYSTEM>
0

>  <SCORE.SYSTEM.CONST>
0

>  <SCORE.SYSTEM.DIHEDRAL>
0

>  <SCORE.SYSTEM.SOLV>
0

>  <SCORE.SYSTEM.norm>
0

>  <SCORE.heavy>
31

>  <SCORE.norm>
-0.585085

>  <RMSD>
2.158

$$$$
2o3x_lig
 OpenBabel11021811463D
libRbt.so/2013.1/901 2013/11/27
 31 33  0  0  0  0  0  0  0  0999 V2000
   20.1569    9.7697    5.3643 C   0  0  2  0  0  0  0  0  0  0  0  0
   21.0288    8.6596    5.1136 O   0  0  0  0  0  0  0  0  0  0  0  0
   23.6815    6.6908    7.8311 C   0  0  2  0  0  0  0  0  0  0  0  0
   24.7737    6.3939    8.7843 N   0  0  0  0  0  0  0  0  0  0  0  0
   19.7815    9.6430    8.4163 C   0  0  1  0  0  0  0  0  0  0  0  0
   18.7549    9.4411    4.7603 C   0  0  2  0  0  0  0  0  0  0  0  0
   18.2832    8.0866    5.1459 N   0  0  0  0  0  0  0  0  0  0  0  0
   24.2235    7.0321    6.4031 C   0  0  0  0  0  0  0  0  0  0  0  0
   19.6808    8.9046    9.7914 C   0  0  2  0  0  0  0  0  0  0  0  0
   19.3344    7.4936    9.7335 O   0  0  0  0  0  0  0  0  0  0  0  0
   18.7662    9.5216    3.2221 C   0  0  1  0  0  0  0  0  0  0  0  0
   17.4840    9.2724    2.7040 O   0  0  0  0  0  0  0  0  0  0  0  0
   22.9932    7.3009    5.4616 C   0  0  2  0  0  0  0  0  0  0  0  0
   23.4268    7.6169    4.0676 N   0  0  0  0  0  0  0  0  0  0  0  0
   18.6635    9.8168   10.4560 C   0  0  2  0  0  0  0  0  0  0  0  0
   17.3019    9.5147    9.9952 O   0  0  0  0  0  0  0  0  0  0  0  0
   19.2612   10.8897    2.7841 C   0  0  2  0  0  0  0  0  0  0  0  0
   19.2505   10.9729    1.3954 O   0  0  0  0  0  0  0  0  0  0  0  0
   22.1470    8.4912    5.9966 C   0  0  2  0  0  0  0  0  0  0  0  0
   19.0814   11.2217   10.0380 C   0  0  2  0  0  0  0  0  0  0  0  0
   19.4096   11.0035    8.6686 O   0  0  0  0  0  0  0  0  0  0  0  0
   20.6985   11.1318    3.3259 C   0  0  2  0  0  0  0  0  0  0  0  0
   20.6988   11.0276    4.7660 O   0  0  0  0  0  0  0  0  0  0  0  0
   21.6473    8.2836    7.4401 C   0  0  2  0  0  0  0  0  0  0  0  0
   21.0996    9.5860    7.8495 O   0  0  0  0  0  0  0  0  0  0  0  0
   20.3114   11.8028   10.8143 C   0  0  0  0  0  0  0  0  0  0  0  0
   19.9752   12.0029   12.1843 N   0  0  0  0  0  0  0  0  0  0  0  0
   21.2413   12.4878    2.9389 C   0  0  0  0  0  0  0  0  0  0  0  0
   22.5771   12.6128    3.2679 O   0  0  0  0  0  0  0  0  0  0  0  0
   22.8566    7.8651    8.3879 C   0  0  1  0  0  0  0  0  0  0  0  0
   22.3905    7.4533    9.6818 O   0  0  0  0  0  0  0  0  0  0  0  0
  1  2  1  6  0  0  0
  1  6  1  0  0  0  0
  1 23  1  0  0  0  0
  3  4  1  1  0  0  0
  3  8  1  0  0  0  0
  3 30  1  0  0  0  0
  5  9  1  0  0  0  0
  5 21  1  0  0  0  0
  5 25  1  1  0  0  0
  6  7  1  6  0  0  0
  6 11  1  0  0  0  0
  8 13  1  0  0  0  0
  9 10  1  6  0  0  0
  9 15  1  0  0  0  0
 11 12  1  1  0  0  0
 11 17  1  0  0  0  0
 13 14  1  6  0  0  0
 13 19  1  0  0  0  0
 15 16  1  6  0  0  0
 15 20  1  0  0  0  0
 17 18  1  6  0  0  0
 17 22  1  0  0  0  0
 19  2  1  6  0  0  0
 19 24  1  0  0  0  0
 20 21  1  0  0  0  0
 20 26  1  1  0  0  0
 22 23  1  0  0  0  0
 22 28  1  1  0  0  0
 24 25  1  1  0  0  0
 24 30  1  0  0  0  0
 26 27  1  0  0  0  0
 28 29  1  0  0  0  0
 30 31  1  1  0  0  0
M  END
>  <CHROM.1>
-155.65279988,65.19241001,-175.75853102,-66.20607795,-171.70638608,129.32670434
20.65186378,9.44111036,6.65491151,1.63600565,0.62938669,-1.44086069

>  <Name>
2o3x_lig

>  <RI>
0

>  <Rbt.Current_Directory>
/home/itssahil/PROJECTS/Mol_Feturizer/New_Systems/rnas/2o3x

>  <Rbt.Executable>
rbdock ($Id: //depot/dev/client3/rdock/2013.1/src/exe/rbdock.cxx#4 $)

>  <Rbt.Library>
libRbt.so (2013.1, Build901 2013/11/27)

>  <Rbt.Parameter_File>
/export/apps/rDock/src/rDock_2013.1_src/data/scripts/dock_solv.prm

>  <Rbt.Receptor>
prm/pocket_docking_4.prm

>  <SCORE>
-18.2656

>  <SCORE.INTER>
-19.0913

>  <SCORE.INTER.CONST>
1

>  <SCORE.INTER.POLAR>
-1.19741

>  <SCORE.INTER.ROT>
6

>  <SCORE.INTER.SOLV>
19.0201

>  <SCORE.INTER.VDW>
-22.6762

>  <SCORE.INTER.norm>
-0.61585

>  <SCORE.INTRA>
0.739191

>  <SCORE.INTRA.DIHEDRAL>
0.739585

>  <SCORE.INTRA.DIHEDRAL.0>
9.37739

>  <SCORE.INTRA.POLAR>
0

>  <SCORE.INTRA.POLAR.0>
0

>  <SCORE.INTRA.REPUL>
0

>  <SCORE.INTRA.REPUL.0>
0

>  <SCORE.INTRA.SOLV>
-1.85855

>  <SCORE.INTRA.SOLV.lig_0>
-82.9274

>  <SCORE.INTRA.VDW>
1.29867

>  <SCORE.INTRA.VDW.0>
-3.84922

>  <SCORE.INTRA.norm>
0.0238449

>  <SCORE.RESTR>
0.0865582

>  <SCORE.RESTR.CAVITY>
0.0865582

>  <SCORE.RESTR.norm>
0.0027922

>  <SCORE.SYSTEM>
0

>  <SCORE.SYSTEM.CONST>
0

>  <SCORE.SYSTEM.DIHEDRAL>
0

>  <SCORE.SYSTEM.SOLV>
0

>  <SCORE.SYSTEM.norm>
0

>  <SCORE.heavy>
31

>  <SCORE.norm>
-0.589213

>  <RMSD>
2.161

$$$$
2o3x_lig
 OpenBabel11021811463D
libRbt.so/2013.1/901 2013/11/27
 31 33  0  0  0  0  0  0  0  0999 V2000
   20.1613    9.8149    5.4108 C   0  0  2  0  0  0  0  0  0  0  0  0
   21.0215    8.6974    5.1523 O   0  0  0  0  0  0  0  0  0  0  0  0
   23.6968    6.6991    7.8256 C   0  0  2  0  0  0  0  0  0  0  0  0
   24.7963    6.3919    8.7671 N   0  0  0  0  0  0  0  0  0  0  0  0
   19.7316    9.6716    8.2902 C   0  0  1  0  0  0  0  0  0  0  0  0
   18.7754    9.5332    4.7486 C   0  0  2  0  0  0  0  0  0  0  0  0
   18.2666    8.1759    5.0717 N   0  0  0  0  0  0  0  0  0  0  0  0
   24.2279    7.0590    6.3981 C   0  0  0  0  0  0  0  0  0  0  0  0
   19.3855    8.7308    9.4907 C   0  0  2  0  0  0  0  0  0  0  0  0
   18.9580    7.3850    9.1435 O   0  0  0  0  0  0  0  0  0  0  0  0
   18.8414    9.6647    3.2152 C   0  0  1  0  0  0  0  0  0  0  0  0
   17.5737    9.4573    2.6457 O   0  0  0  0  0  0  0  0  0  0  0  0
   22.9903    7.3376    5.4690 C   0  0  2  0  0  0  0  0  0  0  0  0
   23.4133    7.6716    4.0759 N   0  0  0  0  0  0  0  0  0  0  0  0
   18.3460    9.6100   10.1656 C   0  0  2  0  0  0  0  0  0  0  0  0
   17.0477    9.5107    9.4856 O   0  0  0  0  0  0  0  0  0  0  0  0
   19.3756   11.0370    2.8411 C   0  0  2  0  0  0  0  0  0  0  0  0
   19.4145   11.1666    1.4564 O   0  0  0  0  0  0  0  0  0  0  0  0
   22.1463    8.5198    6.0250 C   0  0  2  0  0  0  0  0  0  0  0  0
   18.9120   11.0210   10.0565 C   0  0  2  0  0  0  0  0  0  0  0  0
   19.4184   11.0005    8.7248 O   0  0  0  0  0  0  0  0  0  0  0  0
   20.7973   11.2336    3.4393 C   0  0  2  0  0  0  0  0  0  0  0  0
   20.7459   11.0816    4.8743 O   0  0  0  0  0  0  0  0  0  0  0  0
   21.6574    8.2934    7.4693 C   0  0  2  0  0  0  0  0  0  0  0  0
   21.1108    9.5897    7.8990 O   0  0  0  0  0  0  0  0  0  0  0  0
   20.0535   11.3547   11.0758 C   0  0  0  0  0  0  0  0  0  0  0  0
   19.6045   11.1197   12.4074 N   0  0  0  0  0  0  0  0  0  0  0  0
   21.3773   12.5913    3.1173 C   0  0  0  0  0  0  0  0  0  0  0  0
   21.6280   12.7288    1.7659 O   0  0  0  0  0  0  0  0  0  0  0  0
   22.8742    7.8650    8.4030 C   0  0  1  0  0  0  0  0  0  0  0  0
   22.4181    7.4363    9.6951 O   0  0  0  0  0  0  0  0  0  0  0  0
  1  2  1  6  0  0  0
  1  6  1  0  0  0  0
  1 23  1  0  0  0  0
  3  4  1  1  0  0  0
  3  8  1  0  0  0  0
  3 30  1  0  0  0  0
  5  9  1  0  0  0  0
  5 21  1  0  0  0  0
  5 25  1  1  0  0  0
  6  7  1  6  0  0  0
  6 11  1  0  0  0  0
  8 13  1  0  0  0  0
  9 10  1  6  0  0  0
  9 15  1  0  0  0  0
 11 12  1  6  0  0  0
 11 17  1  0  0  0  0
 13 14  1  6  0  0  0
 13 19  1  0  0  0  0
 15 16  1  6  0  0  0
 15 20  1  0  0  0  0
 17 18  1  6  0  0  0
 17 22  1  0  0  0  0
 19  2  1  6  0  0  0
 19 24  1  0  0  0  0
 20 21  1  0  0  0  0
 20 26  1  1  0  0  0
 22 23  1  0  0  0  0
 22 28  1  1  0  0  0
 24 25  1  1  0  0  0
 24 30  1  0  0  0  0
 26 27  1  0  0  0  0
 28 29  1  0  0  0  0
 30 31  1  1  0  0  0
M  END
>  <CHROM.1>
-158.86507355,59.21143711,-174.82572340,-55.59786455,-66.79882546,120.19097323
20.57692376,9.42582056,6.57586420,1.62378541,0.58509541,-1.36484347

>  <Name>
2o3x_lig

>  <RI>
0

>  <Rbt.Current_Directory>
/home/itssahil/PROJECTS/Mol_Feturizer/New_Systems/rnas/2o3x

>  <Rbt.Executable>
rbdock ($Id: //depot/dev/client3/rdock/2013.1/src/exe/rbdock.cxx#4 $)

>  <Rbt.Library>
libRbt.so (2013.1, Build901 2013/11/27)

>  <Rbt.Parameter_File>
/export/apps/rDock/src/rDock_2013.1_src/data/scripts/dock_solv.prm

>  <Rbt.Receptor>
prm/pocket_docking_4.prm

>  <SCORE>
-17.5002

>  <SCORE.INTER>
-18.7689

>  <SCORE.INTER.CONST>
1

>  <SCORE.INTER.POLAR>
-1.21661

>  <SCORE.INTER.ROT>
6

>  <SCORE.INTER.SOLV>
17.9744

>  <SCORE.INTER.VDW>
-22.0487

>  <SCORE.INTER.norm>
-0.605449

>  <SCORE.INTRA>
1.26873

>  <SCORE.INTRA.DIHEDRAL>
0.337246

>  <SCORE.INTRA.DIHEDRAL.0>
9.37739

>  <SCORE.INTRA.POLAR>
0

>  <SCORE.INTRA.POLAR.0>
0

>  <SCORE.INTRA.REPUL>
0

>  <SCORE.INTRA.REPUL.0>
0

>  <SCORE.INTRA.SOLV>
-1.31189

>  <SCORE.INTRA.SOLV.lig_0>
-82.9274

>  <SCORE.INTRA.VDW>
1.75605

>  <SCORE.INTRA.VDW.0>
-3.84922

>  <SCORE.INTRA.norm>
0.0409267

>  <SCORE.RESTR>
0

>  <SCORE.RESTR.CAVITY>
0

>  <SCORE.RESTR.norm>
0

>  <SCORE.SYSTEM>
0

>  <SCORE.SYSTEM.CONST>
0

>  <SCORE.SYSTEM.DIHEDRAL>
0

>  <SCORE.SYSTEM.SOLV>
0

>  <SCORE.SYSTEM.norm>
0

>  <SCORE.heavy>
31

>  <SCORE.norm>
-0.564522

>  <RMSD>
2.167

$$$$
2o3x_lig
 OpenBabel11021811463D
libRbt.so/2013.1/901 2013/11/27
 31 33  0  0  0  0  0  0  0  0999 V2000
   20.1182    9.8169    5.7687 C   0  0  2  0  0  0  0  0  0  0  0  0
   20.7364    8.5283    5.6553 O   0  0  0  0  0  0  0  0  0  0  0  0
   23.7378    6.4811    7.9133 C   0  0  2  0  0  0  0  0  0  0  0  0
   24.9573    6.1539    8.6848 N   0  0  0  0  0  0  0  0  0  0  0  0
   19.8322    9.6650    8.4821 C   0  0  1  0  0  0  0  0  0  0  0  0
   18.6941    9.7376    5.1330 C   0  0  2  0  0  0  0  0  0  0  0  0
   17.9319    8.5571    5.6135 N   0  0  0  0  0  0  0  0  0  0  0  0
   24.0611    6.8328    6.4229 C   0  0  0  0  0  0  0  0  0  0  0  0
   19.1214    8.6560    9.4428 C   0  0  2  0  0  0  0  0  0  0  0  0
   18.6093    7.4422    8.8272 O   0  0  0  0  0  0  0  0  0  0  0  0
   18.7615    9.6676    3.5956 C   0  0  1  0  0  0  0  0  0  0  0  0
   17.4694    9.6484    3.0439 O   0  0  0  0  0  0  0  0  0  0  0  0
   22.7063    7.1338    5.6838 C   0  0  2  0  0  0  0  0  0  0  0  0
   22.9273    7.4615    4.2433 N   0  0  0  0  0  0  0  0  0  0  0  0
   18.0831    9.6010   10.0240 C   0  0  2  0  0  0  0  0  0  0  0  0
   16.9574    9.7836    9.0981 O   0  0  0  0  0  0  0  0  0  0  0  0
   19.5509   10.8516    3.0629 C   0  0  2  0  0  0  0  0  0  0  0  0
   19.5935   10.8030    1.6731 O   0  0  0  0  0  0  0  0  0  0  0  0
   21.9732    8.3302    6.3549 C   0  0  2  0  0  0  0  0  0  0  0  0
   18.8347   10.9104   10.2332 C   0  0  2  0  0  0  0  0  0  0  0  0
   19.6060   10.9667    9.0364 O   0  0  0  0  0  0  0  0  0  0  0  0
   20.9922   10.8333    3.6457 C   0  0  2  0  0  0  0  0  0  0  0  0
   20.9336   10.8685    5.0880 O   0  0  0  0  0  0  0  0  0  0  0  0
   21.6964    8.1112    7.8555 C   0  0  2  0  0  0  0  0  0  0  0  0
   21.2411    9.4166    8.3580 O   0  0  0  0  0  0  0  0  0  0  0  0
   19.7663   10.9426   11.4920 C   0  0  0  0  0  0  0  0  0  0  0  0
   20.6750    9.8458   11.4564 N   0  0  0  0  0  0  0  0  0  0  0  0
   21.8243   12.0002    3.1669 C   0  0  0  0  0  0  0  0  0  0  0  0
   23.1430   11.8785    3.5596 O   0  0  0  0  0  0  0  0  0  0  0  0
   23.0287    7.6608    8.6024 C   0  0  1  0  0  0  0  0  0  0  0  0
   22.7586    7.2391    9.9479 O   0  0  0  0  0  0  0  0  0  0  0  0
  1  2  1  6  0  0  0
  1  6  1  0  0  0  0
  1 23  1  0  0  0  0
  3  4  1  1  0  0  0
  3  8  1  0  0  0  0
  3 30  1  0  0  0  0
  5  9  1  0  0  0  0
  5 21  1  0  0  0  0
  5 25  1  1  0  0  0
  6  7  1  1  0  0  0
  6 11  1  0  0  0  0
  8 13  1  0  0  0  0
  9 10  1  6  0  0  0
  9 15  1  0  0  0  0
 11 12  1  6  0  0  0
 11 17  1  0  0  0  0
 13 14  1  6  0  0  0
 13 19  1  0  0  0  0
 15 16  1  6  0  0  0
 15 20  1  0  0  0  0
 17 18  1  6  0  0  0
 17 22  1  0  0  0  0
 19  2  1  6  0  0  0
 19 24  1  0  0  0  0
 20 21  1  0  0  0  0
 20 26  1  1  0  0  0
 22 23  1  0  0  0  0
 22 28  1  6  0  0  0
 24 25  1  1  0  0  0
 24 30  1  0  0  0  0
 26 27  1  0  0  0  0
 28 29  1  0  0  0  0
 30 31  1  1  0  0  0
M  END
>  <CHROM.1>
-170.96282779,59.35445569,-158.82767945,54.48021632,-172.54635852,97.37299379
20.63539383,9.24370642,6.79351273,1.65235505,0.49038483,-1.35882560

>  <Name>
2o3x_lig

>  <RI>
0

>  <Rbt.Current_Directory>
/home/itssahil/PROJECTS/Mol_Feturizer/New_Systems/rnas/2o3x

>  <Rbt.Executable>
rbdock ($Id: //depot/dev/client3/rdock/2013.1/src/exe/rbdock.cxx#4 $)

>  <Rbt.Library>
libRbt.so (2013.1, Build901 2013/11/27)

>  <Rbt.Parameter_File>
/export/apps/rDock/src/rDock_2013.1_src/data/scripts/dock_solv.prm

>  <Rbt.Receptor>
prm/pocket_docking_4.prm

>  <SCORE>
-17.0714

>  <SCORE.INTER>
-19.8069

>  <SCORE.INTER.CONST>
1

>  <SCORE.INTER.POLAR>
-2.15774

>  <SCORE.INTER.ROT>
6

>  <SCORE.INTER.SOLV>
19.6346

>  <SCORE.INTER.VDW>
-20.157

>  <SCORE.INTER.norm>
-0.638933

>  <SCORE.INTRA>
2.73551

>  <SCORE.INTRA.DIHEDRAL>
-1.5562

>  <SCORE.INTRA.DIHEDRAL.0>
9.37739

>  <SCORE.INTRA.POLAR>
0

>  <SCORE.INTRA.POLAR.0>
0

>  <SCORE.INTRA.REPUL>
0

>  <SCORE.INTRA.REPUL.0>
0

>  <SCORE.INTRA.SOLV>
3.61405

>  <SCORE.INTRA.SOLV.lig_0>
-82.9274

>  <SCORE.INTRA.VDW>
1.70659

>  <SCORE.INTRA.VDW.0>
-3.84922

>  <SCORE.INTRA.norm>
0.0882424

>  <SCORE.RESTR>
0

>  <SCORE.RESTR.CAVITY>
0

>  <SCORE.RESTR.norm>
0

>  <SCORE.SYSTEM>
0

>  <SCORE.SYSTEM.CONST>
0

>  <SCORE.SYSTEM.DIHEDRAL>
0

>  <SCORE.SYSTEM.SOLV>
0

>  <SCORE.SYSTEM.norm>
0

>  <SCORE.heavy>
31

>  <SCORE.norm>
-0.550691

>  <RMSD>
2.168

$$$$
2o3x_lig
 OpenBabel11021811463D
libRbt.so/2013.1/901 2013/11/27
 31 33  0  0  0  0  0  0  0  0999 V2000
   20.5427    9.3140    5.8616 C   0  0  2  0  0  0  0  0  0  0  0  0
   21.3053    8.1338    5.5769 O   0  0  0  0  0  0  0  0  0  0  0  0
   25.2680    6.6313    6.1578 C   0  0  2  0  0  0  0  0  0  0  0  0
   26.6765    6.4684    6.5808 N   0  0  0  0  0  0  0  0  0  0  0  0
   22.5271    7.0332    9.5711 C   0  0  1  0  0  0  0  0  0  0  0  0
   19.1059    9.1241    5.2803 C   0  0  2  0  0  0  0  0  0  0  0  0
   18.5199    7.8117    5.6545 N   0  0  0  0  0  0  0  0  0  0  0  0
   25.0833    7.8391    5.1798 C   0  0  0  0  0  0  0  0  0  0  0  0
   21.4789    7.3740   10.6807 C   0  0  2  0  0  0  0  0  0  0  0  0
   21.6540    8.6517   11.3524 O   0  0  0  0  0  0  0  0  0  0  0  0
   19.0964    9.2293    3.7435 C   0  0  1  0  0  0  0  0  0  0  0  0
   17.7877    9.1062    3.2470 O   0  0  0  0  0  0  0  0  0  0  0  0
   23.5678    7.9097    4.7665 C   0  0  2  0  0  0  0  0  0  0  0  0
   23.3098    9.0308    3.8137 N   0  0  0  0  0  0  0  0  0  0  0  0
   21.6602    6.1350   11.5414 C   0  0  2  0  0  0  0  0  0  0  0  0
   22.8550    6.2498   12.3883 O   0  0  0  0  0  0  0  0  0  0  0  0
   19.7059   10.5541    3.3168 C   0  0  2  0  0  0  0  0  0  0  0  0
   19.6775   10.6613    1.9299 O   0  0  0  0  0  0  0  0  0  0  0  0
   22.6696    8.1115    6.0202 C   0  0  2  0  0  0  0  0  0  0  0  0
   21.8087    4.9947   10.5410 C   0  0  2  0  0  0  0  0  0  0  0  0
   22.6499    5.6057    9.5666 O   0  0  0  0  0  0  0  0  0  0  0  0
   21.1688   10.6556    3.8338 C   0  0  2  0  0  0  0  0  0  0  0  0
   21.1859   10.5275    5.2719 O   0  0  0  0  0  0  0  0  0  0  0  0
   22.8556    7.0138    7.0863 C   0  0  2  0  0  0  0  0  0  0  0  0
   22.1338    7.5013    8.2717 O   0  0  0  0  0  0  0  0  0  0  0  0
   20.4695    4.5110    9.8883 C   0  0  0  0  0  0  0  0  0  0  0  0
   20.6234    3.1899    9.3776 N   0  0  0  0  0  0  0  0  0  0  0  0
   21.8257   11.9632    3.4569 C   0  0  0  0  0  0  0  0  0  0  0  0
   21.1339   13.0445    3.9667 O   0  0  0  0  0  0  0  0  0  0  0  0
   24.4016    6.8208    7.4159 C   0  0  1  0  0  0  0  0  0  0  0  0
   24.6224    5.6635    8.2362 O   0  0  0  0  0  0  0  0  0  0  0  0
  1  2  1  6  0  0  0
  1  6  1  0  0  0  0
  1 23  1  0  0  0  0
  3  4  1  1  0  0  0
  3  8  1  0  0  0  0
  3 30  1  0  0  0  0
  5  9  1  0  0  0  0
  5 21  1  0  0  0  0
  5 25  1  6  0  0  0
  6  7  1  6  0  0  0
  6 11  1  0  0  0  0
  8 13  1  0  0  0  0
  9 10  1  1  0  0  0
  9 15  1  0  0  0  0
 11 12  1  1  0  0  0
 11 17  1  0  0  0  0
 13 14  1  6  0  0  0
 13 19  1  0  0  0  0
 15 16  1  6  0  0  0
 15 20  1  0  0  0  0
 17 18  1  6  0  0  0
 17 22  1  0  0  0  0
 19  2  1  6  0  0  0
 19 24  1  0  0  0  0
 20 21  1  0  0  0  0
 20 26  1  6  0  0  0
 22 23  1  0  0  0  0
 22 28  1  1  0  0  0
 24 25  1  1  0  0  0
 24 30  1  0  0  0  0
 26 27  1  0  0  0  0
 28 29  1  0  0  0  0
 30 31  1  1  0  0  0
M  END
>  <CHROM.1>
179.42011711,-166.85504275,-120.93623979,-158.93513753,59.35130270,-154.90025176
21.83502177,7.98952777,6.76778652,1.83799420,0.17209386,-1.00277433

>  <Name>
2o3x_lig

>  <RI>
0

>  <Rbt.Current_Directory>
/home/itssahil/PROJECTS/Mol_Feturizer/New_Systems/rnas/2o3x

>  <Rbt.Executable>
rbdock ($Id: //depot/dev/client3/rdock/2013.1/src/exe/rbdock.cxx#4 $)

>  <Rbt.Library>
libRbt.so (2013.1, Build901 2013/11/27)

>  <Rbt.Parameter_File>
/export/apps/rDock/src/rDock_2013.1_src/data/scripts/dock_solv.prm

>  <Rbt.Receptor>
prm/blind_docking_60.prm

>  <SCORE>
-4.99572

>  <SCORE.INTER>
-17.3529

>  <SCORE.INTER.CONST>
1

>  <SCORE.INTER.POLAR>
-1.14018

>  <SCORE.INTER.ROT>
6

>  <SCORE.INTER.SOLV>
17.7843

>  <SCORE.INTER.VDW>
-21.2961

>  <SCORE.INTER.norm>
-0.55977

>  <SCORE.INTRA>
4.92093

>  <SCORE.INTRA.DIHEDRAL>
2.76603

>  <SCORE.INTRA.DIHEDRAL.0>
9.37739

>  <SCORE.INTRA.POLAR>
0

>  <SCORE.INTRA.POLAR.0>
0

>  <SCORE.INTRA.REPUL>
0

>  <SCORE.INTRA.REPUL.0>
0

>  <SCORE.INTRA.SOLV>
0.570143

>  <SCORE.INTRA.SOLV.lig_0>
-82.9274

>  <SCORE.INTRA.VDW>
3.25284

>  <SCORE.INTRA.VDW.0>
-3.84922

>  <SCORE.INTRA.norm>
0.15874

>  <SCORE.RESTR>
7.43623

>  <SCORE.RESTR.CAVITY>
7.43623

>  <SCORE.RESTR.norm>
0.239878

>  <SCORE.SYSTEM>
0

>  <SCORE.SYSTEM.CONST>
0

>  <SCORE.SYSTEM.DIHEDRAL>
0

>  <SCORE.SYSTEM.SOLV>
0

>  <SCORE.SYSTEM.norm>
0

>  <SCORE.heavy>
31

>  <SCORE.norm>
-0.161152

>  <RMSD>
2.192

$$$$
2o3x_lig
 OpenBabel11021811463D
libRbt.so/2013.1/901 2013/11/27
 31 33  0  0  0  0  0  0  0  0999 V2000
   20.9943    9.6373    6.5842 C   0  0  2  0  0  0  0  0  0  0  0  0
   21.3632    8.2532    6.5233 O   0  0  0  0  0  0  0  0  0  0  0  0
   24.7933    5.8142    7.2873 C   0  0  2  0  0  0  0  0  0  0  0  0
   26.0972    5.3103    7.7727 N   0  0  0  0  0  0  0  0  0  0  0  0
   22.0751    6.9310   10.5705 C   0  0  1  0  0  0  0  0  0  0  0  0
   19.5071    9.7711    6.1276 C   0  0  2  0  0  0  0  0  0  0  0  0
   18.6237    8.7867    6.8030 N   0  0  0  0  0  0  0  0  0  0  0  0
   24.9583    7.0121    6.2937 C   0  0  0  0  0  0  0  0  0  0  0  0
   23.1902    7.6634   11.3869 C   0  0  2  0  0  0  0  0  0  0  0  0
   24.5369    7.1343   11.2434 O   0  0  0  0  0  0  0  0  0  0  0  0
   19.3604    9.5778    4.6064 C   0  0  1  0  0  0  0  0  0  0  0  0
   18.0232    9.7528    4.2119 O   0  0  0  0  0  0  0  0  0  0  0  0
   23.5275    7.4537    5.8141 C   0  0  2  0  0  0  0  0  0  0  0  0
   23.5987    8.5864    4.8431 N   0  0  0  0  0  0  0  0  0  0  0  0
   22.5668    7.5416   12.7673 C   0  0  2  0  0  0  0  0  0  0  0  0
   22.7878    6.2033   13.3310 O   0  0  0  0  0  0  0  0  0  0  0  0
   20.2640   10.5569    3.8759 C   0  0  2  0  0  0  0  0  0  0  0  0
   20.1161   10.3999    2.5015 O   0  0  0  0  0  0  0  0  0  0  0  0
   22.6589    7.8968    7.0259 C   0  0  2  0  0  0  0  0  0  0  0  0
   21.0820    7.7985   12.5386 C   0  0  2  0  0  0  0  0  0  0  0  0
   20.8700    7.0689   11.3331 O   0  0  0  0  0  0  0  0  0  0  0  0
   21.7446   10.3203    4.2876 C   0  0  2  0  0  0  0  0  0  0  0  0
   21.8814   10.4710    5.7171 O   0  0  0  0  0  0  0  0  0  0  0  0
   22.5193    6.8067    8.1069 C   0  0  2  0  0  0  0  0  0  0  0  0
   21.8960    7.4810    9.2561 O   0  0  0  0  0  0  0  0  0  0  0  0
   20.6945    9.3041   12.3477 C   0  0  0  0  0  0  0  0  0  0  0  0
   19.2770    9.4477   12.3421 N   0  0  0  0  0  0  0  0  0  0  0  0
   22.6941   11.2789    3.6071 C   0  0  0  0  0  0  0  0  0  0  0  0
   22.7702   11.0396    2.2489 O   0  0  0  0  0  0  0  0  0  0  0  0
   23.9522    6.2376    8.5050 C   0  0  1  0  0  0  0  0  0  0  0  0
   23.8413    5.0767    9.3423 O   0  0  0  0  0  0  0  0  0  0  0  0
  1  2  1  6  0  0  0
  1  6  1  0  0  0  0
  1 23  1  0  0  0  0
  3  4  1  1  0  0  0
  3  8  1  0  0  0  0
  3 30  1  0  0  0  0
  5  9  1  0  0  0  0
  5 21  1  0  0  0  0
  5 25  1  6  0  0  0
  6  7  1  1  0  0  0
  6 11  1  0  0  0  0
  8 13  1  0  0  0  0
  9 10  1  1  0  0  0
  9 15  1  0  0  0  0
 11 12  1  6  0  0  0
 11 17  1  0  0  0  0
 13 14  1  6  0  0  0
 13 19  1  0  0  0  0
 15 16  1  6  0  0  0
 15 20  1  0  0  0  0
 17 18  1  6  0  0  0
 17 22  1  0  0  0  0
 19  2  1  6  0  0  0
 19 24  1  0  0  0  0
 20 21  1  0  0  0  0
 20 26  1  6  0  0  0
 22 23  1  0  0  0  0
 22 28  1  6  0  0  0
 24 25  1  1  0  0  0
 24 30  1  0  0  0  0
 26 27  1  0  0  0  0
 28 29  1  0  0  0  0
 30 31  1  1  0  0  0
M  END
>  <CHROM.1>
-174.22837760,99.41885215,-111.71820299,-171.37455513,-67.98104442,-156.61731437
21.99935841,8.28267303,7.70631249,1.79367372,0.52357347,-1.29456887

>  <Name>
2o3x_lig

>  <RI>
0

>  <Rbt.Current_Directory>
/home/itssahil/PROJECTS/Mol_Feturizer/New_Systems/rnas/2o3x

>  <Rbt.Executable>
rbdock ($Id: //depot/dev/client3/rdock/2013.1/src/exe/rbdock.cxx#4 $)

>  <Rbt.Library>
libRbt.so (2013.1, Build901 2013/11/27)

>  <Rbt.Parameter_File>
/export/apps/rDock/src/rDock_2013.1_src/data/scripts/dock_solv.prm

>  <Rbt.Receptor>
prm/blind_docking_40.prm

>  <SCORE>
0.150064

>  <SCORE.INTER>
-12.2262

>  <SCORE.INTER.CONST>
1

>  <SCORE.INTER.POLAR>
-0.281491

>  <SCORE.INTER.ROT>
6

>  <SCORE.INTER.SOLV>
17.4225

>  <SCORE.INTER.VDW>
-20.62

>  <SCORE.INTER.norm>
-0.394394

>  <SCORE.INTRA>
6.24469

>  <SCORE.INTRA.DIHEDRAL>
5.87396

>  <SCORE.INTRA.DIHEDRAL.0>
9.37739

>  <SCORE.INTRA.POLAR>
0

>  <SCORE.INTRA.POLAR.0>
0

>  <SCORE.INTRA.REPUL>
0

>  <SCORE.INTRA.REPUL.0>
0

>  <SCORE.INTRA.SOLV>
1.85497

>  <SCORE.INTRA.SOLV.lig_0>
-82.9274

>  <SCORE.INTRA.VDW>
2.38022

>  <SCORE.INTRA.VDW.0>
-3.84922

>  <SCORE.INTRA.norm>
0.201441

>  <SCORE.RESTR>
6.13158

>  <SCORE.RESTR.CAVITY>
6.13158

>  <SCORE.RESTR.norm>
0.197793

>  <SCORE.SYSTEM>
0

>  <SCORE.SYSTEM.CONST>
0

>  <SCORE.SYSTEM.DIHEDRAL>
0

>  <SCORE.SYSTEM.SOLV>
0

>  <SCORE.SYSTEM.norm>
0

>  <SCORE.heavy>
31

>  <SCORE.norm>
0.00484077

>  <RMSD>
2.286

$$$$
2o3x_lig
 OpenBabel11021811463D
libRbt.so/2013.1/901 2013/11/27
 31 33  0  0  0  0  0  0  0  0999 V2000
   20.2974    9.6025    5.9824 C   0  0  2  0  0  0  0  0  0  0  0  0
   20.9772    8.3572    5.7761 O   0  0  0  0  0  0  0  0  0  0  0  0
   24.7904    6.5889    6.5703 C   0  0  2  0  0  0  0  0  0  0  0  0
   26.1685    6.3419    7.0490 N   0  0  0  0  0  0  0  0  0  0  0  0
   20.9350    6.9668    9.4221 C   0  0  1  0  0  0  0  0  0  0  0  0
   18.8334    9.4571    5.4592 C   0  0  2  0  0  0  0  0  0  0  0  0
   18.1815    8.2192    5.9576 N   0  0  0  0  0  0  0  0  0  0  0  0
   24.7305    7.7511    5.5239 C   0  0  0  0  0  0  0  0  0  0  0  0
   21.8073    5.8177   10.0262 C   0  0  2  0  0  0  0  0  0  0  0  0
   21.8434    4.5781    9.2669 O   0  0  0  0  0  0  0  0  0  0  0  0
   18.7797    9.4370    3.9198 C   0  0  1  0  0  0  0  0  0  0  0  0
   17.4504    9.3569    3.4719 O   0  0  0  0  0  0  0  0  0  0  0  0
   23.2383    7.9151    5.0561 C   0  0  2  0  0  0  0  0  0  0  0  0
   23.0977    8.9980    4.0369 N   0  0  0  0  0  0  0  0  0  0  0  0
   21.1547    5.7445   11.3965 C   0  0  2  0  0  0  0  0  0  0  0  0
   19.8924    4.9953   11.3415 O   0  0  0  0  0  0  0  0  0  0  0  0
   19.4541   10.6815    3.3674 C   0  0  2  0  0  0  0  0  0  0  0  0
   19.3866   10.6770    1.9777 O   0  0  0  0  0  0  0  0  0  0  0  0
   22.3218    8.2547    6.2660 C   0  0  2  0  0  0  0  0  0  0  0  0
   20.9092    7.1991   11.7795 C   0  0  2  0  0  0  0  0  0  0  0  0
   20.4524    7.7263   10.5370 O   0  0  0  0  0  0  0  0  0  0  0  0
   20.9367   10.7322    3.8332 C   0  0  2  0  0  0  0  0  0  0  0  0
   20.9933   10.7208    5.2760 O   0  0  0  0  0  0  0  0  0  0  0  0
   22.3890    7.2068    7.3946 C   0  0  2  0  0  0  0  0  0  0  0  0
   21.6728    7.8135    8.5272 O   0  0  0  0  0  0  0  0  0  0  0  0
   22.1770    7.9741   12.2750 C   0  0  0  0  0  0  0  0  0  0  0  0
   22.6636    7.3951   13.4824 N   0  0  0  0  0  0  0  0  0  0  0  0
   21.6590   11.9606    3.3305 C   0  0  0  0  0  0  0  0  0  0  0  0
   23.0235   11.8606    3.5205 O   0  0  0  0  0  0  0  0  0  0  0  0
   23.9045    6.9141    7.7864 C   0  0  1  0  0  0  0  0  0  0  0  0
   24.0091    5.7906    8.6740 O   0  0  0  0  0  0  0  0  0  0  0  0
  1  2  1  6  0  0  0
  1  6  1  0  0  0  0
  1 23  1  0  0  0  0
  3  4  1  1  0  0  0
  3  8  1  0  0  0  0
  3 30  1  0  0  0  0
  5  9  1  0  0  0  0
  5 21  1  0  0  0  0
  5 25  1  6  0  0  0
  6  7  1  1  0  0  0
  6 11  1  0  0  0  0
  8 13  1  0  0  0  0
  9 10  1  6  0  0  0
  9 15  1  0  0  0  0
 11 12  1  1  0  0  0
 11 17  1  0  0  0  0
 13 14  1  6  0  0  0
 13 19  1  0  0  0  0
 15 16  1  6  0  0  0
 15 20  1  0  0  0  0
 17 18  1  6  0  0  0
 17 22  1  0  0  0  0
 19  2  1  6  0  0  0
 19 24  1  0  0  0  0
 20 21  1  0  0  0  0
 20 26  1  6  0  0  0
 22 23  1  0  0  0  0
 22 28  1  1  0  0  0
 24 25  1  1  0  0  0
 24 30  1  0  0  0  0
 26 27  1  0  0  0  0
 28 29  1  0  0  0  0
 30 31  1  1  0  0  0
M  END
>  <CHROM.1>
-176.33244836,54.67022406,-121.49153979,-63.90947741,-167.89544618,147.00968414
21.53086319,8.16761879,7.03287023,1.77125602,0.21015028,-1.10140109

>  <Name>
2o3x_lig

>  <RI>
224

>  <Rbt.Current_Directory>
/home/itssahil/PROJECTS/Mol_Feturizer/New_Systems/rnas/2o3x

>  <Rbt.Executable>
rbdock ($Id: //depot/dev/client3/rdock/2013.1/src/exe/rbdock.cxx#4 $)

>  <Rbt.Library>
libRbt.so (2013.1, Build901 2013/11/27)

>  <Rbt.Parameter_File>
/export/apps/rDock/src/rDock_2013.1_src/data/scripts/dock_solv.prm

>  <Rbt.Receptor>
prm/blind_docking_100.prm

>  <SCORE>
-10.496

>  <SCORE.INTER>
-17.0701

>  <SCORE.INTER.CONST>
1

>  <SCORE.INTER.POLAR>
-0.894427

>  <SCORE.INTER.ROT>
6

>  <SCORE.INTER.SOLV>
18.2292

>  <SCORE.INTER.VDW>
-22.0751

>  <SCORE.INTER.norm>
-0.55065

>  <SCORE.INTRA>
4.24052

>  <SCORE.INTRA.DIHEDRAL>
2.84699

>  <SCORE.INTRA.DIHEDRAL.0>
9.37739

>  <SCORE.INTRA.POLAR>
0

>  <SCORE.INTRA.POLAR.0>
0

>  <SCORE.INTRA.REPUL>
0

>  <SCORE.INTRA.REPUL.0>
0

>  <SCORE.INTRA.SOLV>
1.83249

>  <SCORE.INTRA.SOLV.lig_0>
-82.9274

>  <SCORE.INTRA.VDW>
1.90078

>  <SCORE.INTRA.VDW.0>
-3.84922

>  <SCORE.INTRA.norm>
0.136791

>  <SCORE.RESTR>
2.33364

>  <SCORE.RESTR.CAVITY>
2.33364

>  <SCORE.RESTR.norm>
0.0752788

>  <SCORE.SYSTEM>
0

>  <SCORE.SYSTEM.CONST>
0

>  <SCORE.SYSTEM.DIHEDRAL>
0

>  <SCORE.SYSTEM.SOLV>
0

>  <SCORE.SYSTEM.norm>
0

>  <SCORE.heavy>
31

>  <SCORE.norm>
-0.33858

>  <RMSD>
2.289

$$$$
2o3x_lig
 OpenBabel11021811463D
libRbt.so/2013.1/901 2013/11/27
 31 33  0  0  0  0  0  0  0  0999 V2000
   20.5117    9.4499    5.8450 C   0  0  2  0  0  0  0  0  0  0  0  0
   21.2949    8.3369    5.3940 O   0  0  0  0  0  0  0  0  0  0  0  0
   25.0686    6.5595    6.3414 C   0  0  2  0  0  0  0  0  0  0  0  0
   26.4511    6.3322    6.8173 N   0  0  0  0  0  0  0  0  0  0  0  0
   21.1163    7.5167    9.0523 C   0  0  1  0  0  0  0  0  0  0  0  0
   19.0349    9.2306    5.3875 C   0  0  2  0  0  0  0  0  0  0  0  0
   18.5476    7.8643    5.7059 N   0  0  0  0  0  0  0  0  0  0  0  0
   25.0169    7.5622    5.1409 C   0  0  0  0  0  0  0  0  0  0  0  0
   21.5940    6.0983    9.5060 C   0  0  2  0  0  0  0  0  0  0  0  0
   21.1981    4.9891    8.6531 O   0  0  0  0  0  0  0  0  0  0  0  0
   18.8706    9.4540    3.8723 C   0  0  1  0  0  0  0  0  0  0  0  0
   17.5265    9.3014    3.4923 O   0  0  0  0  0  0  0  0  0  0  0  0
   23.5180    7.7131    4.6906 C   0  0  2  0  0  0  0  0  0  0  0  0
   23.3839    8.6443    3.5303 N   0  0  0  0  0  0  0  0  0  0  0  0
   21.0074    6.1074   10.9076 C   0  0  2  0  0  0  0  0  0  0  0  0
   19.5697    5.8074   10.8810 O   0  0  0  0  0  0  0  0  0  0  0  0
   19.3756   10.8380    3.5006 C   0  0  2  0  0  0  0  0  0  0  0  0
   19.2070   11.0509    2.1360 O   0  0  0  0  0  0  0  0  0  0  0  0
   22.6490    8.2554    5.8610 C   0  0  2  0  0  0  0  0  0  0  0  0
   21.2599    7.5216   11.4169 C   0  0  2  0  0  0  0  0  0  0  0  0
   20.9490    8.2815   10.2523 O   0  0  0  0  0  0  0  0  0  0  0  0
   20.8760   10.9757    3.8846 C   0  0  2  0  0  0  0  0  0  0  0  0
   21.0392   10.7376    5.2994 O   0  0  0  0  0  0  0  0  0  0  0  0
   22.7142    7.3773    7.1263 C   0  0  2  0  0  0  0  0  0  0  0  0
   22.0520    8.1653    8.1771 O   0  0  0  0  0  0  0  0  0  0  0  0
   22.7285    7.8025   11.8833 C   0  0  0  0  0  0  0  0  0  0  0  0
   23.0114    7.0743   13.0748 N   0  0  0  0  0  0  0  0  0  0  0  0
   21.4338   12.3412    3.5565 C   0  0  0  0  0  0  0  0  0  0  0  0
   21.4825   12.5555    2.1928 O   0  0  0  0  0  0  0  0  0  0  0  0
   24.2299    7.0873    7.5193 C   0  0  1  0  0  0  0  0  0  0  0  0
   24.3229    6.0986    8.5561 O   0  0  0  0  0  0  0  0  0  0  0  0
  1  2  1  6  0  0  0
  1  6  1  0  0  0  0
  1 23  1  0  0  0  0
  3  4  1  1  0  0  0
  3  8  1  0  0  0  0
  3 30  1  0  0  0  0
  5  9  1  0  0  0  0
  5 21  1  0  0  0  0
  5 25  1  6  0  0  0
  6  7  1  6  0  0  0
  6 11  1  0  0  0  0
  8 13  1  0  0  0  0
  9 10  1  6  0  0  0
  9 15  1  0  0  0  0
 11 12  1  1  0  0  0
 11 17  1  0  0  0  0
 13 14  1  6  0  0  0
 13 19  1  0  0  0  0
 15 16  1  6  0  0  0
 15 20  1  0  0  0  0
 17 18  1  6  0  0  0
 17 22  1  0  0  0  0
 19  2  1  6  0  0  0
 19 24  1  0  0  0  0
 20 21  1  0  0  0  0
 20 26  1  6  0  0  0
 22 23  1  0  0  0  0
 22 28  1  1  0  0  0
 24 25  1  1  0  0  0
 24 30  1  0  0  0  0
 26 27  1  0  0  0  0
 28 29  1  0  0  0  0
 30 31  1  1  0  0  0
M  END
>  <CHROM.1>
-172.03268731,41.33165263,-142.70508683,-68.89865005,-66.93064668,135.60799382
21.61402408,8.30976463,6.75079704,1.83643621,0.26503183,-1.11994640

>  <Name>
2o3x_lig

>  <RI>
0

>  <Rbt.Current_Directory>
/home/itssahil/PROJECTS/Mol_Feturizer/New_Systems/rnas/2o3x

>  <Rbt.Executable>
rbdock ($Id: //depot/dev/client3/rdock/2013.1/src/exe/rbdock.cxx#4 $)

>  <Rbt.Library>
libRbt.so (2013.1, Build901 2013/11/27)

>  <Rbt.Parameter_File>
/export/apps/rDock/src/rDock_2013.1_src/data/scripts/dock_solv.prm

>  <Rbt.Receptor>
prm/pocket_docking_4.prm

>  <SCORE>
-18.0227

>  <SCORE.INTER>
-20.3175

>  <SCORE.INTER.CONST>
1

>  <SCORE.INTER.POLAR>
-1.62954

>  <SCORE.INTER.ROT>
6

>  <SCORE.INTER.SOLV>
20.072

>  <SCORE.INTER.VDW>
-22.4038

>  <SCORE.INTER.norm>
-0.655402

>  <SCORE.INTRA>
2.29479

>  <SCORE.INTRA.DIHEDRAL>
4.09212

>  <SCORE.INTRA.DIHEDRAL.0>
9.37739

>  <SCORE.INTRA.POLAR>
0

>  <SCORE.INTRA.POLAR.0>
0

>  <SCORE.INTRA.REPUL>
0

>  <SCORE.INTRA.REPUL.0>
0

>  <SCORE.INTRA.SOLV>
-0.550896

>  <SCORE.INTRA.SOLV.lig_0>
-82.9274

>  <SCORE.INTRA.VDW>
0.524184

>  <SCORE.INTRA.VDW.0>
-3.84922

>  <SCORE.INTRA.norm>
0.0740256

>  <SCORE.RESTR>
0

>  <SCORE.RESTR.CAVITY>
0

>  <SCORE.RESTR.norm>
0

>  <SCORE.SYSTEM>
0

>  <SCORE.SYSTEM.CONST>
0

>  <SCORE.SYSTEM.DIHEDRAL>
0

>  <SCORE.SYSTEM.SOLV>
0

>  <SCORE.SYSTEM.norm>
0

>  <SCORE.heavy>
31

>  <SCORE.norm>
-0.581376

>  <RMSD>
2.322

$$$$
2o3x_lig
 OpenBabel11021811463D
libRbt.so/2013.1/901 2013/11/27
 31 33  0  0  0  0  0  0  0  0999 V2000
   19.6251    9.5970    4.6057 C   0  0  2  0  0  0  0  0  0  0  0  0
   20.6600    8.6226    4.4180 O   0  0  0  0  0  0  0  0  0  0  0  0
   23.7348    6.8032    6.7703 C   0  0  2  0  0  0  0  0  0  0  0  0
   24.7445    6.5230    7.8150 N   0  0  0  0  0  0  0  0  0  0  0  0
   20.1563    9.0830    7.9166 C   0  0  1  0  0  0  0  0  0  0  0  0
   18.6628    9.5362    3.3774 C   0  0  2  0  0  0  0  0  0  0  0  0
   18.2562    8.1449    3.0535 N   0  0  0  0  0  0  0  0  0  0  0  0
   24.1250    8.0376    5.8909 C   0  0  0  0  0  0  0  0  0  0  0  0
   18.7780    9.6450    8.3970 C   0  0  2  0  0  0  0  0  0  0  0  0
   18.1245   10.5838    7.4993 O   0  0  0  0  0  0  0  0  0  0  0  0
   19.3077   10.1490    2.1198 C   0  0  1  0  0  0  0  0  0  0  0  0
   18.4064   10.1296    1.0419 O   0  0  0  0  0  0  0  0  0  0  0  0
   23.0117    8.2342    4.7980 C   0  0  2  0  0  0  0  0  0  0  0  0
   23.3206    9.3874    3.9003 N   0  0  0  0  0  0  0  0  0  0  0  0
   19.2239   10.2017    9.7387 C   0  0  2  0  0  0  0  0  0  0  0  0
   19.8946   11.4984    9.5764 O   0  0  0  0  0  0  0  0  0  0  0  0
   19.7553   11.5708    2.4145 C   0  0  2  0  0  0  0  0  0  0  0  0
   20.3173   12.1344    1.2734 O   0  0  0  0  0  0  0  0  0  0  0  0
   21.6299    8.4857    5.4663 C   0  0  2  0  0  0  0  0  0  0  0  0
   20.1872    9.1542   10.2844 C   0  0  2  0  0  0  0  0  0  0  0  0
   20.9143    8.8233    9.1044 O   0  0  0  0  0  0  0  0  0  0  0  0
   20.7868   11.5714    3.5780 C   0  0  2  0  0  0  0  0  0  0  0  0
   20.1967   10.9704    4.7508 O   0  0  0  0  0  0  0  0  0  0  0  0
   21.2045    7.3595    6.4291 C   0  0  2  0  0  0  0  0  0  0  0  0
   20.0270    7.8830    7.1385 O   0  0  0  0  0  0  0  0  0  0  0  0
   19.5043    7.8800   10.8871 C   0  0  0  0  0  0  0  0  0  0  0  0
   20.4717    7.0769   11.5572 N   0  0  0  0  0  0  0  0  0  0  0  0
   21.2576   12.9628    3.9325 C   0  0  0  0  0  0  0  0  0  0  0  0
   22.0324   13.5081    2.9274 O   0  0  0  0  0  0  0  0  0  0  0  0
   22.3777    7.0400    7.4573 C   0  0  1  0  0  0  0  0  0  0  0  0
   22.0990    5.8556    8.2194 O   0  0  0  0  0  0  0  0  0  0  0  0
  1  2  1  6  0  0  0
  1  6  1  0  0  0  0
  1 23  1  0  0  0  0
  3  4  1  1  0  0  0
  3  8  1  0  0  0  0
  3 30  1  0  0  0  0
  5  9  1  0  0  0  0
  5 21  1  0  0  0  0
  5 25  1  1  0  0  0
  6  7  1  6  0  0  0
  6 11  1  0  0  0  0
  8 13  1  0  0  0  0
  9 10  1  6  0  0  0
  9 15  1  0  0  0  0
 11 12  1  6  0  0  0
 11 17  1  0  0  0  0
 13 14  1  6  0  0  0
 13 19  1  0  0  0  0
 15 16  1  6  0  0  0
 15 20  1  0  0  0  0
 17 18  1  6  0  0  0
 17 22  1  0  0  0  0
 19  2  1  6  0  0  0
 19 24  1  0  0  0  0
 20 21  1  0  0  0  0
 20 26  1  6  0  0  0
 22 23  1  0  0  0  0
 22 28  1  1  0  0  0
 24 25  1  1  0  0  0
 24 30  1  0  0  0  0
 26 27  1  0  0  0  0
 28 29  1  0  0  0  0
 30 31  1  6  0  0  0
M  END
>  <CHROM.1>
-177.93388477,169.89166590,-142.12793487,-170.57195611,-68.64280144,-59.77170399
20.71838751,9.34059732,5.99402183,1.72413144,0.67429381,-1.22766712

>  <Name>
2o3x_lig

>  <RI>
224

>  <Rbt.Current_Directory>
/home/itssahil/PROJECTS/Mol_Feturizer/New_Systems/rnas/2o3x

>  <Rbt.Executable>
rbdock ($Id: //depot/dev/client3/rdock/2013.1/src/exe/rbdock.cxx#4 $)

>  <Rbt.Library>
libRbt.so (2013.1, Build901 2013/11/27)

>  <Rbt.Parameter_File>
/export/apps/rDock/src/rDock_2013.1_src/data/scripts/dock_solv.prm

>  <Rbt.Receptor>
prm/blind_docking_100.prm

>  <SCORE>
-7.56124

>  <SCORE.INTER>
-10.4216

>  <SCORE.INTER.CONST>
1

>  <SCORE.INTER.POLAR>
-1.8395

>  <SCORE.INTER.ROT>
6

>  <SCORE.INTER.SOLV>
21.6837

>  <SCORE.INTER.VDW>
-15.6439

>  <SCORE.INTER.norm>
-0.336179

>  <SCORE.INTRA>
-1.39213

>  <SCORE.INTRA.DIHEDRAL>
-3.15889

>  <SCORE.INTRA.DIHEDRAL.0>
9.37739

>  <SCORE.INTRA.POLAR>
0

>  <SCORE.INTRA.POLAR.0>
0

>  <SCORE.INTRA.REPUL>
0

>  <SCORE.INTRA.REPUL.0>
0

>  <SCORE.INTRA.SOLV>
-0.422125

>  <SCORE.INTRA.SOLV.lig_0>
-82.9274

>  <SCORE.INTRA.VDW>
0.398373

>  <SCORE.INTRA.VDW.0>
-3.84922

>  <SCORE.INTRA.norm>
-0.0449075

>  <SCORE.RESTR>
4.25245

>  <SCORE.RESTR.CAVITY>
4.25245

>  <SCORE.RESTR.norm>
0.137176

>  <SCORE.SYSTEM>
0

>  <SCORE.SYSTEM.CONST>
0

>  <SCORE.SYSTEM.DIHEDRAL>
0

>  <SCORE.SYSTEM.SOLV>
0

>  <SCORE.SYSTEM.norm>
0

>  <SCORE.heavy>
31

>  <SCORE.norm>
-0.243911

>  <RMSD>
2.328

$$$$
2o3x_lig
 OpenBabel11021811463D
libRbt.so/2013.1/901 2013/11/27
 31 33  0  0  0  0  0  0  0  0999 V2000
   19.8995    9.7128    5.9934 C   0  0  2  0  0  0  0  0  0  0  0  0
   20.5095    8.4173    5.9223 O   0  0  0  0  0  0  0  0  0  0  0  0
   23.5688    6.4833    8.2023 C   0  0  2  0  0  0  0  0  0  0  0  0
   24.8128    6.1908    8.9481 N   0  0  0  0  0  0  0  0  0  0  0  0
   19.7481    9.7181    8.8456 C   0  0  1  0  0  0  0  0  0  0  0  0
   18.5044    9.6392    5.2957 C   0  0  2  0  0  0  0  0  0  0  0  0
   17.7100    8.4715    5.7552 N   0  0  0  0  0  0  0  0  0  0  0  0
   23.8388    6.7262    6.6800 C   0  0  0  0  0  0  0  0  0  0  0  0
   19.2506    8.8831   10.0709 C   0  0  2  0  0  0  0  0  0  0  0  0
   18.7092    7.5678    9.7685 O   0  0  0  0  0  0  0  0  0  0  0  0
   18.6394    9.5505    3.7638 C   0  0  1  0  0  0  0  0  0  0  0  0
   17.3730    9.5367    3.1553 O   0  0  0  0  0  0  0  0  0  0  0  0
   22.4605    6.9970    5.9733 C   0  0  2  0  0  0  0  0  0  0  0  0
   22.6298    7.2211    4.5063 N   0  0  0  0  0  0  0  0  0  0  0  0
   18.2712    9.8947   10.6424 C   0  0  2  0  0  0  0  0  0  0  0  0
   17.0052    9.8839    9.8976 O   0  0  0  0  0  0  0  0  0  0  0  0
   19.4632   10.7207    3.2533 C   0  0  2  0  0  0  0  0  0  0  0  0
   19.5671   10.6554    1.8675 O   0  0  0  0  0  0  0  0  0  0  0  0
   21.7698    8.2483    6.5868 C   0  0  2  0  0  0  0  0  0  0  0  0
   18.9795   11.2361   10.4941 C   0  0  2  0  0  0  0  0  0  0  0  0
   19.5474   11.0931    9.1950 O   0  0  0  0  0  0  0  0  0  0  0  0
   20.8769   10.6960    3.9001 C   0  0  2  0  0  0  0  0  0  0  0  0
   20.7545   10.7487    5.3378 O   0  0  0  0  0  0  0  0  0  0  0  0
   21.5485    8.1378    8.1084 C   0  0  2  0  0  0  0  0  0  0  0  0
   21.1302    9.4818    8.5357 O   0  0  0  0  0  0  0  0  0  0  0  0
   20.0961   11.5138   11.5568 C   0  0  0  0  0  0  0  0  0  0  0  0
   20.5215   12.8712   11.4765 N   0  0  0  0  0  0  0  0  0  0  0  0
   21.7408   11.8494    3.4456 C   0  0  0  0  0  0  0  0  0  0  0  0
   21.2019   13.0653    3.8185 O   0  0  0  0  0  0  0  0  0  0  0  0
   22.9026    7.7188    8.8340 C   0  0  1  0  0  0  0  0  0  0  0  0
   22.6792    7.3953   10.2148 O   0  0  0  0  0  0  0  0  0  0  0  0
  1  2  1  6  0  0  0
  1  6  1  0  0  0  0
  1 23  1  0  0  0  0
  3  4  1  1  0  0  0
  3  8  1  0  0  0  0
  3 30  1  0  0  0  0
  5  9  1  0  0  0  0
  5 21  1  0  0  0  0
  5 25  1  1  0  0  0
  6  7  1  1  0  0  0
  6 11  1  0  0  0  0
  8 13  1  0  0  0  0
  9 10  1  6  0  0  0
  9 15  1  0  0  0  0
 11 12  1  6  0  0  0
 11 17  1  0  0  0  0
 13 14  1  6  0  0  0
 13 19  1  0  0  0  0
 15 16  1  6  0  0  0
 15 20  1  0  0  0  0
 17 18  1  6  0  0  0
 17 22  1  0  0  0  0
 19  2  1  6  0  0  0
 19 24  1  0  0  0  0
 20 21  1  0  0  0  0
 20 26  1  1  0  0  0
 22 23  1  0  0  0  0
 22 28  1  6  0  0  0
 24 25  1  1  0  0  0
 24 30  1  0  0  0  0
 26 27  1  0  0  0  0
 28 29  1  0  0  0  0
 30 31  1  1  0  0  0
M  END
>  <CHROM.1>
-176.04312435,63.58234882,-160.12775382,-169.69827960,62.46983522,104.55362693
20.47985748,9.39220054,7.08215326,1.71433877,0.69986532,-1.49131382

>  <Name>
2o3x_lig

>  <RI>
2.78316e+07

>  <Rbt.Current_Directory>
/home/itssahil/PROJECTS/Mol_Feturizer/New_Systems/rnas/2o3x

>  <Rbt.Executable>
rbdock ($Id: //depot/dev/client3/rdock/2013.1/src/exe/rbdock.cxx#4 $)

>  <Rbt.Library>
libRbt.so (2013.1, Build901 2013/11/27)

>  <Rbt.Parameter_File>
/export/apps/rDock/src/rDock_2013.1_src/data/scripts/dock_solv.prm

>  <Rbt.Receptor>
prm/pocket_docking_7.prm

>  <SCORE>
-17.5623

>  <SCORE.INTER>
-17.1862

>  <SCORE.INTER.CONST>
1

>  <SCORE.INTER.POLAR>
-1.64983

>  <SCORE.INTER.ROT>
6

>  <SCORE.INTER.SOLV>
20.5666

>  <SCORE.INTER.VDW>
-20.4136

>  <SCORE.INTER.norm>
-0.554394

>  <SCORE.INTRA>
-0.376092

>  <SCORE.INTRA.DIHEDRAL>
-0.855347

>  <SCORE.INTRA.DIHEDRAL.0>
9.37739

>  <SCORE.INTRA.POLAR>
0

>  <SCORE.INTRA.POLAR.0>
0

>  <SCORE.INTRA.REPUL>
0

>  <SCORE.INTRA.REPUL.0>
0

>  <SCORE.INTRA.SOLV>
-1.9207

>  <SCORE.INTRA.SOLV.lig_0>
-82.9274

>  <SCORE.INTRA.VDW>
1.01193

>  <SCORE.INTRA.VDW.0>
-3.84922

>  <SCORE.INTRA.norm>
-0.012132

>  <SCORE.RESTR>
0

>  <SCORE.RESTR.CAVITY>
0

>  <SCORE.RESTR.norm>
0

>  <SCORE.SYSTEM>
0

>  <SCORE.SYSTEM.CONST>
0

>  <SCORE.SYSTEM.DIHEDRAL>
0

>  <SCORE.SYSTEM.SOLV>
0

>  <SCORE.SYSTEM.norm>
0

>  <SCORE.heavy>
31

>  <SCORE.norm>
-0.566526

>  <RMSD>
2.359

$$$$
2o3x_lig
 OpenBabel11021811463D
libRbt.so/2013.1/901 2013/11/27
 31 33  0  0  0  0  0  0  0  0999 V2000
   20.4465    9.5479    5.9947 C   0  0  2  0  0  0  0  0  0  0  0  0
   21.1514    8.3297    5.7216 O   0  0  0  0  0  0  0  0  0  0  0  0
   24.9912    6.5982    6.4672 C   0  0  2  0  0  0  0  0  0  0  0  0
   26.3968    6.3852    6.8775 N   0  0  0  0  0  0  0  0  0  0  0  0
   21.2067    7.4218    9.4111 C   0  0  1  0  0  0  0  0  0  0  0  0
   18.9739    9.3862    5.5009 C   0  0  2  0  0  0  0  0  0  0  0  0
   18.3653    8.1129    5.9639 N   0  0  0  0  0  0  0  0  0  0  0  0
   24.8705    7.6229    5.2904 C   0  0  0  0  0  0  0  0  0  0  0  0
   21.7240    5.9789    9.7217 C   0  0  2  0  0  0  0  0  0  0  0  0
   21.2158    4.9209    8.8633 O   0  0  0  0  0  0  0  0  0  0  0  0
   18.8826    9.4266    3.9638 C   0  0  1  0  0  0  0  0  0  0  0  0
   17.5449    9.3305    3.5447 O   0  0  0  0  0  0  0  0  0  0  0  0
   23.3510    7.7571    4.9092 C   0  0  2  0  0  0  0  0  0  0  0  0
   23.1510    8.7080    3.7748 N   0  0  0  0  0  0  0  0  0  0  0  0
   21.3147    5.9092   11.1834 C   0  0  2  0  0  0  0  0  0  0  0  0
   19.8821    5.6142   11.3179 O   0  0  0  0  0  0  0  0  0  0  0  0
   19.5122   10.7091    3.4466 C   0  0  2  0  0  0  0  0  0  0  0  0
   19.4104   10.7587    2.0599 O   0  0  0  0  0  0  0  0  0  0  0  0
   22.5259    8.2621    6.1272 C   0  0  2  0  0  0  0  0  0  0  0  0
   21.6408    7.2916   11.7364 C   0  0  2  0  0  0  0  0  0  0  0  0
   21.1956    8.1173   10.6638 O   0  0  0  0  0  0  0  0  0  0  0  0
   21.0042   10.7790    3.8788 C   0  0  2  0  0  0  0  0  0  0  0  0
   21.0968   10.7112    5.3181 O   0  0  0  0  0  0  0  0  0  0  0  0
   22.6609    7.3609    7.3706 C   0  0  2  0  0  0  0  0  0  0  0  0
   22.0331    8.1174    8.4649 O   0  0  0  0  0  0  0  0  0  0  0  0
   23.1583    7.5426   12.0327 C   0  0  0  0  0  0  0  0  0  0  0  0
   23.3100    8.1921   13.2917 N   0  0  0  0  0  0  0  0  0  0  0  0
   21.6833   12.0447    3.4095 C   0  0  0  0  0  0  0  0  0  0  0  0
   21.0872   13.1695    3.9456 O   0  0  0  0  0  0  0  0  0  0  0  0
   24.1969    7.0891    7.6910 C   0  0  1  0  0  0  0  0  0  0  0  0
   24.3513    6.0823    8.7028 O   0  0  0  0  0  0  0  0  0  0  0  0
  1  2  1  6  0  0  0
  1  6  1  0  0  0  0
  1 23  1  0  0  0  0
  3  4  1  1  0  0  0
  3  8  1  0  0  0  0
  3 30  1  0  0  0  0
  5  9  1  0  0  0  0
  5 21  1  0  0  0  0
  5 25  1  6  0  0  0
  6  7  1  6  0  0  0
  6 11  1  0  0  0  0
  8 13  1  0  0  0  0
  9 10  1  6  0  0  0
  9 15  1  0  0  0  0
 11 12  1  1  0  0  0
 11 17  1  0  0  0  0
 13 14  1  6  0  0  0
 13 19  1  0  0  0  0
 15 16  1  6  0  0  0
 15 20  1  0  0  0  0
 17 18  1  6  0  0  0
 17 22  1  0  0  0  0
 19  2  1  6  0  0  0
 19 24  1  0  0  0  0
 20 21  1  0  0  0  0
 20 26  1  6  0  0  0
 22 23  1  0  0  0  0
 22 28  1  1  0  0  0
 24 25  1  1  0  0  0
 24 30  1  0  0  0  0
 26 27  1  0  0  0  0
 28 29  1  0  0  0  0
 30 31  1  1  0  0  0
M  END
>  <CHROM.1>
-178.76434019,35.40745899,-130.24224134,-135.94496713,61.47630547,139.04562747
21.65533224,8.31515481,6.98374611,1.86497918,0.26133285,-1.13709771

>  <Name>
2o3x_lig

>  <RI>
3.34184e+07

>  <Rbt.Current_Directory>
/home/itssahil/PROJECTS/Mol_Feturizer/New_Systems/rnas/2o3x

>  <Rbt.Executable>
rbdock ($Id: //depot/dev/client3/rdock/2013.1/src/exe/rbdock.cxx#4 $)

>  <Rbt.Library>
libRbt.so (2013.1, Build901 2013/11/27)

>  <Rbt.Parameter_File>
/export/apps/rDock/src/rDock_2013.1_src/data/scripts/dock_solv.prm

>  <Rbt.Receptor>
prm/pocket_docking_6.prm

>  <SCORE>
-16.2637

>  <SCORE.INTER>
-21.7224

>  <SCORE.INTER.CONST>
1

>  <SCORE.INTER.POLAR>
-1.56529

>  <SCORE.INTER.ROT>
6

>  <SCORE.INTER.SOLV>
20.3867

>  <SCORE.INTER.VDW>
-23.6595

>  <SCORE.INTER.norm>
-0.700722

>  <SCORE.INTRA>
5.45868

>  <SCORE.INTRA.DIHEDRAL>
9.76059

>  <SCORE.INTRA.DIHEDRAL.0>
9.37739

>  <SCORE.INTRA.POLAR>
0

>  <SCORE.INTRA.POLAR.0>
0

>  <SCORE.INTRA.REPUL>
0

>  <SCORE.INTRA.REPUL.0>
0

>  <SCORE.INTRA.SOLV>
-0.131146

>  <SCORE.INTRA.SOLV.lig_0>
-82.9274

>  <SCORE.INTRA.VDW>
0.643958

>  <SCORE.INTRA.VDW.0>
-3.84922

>  <SCORE.INTRA.norm>
0.176086

>  <SCORE.RESTR>
0

>  <SCORE.RESTR.CAVITY>
0

>  <SCORE.RESTR.norm>
0

>  <SCORE.SYSTEM>
0

>  <SCORE.SYSTEM.CONST>
0

>  <SCORE.SYSTEM.DIHEDRAL>
0

>  <SCORE.SYSTEM.SOLV>
0

>  <SCORE.SYSTEM.norm>
0

>  <SCORE.heavy>
31

>  <SCORE.norm>
-0.524636

>  <RMSD>
2.441

$$$$
2o3x_lig
 OpenBabel11021811463D
libRbt.so/2013.1/901 2013/11/27
 31 33  0  0  0  0  0  0  0  0999 V2000
   20.4452    9.6587    6.1035 C   0  0  2  0  0  0  0  0  0  0  0  0
   21.0684    8.3786    5.9345 O   0  0  0  0  0  0  0  0  0  0  0  0
   24.7601    6.4394    6.8877 C   0  0  2  0  0  0  0  0  0  0  0  0
   26.1310    6.1527    7.3651 N   0  0  0  0  0  0  0  0  0  0  0  0
   21.0577    7.5285    9.7514 C   0  0  1  0  0  0  0  0  0  0  0  0
   18.9543    9.5439    5.6536 C   0  0  2  0  0  0  0  0  0  0  0  0
   18.2808    8.3600    6.2457 N   0  0  0  0  0  0  0  0  0  0  0  0
   24.7533    7.4418    5.6858 C   0  0  0  0  0  0  0  0  0  0  0  0
   21.6486    6.1369   10.1519 C   0  0  2  0  0  0  0  0  0  0  0  0
   21.1526    4.9940    9.4021 O   0  0  0  0  0  0  0  0  0  0  0  0
   18.8294    9.4462    4.1214 C   0  0  1  0  0  0  0  0  0  0  0  0
   17.4788    9.3951    3.7371 O   0  0  0  0  0  0  0  0  0  0  0  0
   23.2628    7.6574    5.2340 C   0  0  2  0  0  0  0  0  0  0  0  0
   23.1704    8.5919    4.0723 N   0  0  0  0  0  0  0  0  0  0  0  0
   21.3015    6.1688   11.6308 C   0  0  2  0  0  0  0  0  0  0  0  0
   19.8894    5.8288   11.8499 O   0  0  0  0  0  0  0  0  0  0  0  0
   19.5231   10.6329    3.4740 C   0  0  2  0  0  0  0  0  0  0  0  0
   19.3918   10.5590    2.0908 O   0  0  0  0  0  0  0  0  0  0  0  0
   22.4173    8.2387    6.4029 C   0  0  2  0  0  0  0  0  0  0  0  0
   21.5896    7.6030   12.0587 C   0  0  2  0  0  0  0  0  0  0  0  0
   21.0667    8.3214   10.9448 O   0  0  0  0  0  0  0  0  0  0  0  0
   21.0263   10.6495    3.8709 C   0  0  2  0  0  0  0  0  0  0  0  0
   21.1486   10.7107    5.3083 O   0  0  0  0  0  0  0  0  0  0  0  0
   22.4430    7.3603    7.6694 C   0  0  2  0  0  0  0  0  0  0  0  0
   21.8149    8.1780    8.7185 O   0  0  0  0  0  0  0  0  0  0  0  0
   23.1054    7.9372   12.2685 C   0  0  0  0  0  0  0  0  0  0  0  0
   23.6100    7.2322   13.3991 N   0  0  0  0  0  0  0  0  0  0  0  0
   21.7696   11.8208    3.2719 C   0  0  0  0  0  0  0  0  0  0  0  0
   23.1140   11.7839    3.5868 O   0  0  0  0  0  0  0  0  0  0  0  0
   23.9443    7.0050    8.0641 C   0  0  1  0  0  0  0  0  0  0  0  0
   23.9932    6.0146    9.1023 O   0  0  0  0  0  0  0  0  0  0  0  0
  1  2  1  6  0  0  0
  1  6  1  0  0  0  0
  1 23  1  0  0  0  0
  3  4  1  1  0  0  0
  3  8  1  0  0  0  0
  3 30  1  0  0  0  0
  5  9  1  0  0  0  0
  5 21  1  0  0  0  0
  5 25  1  6  0  0  0
  6  7  1  1  0  0  0
  6 11  1  0  0  0  0
  8 13  1  0  0  0  0
  9 10  1  6  0  0  0
  9 15  1  0  0  0  0
 11 12  1  1  0  0  0
 11 17  1  0  0  0  0
 13 14  1  6  0  0  0
 13 19  1  0  0  0  0
 15 16  1  6  0  0  0
 15 20  1  0  0  0  0
 17 18  1  6  0  0  0
 17 22  1  0  0  0  0
 19  2  1  6  0  0  0
 19 24  1  0  0  0  0
 20 21  1  0  0  0  0
 20 26  1  6  0  0  0
 22 23  1  0  0  0  0
 22 28  1  6  0  0  0
 24 25  1  1  0  0  0
 24 30  1  0  0  0  0
 26 27  1  0  0  0  0
 28 29  1  0  0  0  0
 30 31  1  1  0  0  0
M  END
>  <CHROM.1>
-174.68453533,34.73214537,-127.87171052,-67.88893690,-177.28702374,147.66647868
21.65714233,8.26149123,7.22066249,1.81679749,0.21768103,-1.16326520

>  <Name>
2o3x_lig

>  <RI>
224

>  <Rbt.Current_Directory>
/home/itssahil/PROJECTS/Mol_Feturizer/New_Systems/rnas/2o3x

>  <Rbt.Executable>
rbdock ($Id: //depot/dev/client3/rdock/2013.1/src/exe/rbdock.cxx#4 $)

>  <Rbt.Library>
libRbt.so (2013.1, Build901 2013/11/27)

>  <Rbt.Parameter_File>
/export/apps/rDock/src/rDock_2013.1_src/data/scripts/dock_solv.prm

>  <Rbt.Receptor>
prm/blind_docking_100.prm

>  <SCORE>
-13.2534

>  <SCORE.INTER>
-20.6738

>  <SCORE.INTER.CONST>
1

>  <SCORE.INTER.POLAR>
-1.62121

>  <SCORE.INTER.ROT>
6

>  <SCORE.INTER.SOLV>
21.0333

>  <SCORE.INTER.VDW>
-22.9896

>  <SCORE.INTER.norm>
-0.666898

>  <SCORE.INTRA>
4.62674

>  <SCORE.INTRA.DIHEDRAL>
4.75971

>  <SCORE.INTRA.DIHEDRAL.0>
9.37739

>  <SCORE.INTRA.POLAR>
0

>  <SCORE.INTRA.POLAR.0>
0

>  <SCORE.INTRA.REPUL>
0

>  <SCORE.INTRA.REPUL.0>
0

>  <SCORE.INTRA.SOLV>
1.13776

>  <SCORE.INTRA.SOLV.lig_0>
-82.9274

>  <SCORE.INTRA.VDW>
1.678

>  <SCORE.INTRA.VDW.0>
-3.84922

>  <SCORE.INTRA.norm>
0.14925

>  <SCORE.RESTR>
2.79368

>  <SCORE.RESTR.CAVITY>
2.79368

>  <SCORE.RESTR.norm>
0.0901187

>  <SCORE.SYSTEM>
0

>  <SCORE.SYSTEM.CONST>
0

>  <SCORE.SYSTEM.DIHEDRAL>
0

>  <SCORE.SYSTEM.SOLV>
0

>  <SCORE.SYSTEM.norm>
0

>  <SCORE.heavy>
31

>  <SCORE.norm>
-0.427529

>  <RMSD>
2.449

$$$$
2o3x_lig
 OpenBabel11021811463D
libRbt.so/2013.1/901 2013/11/27
 31 33  0  0  0  0  0  0  0  0999 V2000
   19.2662    9.2879    5.7931 C   0  0  2  0  0  0  0  0  0  0  0  0
   20.2153    8.2141    5.7513 O   0  0  0  0  0  0  0  0  0  0  0  0
   22.9836    6.4130    8.4699 C   0  0  2  0  0  0  0  0  0  0  0  0
   23.9403    6.1789    9.5742 N   0  0  0  0  0  0  0  0  0  0  0  0
   19.7755    9.3901    9.0384 C   0  0  1  0  0  0  0  0  0  0  0  0
   18.1155    8.9675    4.7874 C   0  0  2  0  0  0  0  0  0  0  0  0
   17.6040    7.5821    4.9453 N   0  0  0  0  0  0  0  0  0  0  0  0
   23.5540    7.3985    7.3963 C   0  0  0  0  0  0  0  0  0  0  0  0
   18.4953   10.1755    9.4748 C   0  0  2  0  0  0  0  0  0  0  0  0
   17.8527   10.9717    8.4416 O   0  0  0  0  0  0  0  0  0  0  0  0
   18.5723    9.1430    3.3268 C   0  0  1  0  0  0  0  0  0  0  0  0
   17.5080    8.8992    2.4425 O   0  0  0  0  0  0  0  0  0  0  0  0
   22.4825    7.5579    6.2566 C   0  0  2  0  0  0  0  0  0  0  0  0
   22.9603    8.4732    5.1772 N   0  0  0  0  0  0  0  0  0  0  0  0
   19.0972   10.9472   10.6371 C   0  0  2  0  0  0  0  0  0  0  0  0
   19.8611   12.1083   10.1617 O   0  0  0  0  0  0  0  0  0  0  0  0
   19.1208   10.5458    3.1265 C   0  0  2  0  0  0  0  0  0  0  0  0
   19.5129   10.7143    1.8023 O   0  0  0  0  0  0  0  0  0  0  0  0
   21.1541    8.1259    6.8327 C   0  0  2  0  0  0  0  0  0  0  0  0
   20.0088    9.9416   11.3305 C   0  0  2  0  0  0  0  0  0  0  0  0
   20.6043    9.3039   10.2040 O   0  0  0  0  0  0  0  0  0  0  0  0
   20.3268   10.7844    4.0786 C   0  0  2  0  0  0  0  0  0  0  0  0
   19.9105   10.5915    5.4477 O   0  0  0  0  0  0  0  0  0  0  0  0
   20.5651    7.2656    7.9682 C   0  0  2  0  0  0  0  0  0  0  0  0
   19.4794    8.0756    8.5419 O   0  0  0  0  0  0  0  0  0  0  0  0
   19.2711    8.8940   12.2314 C   0  0  0  0  0  0  0  0  0  0  0  0
   20.2199    8.0496   12.8770 N   0  0  0  0  0  0  0  0  0  0  0  0
   20.9065   12.1730    3.9404 C   0  0  0  0  0  0  0  0  0  0  0  0
   21.3936   12.3954    2.6671 O   0  0  0  0  0  0  0  0  0  0  0  0
   21.6775    6.9663    9.0676 C   0  0  1  0  0  0  0  0  0  0  0  0
   21.2248    5.9919   10.0199 O   0  0  0  0  0  0  0  0  0  0  0  0
  1  2  1  6  0  0  0
  1  6  1  0  0  0  0
  1 23  1  0  0  0  0
  3  4  1  1  0  0  0
  3  8  1  0  0  0  0
  3 30  1  0  0  0  0
  5  9  1  0  0  0  0
  5 21  1  0  0  0  0
  5 25  1  1  0  0  0
  6  7  1  6  0  0  0
  6 11  1  0  0  0  0
  8 13  1  0  0  0  0
  9 10  1  6  0  0  0
  9 15  1  0  0  0  0
 11 12  1  6  0  0  0
 11 17  1  0  0  0  0
 13 14  1  6  0  0  0
 13 19  1  0  0  0  0
 15 16  1  6  0  0  0
 15 20  1  0  0  0  0
 17 18  1  6  0  0  0
 17 22  1  0  0  0  0
 19  2  1  6  0  0  0
 19 24  1  0  0  0  0
 20 21  1  0  0  0  0
 20 26  1  6  0  0  0
 22 23  1  0  0  0  0
 22 28  1  1  0  0  0
 24 25  1  1  0  0  0
 24 30  1  0  0  0  0
 26 27  1  0  0  0  0
 28 29  1  0  0  0  0
 30 31  1  1  0  0  0
M  END
>  <CHROM.1>
-163.88949825,173.95667832,-147.06633462,-177.22025996,-61.73817492,-56.72822995
20.22910260,9.11441487,7.12774387,1.79449493,0.79774206,-1.47295492

>  <Name>
2o3x_lig

>  <RI>
0

>  <Rbt.Current_Directory>
/home/itssahil/PROJECTS/Mol_Feturizer/New_Systems/rnas/2o3x

>  <Rbt.Executable>
rbdock ($Id: //depot/dev/client3/rdock/2013.1/src/exe/rbdock.cxx#4 $)

>  <Rbt.Library>
libRbt.so (2013.1, Build901 2013/11/27)

>  <Rbt.Parameter_File>
/export/apps/rDock/src/rDock_2013.1_src/data/scripts/dock_solv.prm

>  <Rbt.Receptor>
prm/pocket_docking_4.prm

>  <SCORE>
-23.3629

>  <SCORE.INTER>
-22.2733

>  <SCORE.INTER.CONST>
1

>  <SCORE.INTER.POLAR>
-2.60192

>  <SCORE.INTER.ROT>
6

>  <SCORE.INTER.SOLV>
16.7495

>  <SCORE.INTER.VDW>
-19.359

>  <SCORE.INTER.norm>
-0.718494

>  <SCORE.INTRA>
-1.09789

>  <SCORE.INTRA.DIHEDRAL>
-3.628

>  <SCORE.INTRA.DIHEDRAL.0>
9.37739

>  <SCORE.INTRA.POLAR>
0

>  <SCORE.INTRA.POLAR.0>
0

>  <SCORE.INTRA.REPUL>
0

>  <SCORE.INTRA.REPUL.0>
0

>  <SCORE.INTRA.SOLV>
-0.154538

>  <SCORE.INTRA.SOLV.lig_0>
-82.9274

>  <SCORE.INTRA.VDW>
0.79338

>  <SCORE.INTRA.VDW.0>
-3.84922

>  <SCORE.INTRA.norm>
-0.0354158

>  <SCORE.RESTR>
0.00830205

>  <SCORE.RESTR.CAVITY>
0.00830205

>  <SCORE.RESTR.norm>
0.000267808

>  <SCORE.SYSTEM>
0

>  <SCORE.SYSTEM.CONST>
0

>  <SCORE.SYSTEM.DIHEDRAL>
0

>  <SCORE.SYSTEM.SOLV>
0

>  <SCORE.SYSTEM.norm>
0

>  <SCORE.heavy>
31

>  <SCORE.norm>
-0.753642

>  <RMSD>
2.497

$$$$
2o3x_lig
 OpenBabel11021811463D
libRbt.so/2013.1/901 2013/11/27
 31 33  0  0  0  0  0  0  0  0999 V2000
   20.3155    9.7317    6.1300 C   0  0  2  0  0  0  0  0  0  0  0  0
   20.9053    8.4262    6.0710 O   0  0  0  0  0  0  0  0  0  0  0  0
   24.5485    6.4767    7.1775 C   0  0  2  0  0  0  0  0  0  0  0  0
   25.9036    6.1899    7.6981 N   0  0  0  0  0  0  0  0  0  0  0  0
   20.9270    7.6955   10.0016 C   0  0  1  0  0  0  0  0  0  0  0  0
   18.8669    9.6441    5.5534 C   0  0  2  0  0  0  0  0  0  0  0  0
   18.1022    8.5099    6.1318 N   0  0  0  0  0  0  0  0  0  0  0  0
   24.5836    7.4403    5.9448 C   0  0  0  0  0  0  0  0  0  0  0  0
   21.4214    6.2362   10.2703 C   0  0  2  0  0  0  0  0  0  0  0  0
   20.6967    5.1805    9.5813 O   0  0  0  0  0  0  0  0  0  0  0  0
   18.8741    9.4820    4.0216 C   0  0  1  0  0  0  0  0  0  0  0  0
   17.5617    9.4567    3.5204 O   0  0  0  0  0  0  0  0  0  0  0  0
   23.1075    7.6582    5.4490 C   0  0  2  0  0  0  0  0  0  0  0  0
   23.0552    8.5562    4.2564 N   0  0  0  0  0  0  0  0  0  0  0  0
   21.3126    6.2435   11.7859 C   0  0  2  0  0  0  0  0  0  0  0  0
   19.9233    6.0397   12.2172 O   0  0  0  0  0  0  0  0  0  0  0  0
   19.6639   10.6160    3.3900 C   0  0  2  0  0  0  0  0  0  0  0  0
   19.6524   10.4845    2.0050 O   0  0  0  0  0  0  0  0  0  0  0  0
   22.2404    8.2861    6.5773 C   0  0  2  0  0  0  0  0  0  0  0  0
   21.8143    7.6228   12.1970 C   0  0  2  0  0  0  0  0  0  0  0  0
   21.2048    8.4347   11.1972 O   0  0  0  0  0  0  0  0  0  0  0  0
   21.1260   10.6027    3.9190 C   0  0  2  0  0  0  0  0  0  0  0  0
   21.1232   10.7243    5.3577 O   0  0  0  0  0  0  0  0  0  0  0  0
   22.2241    7.4482    7.8712 C   0  0  2  0  0  0  0  0  0  0  0  0
   21.5802    8.3060    8.8779 O   0  0  0  0  0  0  0  0  0  0  0  0
   23.3712    7.7930   12.1725 C   0  0  0  0  0  0  0  0  0  0  0  0
   23.9471    7.1948   13.3302 N   0  0  0  0  0  0  0  0  0  0  0  0
   21.9603   11.7219    3.3406 C   0  0  0  0  0  0  0  0  0  0  0  0
   23.2781   11.6342    3.7450 O   0  0  0  0  0  0  0  0  0  0  0  0
   23.7107    7.0887    8.3146 C   0  0  1  0  0  0  0  0  0  0  0  0
   23.7218    6.1314    9.3845 O   0  0  0  0  0  0  0  0  0  0  0  0
  1  2  1  6  0  0  0
  1  6  1  0  0  0  0
  1 23  1  0  0  0  0
  3  4  1  1  0  0  0
  3  8  1  0  0  0  0
  3 30  1  0  0  0  0
  5  9  1  0  0  0  0
  5 21  1  0  0  0  0
  5 25  1  6  0  0  0
  6  7  1  1  0  0  0
  6 11  1  0  0  0  0
  8 13  1  0  0  0  0
  9 10  1  6  0  0  0
  9 15  1  0  0  0  0
 11 12  1  6  0  0  0
 11 17  1  0  0  0  0
 13 14  1  6  0  0  0
 13 19  1  0  0  0  0
 15 16  1  6  0  0  0
 15 20  1  0  0  0  0
 17 18  1  6  0  0  0
 17 22  1  0  0  0  0
 19  2  1  6  0  0  0
 19 24  1  0  0  0  0
 20 21  1  0  0  0  0
 20 26  1  6  0  0  0
 22 23  1  0  0  0  0
 22 28  1  6  0  0  0
 24 25  1  1  0  0  0
 24 30  1  0  0  0  0
 26 27  1  0  0  0  0
 28 29  1  0  0  0  0
 30 31  1  1  0  0  0
M  END
>  <CHROM.1>
-179.04078979,20.68856815,-125.18804595,-78.32191539,-175.54357291,155.17841875
21.61226870,8.30364373,7.33208509,1.81119044,0.16306349,-1.17088587

>  <Name>
2o3x_lig

>  <RI>
0

>  <Rbt.Current_Directory>
/home/itssahil/PROJECTS/Mol_Feturizer/New_Systems/rnas/2o3x

>  <Rbt.Executable>
rbdock ($Id: //depot/dev/client3/rdock/2013.1/src/exe/rbdock.cxx#4 $)

>  <Rbt.Library>
libRbt.so (2013.1, Build901 2013/11/27)

>  <Rbt.Parameter_File>
/export/apps/rDock/src/rDock_2013.1_src/data/scripts/dock_solv.prm

>  <Rbt.Receptor>
prm/blind_docking_40.prm

>  <SCORE>
-7.55692

>  <SCORE.INTER>
-19.9478

>  <SCORE.INTER.CONST>
1

>  <SCORE.INTER.POLAR>
-1.7559

>  <SCORE.INTER.ROT>
6

>  <SCORE.INTER.SOLV>
22.4866

>  <SCORE.INTER.VDW>
-22.541

>  <SCORE.INTER.norm>
-0.643477

>  <SCORE.INTRA>
7.6065

>  <SCORE.INTRA.DIHEDRAL>
6.88123

>  <SCORE.INTRA.DIHEDRAL.0>
9.37739

>  <SCORE.INTRA.POLAR>
0

>  <SCORE.INTRA.POLAR.0>
0

>  <SCORE.INTRA.REPUL>
0

>  <SCORE.INTRA.REPUL.0>
0

>  <SCORE.INTRA.SOLV>
1.67858

>  <SCORE.INTRA.SOLV.lig_0>
-82.9274

>  <SCORE.INTRA.VDW>
3.32659

>  <SCORE.INTRA.VDW.0>
-3.84922

>  <SCORE.INTRA.norm>
0.245371

>  <SCORE.RESTR>
4.78435

>  <SCORE.RESTR.CAVITY>
4.78435

>  <SCORE.RESTR.norm>
0.154334

>  <SCORE.SYSTEM>
0

>  <SCORE.SYSTEM.CONST>
0

>  <SCORE.SYSTEM.DIHEDRAL>
0

>  <SCORE.SYSTEM.SOLV>
0

>  <SCORE.SYSTEM.norm>
0

>  <SCORE.heavy>
31

>  <SCORE.norm>
-0.243772

>  <RMSD>
2.515

$$$$
2o3x_lig
 OpenBabel11021811463D
libRbt.so/2013.1/901 2013/11/27
 31 33  0  0  0  0  0  0  0  0999 V2000
   20.4160    9.7546    6.1342 C   0  0  2  0  0  0  0  0  0  0  0  0
   20.9677    8.4325    6.0777 O   0  0  0  0  0  0  0  0  0  0  0  0
   24.5408    6.3736    7.2144 C   0  0  2  0  0  0  0  0  0  0  0  0
   25.8798    6.0446    7.7514 N   0  0  0  0  0  0  0  0  0  0  0  0
   20.9399    7.6559   10.0171 C   0  0  1  0  0  0  0  0  0  0  0  0
   18.9910    9.7213    5.4965 C   0  0  2  0  0  0  0  0  0  0  0  0
   18.1684    8.6025    6.0231 N   0  0  0  0  0  0  0  0  0  0  0  0
   24.6201    7.3503    5.9941 C   0  0  0  0  0  0  0  0  0  0  0  0
   21.3743    6.1708   10.2449 C   0  0  2  0  0  0  0  0  0  0  0  0
   20.5897    5.1632    9.5497 O   0  0  0  0  0  0  0  0  0  0  0  0
   19.0578    9.5831    3.9637 C   0  0  1  0  0  0  0  0  0  0  0  0
   17.7675    9.6065    3.4080 O   0  0  0  0  0  0  0  0  0  0  0  0
   23.1579    7.6134    5.4791 C   0  0  2  0  0  0  0  0  0  0  0  0
   23.1476    8.5263    4.2969 N   0  0  0  0  0  0  0  0  0  0  0  0
   21.2967    6.1501   11.7623 C   0  0  2  0  0  0  0  0  0  0  0  0
   19.9087    5.9984   12.2186 O   0  0  0  0  0  0  0  0  0  0  0  0
   19.9078   10.7017    3.3849 C   0  0  2  0  0  0  0  0  0  0  0  0
   19.9507   10.5924    1.9986 O   0  0  0  0  0  0  0  0  0  0  0  0
   22.2908    8.2508    6.6021 C   0  0  2  0  0  0  0  0  0  0  0  0
   21.8673    7.4968   12.1912 C   0  0  2  0  0  0  0  0  0  0  0  0
   21.2744    8.3562   11.2215 O   0  0  0  0  0  0  0  0  0  0  0  0
   21.3451   10.6345    3.9741 C   0  0  2  0  0  0  0  0  0  0  0  0
   21.2854   10.7336    5.4133 O   0  0  0  0  0  0  0  0  0  0  0  0
   22.2327    7.3986    7.8853 C   0  0  2  0  0  0  0  0  0  0  0  0
   21.5966    8.2613    8.8926 O   0  0  0  0  0  0  0  0  0  0  0  0
   23.4294    7.5989   12.1372 C   0  0  0  0  0  0  0  0  0  0  0  0
   23.9146    8.2884   13.2857 N   0  0  0  0  0  0  0  0  0  0  0  0
   22.2368   11.7362    3.4500 C   0  0  0  0  0  0  0  0  0  0  0  0
   21.6601   12.9799    3.6193 O   0  0  0  0  0  0  0  0  0  0  0  0
   23.7024    6.9943    8.3462 C   0  0  1  0  0  0  0  0  0  0  0  0
   23.6719    6.0246    9.4045 O   0  0  0  0  0  0  0  0  0  0  0  0
  1  2  1  6  0  0  0
  1  6  1  0  0  0  0
  1 23  1  0  0  0  0
  3  4  1  1  0  0  0
  3  8  1  0  0  0  0
  3 30  1  0  0  0  0
  5  9  1  0  0  0  0
  5 21  1  0  0  0  0
  5 25  1  6  0  0  0
  6  7  1  1  0  0  0
  6 11  1  0  0  0  0
  8 13  1  0  0  0  0
  9 10  1  6  0  0  0
  9 15  1  0  0  0  0
 11 12  1  6  0  0  0
 11 17  1  0  0  0  0
 13 14  1  6  0  0  0
 13 19  1  0  0  0  0
 15 16  1  6  0  0  0
 15 20  1  0  0  0  0
 17 18  1  6  0  0  0
 17 22  1  0  0  0  0
 19  2  1  6  0  0  0
 19 24  1  0  0  0  0
 20 21  1  0  0  0  0
 20 26  1  6  0  0  0
 22 23  1  0  0  0  0
 22 28  1  6  0  0  0
 24 25  1  1  0  0  0
 24 30  1  0  0  0  0
 26 27  1  0  0  0  0
 28 29  1  0  0  0  0
 30 31  1  1  0  0  0
M  END
>  <CHROM.1>
179.21617774,18.02691749,-124.71183752,-138.43150869,52.83720559,156.74948884
21.62053518,8.36570615,7.32966213,1.80927565,0.21995064,-1.15610243

>  <Name>
2o3x_lig

>  <RI>
0

>  <Rbt.Current_Directory>
/home/itssahil/PROJECTS/Mol_Feturizer/New_Systems/rnas/2o3x

>  <Rbt.Executable>
rbdock ($Id: //depot/dev/client3/rdock/2013.1/src/exe/rbdock.cxx#4 $)

>  <Rbt.Library>
libRbt.so (2013.1, Build901 2013/11/27)

>  <Rbt.Parameter_File>
/export/apps/rDock/src/rDock_2013.1_src/data/scripts/dock_solv.prm

>  <Rbt.Receptor>
prm/blind_docking_40.prm

>  <SCORE>
-5.53279

>  <SCORE.INTER>
-19.2422

>  <SCORE.INTER.CONST>
1

>  <SCORE.INTER.POLAR>
-1.6092

>  <SCORE.INTER.ROT>
6

>  <SCORE.INTER.SOLV>
21.1345

>  <SCORE.INTER.VDW>
-22.109

>  <SCORE.INTER.norm>
-0.620715

>  <SCORE.INTRA>
9.50519

>  <SCORE.INTRA.DIHEDRAL>
9.97052

>  <SCORE.INTRA.DIHEDRAL.0>
9.37739

>  <SCORE.INTRA.POLAR>
0

>  <SCORE.INTRA.POLAR.0>
0

>  <SCORE.INTRA.REPUL>
0

>  <SCORE.INTRA.REPUL.0>
0

>  <SCORE.INTRA.SOLV>
0.884786

>  <SCORE.INTRA.SOLV.lig_0>
-82.9274

>  <SCORE.INTRA.VDW>
4.07754

>  <SCORE.INTRA.VDW.0>
-3.84922

>  <SCORE.INTRA.norm>
0.306619

>  <SCORE.RESTR>
4.2042

>  <SCORE.RESTR.CAVITY>
4.2042

>  <SCORE.RESTR.norm>
0.135619

>  <SCORE.SYSTEM>
0

>  <SCORE.SYSTEM.CONST>
0

>  <SCORE.SYSTEM.DIHEDRAL>
0

>  <SCORE.SYSTEM.SOLV>
0

>  <SCORE.SYSTEM.norm>
0

>  <SCORE.heavy>
31

>  <SCORE.norm>
-0.178477

>  <RMSD>
2.517

$$$$
2o3x_lig
 OpenBabel11021811463D
libRbt.so/2013.1/901 2013/11/27
 31 33  0  0  0  0  0  0  0  0999 V2000
   20.4077    9.7565    6.2043 C   0  0  2  0  0  0  0  0  0  0  0  0
   20.9552    8.4322    6.1594 O   0  0  0  0  0  0  0  0  0  0  0  0
   24.5092    6.3657    7.3413 C   0  0  2  0  0  0  0  0  0  0  0  0
   25.8412    6.0342    7.8937 N   0  0  0  0  0  0  0  0  0  0  0  0
   20.9114    7.6712   10.1182 C   0  0  1  0  0  0  0  0  0  0  0  0
   18.9900    9.7258    5.5504 C   0  0  2  0  0  0  0  0  0  0  0  0
   18.1573    8.6121    6.0721 N   0  0  0  0  0  0  0  0  0  0  0  0
   24.6046    7.3378    6.1184 C   0  0  0  0  0  0  0  0  0  0  0  0
   21.3157    6.1745   10.3247 C   0  0  2  0  0  0  0  0  0  0  0  0
   20.4896    5.1910    9.6430 O   0  0  0  0  0  0  0  0  0  0  0  0
   19.0738    9.5812    4.0191 C   0  0  1  0  0  0  0  0  0  0  0  0
   17.7901    9.6071    3.4485 O   0  0  0  0  0  0  0  0  0  0  0  0
   23.1488    7.6038    5.5871 C   0  0  2  0  0  0  0  0  0  0  0  0
   23.1541    8.5125    4.4016 N   0  0  0  0  0  0  0  0  0  0  0  0
   21.2764    6.1444   11.8434 C   0  0  2  0  0  0  0  0  0  0  0  0
   19.8973    6.0223   12.3342 O   0  0  0  0  0  0  0  0  0  0  0  0
   19.9344   10.6944    3.4456 C   0  0  2  0  0  0  0  0  0  0  0  0
   19.9928   10.5793    2.0603 O   0  0  0  0  0  0  0  0  0  0  0  0
   22.2720    8.2481    6.6984 C   0  0  2  0  0  0  0  0  0  0  0  0
   21.8900    7.4738   12.2667 C   0  0  2  0  0  0  0  0  0  0  0  0
   21.2933    8.3543   11.3184 O   0  0  0  0  0  0  0  0  0  0  0  0
   21.3647   10.6243    4.0514 C   0  0  2  0  0  0  0  0  0  0  0  0
   21.2889   10.7294    5.4895 O   0  0  0  0  0  0  0  0  0  0  0  0
   22.1975    7.4006    7.9840 C   0  0  2  0  0  0  0  0  0  0  0  0
   21.5535    8.2691    8.9814 O   0  0  0  0  0  0  0  0  0  0  0  0
   23.4522    7.5391   12.1732 C   0  0  0  0  0  0  0  0  0  0  0  0
   23.9702    8.3675   13.2101 N   0  0  0  0  0  0  0  0  0  0  0  0
   22.2663   11.7207    3.5333 C   0  0  0  0  0  0  0  0  0  0  0  0
   22.5397   11.5603    2.1888 O   0  0  0  0  0  0  0  0  0  0  0  0
   23.6608    6.9932    8.4620 C   0  0  1  0  0  0  0  0  0  0  0  0
   23.6159    6.0274    9.5232 O   0  0  0  0  0  0  0  0  0  0  0  0
  1  2  1  6  0  0  0
  1  6  1  0  0  0  0
  1 23  1  0  0  0  0
  3  4  1  1  0  0  0
  3  8  1  0  0  0  0
  3 30  1  0  0  0  0
  5  9  1  0  0  0  0
  5 21  1  0  0  0  0
  5 25  1  6  0  0  0
  6  7  1  1  0  0  0
  6 11  1  0  0  0  0
  8 13  1  0  0  0  0
  9 10  1  6  0  0  0
  9 15  1  0  0  0  0
 11 12  1  6  0  0  0
 11 17  1  0  0  0  0
 13 14  1  6  0  0  0
 13 19  1  0  0  0  0
 15 16  1  6  0  0  0
 15 20  1  0  0  0  0
 17 18  1  6  0  0  0
 17 22  1  0  0  0  0
 19  2  1  6  0  0  0
 19 24  1  0  0  0  0
 20 21  1  0  0  0  0
 20 26  1  6  0  0  0
 22 23  1  0  0  0  0
 22 28  1  6  0  0  0
 24 25  1  1  0  0  0
 24 30  1  0  0  0  0
 26 27  1  0  0  0  0
 28 29  1  0  0  0  0
 30 31  1  1  0  0  0
M  END
>  <CHROM.1>
179.15781611,15.20679580,-124.65966927,-146.58808233,-67.22734805,158.27251891
21.64414853,8.31372301,7.35606588,1.77913085,0.19137519,-1.17620073

>  <Name>
2o3x_lig

>  <RI>
0

>  <Rbt.Current_Directory>
/home/itssahil/PROJECTS/Mol_Feturizer/New_Systems/rnas/2o3x

>  <Rbt.Executable>
rbdock ($Id: //depot/dev/client3/rdock/2013.1/src/exe/rbdock.cxx#4 $)

>  <Rbt.Library>
libRbt.so (2013.1, Build901 2013/11/27)

>  <Rbt.Parameter_File>
/export/apps/rDock/src/rDock_2013.1_src/data/scripts/dock_solv.prm

>  <Rbt.Receptor>
prm/blind_docking_40.prm

>  <SCORE>
-5.41763

>  <SCORE.INTER>
-19.0778

>  <SCORE.INTER.CONST>
1

>  <SCORE.INTER.POLAR>
-1.62804

>  <SCORE.INTER.ROT>
6

>  <SCORE.INTER.SOLV>
20.4067

>  <SCORE.INTER.VDW>
-21.694

>  <SCORE.INTER.norm>
-0.615412

>  <SCORE.INTRA>
9.52285

>  <SCORE.INTRA.DIHEDRAL>
9.12045

>  <SCORE.INTRA.DIHEDRAL.0>
9.37739

>  <SCORE.INTRA.POLAR>
0

>  <SCORE.INTRA.POLAR.0>
0

>  <SCORE.INTRA.REPUL>
0

>  <SCORE.INTRA.REPUL.0>
0

>  <SCORE.INTRA.SOLV>
1.24295

>  <SCORE.INTRA.SOLV.lig_0>
-82.9274

>  <SCORE.INTRA.VDW>
4.34115

>  <SCORE.INTRA.VDW.0>
-3.84922

>  <SCORE.INTRA.norm>
0.307189

>  <SCORE.RESTR>
4.1373

>  <SCORE.RESTR.CAVITY>
4.1373

>  <SCORE.RESTR.norm>
0.133461

>  <SCORE.SYSTEM>
0

>  <SCORE.SYSTEM.CONST>
0

>  <SCORE.SYSTEM.DIHEDRAL>
0

>  <SCORE.SYSTEM.SOLV>
0

>  <SCORE.SYSTEM.norm>
0

>  <SCORE.heavy>
31

>  <SCORE.norm>
-0.174762

>  <RMSD>
2.539

$$$$
2o3x_lig
 OpenBabel11021811463D
libRbt.so/2013.1/901 2013/11/27
 31 33  0  0  0  0  0  0  0  0999 V2000
   19.9857    9.0818    6.5999 C   0  0  2  0  0  0  0  0  0  0  0  0
   20.7460    7.8950    6.3375 O   0  0  0  0  0  0  0  0  0  0  0  0
   24.7877    6.5216    6.6137 C   0  0  2  0  0  0  0  0  0  0  0  0
   26.2418    6.4317    6.8726 N   0  0  0  0  0  0  0  0  0  0  0  0
   21.2522    6.8494    9.9459 C   0  0  1  0  0  0  0  0  0  0  0  0
   18.4788    8.7700    6.3349 C   0  0  2  0  0  0  0  0  0  0  0  0
   18.0451    7.5088    6.9884 N   0  0  0  0  0  0  0  0  0  0  0  0
   24.4511    7.5764    5.5076 C   0  0  0  0  0  0  0  0  0  0  0  0
   22.1624    5.7122   10.5156 C   0  0  2  0  0  0  0  0  0  0  0  0
   22.1280    4.4482    9.7977 O   0  0  0  0  0  0  0  0  0  0  0  0
   18.1793    8.6533    4.8283 C   0  0  1  0  0  0  0  0  0  0  0  0
   16.8101    8.4234    4.6122 O   0  0  0  0  0  0  0  0  0  0  0  0
   22.8946    7.5756    5.2850 C   0  0  2  0  0  0  0  0  0  0  0  0
   22.4906    8.5474    4.2250 N   0  0  0  0  0  0  0  0  0  0  0  0
   21.6226    5.6902   11.9358 C   0  0  2  0  0  0  0  0  0  0  0  0
   20.3547    4.9520   12.0081 O   0  0  0  0  0  0  0  0  0  0  0  0
   18.6257    9.9199    4.1176 C   0  0  2  0  0  0  0  0  0  0  0  0
   18.3353    9.8263    2.7601 O   0  0  0  0  0  0  0  0  0  0  0  0
   22.1552    7.9467    6.6021 C   0  0  2  0  0  0  0  0  0  0  0  0
   21.4193    7.1589   12.2887 C   0  0  2  0  0  0  0  0  0  0  0  0
   20.8669    7.6496   11.0703 O   0  0  0  0  0  0  0  0  0  0  0  0
   20.1512   10.1358    4.3271 C   0  0  2  0  0  0  0  0  0  0  0  0
   20.4411   10.2159    5.7394 O   0  0  0  0  0  0  0  0  0  0  0  0
   22.5013    7.0135    7.7791 C   0  0  2  0  0  0  0  0  0  0  0  0
   21.9209    7.6592    8.9666 O   0  0  0  0  0  0  0  0  0  0  0  0
   22.7286    7.9372   12.6539 C   0  0  0  0  0  0  0  0  0  0  0  0
   23.2851    7.4201   13.8592 N   0  0  0  0  0  0  0  0  0  0  0  0
   20.6543   11.3938    3.6581 C   0  0  0  0  0  0  0  0  0  0  0  0
   20.7223   12.4492    4.5467 O   0  0  0  0  0  0  0  0  0  0  0  0
   24.0808    6.8816    7.9329 C   0  0  1  0  0  0  0  0  0  0  0  0
   24.4323    5.8546    8.8725 O   0  0  0  0  0  0  0  0  0  0  0  0
  1  2  1  6  0  0  0
  1  6  1  0  0  0  0
  1 23  1  0  0  0  0
  3  4  1  1  0  0  0
  3  8  1  0  0  0  0
  3 30  1  0  0  0  0
  5  9  1  0  0  0  0
  5 21  1  0  0  0  0
  5 25  1  6  0  0  0
  6  7  1  1  0  0  0
  6 11  1  0  0  0  0
  8 13  1  0  0  0  0
  9 10  1  6  0  0  0
  9 15  1  0  0  0  0
 11 12  1  1  0  0  0
 11 17  1  0  0  0  0
 13 14  1  6  0  0  0
 13 19  1  0  0  0  0
 15 16  1  6  0  0  0
 15 20  1  0  0  0  0
 17 18  1  6  0  0  0
 17 22  1  0  0  0  0
 19  2  1  6  0  0  0
 19 24  1  0  0  0  0
 20 21  1  0  0  0  0
 20 26  1  6  0  0  0
 22 23  1  0  0  0  0
 22 28  1  6  0  0  0
 24 25  1  1  0  0  0
 24 30  1  0  0  0  0
 26 27  1  0  0  0  0
 28 29  1  0  0  0  0
 30 31  1  1  0  0  0
M  END
>  <CHROM.1>
-176.25565884,56.60128134,-123.38457841,-65.69095397,96.71535271,138.36252320
21.35603291,7.88239425,7.53284989,1.95613772,0.23493717,-1.19125961

>  <Name>
2o3x_lig

>  <RI>
0

>  <Rbt.Current_Directory>
/home/itssahil/PROJECTS/Mol_Feturizer/New_Systems/rnas/2o3x

>  <Rbt.Executable>
rbdock ($Id: //depot/dev/client3/rdock/2013.1/src/exe/rbdock.cxx#4 $)

>  <Rbt.Library>
libRbt.so (2013.1, Build901 2013/11/27)

>  <Rbt.Parameter_File>
/export/apps/rDock/src/rDock_2013.1_src/data/scripts/dock_solv.prm

>  <Rbt.Receptor>
prm/pocket_docking_5.prm

>  <SCORE>
-14.4966

>  <SCORE.INTER>
-19.3875

>  <SCORE.INTER.CONST>
1

>  <SCORE.INTER.POLAR>
-1.46312

>  <SCORE.INTER.ROT>
6

>  <SCORE.INTER.SOLV>
18.9784

>  <SCORE.INTER.VDW>
-21.9741

>  <SCORE.INTER.norm>
-0.625404

>  <SCORE.INTRA>
4.89095

>  <SCORE.INTRA.DIHEDRAL>
7.31532

>  <SCORE.INTRA.DIHEDRAL.0>
9.37739

>  <SCORE.INTRA.POLAR>
0

>  <SCORE.INTRA.POLAR.0>
0

>  <SCORE.INTRA.REPUL>
0

>  <SCORE.INTRA.REPUL.0>
0

>  <SCORE.INTRA.SOLV>
0.935973

>  <SCORE.INTRA.SOLV.lig_0>
-82.9274

>  <SCORE.INTRA.VDW>
0.765302

>  <SCORE.INTRA.VDW.0>
-3.84922

>  <SCORE.INTRA.norm>
0.157773

>  <SCORE.RESTR>
0

>  <SCORE.RESTR.CAVITY>
0

>  <SCORE.RESTR.norm>
0

>  <SCORE.SYSTEM>
0

>  <SCORE.SYSTEM.CONST>
0

>  <SCORE.SYSTEM.DIHEDRAL>
0

>  <SCORE.SYSTEM.SOLV>
0

>  <SCORE.SYSTEM.norm>
0

>  <SCORE.heavy>
31

>  <SCORE.norm>
-0.467631

>  <RMSD>
2.688

$$$$
2o3x_lig
 OpenBabel11021811463D
libRbt.so/2013.1/901 2013/11/27
 31 33  0  0  0  0  0  0  0  0999 V2000
   19.1332    9.3627    6.2020 C   0  0  2  0  0  0  0  0  0  0  0  0
   20.0305    8.2453    6.2437 O   0  0  0  0  0  0  0  0  0  0  0  0
   22.6982    6.5408    9.1204 C   0  0  2  0  0  0  0  0  0  0  0  0
   23.6503    6.3541   10.2376 N   0  0  0  0  0  0  0  0  0  0  0  0
   19.7242    9.7804    9.4118 C   0  0  1  0  0  0  0  0  0  0  0  0
   17.9349    8.9976    5.2697 C   0  0  2  0  0  0  0  0  0  0  0  0
   17.3668    7.6622    5.5857 N   0  0  0  0  0  0  0  0  0  0  0  0
   23.3236    7.3646    7.9459 C   0  0  0  0  0  0  0  0  0  0  0  0
   18.5182   10.6778    9.8434 C   0  0  2  0  0  0  0  0  0  0  0  0
   17.8715   11.4310    8.7810 O   0  0  0  0  0  0  0  0  0  0  0  0
   18.3484    9.0004    3.7858 C   0  0  1  0  0  0  0  0  0  0  0  0
   17.2440    8.7195    2.9637 O   0  0  0  0  0  0  0  0  0  0  0  0
   22.2512    7.4818    6.8020 C   0  0  2  0  0  0  0  0  0  0  0  0
   22.7791    8.2421    5.6296 N   0  0  0  0  0  0  0  0  0  0  0  0
   19.2254   11.4972   10.9099 C   0  0  2  0  0  0  0  0  0  0  0  0
   20.0319   12.5665   10.3068 O   0  0  0  0  0  0  0  0  0  0  0  0
   18.9528   10.3468    3.4248 C   0  0  2  0  0  0  0  0  0  0  0  0
   19.3060   10.3597    2.0791 O   0  0  0  0  0  0  0  0  0  0  0  0
   20.9749    8.2022    7.3228 C   0  0  2  0  0  0  0  0  0  0  0  0
   20.1098   10.4921   11.6383 C   0  0  2  0  0  0  0  0  0  0  0  0
   20.6062    9.7320   10.5399 O   0  0  0  0  0  0  0  0  0  0  0  0
   20.2006   10.6225    4.3106 C   0  0  2  0  0  0  0  0  0  0  0  0
   19.8237   10.5912    5.7041 O   0  0  0  0  0  0  0  0  0  0  0  0
   20.3408    7.5106    8.5459 C   0  0  2  0  0  0  0  0  0  0  0  0
   19.3241    8.4530    9.0376 O   0  0  0  0  0  0  0  0  0  0  0  0
   19.3586    9.5670   12.6547 C   0  0  0  0  0  0  0  0  0  0  0  0
   18.2911    8.8867   12.0007 N   0  0  0  0  0  0  0  0  0  0  0  0
   20.8377   11.9597    4.0118 C   0  0  0  0  0  0  0  0  0  0  0  0
   21.3513   12.0024    2.7302 O   0  0  0  0  0  0  0  0  0  0  0  0
   21.4435    7.2474    9.6643 C   0  0  1  0  0  0  0  0  0  0  0  0
   20.9347    6.4134   10.7163 O   0  0  0  0  0  0  0  0  0  0  0  0
  1  2  1  6  0  0  0
  1  6  1  0  0  0  0
  1 23  1  0  0  0  0
  3  4  1  1  0  0  0
  3  8  1  0  0  0  0
  3 30  1  0  0  0  0
  5  9  1  0  0  0  0
  5 21  1  0  0  0  0
  5 25  1  1  0  0  0
  6  7  1  1  0  0  0
  6 11  1  0  0  0  0
  8 13  1  0  0  0  0
  9 10  1  6  0  0  0
  9 15  1  0  0  0  0
 11 12  1  6  0  0  0
 11 17  1  0  0  0  0
 13 14  1  6  0  0  0
 13 19  1  0  0  0  0
 15 16  1  6  0  0  0
 15 20  1  0  0  0  0
 17 18  1  6  0  0  0
 17 22  1  0  0  0  0
 19  2  1  6  0  0  0
 19 24  1  0  0  0  0
 20 21  1  0  0  0  0
 20 26  1  1  0  0  0
 22 23  1  0  0  0  0
 22 28  1  6  0  0  0
 24 25  1  1  0  0  0
 24 30  1  0  0  0  0
 26 27  1  0  0  0  0
 28 29  1  0  0  0  0
 30 31  1  1  0  0  0
M  END
>  <CHROM.1>
-162.07885650,177.10365649,-148.99955761,55.37889169,-64.83973789,-57.72284254
20.04796056,9.26720382,7.49986708,1.78364664,0.82967471,-1.55908310

>  <Name>
2o3x_lig

>  <RI>
0

>  <Rbt.Current_Directory>
/home/itssahil/PROJECTS/Mol_Feturizer/New_Systems/rnas/2o3x

>  <Rbt.Executable>
rbdock ($Id: //depot/dev/client3/rdock/2013.1/src/exe/rbdock.cxx#4 $)

>  <Rbt.Library>
libRbt.so (2013.1, Build901 2013/11/27)

>  <Rbt.Parameter_File>
/export/apps/rDock/src/rDock_2013.1_src/data/scripts/dock_solv.prm

>  <Rbt.Receptor>
prm/pocket_docking_5.prm

>  <SCORE>
-22.7559

>  <SCORE.INTER>
-23.4201

>  <SCORE.INTER.CONST>
1

>  <SCORE.INTER.POLAR>
-2.60192

>  <SCORE.INTER.ROT>
6

>  <SCORE.INTER.SOLV>
15.3107

>  <SCORE.INTER.VDW>
-19.6439

>  <SCORE.INTER.norm>
-0.755487

>  <SCORE.INTRA>
0.664185

>  <SCORE.INTRA.DIHEDRAL>
-3.75047

>  <SCORE.INTRA.DIHEDRAL.0>
9.37739

>  <SCORE.INTRA.POLAR>
0

>  <SCORE.INTRA.POLAR.0>
0

>  <SCORE.INTRA.REPUL>
0

>  <SCORE.INTRA.REPUL.0>
0

>  <SCORE.INTRA.SOLV>
2.95109

>  <SCORE.INTRA.SOLV.lig_0>
-82.9274

>  <SCORE.INTRA.VDW>
1.06388

>  <SCORE.INTRA.VDW.0>
-3.84922

>  <SCORE.INTRA.norm>
0.0214253

>  <SCORE.RESTR>
0

>  <SCORE.RESTR.CAVITY>
0

>  <SCORE.RESTR.norm>
0

>  <SCORE.SYSTEM>
0

>  <SCORE.SYSTEM.CONST>
0

>  <SCORE.SYSTEM.DIHEDRAL>
0

>  <SCORE.SYSTEM.SOLV>
0

>  <SCORE.SYSTEM.norm>
0

>  <SCORE.heavy>
31

>  <SCORE.norm>
-0.734061

>  <RMSD>
2.727

$$$$
2o3x_lig
 OpenBabel11021811463D
libRbt.so/2013.1/901 2013/11/27
 31 33  0  0  0  0  0  0  0  0999 V2000
   21.3802    8.7074    4.8420 C   0  0  2  0  0  0  0  0  0  0  0  0
   21.3807    9.1592    6.2027 O   0  0  0  0  0  0  0  0  0  0  0  0
   23.0609    5.7013    8.0784 C   0  0  2  0  0  0  0  0  0  0  0  0
   23.7814    4.7954    9.0002 N   0  0  0  0  0  0  0  0  0  0  0  0
   19.5727    7.9842    9.8606 C   0  0  1  0  0  0  0  0  0  0  0  0
   20.8840    9.8775    3.9348 C   0  0  2  0  0  0  0  0  0  0  0  0
   21.5754   11.1556    4.2420 N   0  0  0  0  0  0  0  0  0  0  0  0
   24.0341    6.6622    7.3175 C   0  0  0  0  0  0  0  0  0  0  0  0
   19.2198    9.0510   10.9486 C   0  0  2  0  0  0  0  0  0  0  0  0
   20.0968    9.0936   12.1076 O   0  0  0  0  0  0  0  0  0  0  0  0
   19.3682   10.1082    4.0838 C   0  0  1  0  0  0  0  0  0  0  0  0
   18.9360   11.1302    3.2218 O   0  0  0  0  0  0  0  0  0  0  0  0
   23.1812    7.5580    6.3467 C   0  0  2  0  0  0  0  0  0  0  0  0
   24.0423    8.4952    5.5650 N   0  0  0  0  0  0  0  0  0  0  0  0
   17.7837    8.6295   11.2111 C   0  0  2  0  0  0  0  0  0  0  0  0
   17.7299    7.4559   12.0928 O   0  0  0  0  0  0  0  0  0  0  0  0
   18.6225    8.8163    3.7947 C   0  0  2  0  0  0  0  0  0  0  0  0
   17.2519    9.0278    3.9061 O   0  0  0  0  0  0  0  0  0  0  0  0
   22.1427    8.3943    7.1476 C   0  0  2  0  0  0  0  0  0  0  0  0
   17.2251    8.3010    9.8315 C   0  0  2  0  0  0  0  0  0  0  0  0
   18.3290    7.6062    9.2578 O   0  0  0  0  0  0  0  0  0  0  0  0
   19.0776    7.7082    4.7860 C   0  0  2  0  0  0  0  0  0  0  0  0
   20.5031    7.5093    4.6713 O   0  0  0  0  0  0  0  0  0  0  0  0
   21.1970    7.5312    8.0062 C   0  0  2  0  0  0  0  0  0  0  0  0
   20.4756    8.4852    8.8626 O   0  0  0  0  0  0  0  0  0  0  0  0
   16.8436    9.5456    8.9605 C   0  0  0  0  0  0  0  0  0  0  0  0
   15.9365    9.1627    7.9307 N   0  0  0  0  0  0  0  0  0  0  0  0
   18.3836    6.3892    4.5369 C   0  0  0  0  0  0  0  0  0  0  0  0
   17.0512    6.4404    4.8974 O   0  0  0  0  0  0  0  0  0  0  0  0
   22.0359    6.5097    8.8942 C   0  0  1  0  0  0  0  0  0  0  0  0
   21.1829    5.5494    9.5357 O   0  0  0  0  0  0  0  0  0  0  0  0
  1  2  1  1  0  0  0
  1  6  1  0  0  0  0
  1 23  1  0  0  0  0
  3  4  1  1  0  0  0
  3  8  1  0  0  0  0
  3 30  1  0  0  0  0
  5  9  1  0  0  0  0
  5 21  1  0  0  0  0
  5 25  1  6  0  0  0
  6  7  1  1  0  0  0
  6 11  1  0  0  0  0
  8 13  1  0  0  0  0
  9 10  1  1  0  0  0
  9 15  1  0  0  0  0
 11 12  1  6  0  0  0
 11 17  1  0  0  0  0
 13 14  1  1  0  0  0
 13 19  1  0  0  0  0
 15 16  1  1  0  0  0
 15 20  1  0  0  0  0
 17 18  1  1  0  0  0
 17 22  1  0  0  0  0
 19  2  1  6  0  0  0
 19 24  1  0  0  0  0
 20 21  1  0  0  0  0
 20 26  1  6  0  0  0
 22 23  1  0  0  0  0
 22 28  1  6  0  0  0
 24 25  1  1  0  0  0
 24 30  1  0  0  0  0
 26 27  1  0  0  0  0
 28 29  1  0  0  0  0
 30 31  1  6  0  0  0
M  END
>  <CHROM.1>
-162.90440910,162.81365671,20.12719364,-160.07724411,-70.76549233,-175.60870402
20.03003487,8.14451353,7.23809692,-1.49619043,-0.30839080,1.81175926

>  <Name>
2o3x_lig

>  <RI>
3.41138e+07

>  <Rbt.Current_Directory>
/home/itssahil/PROJECTS/Mol_Feturizer/New_Systems/rnas/2o3x

>  <Rbt.Executable>
rbdock ($Id: //depot/dev/client3/rdock/2013.1/src/exe/rbdock.cxx#4 $)

>  <Rbt.Library>
libRbt.so (2013.1, Build901 2013/11/27)

>  <Rbt.Parameter_File>
/export/apps/rDock/src/rDock_2013.1_src/data/scripts/dock_solv.prm

>  <Rbt.Receptor>
prm/pocket_docking_2.prm

>  <SCORE>
5.41852

>  <SCORE.INTER>
0.379229

>  <SCORE.INTER.CONST>
1

>  <SCORE.INTER.POLAR>
0

>  <SCORE.INTER.ROT>
6

>  <SCORE.INTER.SOLV>
15.3157

>  <SCORE.INTER.VDW>
-12.4524

>  <SCORE.INTER.norm>
0.0122332

>  <SCORE.INTRA>
4.12467

>  <SCORE.INTRA.DIHEDRAL>
0.537794

>  <SCORE.INTRA.DIHEDRAL.0>
9.37739

>  <SCORE.INTRA.POLAR>
0

>  <SCORE.INTRA.POLAR.0>
0

>  <SCORE.INTRA.REPUL>
0

>  <SCORE.INTRA.REPUL.0>
0

>  <SCORE.INTRA.SOLV>
-1.04404

>  <SCORE.INTRA.SOLV.lig_0>
-82.9274

>  <SCORE.INTRA.VDW>
4.37779

>  <SCORE.INTRA.VDW.0>
-3.84922

>  <SCORE.INTRA.norm>
0.133054

>  <SCORE.RESTR>
0.914623

>  <SCORE.RESTR.CAVITY>
0.914623

>  <SCORE.RESTR.norm>
0.029504

>  <SCORE.SYSTEM>
0

>  <SCORE.SYSTEM.CONST>
0

>  <SCORE.SYSTEM.DIHEDRAL>
0

>  <SCORE.SYSTEM.SOLV>
0

>  <SCORE.SYSTEM.norm>
0

>  <SCORE.heavy>
31

>  <SCORE.norm>
0.174791

>  <RMSD>
2.800

$$$$
2o3x_lig
 OpenBabel11021811463D
libRbt.so/2013.1/901 2013/11/27
 31 33  0  0  0  0  0  0  0  0999 V2000
   21.3185    9.6185    7.0919 C   0  0  2  0  0  0  0  0  0  0  0  0
   21.5298    8.2007    7.0665 O   0  0  0  0  0  0  0  0  0  0  0  0
   24.7350    5.4389    7.6969 C   0  0  2  0  0  0  0  0  0  0  0  0
   26.0019    4.8098    8.1312 N   0  0  0  0  0  0  0  0  0  0  0  0
   22.3141    6.8283   11.0873 C   0  0  1  0  0  0  0  0  0  0  0  0
   19.7979    9.8857    7.3257 C   0  0  2  0  0  0  0  0  0  0  0  0
   19.2553    9.0824    8.4510 N   0  0  0  0  0  0  0  0  0  0  0  0
   24.9764    6.6186    6.6972 C   0  0  0  0  0  0  0  0  0  0  0  0
   23.2061    7.7507   11.9816 C   0  0  2  0  0  0  0  0  0  0  0  0
   24.6397    7.5200   11.9046 O   0  0  0  0  0  0  0  0  0  0  0  0
   18.9656    9.5682    6.0690 C   0  0  1  0  0  0  0  0  0  0  0  0
   17.6092    9.8639    6.2859 O   0  0  0  0  0  0  0  0  0  0  0  0
   23.5774    7.1981    6.2737 C   0  0  2  0  0  0  0  0  0  0  0  0
   23.7201    8.3220    5.3001 N   0  0  0  0  0  0  0  0  0  0  0  0
   22.5519    7.4562   13.3211 C   0  0  2  0  0  0  0  0  0  0  0  0
   23.0204    6.1760   13.8682 O   0  0  0  0  0  0  0  0  0  0  0  0
   19.5009   10.3585    4.8868 C   0  0  2  0  0  0  0  0  0  0  0  0
   18.7363   10.0910    3.7556 O   0  0  0  0  0  0  0  0  0  0  0  0
   22.8036    7.7191    7.5183 C   0  0  2  0  0  0  0  0  0  0  0  0
   21.0601    7.4041   13.0130 C   0  0  2  0  0  0  0  0  0  0  0  0
   21.0691    6.6861   11.7822 O   0  0  0  0  0  0  0  0  0  0  0  0
   20.9886    9.9864    4.6303 C   0  0  2  0  0  0  0  0  0  0  0  0
   21.7678   10.2542    5.8160 O   0  0  0  0  0  0  0  0  0  0  0  0
   22.6013    6.6438    8.6042 C   0  0  2  0  0  0  0  0  0  0  0  0
   22.0913    7.3713    9.7767 O   0  0  0  0  0  0  0  0  0  0  0  0
   20.3745    8.8008   12.8319 C   0  0  0  0  0  0  0  0  0  0  0  0
   20.4940    9.5634   14.0294 N   0  0  0  0  0  0  0  0  0  0  0  0
   21.5860   10.7556    3.4750 C   0  0  0  0  0  0  0  0  0  0  0  0
   21.5673   12.1170    3.7076 O   0  0  0  0  0  0  0  0  0  0  0  0
   23.9869    5.9375    8.9464 C   0  0  1  0  0  0  0  0  0  0  0  0
   23.7968    4.7899    9.7878 O   0  0  0  0  0  0  0  0  0  0  0  0
  1  2  1  6  0  0  0
  1  6  1  0  0  0  0
  1 23  1  0  0  0  0
  3  4  1  1  0  0  0
  3  8  1  0  0  0  0
  3 30  1  0  0  0  0
  5  9  1  0  0  0  0
  5 21  1  0  0  0  0
  5 25  1  6  0  0  0
  6  7  1  1  0  0  0
  6 11  1  0  0  0  0
  8 13  1  0  0  0  0
  9 10  1  1  0  0  0
  9 15  1  0  0  0  0
 11 12  1  1  0  0  0
 11 17  1  0  0  0  0
 13 14  1  6  0  0  0
 13 19  1  0  0  0  0
 15 16  1  6  0  0  0
 15 20  1  0  0  0  0
 17 18  1  6  0  0  0
 17 22  1  0  0  0  0
 19  2  1  6  0  0  0
 19 24  1  0  0  0  0
 20 21  1  0  0  0  0
 20 26  1  6  0  0  0
 22 23  1  0  0  0  0
 22 28  1  6  0  0  0
 24 25  1  1  0  0  0
 24 30  1  0  0  0  0
 26 27  1  0  0  0  0
 28 29  1  0  0  0  0
 30 31  1  1  0  0  0
M  END
>  <CHROM.1>
-149.96231980,116.63891815,-109.32661788,-60.84138000,60.94693898,-154.16425376
21.90753653,8.16766411,8.41956168,1.92148236,0.61531212,-1.34956137

>  <Name>
2o3x_lig

>  <RI>
224

>  <Rbt.Current_Directory>
/home/itssahil/PROJECTS/Mol_Feturizer/New_Systems/rnas/2o3x

>  <Rbt.Executable>
rbdock ($Id: //depot/dev/client3/rdock/2013.1/src/exe/rbdock.cxx#4 $)

>  <Rbt.Library>
libRbt.so (2013.1, Build901 2013/11/27)

>  <Rbt.Parameter_File>
/export/apps/rDock/src/rDock_2013.1_src/data/scripts/dock_solv.prm

>  <Rbt.Receptor>
prm/blind_docking_100.prm

>  <SCORE>
-0.883969

>  <SCORE.INTER>
-10.0178

>  <SCORE.INTER.CONST>
1

>  <SCORE.INTER.POLAR>
-0.175769

>  <SCORE.INTER.ROT>
6

>  <SCORE.INTER.SOLV>
22.0173

>  <SCORE.INTER.VDW>
-21.0317

>  <SCORE.INTER.norm>
-0.323155

>  <SCORE.INTRA>
7.12957

>  <SCORE.INTRA.DIHEDRAL>
10.9289

>  <SCORE.INTRA.DIHEDRAL.0>
9.37739

>  <SCORE.INTRA.POLAR>
0

>  <SCORE.INTRA.POLAR.0>
0

>  <SCORE.INTRA.REPUL>
0

>  <SCORE.INTRA.REPUL.0>
0

>  <SCORE.INTRA.SOLV>
1.14367

>  <SCORE.INTRA.SOLV.lig_0>
-82.9274

>  <SCORE.INTRA.VDW>
1.09327

>  <SCORE.INTRA.VDW.0>
-3.84922

>  <SCORE.INTRA.norm>
0.229986

>  <SCORE.RESTR>
2.00427

>  <SCORE.RESTR.CAVITY>
2.00427

>  <SCORE.RESTR.norm>
0.0646537

>  <SCORE.SYSTEM>
0

>  <SCORE.SYSTEM.CONST>
0

>  <SCORE.SYSTEM.DIHEDRAL>
0

>  <SCORE.SYSTEM.SOLV>
0

>  <SCORE.SYSTEM.norm>
0

>  <SCORE.heavy>
31

>  <SCORE.norm>
-0.0285151

>  <RMSD>
2.811

$$$$
2o3x_lig
 OpenBabel11021811463D
libRbt.so/2013.1/901 2013/11/27
 31 33  0  0  0  0  0  0  0  0999 V2000
   21.3306    9.5923    7.2091 C   0  0  2  0  0  0  0  0  0  0  0  0
   21.5332    8.1743    7.1477 O   0  0  0  0  0  0  0  0  0  0  0  0
   24.6706    5.3515    7.8450 C   0  0  2  0  0  0  0  0  0  0  0  0
   25.9185    4.6999    8.3009 N   0  0  0  0  0  0  0  0  0  0  0  0
   22.3750    6.9121   11.1961 C   0  0  1  0  0  0  0  0  0  0  0  0
   19.7953    9.8677    7.2830 C   0  0  2  0  0  0  0  0  0  0  0  0
   19.1245    9.0255    8.3060 N   0  0  0  0  0  0  0  0  0  0  0  0
   24.9491    6.5152    6.8363 C   0  0  0  0  0  0  0  0  0  0  0  0
   23.3960    7.8517   11.9177 C   0  0  2  0  0  0  0  0  0  0  0  0
   24.8019    7.5375   11.7195 O   0  0  0  0  0  0  0  0  0  0  0  0
   19.1065    9.6119    5.9291 C   0  0  1  0  0  0  0  0  0  0  0  0
   17.7366    9.9145    6.0057 O   0  0  0  0  0  0  0  0  0  0  0  0
   23.5681    7.1200    6.3900 C   0  0  2  0  0  0  0  0  0  0  0  0
   23.7464    8.2304    5.4069 N   0  0  0  0  0  0  0  0  0  0  0  0
   22.8697    7.6999   13.3350 C   0  0  2  0  0  0  0  0  0  0  0  0
   23.3317    6.4431   13.9388 O   0  0  0  0  0  0  0  0  0  0  0  0
   19.7763   10.4436    4.8482 C   0  0  2  0  0  0  0  0  0  0  0  0
   19.1412   10.2317    3.6286 O   0  0  0  0  0  0  0  0  0  0  0  0
   22.7909    7.6704    7.6198 C   0  0  2  0  0  0  0  0  0  0  0  0
   21.3534    7.7056   13.1807 C   0  0  2  0  0  0  0  0  0  0  0  0
   21.2027    6.8934   12.0196 O   0  0  0  0  0  0  0  0  0  0  0  0
   21.2807   10.0647    4.7436 C   0  0  2  0  0  0  0  0  0  0  0  0
   21.9244   10.2744    6.0190 O   0  0  0  0  0  0  0  0  0  0  0  0
   22.5527    6.6111    8.7141 C   0  0  2  0  0  0  0  0  0  0  0  0
   22.0445    7.3615    9.8728 O   0  0  0  0  0  0  0  0  0  0  0  0
   20.7186    9.1191   12.9515 C   0  0  0  0  0  0  0  0  0  0  0  0
   19.2989    9.0377   13.0379 N   0  0  0  0  0  0  0  0  0  0  0  0
   22.0091   10.8735    3.6955 C   0  0  0  0  0  0  0  0  0  0  0  0
   21.4151   10.7491    2.4547 O   0  0  0  0  0  0  0  0  0  0  0  0
   23.9186    5.8790    9.0802 C   0  0  1  0  0  0  0  0  0  0  0  0
   23.6939    4.7445    9.9309 O   0  0  0  0  0  0  0  0  0  0  0  0
  1  2  1  6  0  0  0
  1  6  1  0  0  0  0
  1 23  1  0  0  0  0
  3  4  1  1  0  0  0
  3  8  1  0  0  0  0
  3 30  1  0  0  0  0
  5  9  1  0  0  0  0
  5 21  1  0  0  0  0
  5 25  1  6  0  0  0
  6  7  1  1  0  0  0
  6 11  1  0  0  0  0
  8 13  1  0  0  0  0
  9 10  1  1  0  0  0
  9 15  1  0  0  0  0
 11 12  1  1  0  0  0
 11 17  1  0  0  0  0
 13 14  1  6  0  0  0
 13 19  1  0  0  0  0
 15 16  1  6  0  0  0
 15 20  1  0  0  0  0
 17 18  1  6  0  0  0
 17 22  1  0  0  0  0
 19  2  1  6  0  0  0
 19 24  1  0  0  0  0
 20 21  1  0  0  0  0
 20 26  1  6  0  0  0
 22 23  1  0  0  0  0
 22 28  1  6  0  0  0
 24 25  1  1  0  0  0
 24 30  1  0  0  0  0
 26 27  1  0  0  0  0
 28 29  1  0  0  0  0
 30 31  1  1  0  0  0
M  END
>  <CHROM.1>
-154.85588130,108.52273223,-111.90051127,-170.61781752,-56.48956695,-146.88165576
21.96405436,8.14357245,8.39563212,1.91102931,0.59973597,-1.36678730

>  <Name>
2o3x_lig

>  <RI>
224

>  <Rbt.Current_Directory>
/home/itssahil/PROJECTS/Mol_Feturizer/New_Systems/rnas/2o3x

>  <Rbt.Executable>
rbdock ($Id: //depot/dev/client3/rdock/2013.1/src/exe/rbdock.cxx#4 $)

>  <Rbt.Library>
libRbt.so (2013.1, Build901 2013/11/27)

>  <Rbt.Parameter_File>
/export/apps/rDock/src/rDock_2013.1_src/data/scripts/dock_solv.prm

>  <Rbt.Receptor>
prm/blind_docking_100.prm

>  <SCORE>
0.453489

>  <SCORE.INTER>
-9.85632

>  <SCORE.INTER.CONST>
1

>  <SCORE.INTER.POLAR>
-0.114501

>  <SCORE.INTER.ROT>
6

>  <SCORE.INTER.SOLV>
19.1046

>  <SCORE.INTER.VDW>
-20.1574

>  <SCORE.INTER.norm>
-0.317946

>  <SCORE.INTRA>
7.53789

>  <SCORE.INTRA.DIHEDRAL>
11.3501

>  <SCORE.INTRA.DIHEDRAL.0>
9.37739

>  <SCORE.INTRA.POLAR>
0

>  <SCORE.INTRA.POLAR.0>
0

>  <SCORE.INTRA.REPUL>
0

>  <SCORE.INTRA.REPUL.0>
0

>  <SCORE.INTRA.SOLV>
0.67716

>  <SCORE.INTRA.SOLV.lig_0>
-82.9274

>  <SCORE.INTRA.VDW>
1.52427

>  <SCORE.INTRA.VDW.0>
-3.84922

>  <SCORE.INTRA.norm>
0.243158

>  <SCORE.RESTR>
2.77192

>  <SCORE.RESTR.CAVITY>
2.77192

>  <SCORE.RESTR.norm>
0.0894168

>  <SCORE.SYSTEM>
0

>  <SCORE.SYSTEM.CONST>
0

>  <SCORE.SYSTEM.DIHEDRAL>
0

>  <SCORE.SYSTEM.SOLV>
0

>  <SCORE.SYSTEM.norm>
0

>  <SCORE.heavy>
31

>  <SCORE.norm>
0.0146287

>  <RMSD>
2.826

$$$$
2o3x_lig
 OpenBabel11021811463D
libRbt.so/2013.1/901 2013/11/27
 31 33  0  0  0  0  0  0  0  0999 V2000
   21.2842    9.6364    7.1292 C   0  0  2  0  0  0  0  0  0  0  0  0
   21.4845    8.2168    7.1315 O   0  0  0  0  0  0  0  0  0  0  0  0
   24.6896    5.4580    7.7752 C   0  0  2  0  0  0  0  0  0  0  0  0
   25.9524    4.8279    8.2200 N   0  0  0  0  0  0  0  0  0  0  0  0
   22.3862    6.9159   11.1532 C   0  0  1  0  0  0  0  0  0  0  0  0
   19.7622    9.9195    7.3338 C   0  0  2  0  0  0  0  0  0  0  0  0
   19.1952    9.1400    8.4637 N   0  0  0  0  0  0  0  0  0  0  0  0
   24.9411    6.6500    6.7927 C   0  0  0  0  0  0  0  0  0  0  0  0
   23.4135    7.8722   11.8434 C   0  0  2  0  0  0  0  0  0  0  0  0
   24.8176    7.5790   11.6046 O   0  0  0  0  0  0  0  0  0  0  0  0
   18.9477    9.5869    6.0694 C   0  0  1  0  0  0  0  0  0  0  0  0
   17.5904    9.8969    6.2593 O   0  0  0  0  0  0  0  0  0  0  0  0
   23.5463    7.2300    6.3561 C   0  0  2  0  0  0  0  0  0  0  0  0
   23.6989    8.3655    5.3978 N   0  0  0  0  0  0  0  0  0  0  0  0
   22.9312    7.7152   13.2757 C   0  0  2  0  0  0  0  0  0  0  0  0
   23.4296    6.4666   13.8675 O   0  0  0  0  0  0  0  0  0  0  0  0
   19.5082   10.3525    4.8827 C   0  0  2  0  0  0  0  0  0  0  0  0
   18.7597   10.0715    3.7440 O   0  0  0  0  0  0  0  0  0  0  0  0
   22.7533    7.7340    7.5956 C   0  0  2  0  0  0  0  0  0  0  0  0
   21.4111    7.6976   13.1658 C   0  0  2  0  0  0  0  0  0  0  0  0
   21.2389    6.8811   12.0107 O   0  0  0  0  0  0  0  0  0  0  0  0
   20.9968    9.9644    4.6566 C   0  0  2  0  0  0  0  0  0  0  0  0
   21.7591   10.2465    5.8500 O   0  0  0  0  0  0  0  0  0  0  0  0
   22.5393    6.6456    8.6661 C   0  0  2  0  0  0  0  0  0  0  0  0
   22.0105    7.3578    9.8396 O   0  0  0  0  0  0  0  0  0  0  0  0
   20.7486    9.1009   12.9532 C   0  0  0  0  0  0  0  0  0  0  0  0
   19.3354    9.0031   13.1059 N   0  0  0  0  0  0  0  0  0  0  0  0
   21.6188   10.7089    3.4981 C   0  0  0  0  0  0  0  0  0  0  0  0
   22.8944   10.2530    3.2277 O   0  0  0  0  0  0  0  0  0  0  0  0
   23.9223    5.9398    9.0196 C   0  0  1  0  0  0  0  0  0  0  0  0
   23.7242    4.7819    9.8450 O   0  0  0  0  0  0  0  0  0  0  0  0
  1  2  1  6  0  0  0
  1  6  1  0  0  0  0
  1 23  1  0  0  0  0
  3  4  1  1  0  0  0
  3  8  1  0  0  0  0
  3 30  1  0  0  0  0
  5  9  1  0  0  0  0
  5 21  1  0  0  0  0
  5 25  1  6  0  0  0
  6  7  1  1  0  0  0
  6 11  1  0  0  0  0
  8 13  1  0  0  0  0
  9 10  1  1  0  0  0
  9 15  1  0  0  0  0
 11 12  1  1  0  0  0
 11 17  1  0  0  0  0
 13 14  1  6  0  0  0
 13 19  1  0  0  0  0
 15 16  1  6  0  0  0
 15 20  1  0  0  0  0
 17 18  1  6  0  0  0
 17 22  1  0  0  0  0
 19  2  1  6  0  0  0
 19 24  1  0  0  0  0
 20 21  1  0  0  0  0
 20 26  1  6  0  0  0
 22 23  1  0  0  0  0
 22 28  1  6  0  0  0
 24 25  1  1  0  0  0
 24 30  1  0  0  0  0
 26 27  1  0  0  0  0
 28 29  1  0  0  0  0
 30 31  1  1  0  0  0
M  END
>  <CHROM.1>
-150.75296160,106.09993581,-107.33956257,-169.53342323,-173.84792620,-144.77364317
21.96693781,8.14061973,8.40475972,1.91021607,0.56031341,-1.36797934

>  <Name>
2o3x_lig

>  <RI>
224

>  <Rbt.Current_Directory>
/home/itssahil/PROJECTS/Mol_Feturizer/New_Systems/rnas/2o3x

>  <Rbt.Executable>
rbdock ($Id: //depot/dev/client3/rdock/2013.1/src/exe/rbdock.cxx#4 $)

>  <Rbt.Library>
libRbt.so (2013.1, Build901 2013/11/27)

>  <Rbt.Parameter_File>
/export/apps/rDock/src/rDock_2013.1_src/data/scripts/dock_solv.prm

>  <Rbt.Receptor>
prm/blind_docking_100.prm

>  <SCORE>
-0.265952

>  <SCORE.INTER>
-10.6926

>  <SCORE.INTER.CONST>
1

>  <SCORE.INTER.POLAR>
-0.177613

>  <SCORE.INTER.ROT>
6

>  <SCORE.INTER.SOLV>
19.2338

>  <SCORE.INTER.VDW>
-20.5476

>  <SCORE.INTER.norm>
-0.344922

>  <SCORE.INTRA>
7.77702

>  <SCORE.INTRA.DIHEDRAL>
11.9426

>  <SCORE.INTRA.DIHEDRAL.0>
9.37739

>  <SCORE.INTRA.POLAR>
0

>  <SCORE.INTRA.POLAR.0>
0

>  <SCORE.INTRA.REPUL>
0

>  <SCORE.INTRA.REPUL.0>
0

>  <SCORE.INTRA.SOLV>
1.24441

>  <SCORE.INTRA.SOLV.lig_0>
-82.9274

>  <SCORE.INTRA.VDW>
1.18352

>  <SCORE.INTRA.VDW.0>
-3.84922

>  <SCORE.INTRA.norm>
0.250872

>  <SCORE.RESTR>
2.64961

>  <SCORE.RESTR.CAVITY>
2.64961

>  <SCORE.RESTR.norm>
0.0854712

>  <SCORE.SYSTEM>
0

>  <SCORE.SYSTEM.CONST>
0

>  <SCORE.SYSTEM.DIHEDRAL>
0

>  <SCORE.SYSTEM.SOLV>
0

>  <SCORE.SYSTEM.norm>
0

>  <SCORE.heavy>
31

>  <SCORE.norm>
-0.00857909

>  <RMSD>
2.839

$$$$
2o3x_lig
 OpenBabel11021811463D
libRbt.so/2013.1/901 2013/11/27
 31 33  0  0  0  0  0  0  0  0999 V2000
   19.0915    9.4286    6.2707 C   0  0  2  0  0  0  0  0  0  0  0  0
   19.9390    8.2749    6.3492 O   0  0  0  0  0  0  0  0  0  0  0  0
   22.7558    6.6464    9.1262 C   0  0  2  0  0  0  0  0  0  0  0  0
   23.7598    6.4881   10.2015 N   0  0  0  0  0  0  0  0  0  0  0  0
   19.7565    9.8550    9.5022 C   0  0  1  0  0  0  0  0  0  0  0  0
   17.8624    9.0766    5.3740 C   0  0  2  0  0  0  0  0  0  0  0  0
   17.2413    7.7835    5.7586 N   0  0  0  0  0  0  0  0  0  0  0  0
   23.3168    7.4597    7.9125 C   0  0  0  0  0  0  0  0  0  0  0  0
   18.5494   10.7651    9.9034 C   0  0  2  0  0  0  0  0  0  0  0  0
   17.9045   11.4845    8.8168 O   0  0  0  0  0  0  0  0  0  0  0  0
   18.2502    8.9948    3.8854 C   0  0  1  0  0  0  0  0  0  0  0  0
   17.1206    8.7277    3.0936 O   0  0  0  0  0  0  0  0  0  0  0  0
   22.1922    7.5466    6.8170 C   0  0  2  0  0  0  0  0  0  0  0  0
   22.6568    8.2954    5.6108 N   0  0  0  0  0  0  0  0  0  0  0  0
   19.2545   11.6177   10.9450 C   0  0  2  0  0  0  0  0  0  0  0  0
   20.0618   12.6678   10.3101 O   0  0  0  0  0  0  0  0  0  0  0  0
   18.9073   10.2954    3.4548 C   0  0  2  0  0  0  0  0  0  0  0  0
   19.2377   10.2325    2.1048 O   0  0  0  0  0  0  0  0  0  0  0  0
   20.9319    8.2595    7.3848 C   0  0  2  0  0  0  0  0  0  0  0  0
   20.1379   10.6361   11.7060 C   0  0  2  0  0  0  0  0  0  0  0  0
   20.6365    9.8422   10.6329 O   0  0  0  0  0  0  0  0  0  0  0  0
   20.1811   10.5537    4.3084 C   0  0  2  0  0  0  0  0  0  0  0  0
   19.8270   10.6014    5.7074 O   0  0  0  0  0  0  0  0  0  0  0  0
   20.3627    7.5789    8.6454 C   0  0  2  0  0  0  0  0  0  0  0  0
   19.3573    8.5165    9.1690 O   0  0  0  0  0  0  0  0  0  0  0  0
   19.3851    9.7430   12.7496 C   0  0  0  0  0  0  0  0  0  0  0  0
   20.3121    8.9099   13.4398 N   0  0  0  0  0  0  0  0  0  0  0  0
   20.8715   11.8463    3.9399 C   0  0  0  0  0  0  0  0  0  0  0  0
   21.3656   11.8085    2.6505 O   0  0  0  0  0  0  0  0  0  0  0  0
   21.5181    7.3460    9.7162 C   0  0  1  0  0  0  0  0  0  0  0  0
   21.0681    6.5220   10.8023 O   0  0  0  0  0  0  0  0  0  0  0  0
  1  2  1  6  0  0  0
  1  6  1  0  0  0  0
  1 23  1  0  0  0  0
  3  4  1  1  0  0  0
  3  8  1  0  0  0  0
  3 30  1  0  0  0  0
  5  9  1  0  0  0  0
  5 21  1  0  0  0  0
  5 25  1  1  0  0  0
  6  7  1  1  0  0  0
  6 11  1  0  0  0  0
  8 13  1  0  0  0  0
  9 10  1  6  0  0  0
  9 15  1  0  0  0  0
 11 12  1  6  0  0  0
 11 17  1  0  0  0  0
 13 14  1  6  0  0  0
 13 19  1  0  0  0  0
 15 16  1  6  0  0  0
 15 20  1  0  0  0  0
 17 18  1  6  0  0  0
 17 22  1  0  0  0  0
 19  2  1  6  0  0  0
 19 24  1  0  0  0  0
 20 21  1  0  0  0  0
 20 26  1  1  0  0  0
 22 23  1  0  0  0  0
 22 28  1  6  0  0  0
 24 25  1  1  0  0  0
 24 30  1  0  0  0  0
 26 27  1  0  0  0  0
 28 29  1  0  0  0  0
 30 31  1  1  0  0  0
M  END
>  <CHROM.1>
-164.31260399,174.08952862,-144.44484442,-177.45378384,-64.89463280,-57.57562637
20.10624214,9.31357575,7.59175136,1.83561004,0.83283739,-1.63081784

>  <Name>
2o3x_lig

>  <RI>
0

>  <Rbt.Current_Directory>
/home/itssahil/PROJECTS/Mol_Feturizer/New_Systems/rnas/2o3x

>  <Rbt.Executable>
rbdock ($Id: //depot/dev/client3/rdock/2013.1/src/exe/rbdock.cxx#4 $)

>  <Rbt.Library>
libRbt.so (2013.1, Build901 2013/11/27)

>  <Rbt.Parameter_File>
/export/apps/rDock/src/rDock_2013.1_src/data/scripts/dock_solv.prm

>  <Rbt.Receptor>
prm/pocket_docking_5.prm

>  <SCORE>
-24.4984

>  <SCORE.INTER>
-23.567

>  <SCORE.INTER.CONST>
1

>  <SCORE.INTER.POLAR>
-2.60192

>  <SCORE.INTER.ROT>
6

>  <SCORE.INTER.SOLV>
17.3009

>  <SCORE.INTER.VDW>
-20.4052

>  <SCORE.INTER.norm>
-0.760226

>  <SCORE.INTRA>
-0.931577

>  <SCORE.INTRA.DIHEDRAL>
-3.17311

>  <SCORE.INTRA.DIHEDRAL.0>
9.37739

>  <SCORE.INTRA.POLAR>
0

>  <SCORE.INTRA.POLAR.0>
0

>  <SCORE.INTRA.REPUL>
0

>  <SCORE.INTRA.REPUL.0>
0

>  <SCORE.INTRA.SOLV>
-0.0187823

>  <SCORE.INTRA.SOLV.lig_0>
-82.9274

>  <SCORE.INTRA.VDW>
0.664369

>  <SCORE.INTRA.VDW.0>
-3.84922

>  <SCORE.INTRA.norm>
-0.0300509

>  <SCORE.RESTR>
0.000188783

>  <SCORE.RESTR.CAVITY>
0.000188783

>  <SCORE.RESTR.norm>
6.08976e-06

>  <SCORE.SYSTEM>
0

>  <SCORE.SYSTEM.CONST>
0

>  <SCORE.SYSTEM.DIHEDRAL>
0

>  <SCORE.SYSTEM.SOLV>
0

>  <SCORE.SYSTEM.norm>
0

>  <SCORE.heavy>
31

>  <SCORE.norm>
-0.79027

>  <RMSD>
2.898

$$$$
2o3x_lig
 OpenBabel11021811463D
libRbt.so/2013.1/901 2013/11/27
 31 33  0  0  0  0  0  0  0  0999 V2000
   22.0098    9.0013    7.1084 C   0  0  2  0  0  0  0  0  0  0  0  0
   21.8984    7.5753    7.0100 O   0  0  0  0  0  0  0  0  0  0  0  0
   24.2781    4.1695    8.0275 C   0  0  2  0  0  0  0  0  0  0  0  0
   25.2232    3.2459    8.6932 N   0  0  0  0  0  0  0  0  0  0  0  0
   21.9050    6.2230   10.8859 C   0  0  1  0  0  0  0  0  0  0  0  0
   20.6618    9.5636    7.6609 C   0  0  2  0  0  0  0  0  0  0  0  0
   20.1939    8.8194    8.8579 N   0  0  0  0  0  0  0  0  0  0  0  0
   25.0059    5.4054    7.4011 C   0  0  0  0  0  0  0  0  0  0  0  0
   22.8505    7.4211   11.2275 C   0  0  2  0  0  0  0  0  0  0  0  0
   24.2621    7.2210   10.9416 O   0  0  0  0  0  0  0  0  0  0  0  0
   19.5463    9.5092    6.6000 C   0  0  1  0  0  0  0  0  0  0  0  0
   18.3581   10.0663    7.1022 O   0  0  0  0  0  0  0  0  0  0  0  0
   23.9270    6.3056    6.6955 C   0  0  2  0  0  0  0  0  0  0  0  0
   24.5461    7.5034    6.0526 N   0  0  0  0  0  0  0  0  0  0  0  0
   22.4806    7.5814   12.6926 C   0  0  2  0  0  0  0  0  0  0  0  0
   23.1617    6.5789   13.5225 O   0  0  0  0  0  0  0  0  0  0  0  0
   19.9930   10.2461    5.3485 C   0  0  2  0  0  0  0  0  0  0  0  0
   18.9782   10.2181    4.3972 O   0  0  0  0  0  0  0  0  0  0  0  0
   22.8652    6.7910    7.7232 C   0  0  2  0  0  0  0  0  0  0  0  0
   20.9698    7.3828   12.7278 C   0  0  2  0  0  0  0  0  0  0  0  0
   20.8258    6.2890   11.8260 O   0  0  0  0  0  0  0  0  0  0  0  0
   21.2822    9.5897    4.7785 C   0  0  2  0  0  0  0  0  0  0  0  0
   22.3220    9.6113    5.7801 O   0  0  0  0  0  0  0  0  0  0  0  0
   22.1600    5.6366    8.4624 C   0  0  2  0  0  0  0  0  0  0  0  0
   21.3978    6.2798    9.5437 O   0  0  0  0  0  0  0  0  0  0  0  0
   20.1311    8.6130   12.2413 C   0  0  0  0  0  0  0  0  0  0  0  0
   20.3558    9.7283   13.0988 N   0  0  0  0  0  0  0  0  0  0  0  0
   21.7890   10.2912    3.5399 C   0  0  0  0  0  0  0  0  0  0  0  0
   22.1648   11.5924    3.8112 O   0  0  0  0  0  0  0  0  0  0  0  0
   23.2354    4.6274    9.0631 C   0  0  1  0  0  0  0  0  0  0  0  0
   22.6129    3.4346    9.5638 O   0  0  0  0  0  0  0  0  0  0  0  0
  1  2  1  6  0  0  0
  1  6  1  0  0  0  0
  1 23  1  0  0  0  0
  3  4  1  1  0  0  0
  3  8  1  0  0  0  0
  3 30  1  0  0  0  0
  5  9  1  0  0  0  0
  5 21  1  0  0  0  0
  5 25  1  6  0  0  0
  6  7  1  1  0  0  0
  6 11  1  0  0  0  0
  8 13  1  0  0  0  0
  9 10  1  1  0  0  0
  9 15  1  0  0  0  0
 11 12  1  1  0  0  0
 11 17  1  0  0  0  0
 13 14  1  1  0  0  0
 13 19  1  0  0  0  0
 15 16  1  1  0  0  0
 15 20  1  0  0  0  0
 17 18  1  6  0  0  0
 17 22  1  0  0  0  0
 19  2  1  6  0  0  0
 19 24  1  0  0  0  0
 20 21  1  0  0  0  0
 20 26  1  6  0  0  0
 22 23  1  0  0  0  0
 22 28  1  6  0  0  0
 24 25  1  1  0  0  0
 24 30  1  0  0  0  0
 26 27  1  0  0  0  0
 28 29  1  0  0  0  0
 30 31  1  6  0  0  0
M  END
>  <CHROM.1>
-122.90142407,89.55241661,-101.19413393,-62.81684306,63.39589911,-102.93408420
21.96213281,7.64763131,8.45762077,-1.93038006,-0.83730691,1.86946642

>  <Name>
2o3x_lig

>  <RI>
0

>  <Rbt.Current_Directory>
/home/itssahil/PROJECTS/Mol_Feturizer/New_Systems/rnas/2o3x

>  <Rbt.Executable>
rbdock ($Id: //depot/dev/client3/rdock/2013.1/src/exe/rbdock.cxx#4 $)

>  <Rbt.Library>
libRbt.so (2013.1, Build901 2013/11/27)

>  <Rbt.Parameter_File>
/export/apps/rDock/src/rDock_2013.1_src/data/scripts/dock_solv.prm

>  <Rbt.Receptor>
prm/blind_docking_40.prm

>  <SCORE>
12.4726

>  <SCORE.INTER>
-4.03871

>  <SCORE.INTER.CONST>
1

>  <SCORE.INTER.POLAR>
0

>  <SCORE.INTER.ROT>
6

>  <SCORE.INTER.SOLV>
20.8878

>  <SCORE.INTER.VDW>
-17.2551

>  <SCORE.INTER.norm>
-0.130281

>  <SCORE.INTRA>
8.66487

>  <SCORE.INTRA.DIHEDRAL>
12.9072

>  <SCORE.INTRA.DIHEDRAL.0>
9.37739

>  <SCORE.INTRA.POLAR>
0

>  <SCORE.INTRA.POLAR.0>
0

>  <SCORE.INTRA.REPUL>
0

>  <SCORE.INTRA.REPUL.0>
0

>  <SCORE.INTRA.SOLV>
2.86894

>  <SCORE.INTRA.SOLV.lig_0>
-82.9274

>  <SCORE.INTRA.VDW>
0.776804

>  <SCORE.INTRA.VDW.0>
-3.84922

>  <SCORE.INTRA.norm>
0.279512

>  <SCORE.RESTR>
7.84649

>  <SCORE.RESTR.CAVITY>
7.84649

>  <SCORE.RESTR.norm>
0.253112

>  <SCORE.SYSTEM>
0

>  <SCORE.SYSTEM.CONST>
0

>  <SCORE.SYSTEM.DIHEDRAL>
0

>  <SCORE.SYSTEM.SOLV>
0

>  <SCORE.SYSTEM.norm>
0

>  <SCORE.heavy>
31

>  <SCORE.norm>
0.402343

>  <RMSD>
3.032

$$$$
2o3x_lig
 OpenBabel11021811463D
libRbt.so/2013.1/901 2013/11/27
 31 33  0  0  0  0  0  0  0  0999 V2000
   19.1801    9.5741    6.3741 C   0  0  2  0  0  0  0  0  0  0  0  0
   19.8558    8.3234    6.5602 O   0  0  0  0  0  0  0  0  0  0  0  0
   22.5075    6.5399    9.4037 C   0  0  2  0  0  0  0  0  0  0  0  0
   23.4791    6.3263   10.4991 N   0  0  0  0  0  0  0  0  0  0  0  0
   19.7095    9.9612    9.6367 C   0  0  1  0  0  0  0  0  0  0  0  0
   17.9322    9.3295    5.4678 C   0  0  2  0  0  0  0  0  0  0  0  0
   17.1284    8.1670    5.9242 N   0  0  0  0  0  0  0  0  0  0  0  0
   23.1432    7.3021    8.1937 C   0  0  0  0  0  0  0  0  0  0  0  0
   18.5580   10.9391   10.0418 C   0  0  2  0  0  0  0  0  0  0  0  0
   17.9099   11.6478    8.9500 O   0  0  0  0  0  0  0  0  0  0  0  0
   18.3347    9.0840    4.0013 C   0  0  1  0  0  0  0  0  0  0  0  0
   17.1950    8.9173    3.1965 O   0  0  0  0  0  0  0  0  0  0  0  0
   22.0469    7.4523    7.0765 C   0  0  2  0  0  0  0  0  0  0  0  0
   22.5819    8.1566    5.8728 N   0  0  0  0  0  0  0  0  0  0  0  0
   19.3345   11.7954   11.0280 C   0  0  2  0  0  0  0  0  0  0  0  0
   20.1661   12.7843   10.3292 O   0  0  0  0  0  0  0  0  0  0  0  0
   19.1761   10.2455    3.4995 C   0  0  2  0  0  0  0  0  0  0  0  0
   19.5217   10.0369    2.1680 O   0  0  0  0  0  0  0  0  0  0  0  0
   20.8265    8.2527    7.6143 C   0  0  2  0  0  0  0  0  0  0  0  0
   20.1983   10.8024   11.7967 C   0  0  2  0  0  0  0  0  0  0  0  0
   20.6252    9.9487   10.7387 O   0  0  0  0  0  0  0  0  0  0  0  0
   20.4560   10.3882    4.3709 C   0  0  2  0  0  0  0  0  0  0  0  0
   20.0839   10.5886    5.7515 O   0  0  0  0  0  0  0  0  0  0  0  0
   20.1907    7.6240    8.8700 C   0  0  2  0  0  0  0  0  0  0  0  0
   19.2404    8.6312    9.3664 O   0  0  0  0  0  0  0  0  0  0  0  0
   19.4418    9.9825   12.8961 C   0  0  0  0  0  0  0  0  0  0  0  0
   20.3592    9.1594   13.6107 N   0  0  0  0  0  0  0  0  0  0  0  0
   21.3280   11.5418    3.9326 C   0  0  0  0  0  0  0  0  0  0  0  0
   20.6901   12.7547    4.1051 O   0  0  0  0  0  0  0  0  0  0  0  0
   21.3084    7.3257    9.9642 C   0  0  1  0  0  0  0  0  0  0  0  0
   20.7852    6.5443   11.0490 O   0  0  0  0  0  0  0  0  0  0  0  0
  1  2  1  6  0  0  0
  1  6  1  0  0  0  0
  1 23  1  0  0  0  0
  3  4  1  1  0  0  0
  3  8  1  0  0  0  0
  3 30  1  0  0  0  0
  5  9  1  0  0  0  0
  5 21  1  0  0  0  0
  5 25  1  1  0  0  0
  6  7  1  1  0  0  0
  6 11  1  0  0  0  0
  8 13  1  0  0  0  0
  9 10  1  6  0  0  0
  9 15  1  0  0  0  0
 11 12  1  6  0  0  0
 11 17  1  0  0  0  0
 13 14  1  6  0  0  0
 13 19  1  0  0  0  0
 15 16  1  6  0  0  0
 15 20  1  0  0  0  0
 17 18  1  6  0  0  0
 17 22  1  0  0  0  0
 19  2  1  6  0  0  0
 19 24  1  0  0  0  0
 20 21  1  0  0  0  0
 20 26  1  1  0  0  0
 22 23  1  0  0  0  0
 22 28  1  6  0  0  0
 24 25  1  1  0  0  0
 24 30  1  0  0  0  0
 26 27  1  0  0  0  0
 28 29  1  0  0  0  0
 30 31  1  1  0  0  0
M  END
>  <CHROM.1>
-164.99768243,175.20513136,-138.57863012,-175.92656372,64.47733740,-54.73150461
20.08773301,9.39262283,7.78957715,1.87656060,0.96340113,-1.68398867

>  <Name>
2o3x_lig

>  <RI>
2.78316e+07

>  <Rbt.Current_Directory>
/home/itssahil/PROJECTS/Mol_Feturizer/New_Systems/rnas/2o3x

>  <Rbt.Executable>
rbdock ($Id: //depot/dev/client3/rdock/2013.1/src/exe/rbdock.cxx#4 $)

>  <Rbt.Library>
libRbt.so (2013.1, Build901 2013/11/27)

>  <Rbt.Parameter_File>
/export/apps/rDock/src/rDock_2013.1_src/data/scripts/dock_solv.prm

>  <Rbt.Receptor>
prm/pocket_docking_7.prm

>  <SCORE>
-22.8113

>  <SCORE.INTER>
-22.2946

>  <SCORE.INTER.CONST>
1

>  <SCORE.INTER.POLAR>
-2.60192

>  <SCORE.INTER.ROT>
6

>  <SCORE.INTER.SOLV>
18.9558

>  <SCORE.INTER.VDW>
-20.1086

>  <SCORE.INTER.norm>
-0.719182

>  <SCORE.INTRA>
-0.516635

>  <SCORE.INTRA.DIHEDRAL>
-2.21258

>  <SCORE.INTRA.DIHEDRAL.0>
9.37739

>  <SCORE.INTRA.POLAR>
0

>  <SCORE.INTRA.POLAR.0>
0

>  <SCORE.INTRA.REPUL>
0

>  <SCORE.INTRA.REPUL.0>
0

>  <SCORE.INTRA.SOLV>
0.210351

>  <SCORE.INTRA.SOLV.lig_0>
-82.9274

>  <SCORE.INTRA.VDW>
0.484479

>  <SCORE.INTRA.VDW.0>
-3.84922

>  <SCORE.INTRA.norm>
-0.0166656

>  <SCORE.RESTR>
0

>  <SCORE.RESTR.CAVITY>
0

>  <SCORE.RESTR.norm>
0

>  <SCORE.SYSTEM>
0

>  <SCORE.SYSTEM.CONST>
0

>  <SCORE.SYSTEM.DIHEDRAL>
0

>  <SCORE.SYSTEM.SOLV>
0

>  <SCORE.SYSTEM.norm>
0

>  <SCORE.heavy>
31

>  <SCORE.norm>
-0.735848

>  <RMSD>
3.069

$$$$
2o3x_lig
 OpenBabel11021811463D
libRbt.so/2013.1/901 2013/11/27
 31 33  0  0  0  0  0  0  0  0999 V2000
   19.1118    9.4037    6.7549 C   0  0  2  0  0  0  0  0  0  0  0  0
   19.9153    8.2231    6.8818 O   0  0  0  0  0  0  0  0  0  0  0  0
   22.4652    6.5715    9.8931 C   0  0  2  0  0  0  0  0  0  0  0  0
   23.4249    6.4086   11.0075 N   0  0  0  0  0  0  0  0  0  0  0  0
   19.8536    9.9133   10.4269 C   0  0  1  0  0  0  0  0  0  0  0  0
   17.7117    8.9894    6.2014 C   0  0  2  0  0  0  0  0  0  0  0  0
   17.1379    7.8349    6.9387 N   0  0  0  0  0  0  0  0  0  0  0  0
   23.1415    7.1767    8.6180 C   0  0  0  0  0  0  0  0  0  0  0  0
   18.8945   11.1473   10.4851 C   0  0  2  0  0  0  0  0  0  0  0  0
   19.0685   12.1401    9.4371 O   0  0  0  0  0  0  0  0  0  0  0  0
   17.7790    8.6155    4.7086 C   0  0  1  0  0  0  0  0  0  0  0  0
   16.5008    8.2957    4.2203 O   0  0  0  0  0  0  0  0  0  0  0  0
   22.0537    7.2816    7.4875 C   0  0  2  0  0  0  0  0  0  0  0  0
   22.6261    7.8355    6.2239 N   0  0  0  0  0  0  0  0  0  0  0  0
   19.2111   11.6044   11.8992 C   0  0  2  0  0  0  0  0  0  0  0  0
   20.4703   12.3595   11.9413 O   0  0  0  0  0  0  0  0  0  0  0  0
   18.3787    9.7665    3.9186 C   0  0  2  0  0  0  0  0  0  0  0  0
   18.4193    9.4401    2.5667 O   0  0  0  0  0  0  0  0  0  0  0  0
   20.8821    8.1983    7.9415 C   0  0  2  0  0  0  0  0  0  0  0  0
   19.3228   10.3128   12.7008 C   0  0  2  0  0  0  0  0  0  0  0  0
   20.0431    9.4939   11.7838 O   0  0  0  0  0  0  0  0  0  0  0  0
   19.8102   10.0780    4.4394 C   0  0  2  0  0  0  0  0  0  0  0  0
   19.7561   10.4000    5.8459 O   0  0  0  0  0  0  0  0  0  0  0  0
   20.2134    7.7302    9.2492 C   0  0  2  0  0  0  0  0  0  0  0  0
   19.3233    8.8330    9.6433 O   0  0  0  0  0  0  0  0  0  0  0  0
   17.9548    9.6489   13.0765 C   0  0  0  0  0  0  0  0  0  0  0  0
   17.1989   10.5234   13.9094 N   0  0  0  0  0  0  0  0  0  0  0  0
   20.4551   11.2298    3.7040 C   0  0  0  0  0  0  0  0  0  0  0  0
   20.7483   12.2762    4.5567 O   0  0  0  0  0  0  0  0  0  0  0  0
   21.3141    7.4747   10.3712 C   0  0  1  0  0  0  0  0  0  0  0  0
   20.7488    6.8320   11.5238 O   0  0  0  0  0  0  0  0  0  0  0  0
  1  2  1  6  0  0  0
  1  6  1  0  0  0  0
  1 23  1  0  0  0  0
  3  4  1  1  0  0  0
  3  8  1  0  0  0  0
  3 30  1  0  0  0  0
  5  9  1  0  0  0  0
  5 21  1  0  0  0  0
  5 25  1  6  0  0  0
  6  7  1  1  0  0  0
  6 11  1  0  0  0  0
  8 13  1  0  0  0  0
  9 10  1  6  0  0  0
  9 15  1  0  0  0  0
 11 12  1  6  0  0  0
 11 17  1  0  0  0  0
 13 14  1  6  0  0  0
 13 19  1  0  0  0  0
 15 16  1  6  0  0  0
 15 20  1  0  0  0  0
 17 18  1  6  0  0  0
 17 22  1  0  0  0  0
 19  2  1  6  0  0  0
 19 24  1  0  0  0  0
 20 21  1  0  0  0  0
 20 26  1  6  0  0  0
 22 23  1  0  0  0  0
 22 28  1  6  0  0  0
 24 25  1  1  0  0  0
 24 30  1  0  0  0  0
 26 27  1  0  0  0  0
 28 29  1  0  0  0  0
 30 31  1  1  0  0  0
M  END
>  <CHROM.1>
-148.19876624,166.79065746,-151.28258744,-62.27234153,118.75544804,-86.37184834
19.79123122,9.25901492,8.31217880,1.73365904,0.78078001,-1.67343107

>  <Name>
2o3x_lig

>  <RI>
0

>  <Rbt.Current_Directory>
/home/itssahil/PROJECTS/Mol_Feturizer/New_Systems/rnas/2o3x

>  <Rbt.Executable>
rbdock ($Id: //depot/dev/client3/rdock/2013.1/src/exe/rbdock.cxx#4 $)

>  <Rbt.Library>
libRbt.so (2013.1, Build901 2013/11/27)

>  <Rbt.Parameter_File>
/export/apps/rDock/src/rDock_2013.1_src/data/scripts/dock_solv.prm

>  <Rbt.Receptor>
prm/pocket_docking_5.prm

>  <SCORE>
-15.4533

>  <SCORE.INTER>
-20.6219

>  <SCORE.INTER.CONST>
1

>  <SCORE.INTER.POLAR>
-2.41739

>  <SCORE.INTER.ROT>
6

>  <SCORE.INTER.SOLV>
14.6597

>  <SCORE.INTER.VDW>
-18.1765

>  <SCORE.INTER.norm>
-0.665222

>  <SCORE.INTRA>
5.12853

>  <SCORE.INTRA.DIHEDRAL>
7.08291

>  <SCORE.INTRA.DIHEDRAL.0>
9.37739

>  <SCORE.INTRA.POLAR>
0

>  <SCORE.INTRA.POLAR.0>
0

>  <SCORE.INTRA.REPUL>
0

>  <SCORE.INTRA.REPUL.0>
0

>  <SCORE.INTRA.SOLV>
-0.937407

>  <SCORE.INTRA.SOLV.lig_0>
-82.9274

>  <SCORE.INTRA.VDW>
2.05578

>  <SCORE.INTRA.VDW.0>
-3.84922

>  <SCORE.INTRA.norm>
0.165436

>  <SCORE.RESTR>
0.0400723

>  <SCORE.RESTR.CAVITY>
0.0400723

>  <SCORE.RESTR.norm>
0.00129265

>  <SCORE.SYSTEM>
0

>  <SCORE.SYSTEM.CONST>
0

>  <SCORE.SYSTEM.DIHEDRAL>
0

>  <SCORE.SYSTEM.SOLV>
0

>  <SCORE.SYSTEM.norm>
0

>  <SCORE.heavy>
31

>  <SCORE.norm>
-0.498493

>  <RMSD>
3.147

$$$$
2o3x_lig
 OpenBabel11021811463D
libRbt.so/2013.1/901 2013/11/27
 31 33  0  0  0  0  0  0  0  0999 V2000
   20.6486    9.1921    6.8696 C   0  0  2  0  0  0  0  0  0  0  0  0
   20.9143    7.8236    7.2045 O   0  0  0  0  0  0  0  0  0  0  0  0
   24.4595    5.4752    7.6681 C   0  0  2  0  0  0  0  0  0  0  0  0
   25.8074    5.0001    8.0514 N   0  0  0  0  0  0  0  0  0  0  0  0
   21.3292    6.1651   10.9998 C   0  0  1  0  0  0  0  0  0  0  0  0
   19.8039    9.8255    8.0202 C   0  0  2  0  0  0  0  0  0  0  0  0
   20.3776    9.5371    9.3594 N   0  0  0  0  0  0  0  0  0  0  0  0
   24.5217    6.7047    6.7018 C   0  0  0  0  0  0  0  0  0  0  0  0
   20.7173    6.9736   12.1906 C   0  0  2  0  0  0  0  0  0  0  0  0
   21.6667    7.5036   13.1560 O   0  0  0  0  0  0  0  0  0  0  0  0
   18.3504    9.3157    8.0047 C   0  0  1  0  0  0  0  0  0  0  0  0
   17.5973    9.9366    9.0155 O   0  0  0  0  0  0  0  0  0  0  0  0
   23.0494    7.1135    6.3309 C   0  0  2  0  0  0  0  0  0  0  0  0
   23.0216    8.2743    5.3912 N   0  0  0  0  0  0  0  0  0  0  0  0
   19.7597    5.9127   12.7068 C   0  0  2  0  0  0  0  0  0  0  0  0
   20.4661    4.9130   13.5188 O   0  0  0  0  0  0  0  0  0  0  0  0
   17.7305    9.5761    6.6421 C   0  0  2  0  0  0  0  0  0  0  0  0
   16.4103    9.1372    6.6329 O   0  0  0  0  0  0  0  0  0  0  0  0
   22.2508    7.4951    7.6098 C   0  0  2  0  0  0  0  0  0  0  0  0
   19.1779    5.2801   11.4481 C   0  0  2  0  0  0  0  0  0  0  0  0
   20.3435    5.1918   10.6333 O   0  0  0  0  0  0  0  0  0  0  0  0
   18.5475    8.8449    5.5396 C   0  0  2  0  0  0  0  0  0  0  0  0
   19.9183    9.2977    5.5698 O   0  0  0  0  0  0  0  0  0  0  0  0
   22.2165    6.3716    8.6648 C   0  0  2  0  0  0  0  0  0  0  0  0
   21.6514    6.9937    9.8721 O   0  0  0  0  0  0  0  0  0  0  0  0
   18.0696    6.1272   10.7356 C   0  0  0  0  0  0  0  0  0  0  0  0
   17.5324    5.4020    9.6332 N   0  0  0  0  0  0  0  0  0  0  0  0
   17.9906    9.0812    4.1549 C   0  0  0  0  0  0  0  0  0  0  0  0
   16.7783    8.4428    3.9794 O   0  0  0  0  0  0  0  0  0  0  0  0
   23.6893    5.8378    8.9506 C   0  0  1  0  0  0  0  0  0  0  0  0
   23.6694    4.6513    9.7587 O   0  0  0  0  0  0  0  0  0  0  0  0
  1  2  1  1  0  0  0
  1  6  1  0  0  0  0
  1 23  1  0  0  0  0
  3  4  1  1  0  0  0
  3  8  1  0  0  0  0
  3 30  1  0  0  0  0
  5  9  1  0  0  0  0
  5 21  1  0  0  0  0
  5 25  1  6  0  0  0
  6  7  1  1  0  0  0
  6 11  1  0  0  0  0
  8 13  1  0  0  0  0
  9 10  1  1  0  0  0
  9 15  1  0  0  0  0
 11 12  1  1  0  0  0
 11 17  1  0  0  0  0
 13 14  1  6  0  0  0
 13 19  1  0  0  0  0
 15 16  1  6  0  0  0
 15 20  1  0  0  0  0
 17 18  1  1  0  0  0
 17 22  1  0  0  0  0
 19  2  1  6  0  0  0
 19 24  1  0  0  0  0
 20 21  1  0  0  0  0
 20 26  1  6  0  0  0
 22 23  1  0  0  0  0
 22 28  1  6  0  0  0
 24 25  1  1  0  0  0
 24 30  1  0  0  0  0
 26 27  1  0  0  0  0
 28 29  1  0  0  0  0
 30 31  1  1  0  0  0
M  END
>  <CHROM.1>
-106.83110176,-179.04443431,-89.94384517,-175.84871371,-69.96287563,172.29316145
20.55845345,7.33628397,8.56169859,-2.17016582,-0.33346030,1.95210542

>  <Name>
2o3x_lig

>  <RI>
0

>  <Rbt.Current_Directory>
/home/itssahil/PROJECTS/Mol_Feturizer/New_Systems/rnas/2o3x

>  <Rbt.Executable>
rbdock ($Id: //depot/dev/client3/rdock/2013.1/src/exe/rbdock.cxx#4 $)

>  <Rbt.Library>
libRbt.so (2013.1, Build901 2013/11/27)

>  <Rbt.Parameter_File>
/export/apps/rDock/src/rDock_2013.1_src/data/scripts/dock_solv.prm

>  <Rbt.Receptor>
prm/pocket_docking_3.prm

>  <SCORE>
-6.1657

>  <SCORE.INTER>
-7.77255

>  <SCORE.INTER.CONST>
1

>  <SCORE.INTER.POLAR>
-0.609149

>  <SCORE.INTER.ROT>
6

>  <SCORE.INTER.SOLV>
14.9353

>  <SCORE.INTER.VDW>
-15.7296

>  <SCORE.INTER.norm>
-0.250727

>  <SCORE.INTRA>
1.60685

>  <SCORE.INTRA.DIHEDRAL>
1.40618

>  <SCORE.INTRA.DIHEDRAL.0>
9.37739

>  <SCORE.INTRA.POLAR>
0

>  <SCORE.INTRA.POLAR.0>
0

>  <SCORE.INTRA.REPUL>
0.00235157

>  <SCORE.INTRA.REPUL.0>
0

>  <SCORE.INTRA.SOLV>
1.20589

>  <SCORE.INTRA.SOLV.lig_0>
-82.9274

>  <SCORE.INTRA.VDW>
0.289058

>  <SCORE.INTRA.VDW.0>
-3.84922

>  <SCORE.INTRA.norm>
0.051834

>  <SCORE.RESTR>
0

>  <SCORE.RESTR.CAVITY>
0

>  <SCORE.RESTR.norm>
0

>  <SCORE.SYSTEM>
0

>  <SCORE.SYSTEM.CONST>
0

>  <SCORE.SYSTEM.DIHEDRAL>
0

>  <SCORE.SYSTEM.SOLV>
0

>  <SCORE.SYSTEM.norm>
0

>  <SCORE.heavy>
31

>  <SCORE.norm>
-0.198893

>  <RMSD>
3.214

$$$$
2o3x_lig
 OpenBabel11021811463D
libRbt.so/2013.1/901 2013/11/27
 31 33  0  0  0  0  0  0  0  0999 V2000
   22.1563    8.4992    4.6101 C   0  0  2  0  0  0  0  0  0  0  0  0
   22.6220    8.8573    5.9179 O   0  0  0  0  0  0  0  0  0  0  0  0
   23.9971    4.9774    7.0811 C   0  0  2  0  0  0  0  0  0  0  0  0
   24.6871    3.8627    7.7672 N   0  0  0  0  0  0  0  0  0  0  0  0
   20.5700    8.2087    8.7017 C   0  0  1  0  0  0  0  0  0  0  0  0
   21.6066    9.7843    3.9139 C   0  0  2  0  0  0  0  0  0  0  0  0
   22.5475   10.9278    4.0270 N   0  0  0  0  0  0  0  0  0  0  0  0
   24.9969    5.9040    6.3122 C   0  0  0  0  0  0  0  0  0  0  0  0
   19.7382    6.9535    9.1245 C   0  0  2  0  0  0  0  0  0  0  0  0
   19.2322    6.1288    8.0390 O   0  0  0  0  0  0  0  0  0  0  0  0
   20.2545   10.2191    4.5103 C   0  0  1  0  0  0  0  0  0  0  0  0
   19.7554   11.3460    3.8355 O   0  0  0  0  0  0  0  0  0  0  0  0
   24.1693    7.0330    5.5960 C   0  0  2  0  0  0  0  0  0  0  0  0
   25.0531    7.9539    4.8201 N   0  0  0  0  0  0  0  0  0  0  0  0
   18.6928    7.6587    9.9723 C   0  0  2  0  0  0  0  0  0  0  0  0
   17.6599    8.2780    9.1313 O   0  0  0  0  0  0  0  0  0  0  0  0
   19.2654    9.0685    4.4303 C   0  0  2  0  0  0  0  0  0  0  0  0
   18.0365    9.4662    4.9475 O   0  0  0  0  0  0  0  0  0  0  0  0
   23.3764    7.8722    6.6382 C   0  0  2  0  0  0  0  0  0  0  0  0
   19.4763    8.7163   10.7410 C   0  0  2  0  0  0  0  0  0  0  0  0
   20.3500    9.1918    9.7206 O   0  0  0  0  0  0  0  0  0  0  0  0
   19.8103    7.8451    5.2202 C   0  0  2  0  0  0  0  0  0  0  0  0
   21.0921    7.4523    4.6839 O   0  0  0  0  0  0  0  0  0  0  0  0
   22.4305    7.0240    7.5112 C   0  0  2  0  0  0  0  0  0  0  0  0
   21.9731    7.9297    8.5763 O   0  0  0  0  0  0  0  0  0  0  0  0
   20.2959    8.1738   11.9605 C   0  0  0  0  0  0  0  0  0  0  0  0
   21.5203    8.8915   12.0854 N   0  0  0  0  0  0  0  0  0  0  0  0
   18.8775    6.6577    5.1625 C   0  0  0  0  0  0  0  0  0  0  0  0
   17.6485    6.9498    5.7213 O   0  0  0  0  0  0  0  0  0  0  0  0
   23.2152    5.7854    8.1324 C   0  0  1  0  0  0  0  0  0  0  0  0
   22.3183    4.8611    8.7667 O   0  0  0  0  0  0  0  0  0  0  0  0
  1  2  1  1  0  0  0
  1  6  1  0  0  0  0
  1 23  1  0  0  0  0
  3  4  1  1  0  0  0
  3  8  1  0  0  0  0
  3 30  1  0  0  0  0
  5  9  1  0  0  0  0
  5 21  1  0  0  0  0
  5 25  1  1  0  0  0
  6  7  1  1  0  0  0
  6 11  1  0  0  0  0
  8 13  1  0  0  0  0
  9 10  1  6  0  0  0
  9 15  1  0  0  0  0
 11 12  1  6  0  0  0
 11 17  1  0  0  0  0
 13 14  1  1  0  0  0
 13 19  1  0  0  0  0
 15 16  1  6  0  0  0
 15 20  1  0  0  0  0
 17 18  1  1  0  0  0
 17 22  1  0  0  0  0
 19  2  1  6  0  0  0
 19 24  1  0  0  0  0
 20 21  1  0  0  0  0
 20 26  1  1  0  0  0
 22 23  1  0  0  0  0
 22 28  1  6  0  0  0
 24 25  1  1  0  0  0
 24 30  1  0  0  0  0
 26 27  1  0  0  0  0
 28 29  1  0  0  0  0
 30 31  1  6  0  0  0
M  END
>  <CHROM.1>
-169.49288682,66.46449388,32.04555354,144.19698302,-61.24411942,119.45546643
21.15160699,7.83158147,7.02213884,-1.48371707,-0.46274331,1.93156226

>  <Name>
2o3x_lig

>  <RI>
3.41138e+07

>  <Rbt.Current_Directory>
/home/itssahil/PROJECTS/Mol_Feturizer/New_Systems/rnas/2o3x

>  <Rbt.Executable>
rbdock ($Id: //depot/dev/client3/rdock/2013.1/src/exe/rbdock.cxx#4 $)

>  <Rbt.Library>
libRbt.so (2013.1, Build901 2013/11/27)

>  <Rbt.Parameter_File>
/export/apps/rDock/src/rDock_2013.1_src/data/scripts/dock_solv.prm

>  <Rbt.Receptor>
prm/pocket_docking_2.prm

>  <SCORE>
4.43974

>  <SCORE.INTER>
-1.92557

>  <SCORE.INTER.CONST>
1

>  <SCORE.INTER.POLAR>
-1.16298

>  <SCORE.INTER.ROT>
6

>  <SCORE.INTER.SOLV>
18.2626

>  <SCORE.INTER.VDW>
-11.0947

>  <SCORE.INTER.norm>
-0.0621153

>  <SCORE.INTRA>
5.0409

>  <SCORE.INTRA.DIHEDRAL>
5.23515

>  <SCORE.INTRA.DIHEDRAL.0>
9.37739

>  <SCORE.INTRA.POLAR>
0

>  <SCORE.INTRA.POLAR.0>
0

>  <SCORE.INTRA.REPUL>
0

>  <SCORE.INTRA.REPUL.0>
0

>  <SCORE.INTRA.SOLV>
1.54992

>  <SCORE.INTRA.SOLV.lig_0>
-82.9274

>  <SCORE.INTRA.VDW>
1.64837

>  <SCORE.INTRA.VDW.0>
-3.84922

>  <SCORE.INTRA.norm>
0.16261

>  <SCORE.RESTR>
1.32442

>  <SCORE.RESTR.CAVITY>
1.32442

>  <SCORE.RESTR.norm>
0.0427231

>  <SCORE.SYSTEM>
0

>  <SCORE.SYSTEM.CONST>
0

>  <SCORE.SYSTEM.DIHEDRAL>
0

>  <SCORE.SYSTEM.SOLV>
0

>  <SCORE.SYSTEM.norm>
0

>  <SCORE.heavy>
31

>  <SCORE.norm>
0.143217

>  <RMSD>
3.227

$$$$
2o3x_lig
 OpenBabel11021811463D
libRbt.so/2013.1/901 2013/11/27
 31 33  0  0  0  0  0  0  0  0999 V2000
   21.6392    9.4704    7.1101 C   0  0  2  0  0  0  0  0  0  0  0  0
   21.7800    8.0438    7.0872 O   0  0  0  0  0  0  0  0  0  0  0  0
   24.8003    5.1072    7.8304 C   0  0  2  0  0  0  0  0  0  0  0  0
   26.0255    4.4156    8.2885 N   0  0  0  0  0  0  0  0  0  0  0  0
   22.4772    6.7926   11.1619 C   0  0  1  0  0  0  0  0  0  0  0  0
   20.4403    9.8320    8.0431 C   0  0  2  0  0  0  0  0  0  0  0  0
   20.5098    9.1201    9.3447 N   0  0  0  0  0  0  0  0  0  0  0  0
   25.1128    6.2230    6.7786 C   0  0  0  0  0  0  0  0  0  0  0  0
   23.3089    7.7550   12.0720 C   0  0  2  0  0  0  0  0  0  0  0  0
   24.7490    7.5544   12.0637 O   0  0  0  0  0  0  0  0  0  0  0  0
   19.0881    9.4944    7.3871 C   0  0  1  0  0  0  0  0  0  0  0  0
   18.0241    9.8746    8.2223 O   0  0  0  0  0  0  0  0  0  0  0  0
   23.7525    6.8743    6.3338 C   0  0  2  0  0  0  0  0  0  0  0  0
   23.9631    7.9422    5.3108 N   0  0  0  0  0  0  0  0  0  0  0  0
   22.6020    7.4774   13.3881 C   0  0  2  0  0  0  0  0  0  0  0  0
   23.0726    6.2210   13.9862 O   0  0  0  0  0  0  0  0  0  0  0  0
   18.9837   10.1907    6.0406 C   0  0  2  0  0  0  0  0  0  0  0  0
   17.7536    9.9058    5.4564 O   0  0  0  0  0  0  0  0  0  0  0  0
   23.0219    7.4996    7.5562 C   0  0  2  0  0  0  0  0  0  0  0  0
   21.1269    7.3851   13.0160 C   0  0  2  0  0  0  0  0  0  0  0  0
   21.2059    6.6390   11.8046 O   0  0  0  0  0  0  0  0  0  0  0  0
   20.1405    9.7250    5.1118 C   0  0  2  0  0  0  0  0  0  0  0  0
   21.4104   10.0123    5.7360 O   0  0  0  0  0  0  0  0  0  0  0  0
   22.7558    6.4891    8.6896 C   0  0  2  0  0  0  0  0  0  0  0  0
   22.3016    7.2997    9.8300 O   0  0  0  0  0  0  0  0  0  0  0  0
   20.4207    8.7616   12.7712 C   0  0  0  0  0  0  0  0  0  0  0  0
   20.4155    9.5292   13.9714 N   0  0  0  0  0  0  0  0  0  0  0  0
   20.1029   10.3984    3.7596 C   0  0  0  0  0  0  0  0  0  0  0  0
   18.9562   10.0726    3.0618 O   0  0  0  0  0  0  0  0  0  0  0  0
   24.0939    5.7088    9.0587 C   0  0  1  0  0  0  0  0  0  0  0  0
   23.8337    4.6145    9.9509 O   0  0  0  0  0  0  0  0  0  0  0  0
  1  2  1  6  0  0  0
  1  6  1  0  0  0  0
  1 23  1  0  0  0  0
  3  4  1  1  0  0  0
  3  8  1  0  0  0  0
  3 30  1  0  0  0  0
  5  9  1  0  0  0  0
  5 21  1  0  0  0  0
  5 25  1  6  0  0  0
  6  7  1  1  0  0  0
  6 11  1  0  0  0  0
  8 13  1  0  0  0  0
  9 10  1  1  0  0  0
  9 15  1  0  0  0  0
 11 12  1  1  0  0  0
 11 17  1  0  0  0  0
 13 14  1  6  0  0  0
 13 19  1  0  0  0  0
 15 16  1  6  0  0  0
 15 20  1  0  0  0  0
 17 18  1  6  0  0  0
 17 22  1  0  0  0  0
 19  2  1  6  0  0  0
 19 24  1  0  0  0  0
 20 21  1  0  0  0  0
 20 26  1  6  0  0  0
 22 23  1  0  0  0  0
 22 28  1  6  0  0  0
 24 25  1  1  0  0  0
 24 30  1  0  0  0  0
 26 27  1  0  0  0  0
 28 29  1  0  0  0  0
 30 31  1  1  0  0  0
M  END
>  <CHROM.1>
-119.28829779,122.90404246,-112.21788286,-63.54775026,-63.31403068,-155.11529623
21.83676825,7.95611745,8.71518379,-2.09635037,-0.62891287,1.67108644

>  <Name>
2o3x_lig

>  <RI>
224

>  <Rbt.Current_Directory>
/home/itssahil/PROJECTS/Mol_Feturizer/New_Systems/rnas/2o3x

>  <Rbt.Executable>
rbdock ($Id: //depot/dev/client3/rdock/2013.1/src/exe/rbdock.cxx#4 $)

>  <Rbt.Library>
libRbt.so (2013.1, Build901 2013/11/27)

>  <Rbt.Parameter_File>
/export/apps/rDock/src/rDock_2013.1_src/data/scripts/dock_solv.prm

>  <Rbt.Receptor>
prm/blind_docking_100.prm

>  <SCORE>
6.04973

>  <SCORE.INTER>
-6.65925

>  <SCORE.INTER.CONST>
1

>  <SCORE.INTER.POLAR>
-0.540833

>  <SCORE.INTER.ROT>
6

>  <SCORE.INTER.SOLV>
23.219

>  <SCORE.INTER.VDW>
-17.9764

>  <SCORE.INTER.norm>
-0.214814

>  <SCORE.INTRA>
10.2292

>  <SCORE.INTRA.DIHEDRAL>
14.6833

>  <SCORE.INTRA.DIHEDRAL.0>
9.37739

>  <SCORE.INTRA.POLAR>
0

>  <SCORE.INTRA.POLAR.0>
0

>  <SCORE.INTRA.REPUL>
0.0700975

>  <SCORE.INTRA.REPUL.0>
0

>  <SCORE.INTRA.SOLV>
2.62935

>  <SCORE.INTRA.SOLV.lig_0>
-82.9274

>  <SCORE.INTRA.VDW>
1.22242

>  <SCORE.INTRA.VDW.0>
-3.84922

>  <SCORE.INTRA.norm>
0.329976

>  <SCORE.RESTR>
2.47973

>  <SCORE.RESTR.CAVITY>
2.47973

>  <SCORE.RESTR.norm>
0.0799914

>  <SCORE.SYSTEM>
0

>  <SCORE.SYSTEM.CONST>
0

>  <SCORE.SYSTEM.DIHEDRAL>
0

>  <SCORE.SYSTEM.SOLV>
0

>  <SCORE.SYSTEM.norm>
0

>  <SCORE.heavy>
31

>  <SCORE.norm>
0.195153

>  <RMSD>
3.289

$$$$
2o3x_lig
 OpenBabel11021811463D
libRbt.so/2013.1/901 2013/11/27
 31 33  0  0  0  0  0  0  0  0999 V2000
   21.1246    7.8394    7.6353 C   0  0  2  0  0  0  0  0  0  0  0  0
   21.0195    6.5149    7.0966 O   0  0  0  0  0  0  0  0  0  0  0  0
   23.5059    3.0405    7.3057 C   0  0  2  0  0  0  0  0  0  0  0  0
   24.6686    2.1253    7.3115 N   0  0  0  0  0  0  0  0  0  0  0  0
   23.0823    6.2531   10.6546 C   0  0  1  0  0  0  0  0  0  0  0  0
   19.6853    8.4273    7.7814 C   0  0  2  0  0  0  0  0  0  0  0  0
   18.7582    7.4779    8.4484 N   0  0  0  0  0  0  0  0  0  0  0  0
   23.2707    3.6839    5.8986 C   0  0  0  0  0  0  0  0  0  0  0  0
   23.5319    7.5885   11.3333 C   0  0  2  0  0  0  0  0  0  0  0  0
   24.9664    7.7822   11.4711 O   0  0  0  0  0  0  0  0  0  0  0  0
   19.0826    8.8003    6.4138 C   0  0  1  0  0  0  0  0  0  0  0  0
   17.8097    9.3735    6.5735 O   0  0  0  0  0  0  0  0  0  0  0  0
   22.0033    4.6103    5.9872 C   0  0  2  0  0  0  0  0  0  0  0  0
   21.6979    5.2510    4.6729 N   0  0  0  0  0  0  0  0  0  0  0  0
   22.7477    7.4514   12.6276 C   0  0  2  0  0  0  0  0  0  0  0  0
   23.4251    6.5433   13.5625 O   0  0  0  0  0  0  0  0  0  0  0  0
   20.0117    9.7594    5.6888 C   0  0  2  0  0  0  0  0  0  0  0  0
   19.4585   10.1158    4.4629 O   0  0  0  0  0  0  0  0  0  0  0  0
   22.2200    5.7311    7.0437 C   0  0  2  0  0  0  0  0  0  0  0  0
   21.3996    6.8849   12.1977 C   0  0  2  0  0  0  0  0  0  0  0  0
   21.8129    5.9229   11.2313 O   0  0  0  0  0  0  0  0  0  0  0  0
   21.4012    9.0941    5.4782 C   0  0  2  0  0  0  0  0  0  0  0  0
   21.9571    8.7154    6.7559 O   0  0  0  0  0  0  0  0  0  0  0  0
   22.5532    5.1890    8.4478 C   0  0  2  0  0  0  0  0  0  0  0  0
   22.9646    6.3663    9.2279 O   0  0  0  0  0  0  0  0  0  0  0  0
   20.4206    7.9259   11.5563 C   0  0  0  0  0  0  0  0  0  0  0  0
   19.9699    8.8475   12.5449 N   0  0  0  0  0  0  0  0  0  0  0  0
   22.3793   10.0078    4.7769 C   0  0  0  0  0  0  0  0  0  0  0  0
   21.9461   10.3367    3.5072 O   0  0  0  0  0  0  0  0  0  0  0  0
   23.7424    4.1332    8.3638 C   0  0  1  0  0  0  0  0  0  0  0  0
   23.9277    3.4515    9.6136 O   0  0  0  0  0  0  0  0  0  0  0  0
  1  2  1  6  0  0  0
  1  6  1  0  0  0  0
  1 23  1  0  0  0  0
  3  4  1  6  0  0  0
  3  8  1  0  0  0  0
  3 30  1  0  0  0  0
  5  9  1  0  0  0  0
  5 21  1  0  0  0  0
  5 25  1  6  0  0  0
  6  7  1  6  0  0  0
  6 11  1  0  0  0  0
  8 13  1  0  0  0  0
  9 10  1  1  0  0  0
  9 15  1  0  0  0  0
 11 12  1  1  0  0  0
 11 17  1  0  0  0  0
 13 14  1  6  0  0  0
 13 19  1  0  0  0  0
 15 16  1  1  0  0  0
 15 20  1  0  0  0  0
 17 18  1  6  0  0  0
 17 22  1  0  0  0  0
 19  2  1  1  0  0  0
 19 24  1  0  0  0  0
 20 21  1  0  0  0  0
 20 26  1  6  0  0  0
 22 23  1  0  0  0  0
 22 28  1  1  0  0  0
 24 25  1  1  0  0  0
 24 30  1  0  0  0  0
 26 27  1  0  0  0  0
 28 29  1  0  0  0  0
 30 31  1  1  0  0  0
M  END
>  <CHROM.1>
-172.20100276,179.82802295,-159.28633480,-69.30802976,-62.38087151,167.42592662
21.82754449,6.97453400,8.24863388,2.32308969,0.98030902,-1.72353773

>  <Name>
2o3x_lig

>  <RI>
3.34184e+07

>  <Rbt.Current_Directory>
/home/itssahil/PROJECTS/Mol_Feturizer/New_Systems/rnas/2o3x

>  <Rbt.Executable>
rbdock ($Id: //depot/dev/client3/rdock/2013.1/src/exe/rbdock.cxx#4 $)

>  <Rbt.Library>
libRbt.so (2013.1, Build901 2013/11/27)

>  <Rbt.Parameter_File>
/export/apps/rDock/src/rDock_2013.1_src/data/scripts/dock_solv.prm

>  <Rbt.Receptor>
prm/pocket_docking_6.prm

>  <SCORE>
-14.2845

>  <SCORE.INTER>
-10.9788

>  <SCORE.INTER.CONST>
1

>  <SCORE.INTER.POLAR>
-0.792779

>  <SCORE.INTER.ROT>
6

>  <SCORE.INTER.SOLV>
12.7758

>  <SCORE.INTER.VDW>
-16.5352

>  <SCORE.INTER.norm>
-0.354153

>  <SCORE.INTRA>
-3.30576

>  <SCORE.INTRA.DIHEDRAL>
-5.91825

>  <SCORE.INTRA.DIHEDRAL.0>
9.37739

>  <SCORE.INTRA.POLAR>
0

>  <SCORE.INTRA.POLAR.0>
0

>  <SCORE.INTRA.REPUL>
0

>  <SCORE.INTRA.REPUL.0>
0

>  <SCORE.INTRA.SOLV>
-1.66003

>  <SCORE.INTRA.SOLV.lig_0>
-82.9274

>  <SCORE.INTRA.VDW>
0.483377

>  <SCORE.INTRA.VDW.0>
-3.84922

>  <SCORE.INTRA.norm>
-0.106637

>  <SCORE.RESTR>
0

>  <SCORE.RESTR.CAVITY>
0

>  <SCORE.RESTR.norm>
0

>  <SCORE.SYSTEM>
0

>  <SCORE.SYSTEM.CONST>
0

>  <SCORE.SYSTEM.DIHEDRAL>
0

>  <SCORE.SYSTEM.SOLV>
0

>  <SCORE.SYSTEM.norm>
0

>  <SCORE.heavy>
31

>  <SCORE.norm>
-0.460791

>  <RMSD>
3.321

$$$$
2o3x_lig
 OpenBabel11021811463D
libRbt.so/2013.1/901 2013/11/27
 31 33  0  0  0  0  0  0  0  0999 V2000
   20.8772    6.8170    7.0561 C   0  0  2  0  0  0  0  0  0  0  0  0
   21.0092    5.6583    6.2221 O   0  0  0  0  0  0  0  0  0  0  0  0
   23.5348    2.3005    7.0250 C   0  0  2  0  0  0  0  0  0  0  0  0
   24.7096    1.4211    7.2139 N   0  0  0  0  0  0  0  0  0  0  0  0
   22.9357    5.9069    9.8826 C   0  0  1  0  0  0  0  0  0  0  0  0
   19.3793    7.2582    7.0526 C   0  0  2  0  0  0  0  0  0  0  0  0
   18.4596    6.1180    7.2973 N   0  0  0  0  0  0  0  0  0  0  0  0
   23.3661    2.7447    5.5338 C   0  0  0  0  0  0  0  0  0  0  0  0
   23.3912    7.3131   10.3938 C   0  0  2  0  0  0  0  0  0  0  0  0
   24.8258    7.5092   10.5268 O   0  0  0  0  0  0  0  0  0  0  0  0
   18.9828    7.9116    5.7152 C   0  0  1  0  0  0  0  0  0  0  0  0
   17.6470    8.3459    5.7533 O   0  0  0  0  0  0  0  0  0  0  0  0
   22.0814    3.6455    5.4315 C   0  0  2  0  0  0  0  0  0  0  0  0
   21.8377    4.0978    4.0289 N   0  0  0  0  0  0  0  0  0  0  0  0
   22.5885    7.3480   11.6835 C   0  0  2  0  0  0  0  0  0  0  0  0
   23.2434    6.5590   12.7353 O   0  0  0  0  0  0  0  0  0  0  0  0
   19.9133    9.0753    5.4176 C   0  0  2  0  0  0  0  0  0  0  0  0
   19.5427    9.6814    4.2213 O   0  0  0  0  0  0  0  0  0  0  0  0
   22.2229    4.9020    6.3372 C   0  0  2  0  0  0  0  0  0  0  0  0
   21.2399    6.7445   11.3092 C   0  0  2  0  0  0  0  0  0  0  0  0
   21.6552    5.6642   10.4779 O   0  0  0  0  0  0  0  0  0  0  0  0
   21.3818    8.5715    5.3325 C   0  0  2  0  0  0  0  0  0  0  0  0
   21.7485    7.9314    6.5737 O   0  0  0  0  0  0  0  0  0  0  0  0
   22.4881    4.5600    7.8168 C   0  0  2  0  0  0  0  0  0  0  0  0
   22.8381    5.8401    8.4515 O   0  0  0  0  0  0  0  0  0  0  0  0
   20.2812    7.7053   10.5273 C   0  0  0  0  0  0  0  0  0  0  0  0
   20.5139    9.0548   10.9202 N   0  0  0  0  0  0  0  0  0  0  0  0
   22.3612    9.6886    5.0566 C   0  0  0  0  0  0  0  0  0  0  0  0
   22.1188   10.2863    3.8351 O   0  0  0  0  0  0  0  0  0  0  0  0
   23.6964    3.5299    7.9371 C   0  0  1  0  0  0  0  0  0  0  0  0
   23.8244    3.0257    9.2752 O   0  0  0  0  0  0  0  0  0  0  0  0
  1  2  1  6  0  0  0
  1  6  1  0  0  0  0
  1 23  1  0  0  0  0
  3  4  1  6  0  0  0
  3  8  1  0  0  0  0
  3 30  1  0  0  0  0
  5  9  1  0  0  0  0
  5 21  1  0  0  0  0
  5 25  1  6  0  0  0
  6  7  1  6  0  0  0
  6 11  1  0  0  0  0
  8 13  1  0  0  0  0
  9 10  1  1  0  0  0
  9 15  1  0  0  0  0
 11 12  1  1  0  0  0
 11 17  1  0  0  0  0
 13 14  1  6  0  0  0
 13 19  1  0  0  0  0
 15 16  1  1  0  0  0
 15 20  1  0  0  0  0
 17 18  1  6  0  0  0
 17 22  1  0  0  0  0
 19  2  1  1  0  0  0
 19 24  1  0  0  0  0
 20 21  1  0  0  0  0
 20 26  1  6  0  0  0
 22 23  1  0  0  0  0
 22 28  1  1  0  0  0
 24 25  1  1  0  0  0
 24 30  1  0  0  0  0
 26 27  1  0  0  0  0
 28 29  1  0  0  0  0
 30 31  1  1  0  0  0
M  END
>  <CHROM.1>
-165.32529593,176.85740706,175.43479263,-30.75459850,-62.39273672,170.05009377
21.76804366,6.40013743,7.65067639,-2.79234629,-1.02740783,1.13780073

>  <Name>
2o3x_lig

>  <RI>
0

>  <Rbt.Current_Directory>
/home/itssahil/PROJECTS/Mol_Feturizer/New_Systems/rnas/2o3x

>  <Rbt.Executable>
rbdock ($Id: //depot/dev/client3/rdock/2013.1/src/exe/rbdock.cxx#4 $)

>  <Rbt.Library>
libRbt.so (2013.1, Build901 2013/11/27)

>  <Rbt.Parameter_File>
/export/apps/rDock/src/rDock_2013.1_src/data/scripts/dock_solv.prm

>  <Rbt.Receptor>
prm/pocket_docking_8.prm

>  <SCORE>
-10.3594

>  <SCORE.INTER>
-9.38661

>  <SCORE.INTER.CONST>
1

>  <SCORE.INTER.POLAR>
-1.55197

>  <SCORE.INTER.ROT>
6

>  <SCORE.INTER.SOLV>
12.5696

>  <SCORE.INTER.VDW>
-12.8744

>  <SCORE.INTER.norm>
-0.302794

>  <SCORE.INTRA>
-0.972813

>  <SCORE.INTRA.DIHEDRAL>
-5.15191

>  <SCORE.INTRA.DIHEDRAL.0>
9.37739

>  <SCORE.INTRA.POLAR>
0

>  <SCORE.INTRA.POLAR.0>
0

>  <SCORE.INTRA.REPUL>
0

>  <SCORE.INTRA.REPUL.0>
0

>  <SCORE.INTRA.SOLV>
-1.0891

>  <SCORE.INTRA.SOLV.lig_0>
-82.9274

>  <SCORE.INTRA.VDW>
2.14769

>  <SCORE.INTRA.VDW.0>
-3.84922

>  <SCORE.INTRA.norm>
-0.0313811

>  <SCORE.RESTR>
0

>  <SCORE.RESTR.CAVITY>
0

>  <SCORE.RESTR.norm>
0

>  <SCORE.SYSTEM>
0

>  <SCORE.SYSTEM.CONST>
0

>  <SCORE.SYSTEM.DIHEDRAL>
0

>  <SCORE.SYSTEM.SOLV>
0

>  <SCORE.SYSTEM.norm>
0

>  <SCORE.heavy>
31

>  <SCORE.norm>
-0.334175

>  <RMSD>
3.390

$$$$
2o3x_lig
 OpenBabel11021811463D
libRbt.so/2013.1/901 2013/11/27
 31 33  0  0  0  0  0  0  0  0999 V2000
   21.9844    7.8812    5.9368 C   0  0  2  0  0  0  0  0  0  0  0  0
   22.8371    8.3345    6.9964 O   0  0  0  0  0  0  0  0  0  0  0  0
   24.5174    4.4963    7.8583 C   0  0  2  0  0  0  0  0  0  0  0  0
   25.2342    3.3722    8.5003 N   0  0  0  0  0  0  0  0  0  0  0  0
   22.2238    6.6290   10.7215 C   0  0  1  0  0  0  0  0  0  0  0  0
   22.5486    8.4223    4.5850 C   0  0  2  0  0  0  0  0  0  0  0  0
   24.0083    8.1830    4.4522 N   0  0  0  0  0  0  0  0  0  0  0  0
   25.4927    5.6324    7.4028 C   0  0  0  0  0  0  0  0  0  0  0  0
   23.2267    7.6411   11.3665 C   0  0  2  0  0  0  0  0  0  0  0  0
   24.6376    7.3211   11.2207 O   0  0  0  0  0  0  0  0  0  0  0  0
   22.2975    9.9341    4.4293 C   0  0  1  0  0  0  0  0  0  0  0  0
   22.7675   10.3884    3.1854 O   0  0  0  0  0  0  0  0  0  0  0  0
   24.6440    6.7600    6.7094 C   0  0  2  0  0  0  0  0  0  0  0  0
   25.5076    7.8790    6.2262 N   0  0  0  0  0  0  0  0  0  0  0  0
   22.6786    7.6198   12.7836 C   0  0  2  0  0  0  0  0  0  0  0  0
   23.1393    6.4296   13.5107 O   0  0  0  0  0  0  0  0  0  0  0  0
   20.8135   10.2250    4.5768 C   0  0  2  0  0  0  0  0  0  0  0  0
   20.5814   11.5871    4.4136 O   0  0  0  0  0  0  0  0  0  0  0  0
   23.5944    7.3396    7.7002 C   0  0  2  0  0  0  0  0  0  0  0  0
   21.1650    7.5983   12.6061 C   0  0  2  0  0  0  0  0  0  0  0  0
   21.0385    6.6788   11.5250 O   0  0  0  0  0  0  0  0  0  0  0  0
   20.3184    9.7592    5.9752 C   0  0  2  0  0  0  0  0  0  0  0  0
   20.5789    8.3483    6.1377 O   0  0  0  0  0  0  0  0  0  0  0  0
   22.6453    6.2705    8.2769 C   0  0  2  0  0  0  0  0  0  0  0  0
   21.9117    6.9484    9.3567 O   0  0  0  0  0  0  0  0  0  0  0  0
   20.5245    8.9785   12.2342 C   0  0  0  0  0  0  0  0  0  0  0  0
   20.8083    9.2994   10.8754 N   0  0  0  0  0  0  0  0  0  0  0  0
   18.8411   10.0046    6.1767 C   0  0  0  0  0  0  0  0  0  0  0  0
   18.4900    9.9231    7.5101 O   0  0  0  0  0  0  0  0  0  0  0  0
   23.4813    5.0449    8.8557 C   0  0  1  0  0  0  0  0  0  0  0  0
   22.6274    3.9427    9.1978 O   0  0  0  0  0  0  0  0  0  0  0  0
  1  2  1  1  0  0  0
  1  6  1  0  0  0  0
  1 23  1  0  0  0  0
  3  4  1  1  0  0  0
  3  8  1  0  0  0  0
  3 30  1  0  0  0  0
  5  9  1  0  0  0  0
  5 21  1  0  0  0  0
  5 25  1  6  0  0  0
  6  7  1  1  0  0  0
  6 11  1  0  0  0  0
  8 13  1  0  0  0  0
  9 10  1  1  0  0  0
  9 15  1  0  0  0  0
 11 12  1  6  0  0  0
 11 17  1  0  0  0  0
 13 14  1  1  0  0  0
 13 19  1  0  0  0  0
 15 16  1  6  0  0  0
 15 20  1  0  0  0  0
 17 18  1  1  0  0  0
 17 22  1  0  0  0  0
 19  2  1  6  0  0  0
 19 24  1  0  0  0  0
 20 21  1  0  0  0  0
 20 26  1  6  0  0  0
 22 23  1  0  0  0  0
 22 28  1  6  0  0  0
 24 25  1  1  0  0  0
 24 30  1  0  0  0  0
 26 27  1  0  0  0  0
 28 29  1  0  0  0  0
 30 31  1  6  0  0  0
M  END
>  <CHROM.1>
-113.01722125,96.60093091,67.43325251,74.00948629,-164.05898648,-107.14271955
22.39412773,7.72357661,8.11811162,-1.81621602,-0.72691447,1.87853318

>  <Name>
2o3x_lig

>  <RI>
224

>  <Rbt.Current_Directory>
/home/itssahil/PROJECTS/Mol_Feturizer/New_Systems/rnas/2o3x

>  <Rbt.Executable>
rbdock ($Id: //depot/dev/client3/rdock/2013.1/src/exe/rbdock.cxx#4 $)

>  <Rbt.Library>
libRbt.so (2013.1, Build901 2013/11/27)

>  <Rbt.Parameter_File>
/export/apps/rDock/src/rDock_2013.1_src/data/scripts/dock_solv.prm

>  <Rbt.Receptor>
prm/blind_docking_100.prm

>  <SCORE>
4.73334

>  <SCORE.INTER>
-10.9376

>  <SCORE.INTER.CONST>
1

>  <SCORE.INTER.POLAR>
-0.78927

>  <SCORE.INTER.ROT>
6

>  <SCORE.INTER.SOLV>
24.4338

>  <SCORE.INTER.VDW>
-20.4055

>  <SCORE.INTER.norm>
-0.352827

>  <SCORE.INTRA>
13.1298

>  <SCORE.INTRA.DIHEDRAL>
10.733

>  <SCORE.INTRA.DIHEDRAL.0>
9.37739

>  <SCORE.INTRA.POLAR>
0

>  <SCORE.INTRA.POLAR.0>
0

>  <SCORE.INTRA.REPUL>
0.0633936

>  <SCORE.INTRA.REPUL.0>
0

>  <SCORE.INTRA.SOLV>
5.69076

>  <SCORE.INTRA.SOLV.lig_0>
-82.9274

>  <SCORE.INTRA.VDW>
4.60096

>  <SCORE.INTRA.VDW.0>
-3.84922

>  <SCORE.INTRA.norm>
0.423542

>  <SCORE.RESTR>
2.54116

>  <SCORE.RESTR.CAVITY>
2.54116

>  <SCORE.RESTR.norm>
0.0819729

>  <SCORE.SYSTEM>
0

>  <SCORE.SYSTEM.CONST>
0

>  <SCORE.SYSTEM.DIHEDRAL>
0

>  <SCORE.SYSTEM.SOLV>
0

>  <SCORE.SYSTEM.norm>
0

>  <SCORE.heavy>
31

>  <SCORE.norm>
0.152688

>  <RMSD>
3.454

$$$$
2o3x_lig
 OpenBabel11021811463D
libRbt.so/2013.1/901 2013/11/27
 31 33  0  0  0  0  0  0  0  0999 V2000
   20.2917    7.2348    4.6760 C   0  0  2  0  0  0  0  0  0  0  0  0
   20.8957    6.5046    5.7519 O   0  0  0  0  0  0  0  0  0  0  0  0
   24.8276    4.8625    6.1283 C   0  0  2  0  0  0  0  0  0  0  0  0
   26.2949    4.7018    6.2316 N   0  0  0  0  0  0  0  0  0  0  0  0
   21.0807    7.4762    8.4111 C   0  0  1  0  0  0  0  0  0  0  0  0
   20.5883    8.7538    4.8841 C   0  0  2  0  0  0  0  0  0  0  0  0
   22.0217    9.0088    5.1780 N   0  0  0  0  0  0  0  0  0  0  0  0
   24.3913    5.3923    4.7217 C   0  0  0  0  0  0  0  0  0  0  0  0
   20.3802    6.2148    9.0149 C   0  0  2  0  0  0  0  0  0  0  0  0
   19.7404    5.3230    8.0612 O   0  0  0  0  0  0  0  0  0  0  0  0
   19.7536    9.3427    6.0370 C   0  0  1  0  0  0  0  0  0  0  0  0
   19.9989   10.7196    6.1726 O   0  0  0  0  0  0  0  0  0  0  0  0
   22.8228    5.4997    4.7017 C   0  0  2  0  0  0  0  0  0  0  0  0
   22.3219    5.9830    3.3800 N   0  0  0  0  0  0  0  0  0  0  0  0
   19.4571    6.9234    9.9920 C   0  0  2  0  0  0  0  0  0  0  0  0
   18.2775    7.4668    9.3056 O   0  0  0  0  0  0  0  0  0  0  0  0
   18.2775    9.0869    5.7836 C   0  0  2  0  0  0  0  0  0  0  0  0
   17.5199    9.6381    6.8122 O   0  0  0  0  0  0  0  0  0  0  0  0
   22.3292    6.4796    5.8043 C   0  0  2  0  0  0  0  0  0  0  0  0
   20.3100    8.0422   10.5786 C   0  0  2  0  0  0  0  0  0  0  0  0
   20.9875    8.4983    9.4109 O   0  0  0  0  0  0  0  0  0  0  0  0
   18.0142    7.5578    5.6823 C   0  0  2  0  0  0  0  0  0  0  0  0
   18.8173    6.9957    4.6221 O   0  0  0  0  0  0  0  0  0  0  0  0
   22.7944    6.0875    7.2207 C   0  0  2  0  0  0  0  0  0  0  0  0
   22.4554    7.2395    8.0704 O   0  0  0  0  0  0  0  0  0  0  0  0
   21.3371    7.5861   11.6697 C   0  0  0  0  0  0  0  0  0  0  0  0
   20.6482    7.0672   12.8037 N   0  0  0  0  0  0  0  0  0  0  0  0
   16.5625    7.2378    5.4110 C   0  0  0  0  0  0  0  0  0  0  0  0
   16.1004    7.8913    4.2852 O   0  0  0  0  0  0  0  0  0  0  0  0
   24.3656    5.8289    7.2338 C   0  0  1  0  0  0  0  0  0  0  0  0
   24.7919    5.2527    8.4777 O   0  0  0  0  0  0  0  0  0  0  0  0
  1  2  1  1  0  0  0
  1  6  1  0  0  0  0
  1 23  1  0  0  0  0
  3  4  1  6  0  0  0
  3  8  1  0  0  0  0
  3 30  1  0  0  0  0
  5  9  1  0  0  0  0
  5 21  1  0  0  0  0
  5 25  1  1  0  0  0
  6  7  1  1  0  0  0
  6 11  1  0  0  0  0
  8 13  1  0  0  0  0
  9 10  1  6  0  0  0
  9 15  1  0  0  0  0
 11 12  1  6  0  0  0
 11 17  1  0  0  0  0
 13 14  1  6  0  0  0
 13 19  1  0  0  0  0
 15 16  1  6  0  0  0
 15 20  1  0  0  0  0
 17 18  1  1  0  0  0
 17 22  1  0  0  0  0
 19  2  1  1  0  0  0
 19 24  1  0  0  0  0
 20 21  1  0  0  0  0
 20 26  1  1  0  0  0
 22 23  1  0  0  0  0
 22 28  1  6  0  0  0
 24 25  1  1  0  0  0
 24 30  1  0  0  0  0
 26 27  1  0  0  0  0
 28 29  1  0  0  0  0
 30 31  1  1  0  0  0
M  END
>  <CHROM.1>
-67.58070818,52.17234098,-75.26927572,-63.78652766,54.73223333,73.43589870
20.86899018,7.17763836,6.99312162,-3.07743066,-0.42691415,1.54028322

>  <Name>
2o3x_lig

>  <RI>
0

>  <Rbt.Current_Directory>
/home/itssahil/PROJECTS/Mol_Feturizer/New_Systems/rnas/2o3x

>  <Rbt.Executable>
rbdock ($Id: //depot/dev/client3/rdock/2013.1/src/exe/rbdock.cxx#4 $)

>  <Rbt.Library>
libRbt.so (2013.1, Build901 2013/11/27)

>  <Rbt.Parameter_File>
/export/apps/rDock/src/rDock_2013.1_src/data/scripts/dock_solv.prm

>  <Rbt.Receptor>
prm/pocket_docking_3.prm

>  <SCORE>
-4.69479

>  <SCORE.INTER>
-4.55748

>  <SCORE.INTER.CONST>
1

>  <SCORE.INTER.POLAR>
-1.32067

>  <SCORE.INTER.ROT>
6

>  <SCORE.INTER.SOLV>
9.14645

>  <SCORE.INTER.VDW>
-9.28491

>  <SCORE.INTER.norm>
-0.147015

>  <SCORE.INTRA>
-0.13731

>  <SCORE.INTRA.DIHEDRAL>
-6.53002

>  <SCORE.INTRA.DIHEDRAL.0>
9.37739

>  <SCORE.INTRA.POLAR>
0

>  <SCORE.INTRA.POLAR.0>
0

>  <SCORE.INTRA.REPUL>
0

>  <SCORE.INTRA.REPUL.0>
0

>  <SCORE.INTRA.SOLV>
4.25545

>  <SCORE.INTRA.SOLV.lig_0>
-82.9274

>  <SCORE.INTRA.VDW>
0.999976

>  <SCORE.INTRA.VDW.0>
-3.84922

>  <SCORE.INTRA.norm>
-0.00442935

>  <SCORE.RESTR>
0

>  <SCORE.RESTR.CAVITY>
0

>  <SCORE.RESTR.norm>
0

>  <SCORE.SYSTEM>
0

>  <SCORE.SYSTEM.CONST>
0

>  <SCORE.SYSTEM.DIHEDRAL>
0

>  <SCORE.SYSTEM.SOLV>
0

>  <SCORE.SYSTEM.norm>
0

>  <SCORE.heavy>
31

>  <SCORE.norm>
-0.151445

>  <RMSD>
3.560

$$$$
2o3x_lig
 OpenBabel11021811463D
libRbt.so/2013.1/901 2013/11/27
 31 33  0  0  0  0  0  0  0  0999 V2000
   18.1206    7.2984    6.6308 C   0  0  2  0  0  0  0  0  0  0  0  0
   18.5329    5.9907    6.2121 O   0  0  0  0  0  0  0  0  0  0  0  0
   21.1122    2.9068    7.6731 C   0  0  2  0  0  0  0  0  0  0  0  0
   22.1885    2.1681    8.3699 N   0  0  0  0  0  0  0  0  0  0  0  0
   19.5173    6.4333    9.6914 C   0  0  1  0  0  0  0  0  0  0  0  0
   16.7371    7.6113    5.9776 C   0  0  2  0  0  0  0  0  0  0  0  0
   15.7741    6.4930    6.1441 N   0  0  0  0  0  0  0  0  0  0  0  0
   21.6745    3.8646    6.5705 C   0  0  0  0  0  0  0  0  0  0  0  0
   18.7896    7.5960   10.4428 C   0  0  2  0  0  0  0  0  0  0  0  0
   18.5146    8.7887    9.6578 O   0  0  0  0  0  0  0  0  0  0  0  0
   16.8732    7.9024    4.4711 C   0  0  1  0  0  0  0  0  0  0  0  0
   15.6249    8.2307    3.9157 O   0  0  0  0  0  0  0  0  0  0  0  0
   20.4592    4.5766    5.8715 C   0  0  2  0  0  0  0  0  0  0  0  0
   20.9122    5.4991    4.7875 N   0  0  0  0  0  0  0  0  0  0  0  0
   19.7703    7.7622   11.5915 C   0  0  2  0  0  0  0  0  0  0  0  0
   20.9481    8.5341   11.1736 O   0  0  0  0  0  0  0  0  0  0  0  0
   17.8662    9.0320    4.2551 C   0  0  2  0  0  0  0  0  0  0  0  0
   17.9735    9.3123    2.8965 O   0  0  0  0  0  0  0  0  0  0  0  0
   19.6391    5.3977    6.9071 C   0  0  2  0  0  0  0  0  0  0  0  0
   20.1583    6.3377   11.9701 C   0  0  2  0  0  0  0  0  0  0  0  0
   20.2980    5.7499   10.6796 O   0  0  0  0  0  0  0  0  0  0  0  0
   19.2541    8.6356    4.8333 C   0  0  2  0  0  0  0  0  0  0  0  0
   19.1261    8.3326    6.2392 O   0  0  0  0  0  0  0  0  0  0  0  0
   19.1224    4.5494    8.0860 C   0  0  2  0  0  0  0  0  0  0  0  0
   18.6046    5.5205    9.0620 O   0  0  0  0  0  0  0  0  0  0  0  0
   19.0897    5.5653   12.8154 C   0  0  0  0  0  0  0  0  0  0  0  0
   18.8289    6.2630   14.0299 N   0  0  0  0  0  0  0  0  0  0  0  0
   20.2837    9.7288    4.6659 C   0  0  0  0  0  0  0  0  0  0  0  0
   20.0751   10.7636    5.5568 O   0  0  0  0  0  0  0  0  0  0  0  0
   20.3128    3.7030    8.7203 C   0  0  1  0  0  0  0  0  0  0  0  0
   19.8257    2.7438    9.6710 O   0  0  0  0  0  0  0  0  0  0  0  0
  1  2  1  6  0  0  0
  1  6  1  0  0  0  0
  1 23  1  0  0  0  0
  3  4  1  1  0  0  0
  3  8  1  0  0  0  0
  3 30  1  0  0  0  0
  5  9  1  0  0  0  0
  5 21  1  0  0  0  0
  5 25  1  1  0  0  0
  6  7  1  6  0  0  0
  6 11  1  0  0  0  0
  8 13  1  0  0  0  0
  9 10  1  6  0  0  0
  9 15  1  0  0  0  0
 11 12  1  1  0  0  0
 11 17  1  0  0  0  0
 13 14  1  6  0  0  0
 13 19  1  0  0  0  0
 15 16  1  6  0  0  0
 15 20  1  0  0  0  0
 17 18  1  6  0  0  0
 17 22  1  0  0  0  0
 19  2  1  6  0  0  0
 19 24  1  0  0  0  0
 20 21  1  0  0  0  0
 20 26  1  1  0  0  0
 22 23  1  0  0  0  0
 22 28  1  1  0  0  0
 24 25  1  1  0  0  0
 24 30  1  0  0  0  0
 26 27  1  0  0  0  0
 28 29  1  0  0  0  0
 30 31  1  1  0  0  0
M  END
>  <CHROM.1>
-167.62159965,167.03259140,-144.41538870,-59.11035507,74.71128644,-65.08237211
19.21702885,6.60035810,7.72046008,2.28459268,1.16088162,-1.78057892

>  <Name>
2o3x_lig

>  <RI>
0

>  <Rbt.Current_Directory>
/home/itssahil/PROJECTS/Mol_Feturizer/New_Systems/rnas/2o3x

>  <Rbt.Executable>
rbdock ($Id: //depot/dev/client3/rdock/2013.1/src/exe/rbdock.cxx#4 $)

>  <Rbt.Library>
libRbt.so (2013.1, Build901 2013/11/27)

>  <Rbt.Parameter_File>
/export/apps/rDock/src/rDock_2013.1_src/data/scripts/dock_solv.prm

>  <Rbt.Receptor>
prm/pocket_docking_5.prm

>  <SCORE>
-10.5739

>  <SCORE.INTER>
-9.79774

>  <SCORE.INTER.CONST>
1

>  <SCORE.INTER.POLAR>
-1.64276

>  <SCORE.INTER.ROT>
6

>  <SCORE.INTER.SOLV>
12.1767

>  <SCORE.INTER.VDW>
-12.7149

>  <SCORE.INTER.norm>
-0.316056

>  <SCORE.INTRA>
-0.776151

>  <SCORE.INTRA.DIHEDRAL>
-2.21022

>  <SCORE.INTRA.DIHEDRAL.0>
9.37739

>  <SCORE.INTRA.POLAR>
0

>  <SCORE.INTRA.POLAR.0>
0

>  <SCORE.INTRA.REPUL>
0

>  <SCORE.INTRA.REPUL.0>
0

>  <SCORE.INTRA.SOLV>
-0.535994

>  <SCORE.INTRA.SOLV.lig_0>
-82.9274

>  <SCORE.INTRA.VDW>
0.596958

>  <SCORE.INTRA.VDW.0>
-3.84922

>  <SCORE.INTRA.norm>
-0.0250371

>  <SCORE.RESTR>
0

>  <SCORE.RESTR.CAVITY>
0

>  <SCORE.RESTR.norm>
0

>  <SCORE.SYSTEM>
0

>  <SCORE.SYSTEM.CONST>
0

>  <SCORE.SYSTEM.DIHEDRAL>
0

>  <SCORE.SYSTEM.SOLV>
0

>  <SCORE.SYSTEM.norm>
0

>  <SCORE.heavy>
31

>  <SCORE.norm>
-0.341093

>  <RMSD>
3.617

$$$$
2o3x_lig
 OpenBabel11021811463D
libRbt.so/2013.1/901 2013/11/27
 31 33  0  0  0  0  0  0  0  0999 V2000
   22.2051    7.7221    5.7200 C   0  0  2  0  0  0  0  0  0  0  0  0
   23.0822    7.9892    6.8222 O   0  0  0  0  0  0  0  0  0  0  0  0
   23.6470    3.8878    7.8984 C   0  0  2  0  0  0  0  0  0  0  0  0
   24.0923    2.6430    8.5629 N   0  0  0  0  0  0  0  0  0  0  0  0
   22.5561    6.7915   10.7971 C   0  0  1  0  0  0  0  0  0  0  0  0
   22.7823    8.4239    4.4501 C   0  0  2  0  0  0  0  0  0  0  0  0
   24.2303    8.1482    4.2679 N   0  0  0  0  0  0  0  0  0  0  0  0
   24.8225    4.6171    7.1666 C   0  0  0  0  0  0  0  0  0  0  0  0
   23.3832    7.9015   11.5250 C   0  0  2  0  0  0  0  0  0  0  0  0
   24.8284    7.8092   11.3935 O   0  0  0  0  0  0  0  0  0  0  0  0
   22.5919    9.9513    4.5092 C   0  0  1  0  0  0  0  0  0  0  0  0
   23.0722   10.5558    3.3352 O   0  0  0  0  0  0  0  0  0  0  0  0
   24.2456    5.9037    6.4707 C   0  0  2  0  0  0  0  0  0  0  0  0
   25.3065    6.6505    5.7303 N   0  0  0  0  0  0  0  0  0  0  0  0
   22.8248    7.7083   12.9250 C   0  0  2  0  0  0  0  0  0  0  0  0
   23.4518    6.5584   13.5901 O   0  0  0  0  0  0  0  0  0  0  0  0
   21.1219   10.2770    4.7134 C   0  0  2  0  0  0  0  0  0  0  0  0
   20.9443   11.6566    4.7441 O   0  0  0  0  0  0  0  0  0  0  0  0
   23.6156    6.8579    7.5252 C   0  0  2  0  0  0  0  0  0  0  0  0
   21.3349    7.4685   12.7109 C   0  0  2  0  0  0  0  0  0  0  0  0
   21.3659    6.6101   11.5740 O   0  0  0  0  0  0  0  0  0  0  0  0
   20.6171    9.6405    6.0392 C   0  0  2  0  0  0  0  0  0  0  0  0
   20.8211    8.2116    6.0006 O   0  0  0  0  0  0  0  0  0  0  0  0
   22.5065    6.1923    8.3638 C   0  0  2  0  0  0  0  0  0  0  0  0
   22.2181    7.1450    9.4469 O   0  0  0  0  0  0  0  0  0  0  0  0
   20.4962    8.7561   12.4075 C   0  0  0  0  0  0  0  0  0  0  0  0
   20.4796    9.6093   13.5484 N   0  0  0  0  0  0  0  0  0  0  0  0
   19.1522    9.9133    6.2904 C   0  0  0  0  0  0  0  0  0  0  0  0
   18.7467    9.4205    7.5154 O   0  0  0  0  0  0  0  0  0  0  0  0
   23.0214    4.8090    8.9613 C   0  0  1  0  0  0  0  0  0  0  0  0
   21.9494    4.0648    9.5598 O   0  0  0  0  0  0  0  0  0  0  0  0
  1  2  1  1  0  0  0
  1  6  1  0  0  0  0
  1 23  1  0  0  0  0
  3  4  1  1  0  0  0
  3  8  1  0  0  0  0
  3 30  1  0  0  0  0
  5  9  1  0  0  0  0
  5 21  1  0  0  0  0
  5 25  1  6  0  0  0
  6  7  1  1  0  0  0
  6 11  1  0  0  0  0
  8 13  1  0  0  0  0
  9 10  1  1  0  0  0
  9 15  1  0  0  0  0
 11 12  1  6  0  0  0
 11 17  1  0  0  0  0
 13 14  1  1  0  0  0
 13 19  1  0  0  0  0
 15 16  1  6  0  0  0
 15 20  1  0  0  0  0
 17 18  1  1  0  0  0
 17 22  1  0  0  0  0
 19  2  1  6  0  0  0
 19 24  1  0  0  0  0
 20 21  1  0  0  0  0
 20 26  1  6  0  0  0
 22 23  1  0  0  0  0
 22 28  1  6  0  0  0
 24 25  1  1  0  0  0
 24 30  1  0  0  0  0
 26 27  1  0  0  0  0
 28 29  1  0  0  0  0
 30 31  1  6  0  0  0
M  END
>  <CHROM.1>
-123.93895840,129.29741999,51.66540305,-66.47547291,-175.78658288,-112.37213230
22.41295173,7.57038925,8.22555474,-1.66830246,-0.93059596,1.84948834

>  <Name>
2o3x_lig

>  <RI>
0

>  <Rbt.Current_Directory>
/home/itssahil/PROJECTS/Mol_Feturizer/New_Systems/rnas/2o3x

>  <Rbt.Executable>
rbdock ($Id: //depot/dev/client3/rdock/2013.1/src/exe/rbdock.cxx#4 $)

>  <Rbt.Library>
libRbt.so (2013.1, Build901 2013/11/27)

>  <Rbt.Parameter_File>
/export/apps/rDock/src/rDock_2013.1_src/data/scripts/dock_solv.prm

>  <Rbt.Receptor>
prm/blind_docking_40.prm

>  <SCORE>
11.6723

>  <SCORE.INTER>
-7.17087

>  <SCORE.INTER.CONST>
1

>  <SCORE.INTER.POLAR>
-0.0900051

>  <SCORE.INTER.ROT>
6

>  <SCORE.INTER.SOLV>
20.7099

>  <SCORE.INTER.VDW>
-18.9839

>  <SCORE.INTER.norm>
-0.231319

>  <SCORE.INTRA>
11.7078

>  <SCORE.INTRA.DIHEDRAL>
12.1498

>  <SCORE.INTRA.DIHEDRAL.0>
9.37739

>  <SCORE.INTRA.POLAR>
0

>  <SCORE.INTRA.POLAR.0>
0

>  <SCORE.INTRA.REPUL>
0

>  <SCORE.INTRA.REPUL.0>
0

>  <SCORE.INTRA.SOLV>
1.66253

>  <SCORE.INTRA.SOLV.lig_0>
-82.9274

>  <SCORE.INTRA.VDW>
4.80166

>  <SCORE.INTRA.VDW.0>
-3.84922

>  <SCORE.INTRA.norm>
0.377672

>  <SCORE.RESTR>
7.13528

>  <SCORE.RESTR.CAVITY>
7.13528

>  <SCORE.RESTR.norm>
0.23017

>  <SCORE.SYSTEM>
0

>  <SCORE.SYSTEM.CONST>
0

>  <SCORE.SYSTEM.DIHEDRAL>
0

>  <SCORE.SYSTEM.SOLV>
0

>  <SCORE.SYSTEM.norm>
0

>  <SCORE.heavy>
31

>  <SCORE.norm>
0.376524

>  <RMSD>
3.723

$$$$
2o3x_lig
 OpenBabel11021811463D
libRbt.so/2013.1/901 2013/11/27
 31 33  0  0  0  0  0  0  0  0999 V2000
   21.7611    7.8035    6.2448 C   0  0  2  0  0  0  0  0  0  0  0  0
   21.4869    6.4501    6.6303 O   0  0  0  0  0  0  0  0  0  0  0  0
   23.7778    2.8655    7.0780 C   0  0  2  0  0  0  0  0  0  0  0  0
   24.8490    1.8961    7.3980 N   0  0  0  0  0  0  0  0  0  0  0  0
   21.6441    5.0995   10.5427 C   0  0  1  0  0  0  0  0  0  0  0  0
   21.8048    8.6835    7.5341 C   0  0  2  0  0  0  0  0  0  0  0  0
   22.6495    8.0791    8.5956 N   0  0  0  0  0  0  0  0  0  0  0  0
   24.2085    3.8697    5.9576 C   0  0  0  0  0  0  0  0  0  0  0  0
   21.5651    6.1916   11.6595 C   0  0  2  0  0  0  0  0  0  0  0  0
   22.7442    6.3316   12.4989 O   0  0  0  0  0  0  0  0  0  0  0  0
   20.3964    8.9084    8.1162 C   0  0  1  0  0  0  0  0  0  0  0  0
   20.4549    9.7435    9.2447 O   0  0  0  0  0  0  0  0  0  0  0  0
   22.9996    4.8330    5.6696 C   0  0  2  0  0  0  0  0  0  0  0  0
   23.3246    5.8157    4.5925 N   0  0  0  0  0  0  0  0  0  0  0  0
   20.3037    5.7050   12.3531 C   0  0  2  0  0  0  0  0  0  0  0  0
   20.5922    4.5694   13.2391 O   0  0  0  0  0  0  0  0  0  0  0  0
   19.4929    9.5109    7.0536 C   0  0  2  0  0  0  0  0  0  0  0  0
   18.2265    9.7363    7.5838 O   0  0  0  0  0  0  0  0  0  0  0  0
   22.6112    5.6196    6.9539 C   0  0  2  0  0  0  0  0  0  0  0  0
   19.3802    5.2875   11.2148 C   0  0  2  0  0  0  0  0  0  0  0  0
   20.3040    4.6292   10.3526 O   0  0  0  0  0  0  0  0  0  0  0  0
   19.4012    8.5544    5.8312 C   0  0  2  0  0  0  0  0  0  0  0  0
   20.7227    8.3166    5.3001 O   0  0  0  0  0  0  0  0  0  0  0  0
   22.2613    4.7063    8.1455 C   0  0  2  0  0  0  0  0  0  0  0  0
   22.1725    5.6048    9.3068 O   0  0  0  0  0  0  0  0  0  0  0  0
   18.6760    6.4709   10.4686 C   0  0  0  0  0  0  0  0  0  0  0  0
   17.8059    7.1628   11.3598 N   0  0  0  0  0  0  0  0  0  0  0  0
   18.5291    9.1078    4.7282 C   0  0  0  0  0  0  0  0  0  0  0  0
   17.1871    8.9756    5.0273 O   0  0  0  0  0  0  0  0  0  0  0  0
   23.4076    3.6231    8.3658 C   0  0  1  0  0  0  0  0  0  0  0  0
   23.0112    2.6268    9.3205 O   0  0  0  0  0  0  0  0  0  0  0  0
  1  2  1  1  0  0  0
  1  6  1  0  0  0  0
  1 23  1  0  0  0  0
  3  4  1  1  0  0  0
  3  8  1  0  0  0  0
  3 30  1  0  0  0  0
  5  9  1  0  0  0  0
  5 21  1  0  0  0  0
  5 25  1  6  0  0  0
  6  7  1  1  0  0  0
  6 11  1  0  0  0  0
  8 13  1  0  0  0  0
  9 10  1  1  0  0  0
  9 15  1  0  0  0  0
 11 12  1  1  0  0  0
 11 17  1  0  0  0  0
 13 14  1  6  0  0  0
 13 19  1  0  0  0  0
 15 16  1  1  0  0  0
 15 20  1  0  0  0  0
 17 18  1  1  0  0  0
 17 22  1  0  0  0  0
 19  2  1  6  0  0  0
 19 24  1  0  0  0  0
 20 21  1  0  0  0  0
 20 26  1  6  0  0  0
 22 23  1  0  0  0  0
 22 28  1  6  0  0  0
 24 25  1  1  0  0  0
 24 30  1  0  0  0  0
 26 27  1  0  0  0  0
 28 29  1  0  0  0  0
 30 31  1  1  0  0  0
M  END
>  <CHROM.1>
-88.22356252,-177.76144886,-94.70019414,-63.89419499,-76.90307306,169.81003920
21.18538311,6.36685618,8.35741845,-2.37460364,-0.81000032,1.92229919

>  <Name>
2o3x_lig

>  <RI>
2.78316e+07

>  <Rbt.Current_Directory>
/home/itssahil/PROJECTS/Mol_Feturizer/New_Systems/rnas/2o3x

>  <Rbt.Executable>
rbdock ($Id: //depot/dev/client3/rdock/2013.1/src/exe/rbdock.cxx#4 $)

>  <Rbt.Library>
libRbt.so (2013.1, Build901 2013/11/27)

>  <Rbt.Parameter_File>
/export/apps/rDock/src/rDock_2013.1_src/data/scripts/dock_solv.prm

>  <Rbt.Receptor>
prm/pocket_docking_7.prm

>  <SCORE>
-7.04091

>  <SCORE.INTER>
-8.08213

>  <SCORE.INTER.CONST>
1

>  <SCORE.INTER.POLAR>
-1.39368

>  <SCORE.INTER.ROT>
6

>  <SCORE.INTER.SOLV>
13.5865

>  <SCORE.INTER.VDW>
-12.8713

>  <SCORE.INTER.norm>
-0.260714

>  <SCORE.INTRA>
1.04123

>  <SCORE.INTRA.DIHEDRAL>
0.0309262

>  <SCORE.INTRA.DIHEDRAL.0>
9.37739

>  <SCORE.INTRA.POLAR>
0

>  <SCORE.INTRA.POLAR.0>
0

>  <SCORE.INTRA.REPUL>
0

>  <SCORE.INTRA.REPUL.0>
0

>  <SCORE.INTRA.SOLV>
1.76097

>  <SCORE.INTRA.SOLV.lig_0>
-82.9274

>  <SCORE.INTRA.VDW>
0.145278

>  <SCORE.INTRA.VDW.0>
-3.84922

>  <SCORE.INTRA.norm>
0.033588

>  <SCORE.RESTR>
0

>  <SCORE.RESTR.CAVITY>
0

>  <SCORE.RESTR.norm>
0

>  <SCORE.SYSTEM>
0

>  <SCORE.SYSTEM.CONST>
0

>  <SCORE.SYSTEM.DIHEDRAL>
0

>  <SCORE.SYSTEM.SOLV>
0

>  <SCORE.SYSTEM.norm>
0

>  <SCORE.heavy>
31

>  <SCORE.norm>
-0.227126

>  <RMSD>
3.724

$$$$
2o3x_lig
 OpenBabel11021811463D
libRbt.so/2013.1/901 2013/11/27
 31 33  0  0  0  0  0  0  0  0999 V2000
   21.4619    7.7059    6.6277 C   0  0  2  0  0  0  0  0  0  0  0  0
   22.5271    8.1466    7.4801 O   0  0  0  0  0  0  0  0  0  0  0  0
   24.3832    4.3229    7.9622 C   0  0  2  0  0  0  0  0  0  0  0  0
   25.1790    3.1859    8.4754 N   0  0  0  0  0  0  0  0  0  0  0  0
   22.4595    6.5047   11.0841 C   0  0  1  0  0  0  0  0  0  0  0  0
   21.7725    8.1721    5.1701 C   0  0  2  0  0  0  0  0  0  0  0  0
   23.1646    7.8507    4.7646 N   0  0  0  0  0  0  0  0  0  0  0  0
   25.2873    5.5202    7.5166 C   0  0  0  0  0  0  0  0  0  0  0  0
   23.2961    7.7832   11.4180 C   0  0  2  0  0  0  0  0  0  0  0  0
   24.6858    7.7655   10.9903 O   0  0  0  0  0  0  0  0  0  0  0  0
   21.5659    9.6894    5.0030 C   0  0  1  0  0  0  0  0  0  0  0  0
   21.8016   10.0775    3.6732 O   0  0  0  0  0  0  0  0  0  0  0  0
   24.3562    6.6594    6.9618 C   0  0  2  0  0  0  0  0  0  0  0  0
   25.1475    7.8373    6.4953 N   0  0  0  0  0  0  0  0  0  0  0  0
   23.0579    7.8153   12.9184 C   0  0  2  0  0  0  0  0  0  0  0  0
   23.9245    6.8532   13.6119 O   0  0  0  0  0  0  0  0  0  0  0  0
   20.1553   10.0642    5.4254 C   0  0  2  0  0  0  0  0  0  0  0  0
   19.9589   11.4308    5.2536 O   0  0  0  0  0  0  0  0  0  0  0  0
   23.3637    7.1358    8.0605 C   0  0  2  0  0  0  0  0  0  0  0  0
   21.5893    7.4406   13.0789 C   0  0  2  0  0  0  0  0  0  0  0  0
   21.4782    6.3907   12.1219 O   0  0  0  0  0  0  0  0  0  0  0  0
   19.9250    9.6708    6.9120 C   0  0  2  0  0  0  0  0  0  0  0  0
   20.1469    8.2540    7.0797 O   0  0  0  0  0  0  0  0  0  0  0  0
   22.4925    5.9985    8.6295 C   0  0  2  0  0  0  0  0  0  0  0  0
   21.8184    6.5786    9.8012 O   0  0  0  0  0  0  0  0  0  0  0  0
   20.5758    8.5905   12.7566 C   0  0  0  0  0  0  0  0  0  0  0  0
   20.6326    9.5909   13.7694 N   0  0  0  0  0  0  0  0  0  0  0  0
   18.5295   10.0016    7.3880 C   0  0  0  0  0  0  0  0  0  0  0  0
   18.3879    9.7737    8.7430 O   0  0  0  0  0  0  0  0  0  0  0  0
   23.4056    4.7686    9.0645 C   0  0  1  0  0  0  0  0  0  0  0  0
   22.6132    3.6169    9.3911 O   0  0  0  0  0  0  0  0  0  0  0  0
  1  2  1  1  0  0  0
  1  6  1  0  0  0  0
  1 23  1  0  0  0  0
  3  4  1  1  0  0  0
  3  8  1  0  0  0  0
  3 30  1  0  0  0  0
  5  9  1  0  0  0  0
  5 21  1  0  0  0  0
  5 25  1  6  0  0  0
  6  7  1  1  0  0  0
  6 11  1  0  0  0  0
  8 13  1  0  0  0  0
  9 10  1  1  0  0  0
  9 15  1  0  0  0  0
 11 12  1  6  0  0  0
 11 17  1  0  0  0  0
 13 14  1  1  0  0  0
 13 19  1  0  0  0  0
 15 16  1  1  0  0  0
 15 20  1  0  0  0  0
 17 18  1  1  0  0  0
 17 22  1  0  0  0  0
 19  2  1  6  0  0  0
 19 24  1  0  0  0  0
 20 21  1  0  0  0  0
 20 26  1  6  0  0  0
 22 23  1  0  0  0  0
 22 28  1  6  0  0  0
 24 25  1  1  0  0  0
 24 30  1  0  0  0  0
 26 27  1  0  0  0  0
 28 29  1  0  0  0  0
 30 31  1  6  0  0  0
M  END
>  <CHROM.1>
-112.85196158,94.18424190,77.86590700,-70.74728534,-173.76290999,-89.17776812
22.20325061,7.60625899,8.64717561,-1.96616989,-0.79129020,1.71840179

>  <Name>
2o3x_lig

>  <RI>
224

>  <Rbt.Current_Directory>
/home/itssahil/PROJECTS/Mol_Feturizer/New_Systems/rnas/2o3x

>  <Rbt.Executable>
rbdock ($Id: //depot/dev/client3/rdock/2013.1/src/exe/rbdock.cxx#4 $)

>  <Rbt.Library>
libRbt.so (2013.1, Build901 2013/11/27)

>  <Rbt.Parameter_File>
/export/apps/rDock/src/rDock_2013.1_src/data/scripts/dock_solv.prm

>  <Rbt.Receptor>
prm/blind_docking_100.prm

>  <SCORE>
4.00729

>  <SCORE.INTER>
-6.2849

>  <SCORE.INTER.CONST>
1

>  <SCORE.INTER.POLAR>
-0.096553

>  <SCORE.INTER.ROT>
6

>  <SCORE.INTER.SOLV>
22.6498

>  <SCORE.INTER.VDW>
-19.018

>  <SCORE.INTER.norm>
-0.202739

>  <SCORE.INTRA>
7.35528

>  <SCORE.INTRA.DIHEDRAL>
7.55803

>  <SCORE.INTRA.DIHEDRAL.0>
9.37739

>  <SCORE.INTRA.POLAR>
0

>  <SCORE.INTRA.POLAR.0>
0

>  <SCORE.INTRA.REPUL>
0

>  <SCORE.INTRA.REPUL.0>
0

>  <SCORE.INTRA.SOLV>
1.85638

>  <SCORE.INTRA.SOLV.lig_0>
-82.9274

>  <SCORE.INTRA.VDW>
2.64807

>  <SCORE.INTRA.VDW.0>
-3.84922

>  <SCORE.INTRA.norm>
0.237267

>  <SCORE.RESTR>
2.93691

>  <SCORE.RESTR.CAVITY>
2.93691

>  <SCORE.RESTR.norm>
0.094739

>  <SCORE.SYSTEM>
0

>  <SCORE.SYSTEM.CONST>
0

>  <SCORE.SYSTEM.DIHEDRAL>
0

>  <SCORE.SYSTEM.SOLV>
0

>  <SCORE.SYSTEM.norm>
0

>  <SCORE.heavy>
31

>  <SCORE.norm>
0.129267

>  <RMSD>
3.751

$$$$
2o3x_lig
 OpenBabel11021811463D
libRbt.so/2013.1/901 2013/11/27
 31 33  0  0  0  0  0  0  0  0999 V2000
   18.5207    8.2111    7.3315 C   0  0  2  0  0  0  0  0  0  0  0  0
   19.6023    7.2800    7.4680 O   0  0  0  0  0  0  0  0  0  0  0  0
   22.2899    6.5354   10.7116 C   0  0  2  0  0  0  0  0  0  0  0  0
   23.2756    6.6951   11.8035 N   0  0  0  0  0  0  0  0  0  0  0  0
   19.5109    9.8549    9.8907 C   0  0  1  0  0  0  0  0  0  0  0  0
   17.3507    7.5003    6.5804 C   0  0  2  0  0  0  0  0  0  0  0  0
   17.0484    6.1638    7.1532 N   0  0  0  0  0  0  0  0  0  0  0  0
   22.9102    6.8469    9.3088 C   0  0  0  0  0  0  0  0  0  0  0  0
   18.3838   10.9261   10.0589 C   0  0  2  0  0  0  0  0  0  0  0  0
   17.6902   11.3181    8.8426 O   0  0  0  0  0  0  0  0  0  0  0  0
   17.6650    7.3171    5.0835 C   0  0  1  0  0  0  0  0  0  0  0  0
   16.5791    6.7223    4.4190 O   0  0  0  0  0  0  0  0  0  0  0  0
   21.7995    6.6208    8.2190 C   0  0  2  0  0  0  0  0  0  0  0  0
   22.3192    6.8801    6.8428 N   0  0  0  0  0  0  0  0  0  0  0  0
   19.2085   12.0072   10.7372 C   0  0  2  0  0  0  0  0  0  0  0  0
   20.0122   12.7512    9.7584 O   0  0  0  0  0  0  0  0  0  0  0  0
   17.9982    8.6627    4.4615 C   0  0  2  0  0  0  0  0  0  0  0  0
   18.2600    8.5030    3.1044 O   0  0  0  0  0  0  0  0  0  0  0  0
   20.5866    7.5607    8.4734 C   0  0  2  0  0  0  0  0  0  0  0  0
   20.1015   11.2493   11.7125 C   0  0  2  0  0  0  0  0  0  0  0  0
   20.4756   10.1303   10.9137 O   0  0  0  0  0  0  0  0  0  0  0  0
   19.2298    9.2868    5.1765 C   0  0  2  0  0  0  0  0  0  0  0  0
   18.9511    9.4328    6.5857 O   0  0  0  0  0  0  0  0  0  0  0  0
   19.9668    7.3903    9.8745 C   0  0  2  0  0  0  0  0  0  0  0  0
   19.0237    8.5100   10.0176 O   0  0  0  0  0  0  0  0  0  0  0  0
   19.3916   10.7767   13.0263 C   0  0  0  0  0  0  0  0  0  0  0  0
   18.8598   11.8981   13.7258 N   0  0  0  0  0  0  0  0  0  0  0  0
   19.6007   10.6394    4.6141 C   0  0  0  0  0  0  0  0  0  0  0  0
   19.9414   10.5577    3.2780 O   0  0  0  0  0  0  0  0  0  0  0  0
   21.0986    7.4691   10.9919 C   0  0  1  0  0  0  0  0  0  0  0  0
   20.5891    7.0972   12.2816 O   0  0  0  0  0  0  0  0  0  0  0  0
  1  2  1  6  0  0  0
  1  6  1  0  0  0  0
  1 23  1  0  0  0  0
  3  4  1  1  0  0  0
  3  8  1  0  0  0  0
  3 30  1  0  0  0  0
  5  9  1  0  0  0  0
  5 21  1  0  0  0  0
  5 25  1  1  0  0  0
  6  7  1  1  0  0  0
  6 11  1  0  0  0  0
  8 13  1  0  0  0  0
  9 10  1  6  0  0  0
  9 15  1  0  0  0  0
 11 12  1  6  0  0  0
 11 17  1  0  0  0  0
 13 14  1  6  0  0  0
 13 19  1  0  0  0  0
 15 16  1  6  0  0  0
 15 20  1  0  0  0  0
 17 18  1  6  0  0  0
 17 22  1  0  0  0  0
 19  2  1  6  0  0  0
 19 24  1  0  0  0  0
 20 21  1  0  0  0  0
 20 26  1  1  0  0  0
 22 23  1  0  0  0  0
 22 28  1  6  0  0  0
 24 25  1  1  0  0  0
 24 30  1  0  0  0  0
 26 27  1  0  0  0  0
 28 29  1  0  0  0  0
 30 31  1  1  0  0  0
M  END
>  <CHROM.1>
-160.58161218,179.60367814,-167.29786007,-58.84988074,-61.20462145,-57.91371806
19.60000251,8.82523135,8.42818184,-2.08556968,-0.98516436,0.95931500

>  <Name>
2o3x_lig

>  <RI>
0

>  <Rbt.Current_Directory>
/home/itssahil/PROJECTS/Mol_Feturizer/New_Systems/rnas/2o3x

>  <Rbt.Executable>
rbdock ($Id: //depot/dev/client3/rdock/2013.1/src/exe/rbdock.cxx#4 $)

>  <Rbt.Library>
libRbt.so (2013.1, Build901 2013/11/27)

>  <Rbt.Parameter_File>
/export/apps/rDock/src/rDock_2013.1_src/data/scripts/dock_solv.prm

>  <Rbt.Receptor>
prm/pocket_docking_8.prm

>  <SCORE>
-15.346

>  <SCORE.INTER>
-12.9871

>  <SCORE.INTER.CONST>
1

>  <SCORE.INTER.POLAR>
-1.67552

>  <SCORE.INTER.ROT>
6

>  <SCORE.INTER.SOLV>
12.261

>  <SCORE.INTER.VDW>
-14.76

>  <SCORE.INTER.norm>
-0.418939

>  <SCORE.INTRA>
-2.35886

>  <SCORE.INTRA.DIHEDRAL>
-6.70289

>  <SCORE.INTRA.DIHEDRAL.0>
9.37739

>  <SCORE.INTRA.POLAR>
0

>  <SCORE.INTRA.POLAR.0>
0

>  <SCORE.INTRA.REPUL>
0

>  <SCORE.INTRA.REPUL.0>
0

>  <SCORE.INTRA.SOLV>
-1.34115

>  <SCORE.INTRA.SOLV.lig_0>
-82.9274

>  <SCORE.INTRA.VDW>
1.66315

>  <SCORE.INTRA.VDW.0>
-3.84922

>  <SCORE.INTRA.norm>
-0.0760923

>  <SCORE.RESTR>
0

>  <SCORE.RESTR.CAVITY>
0

>  <SCORE.RESTR.norm>
0

>  <SCORE.SYSTEM>
0

>  <SCORE.SYSTEM.CONST>
0

>  <SCORE.SYSTEM.DIHEDRAL>
0

>  <SCORE.SYSTEM.SOLV>
0

>  <SCORE.SYSTEM.norm>
0

>  <SCORE.heavy>
31

>  <SCORE.norm>
-0.495031

>  <RMSD>
3.802

$$$$
2o3x_lig
 OpenBabel11021811463D
libRbt.so/2013.1/901 2013/11/27
 31 33  0  0  0  0  0  0  0  0999 V2000
   19.1429    9.5520    7.2245 C   0  0  2  0  0  0  0  0  0  0  0  0
   20.0089    8.4220    7.3939 O   0  0  0  0  0  0  0  0  0  0  0  0
   21.7837    6.7933   10.9288 C   0  0  2  0  0  0  0  0  0  0  0  0
   22.5412    6.6251   12.1887 N   0  0  0  0  0  0  0  0  0  0  0  0
   19.8673   10.6217   10.5352 C   0  0  1  0  0  0  0  0  0  0  0  0
   17.7191    9.0299    6.8522 C   0  0  2  0  0  0  0  0  0  0  0  0
   17.2694    7.9394    7.7546 N   0  0  0  0  0  0  0  0  0  0  0  0
   22.7231    7.0901    9.7127 C   0  0  0  0  0  0  0  0  0  0  0  0
   19.0454   11.9489   10.4396 C   0  0  2  0  0  0  0  0  0  0  0  0
   19.2664   12.7512    9.2472 O   0  0  0  0  0  0  0  0  0  0  0  0
   17.6677    8.5028    5.4056 C   0  0  1  0  0  0  0  0  0  0  0  0
   16.3668    8.0861    5.0766 O   0  0  0  0  0  0  0  0  0  0  0  0
   21.8321    7.2215    8.4238 C   0  0  2  0  0  0  0  0  0  0  0  0
   22.6593    7.4876    7.2088 N   0  0  0  0  0  0  0  0  0  0  0  0
   19.4809   12.5716   11.7554 C   0  0  2  0  0  0  0  0  0  0  0  0
   20.8121   13.1813   11.6368 O   0  0  0  0  0  0  0  0  0  0  0  0
   18.1386    9.5851    4.4488 C   0  0  2  0  0  0  0  0  0  0  0  0
   18.0713    9.1192    3.1396 O   0  0  0  0  0  0  0  0  0  0  0  0
   20.8066    8.3797    8.5856 C   0  0  2  0  0  0  0  0  0  0  0  0
   19.5001   11.4079   12.7395 C   0  0  2  0  0  0  0  0  0  0  0  0
   20.0829   10.3885   11.9324 O   0  0  0  0  0  0  0  0  0  0  0  0
   19.5955   10.0028    4.7964 C   0  0  2  0  0  0  0  0  0  0  0  0
   19.6545   10.4696    6.1615 O   0  0  0  0  0  0  0  0  0  0  0  0
   19.8963    8.2198    9.8193 C   0  0  2  0  0  0  0  0  0  0  0  0
   19.1879    9.5029    9.9446 O   0  0  0  0  0  0  0  0  0  0  0  0
   18.0921   10.9613   13.2609 C   0  0  0  0  0  0  0  0  0  0  0  0
   18.2370    9.9643   14.2682 N   0  0  0  0  0  0  0  0  0  0  0  0
   20.1162   11.0934    3.8893 C   0  0  0  0  0  0  0  0  0  0  0  0
   20.9992   11.9249    4.5502 O   0  0  0  0  0  0  0  0  0  0  0  0
   20.7725    7.9382   11.1189 C   0  0  1  0  0  0  0  0  0  0  0  0
   19.9499    7.5688   12.2360 O   0  0  0  0  0  0  0  0  0  0  0  0
  1  2  1  6  0  0  0
  1  6  1  0  0  0  0
  1 23  1  0  0  0  0
  3  4  1  1  0  0  0
  3  8  1  0  0  0  0
  3 30  1  0  0  0  0
  5  9  1  0  0  0  0
  5 21  1  0  0  0  0
  5 25  1  1  0  0  0
  6  7  1  1  0  0  0
  6 11  1  0  0  0  0
  8 13  1  0  0  0  0
  9 10  1  6  0  0  0
  9 15  1  0  0  0  0
 11 12  1  6  0  0  0
 11 17  1  0  0  0  0
 13 14  1  6  0  0  0
 13 19  1  0  0  0  0
 15 16  1  6  0  0  0
 15 20  1  0  0  0  0
 17 18  1  6  0  0  0
 17 22  1  0  0  0  0
 19  2  1  6  0  0  0
 19 24  1  0  0  0  0
 20 21  1  0  0  0  0
 20 26  1  6  0  0  0
 22 23  1  0  0  0  0
 22 28  1  6  0  0  0
 24 25  1  1  0  0  0
 24 30  1  0  0  0  0
 26 27  1  0  0  0  0
 28 29  1  0  0  0  0
 30 31  1  1  0  0  0
M  END
>  <CHROM.1>
-130.75879789,173.09967217,-169.91832304,-174.21485850,147.78897130,-79.15548169
19.70822468,9.52705366,8.76610996,1.91826740,1.08495950,-1.92834439

>  <Name>
2o3x_lig

>  <RI>
3.34184e+07

>  <Rbt.Current_Directory>
/home/itssahil/PROJECTS/Mol_Feturizer/New_Systems/rnas/2o3x

>  <Rbt.Executable>
rbdock ($Id: //depot/dev/client3/rdock/2013.1/src/exe/rbdock.cxx#4 $)

>  <Rbt.Library>
libRbt.so (2013.1, Build901 2013/11/27)

>  <Rbt.Parameter_File>
/export/apps/rDock/src/rDock_2013.1_src/data/scripts/dock_solv.prm

>  <Rbt.Receptor>
prm/pocket_docking_6.prm

>  <SCORE>
-18.1355

>  <SCORE.INTER>
-21.5177

>  <SCORE.INTER.CONST>
1

>  <SCORE.INTER.POLAR>
-2.40539

>  <SCORE.INTER.ROT>
6

>  <SCORE.INTER.SOLV>
13.8857

>  <SCORE.INTER.VDW>
-18.5557

>  <SCORE.INTER.norm>
-0.694119

>  <SCORE.INTRA>
3.38221

>  <SCORE.INTRA.DIHEDRAL>
2.8472

>  <SCORE.INTRA.DIHEDRAL.0>
9.37739

>  <SCORE.INTRA.POLAR>
0

>  <SCORE.INTRA.POLAR.0>
0

>  <SCORE.INTRA.REPUL>
0

>  <SCORE.INTRA.REPUL.0>
0

>  <SCORE.INTRA.SOLV>
-0.739036

>  <SCORE.INTRA.SOLV.lig_0>
-82.9274

>  <SCORE.INTRA.VDW>
2.32813

>  <SCORE.INTRA.VDW.0>
-3.84922

>  <SCORE.INTRA.norm>
0.109104

>  <SCORE.RESTR>
0

>  <SCORE.RESTR.CAVITY>
0

>  <SCORE.RESTR.norm>
0

>  <SCORE.SYSTEM>
0

>  <SCORE.SYSTEM.CONST>
0

>  <SCORE.SYSTEM.DIHEDRAL>
0

>  <SCORE.SYSTEM.SOLV>
0

>  <SCORE.SYSTEM.norm>
0

>  <SCORE.heavy>
31

>  <SCORE.norm>
-0.585016

>  <RMSD>
3.860

$$$$
2o3x_lig
 OpenBabel11021811463D
libRbt.so/2013.1/901 2013/11/27
 31 33  0  0  0  0  0  0  0  0999 V2000
   19.2147    9.6456    7.1661 C   0  0  2  0  0  0  0  0  0  0  0  0
   19.8048    8.3842    7.5066 O   0  0  0  0  0  0  0  0  0  0  0  0
   21.7164    6.8090   10.9941 C   0  0  2  0  0  0  0  0  0  0  0  0
   22.5376    6.6544   12.2153 N   0  0  0  0  0  0  0  0  0  0  0  0
   19.9127   10.6849   10.6036 C   0  0  1  0  0  0  0  0  0  0  0  0
   17.8206    9.3776    6.5156 C   0  0  2  0  0  0  0  0  0  0  0  0
   17.0070    8.4222    7.3100 N   0  0  0  0  0  0  0  0  0  0  0  0
   22.5954    7.0271    9.7177 C   0  0  0  0  0  0  0  0  0  0  0  0
   19.1329   12.0383   10.5241 C   0  0  2  0  0  0  0  0  0  0  0  0
   19.3298   12.8173    9.3122 O   0  0  0  0  0  0  0  0  0  0  0  0
   17.9586    8.8142    5.0886 C   0  0  1  0  0  0  0  0  0  0  0  0
   16.6938    8.6290    4.5052 O   0  0  0  0  0  0  0  0  0  0  0  0
   21.6380    7.1492    8.4765 C   0  0  2  0  0  0  0  0  0  0  0  0
   22.4039    7.3412    7.2085 N   0  0  0  0  0  0  0  0  0  0  0  0
   19.6452   12.6623   11.8114 C   0  0  2  0  0  0  0  0  0  0  0  0
   20.9899   13.2242   11.6280 O   0  0  0  0  0  0  0  0  0  0  0  0
   18.8017    9.7558    4.2453 C   0  0  2  0  0  0  0  0  0  0  0  0
   18.9086    9.2605    2.9495 O   0  0  0  0  0  0  0  0  0  0  0  0
   20.6670    8.3514    8.6529 C   0  0  2  0  0  0  0  0  0  0  0  0
   19.6669   11.5112   12.8102 C   0  0  2  0  0  0  0  0  0  0  0  0
   20.1798   10.4621   11.9935 O   0  0  0  0  0  0  0  0  0  0  0  0
   20.2131    9.9142    4.8781 C   0  0  2  0  0  0  0  0  0  0  0  0
   20.0874   10.4139    6.2270 O   0  0  0  0  0  0  0  0  0  0  0  0
   19.8231    8.2694    9.9403 C   0  0  2  0  0  0  0  0  0  0  0  0
   19.1711    9.5828   10.0581 O   0  0  0  0  0  0  0  0  0  0  0  0
   18.2682   11.1201   13.3969 C   0  0  0  0  0  0  0  0  0  0  0  0
   18.4179   10.0999   14.3800 N   0  0  0  0  0  0  0  0  0  0  0  0
   21.0960   10.8567    4.0935 C   0  0  0  0  0  0  0  0  0  0  0  0
   20.5667   12.1318    4.0517 O   0  0  0  0  0  0  0  0  0  0  0  0
   20.7608    7.9983   11.1985 C   0  0  1  0  0  0  0  0  0  0  0  0
   19.9900    7.6997   12.3723 O   0  0  0  0  0  0  0  0  0  0  0  0
  1  2  1  6  0  0  0
  1  6  1  0  0  0  0
  1 23  1  0  0  0  0
  3  4  1  1  0  0  0
  3  8  1  0  0  0  0
  3 30  1  0  0  0  0
  5  9  1  0  0  0  0
  5 21  1  0  0  0  0
  5 25  1  1  0  0  0
  6  7  1  1  0  0  0
  6 11  1  0  0  0  0
  8 13  1  0  0  0  0
  9 10  1  6  0  0  0
  9 15  1  0  0  0  0
 11 12  1  6  0  0  0
 11 17  1  0  0  0  0
 13 14  1  6  0  0  0
 13 19  1  0  0  0  0
 15 16  1  6  0  0  0
 15 20  1  0  0  0  0
 17 18  1  6  0  0  0
 17 22  1  0  0  0  0
 19  2  1  6  0  0  0
 19 24  1  0  0  0  0
 20 21  1  0  0  0  0
 20 26  1  6  0  0  0
 22 23  1  0  0  0  0
 22 28  1  6  0  0  0
 24 25  1  1  0  0  0
 24 30  1  0  0  0  0
 26 27  1  0  0  0  0
 28 29  1  0  0  0  0
 30 31  1  1  0  0  0
M  END
>  <CHROM.1>
-148.70918444,174.02986233,-155.58023881,-176.12581324,61.74788371,-80.86408846
19.82911187,9.61745367,8.73641776,1.84220611,1.13556152,-1.85946235

>  <Name>
2o3x_lig

>  <RI>
2.78316e+07

>  <Rbt.Current_Directory>
/home/itssahil/PROJECTS/Mol_Feturizer/New_Systems/rnas/2o3x

>  <Rbt.Executable>
rbdock ($Id: //depot/dev/client3/rdock/2013.1/src/exe/rbdock.cxx#4 $)

>  <Rbt.Library>
libRbt.so (2013.1, Build901 2013/11/27)

>  <Rbt.Parameter_File>
/export/apps/rDock/src/rDock_2013.1_src/data/scripts/dock_solv.prm

>  <Rbt.Receptor>
prm/pocket_docking_7.prm

>  <SCORE>
-17.5664

>  <SCORE.INTER>
-18.6725

>  <SCORE.INTER.CONST>
1

>  <SCORE.INTER.POLAR>
-1.71685

>  <SCORE.INTER.ROT>
6

>  <SCORE.INTER.SOLV>
13.9605

>  <SCORE.INTER.VDW>
-18.979

>  <SCORE.INTER.norm>
-0.602337

>  <SCORE.INTRA>
1.10603

>  <SCORE.INTRA.DIHEDRAL>
-0.655323

>  <SCORE.INTRA.DIHEDRAL.0>
9.37739

>  <SCORE.INTRA.POLAR>
0

>  <SCORE.INTRA.POLAR.0>
0

>  <SCORE.INTRA.REPUL>
0

>  <SCORE.INTRA.REPUL.0>
0

>  <SCORE.INTRA.SOLV>
-0.427039

>  <SCORE.INTRA.SOLV.lig_0>
-82.9274

>  <SCORE.INTRA.VDW>
1.64721

>  <SCORE.INTRA.VDW.0>
-3.84922

>  <SCORE.INTRA.norm>
0.0356782

>  <SCORE.RESTR>
0

>  <SCORE.RESTR.CAVITY>
0

>  <SCORE.RESTR.norm>
0

>  <SCORE.SYSTEM>
0

>  <SCORE.SYSTEM.CONST>
0

>  <SCORE.SYSTEM.DIHEDRAL>
0

>  <SCORE.SYSTEM.SOLV>
0

>  <SCORE.SYSTEM.norm>
0

>  <SCORE.heavy>
31

>  <SCORE.norm>
-0.566659

>  <RMSD>
3.888

$$$$
2o3x_lig
 OpenBabel11021811463D
libRbt.so/2013.1/901 2013/11/27
 31 33  0  0  0  0  0  0  0  0999 V2000
   19.1235    8.3605    8.9937 C   0  0  2  0  0  0  0  0  0  0  0  0
   19.6038    8.3222    7.6434 O   0  0  0  0  0  0  0  0  0  0  0  0
   23.6127    7.4175    6.4568 C   0  0  2  0  0  0  0  0  0  0  0  0
   25.0720    7.4820    6.2206 N   0  0  0  0  0  0  0  0  0  0  0  0
   21.8729    7.1789   10.8193 C   0  0  1  0  0  0  0  0  0  0  0  0
   17.6656    7.8016    9.0139 C   0  0  2  0  0  0  0  0  0  0  0  0
   17.5469    6.5212    8.2707 N   0  0  0  0  0  0  0  0  0  0  0  0
   22.8349    8.4960    5.6315 C   0  0  0  0  0  0  0  0  0  0  0  0
   22.1756    7.9536   12.1438 C   0  0  2  0  0  0  0  0  0  0  0  0
   23.5699    8.2918   12.3804 O   0  0  0  0  0  0  0  0  0  0  0  0
   16.6655    8.8014    8.4031 C   0  0  1  0  0  0  0  0  0  0  0  0
   15.3553    8.2993    8.4782 O   0  0  0  0  0  0  0  0  0  0  0  0
   21.2995    8.3271    5.9257 C   0  0  2  0  0  0  0  0  0  0  0  0
   20.4812    9.3125    5.1572 N   0  0  0  0  0  0  0  0  0  0  0  0
   21.5502    6.9713   13.1200 C   0  0  2  0  0  0  0  0  0  0  0  0
   22.4460    5.8351   13.3734 O   0  0  0  0  0  0  0  0  0  0  0  0
   16.7676   10.1342    9.1254 C   0  0  2  0  0  0  0  0  0  0  0  0
   15.8490   11.0320    8.5906 O   0  0  0  0  0  0  0  0  0  0  0  0
   21.0102    8.5215    7.4415 C   0  0  2  0  0  0  0  0  0  0  0  0
   20.2699    6.5132   12.4316 C   0  0  2  0  0  0  0  0  0  0  0  0
   20.7309    6.3579   11.0922 O   0  0  0  0  0  0  0  0  0  0  0  0
   18.2102   10.6992    8.9941 C   0  0  2  0  0  0  0  0  0  0  0  0
   19.1544    9.7520    9.5384 O   0  0  0  0  0  0  0  0  0  0  0  0
   21.8097    7.5598    8.3428 C   0  0  2  0  0  0  0  0  0  0  0  0
   21.6022    8.0534    9.7129 O   0  0  0  0  0  0  0  0  0  0  0  0
   19.0856    7.5364   12.4923 C   0  0  0  0  0  0  0  0  0  0  0  0
   19.5444    8.8376   12.1369 N   0  0  0  0  0  0  0  0  0  0  0  0
   18.3817   12.0188    9.7101 C   0  0  0  0  0  0  0  0  0  0  0  0
   19.6409   12.5480    9.5048 O   0  0  0  0  0  0  0  0  0  0  0  0
   23.3555    7.6044    7.9629 C   0  0  1  0  0  0  0  0  0  0  0  0
   24.0895    6.5661    8.6296 O   0  0  0  0  0  0  0  0  0  0  0  0
  1  2  1  6  0  0  0
  1  6  1  0  0  0  0
  1 23  1  0  0  0  0
  3  4  1  1  0  0  0
  3  8  1  0  0  0  0
  3 30  1  0  0  0  0
  5  9  1  0  0  0  0
  5 21  1  0  0  0  0
  5 25  1  6  0  0  0
  6  7  1  6  0  0  0
  6 11  1  0  0  0  0
  8 13  1  0  0  0  0
  9 10  1  1  0  0  0
  9 15  1  0  0  0  0
 11 12  1  1  0  0  0
 11 17  1  0  0  0  0
 13 14  1  6  0  0  0
 13 19  1  0  0  0  0
 15 16  1  6  0  0  0
 15 20  1  0  0  0  0
 17 18  1  6  0  0  0
 17 22  1  0  0  0  0
 19  2  1  6  0  0  0
 19 24  1  0  0  0  0
 20 21  1  0  0  0  0
 20 26  1  6  0  0  0
 22 23  1  0  0  0  0
 22 28  1  1  0  0  0
 24 25  1  1  0  0  0
 24 30  1  0  0  0  0
 26 27  1  0  0  0  0
 28 29  1  0  0  0  0
 30 31  1  1  0  0  0
M  END
>  <CHROM.1>
-167.06856627,156.60414911,175.69647300,47.35213366,-175.85068293,161.74234991
20.32724166,8.37220144,9.31131676,-2.90742193,-0.37964088,1.81448747

>  <Name>
2o3x_lig

>  <RI>
3.34184e+07

>  <Rbt.Current_Directory>
/home/itssahil/PROJECTS/Mol_Feturizer/New_Systems/rnas/2o3x

>  <Rbt.Executable>
rbdock ($Id: //depot/dev/client3/rdock/2013.1/src/exe/rbdock.cxx#4 $)

>  <Rbt.Library>
libRbt.so (2013.1, Build901 2013/11/27)

>  <Rbt.Parameter_File>
/export/apps/rDock/src/rDock_2013.1_src/data/scripts/dock_solv.prm

>  <Rbt.Receptor>
prm/pocket_docking_6.prm

>  <SCORE>
-8.1304

>  <SCORE.INTER>
-8.96267

>  <SCORE.INTER.CONST>
1

>  <SCORE.INTER.POLAR>
-1.39144

>  <SCORE.INTER.ROT>
6

>  <SCORE.INTER.SOLV>
13.5072

>  <SCORE.INTER.VDW>
-13.4394

>  <SCORE.INTER.norm>
-0.289118

>  <SCORE.INTRA>
0.832266

>  <SCORE.INTRA.DIHEDRAL>
-3.78971

>  <SCORE.INTRA.DIHEDRAL.0>
9.37739

>  <SCORE.INTRA.POLAR>
0

>  <SCORE.INTRA.POLAR.0>
0

>  <SCORE.INTRA.REPUL>
0

>  <SCORE.INTRA.REPUL.0>
0

>  <SCORE.INTRA.SOLV>
2.87934

>  <SCORE.INTRA.SOLV.lig_0>
-82.9274

>  <SCORE.INTRA.VDW>
1.28745

>  <SCORE.INTRA.VDW.0>
-3.84922

>  <SCORE.INTRA.norm>
0.0268473

>  <SCORE.RESTR>
0

>  <SCORE.RESTR.CAVITY>
0

>  <SCORE.RESTR.norm>
0

>  <SCORE.SYSTEM>
0

>  <SCORE.SYSTEM.CONST>
0

>  <SCORE.SYSTEM.DIHEDRAL>
0

>  <SCORE.SYSTEM.SOLV>
0

>  <SCORE.SYSTEM.norm>
0

>  <SCORE.heavy>
31

>  <SCORE.norm>
-0.262271

>  <RMSD>
4.056

$$$$
2o3x_lig
 OpenBabel11021811463D
libRbt.so/2013.1/901 2013/11/27
 31 33  0  0  0  0  0  0  0  0999 V2000
   17.3545    8.6227    7.0985 C   0  0  2  0  0  0  0  0  0  0  0  0
   18.0621    7.4268    7.4515 O   0  0  0  0  0  0  0  0  0  0  0  0
   20.8266    6.8694   10.6678 C   0  0  2  0  0  0  0  0  0  0  0  0
   22.0029    6.9621   11.5607 N   0  0  0  0  0  0  0  0  0  0  0  0
   18.5000   10.6921   10.1660 C   0  0  1  0  0  0  0  0  0  0  0  0
   16.0942    8.2222    6.2679 C   0  0  2  0  0  0  0  0  0  0  0  0
   15.3265    7.1250    6.9102 N   0  0  0  0  0  0  0  0  0  0  0  0
   21.1897    6.2455    9.2792 C   0  0  0  0  0  0  0  0  0  0  0  0
   17.9460   12.0467    9.6145 C   0  0  2  0  0  0  0  0  0  0  0  0
   18.9410   13.0045    9.1594 O   0  0  0  0  0  0  0  0  0  0  0  0
   16.4721    7.7697    4.8448 C   0  0  1  0  0  0  0  0  0  0  0  0
   15.3203    7.4633    4.1007 O   0  0  0  0  0  0  0  0  0  0  0  0
   19.8760    6.1621    8.4192 C   0  0  2  0  0  0  0  0  0  0  0  0
   20.1346    5.5567    7.0783 N   0  0  0  0  0  0  0  0  0  0  0  0
   17.1264   12.4579   10.8261 C   0  0  2  0  0  0  0  0  0  0  0  0
   17.9819   13.0320   11.8730 O   0  0  0  0  0  0  0  0  0  0  0  0
   17.2765    8.8599    4.1571 C   0  0  2  0  0  0  0  0  0  0  0  0
   17.5994    8.4628    2.8633 O   0  0  0  0  0  0  0  0  0  0  0  0
   19.2693    7.5792    8.2117 C   0  0  2  0  0  0  0  0  0  0  0  0
   16.4757   11.1644   11.3023 C   0  0  2  0  0  0  0  0  0  0  0  0
   17.5607   10.2526   11.1546 O   0  0  0  0  0  0  0  0  0  0  0  0
   18.5704    9.1552    4.9673 C   0  0  2  0  0  0  0  0  0  0  0  0
   18.2222    9.5510    6.3115 O   0  0  0  0  0  0  0  0  0  0  0  0
   18.9663    8.3120    9.5336 C   0  0  2  0  0  0  0  0  0  0  0  0
   18.6478    9.6942    9.1440 O   0  0  0  0  0  0  0  0  0  0  0  0
   15.2425   10.6962   10.4577 C   0  0  0  0  0  0  0  0  0  0  0  0
   14.7003    9.4983   11.0061 N   0  0  0  0  0  0  0  0  0  0  0  0
   19.4069   10.2476    4.3427 C   0  0  0  0  0  0  0  0  0  0  0  0
   19.8335    9.8992    3.0760 O   0  0  0  0  0  0  0  0  0  0  0  0
   20.2420    8.2818   10.4863 C   0  0  1  0  0  0  0  0  0  0  0  0
   19.9251    8.7597   11.8024 O   0  0  0  0  0  0  0  0  0  0  0  0
  1  2  1  6  0  0  0
  1  6  1  0  0  0  0
  1 23  1  0  0  0  0
  3  4  1  1  0  0  0
  3  8  1  0  0  0  0
  3 30  1  0  0  0  0
  5  9  1  0  0  0  0
  5 21  1  0  0  0  0
  5 25  1  6  0  0  0
  6  7  1  1  0  0  0
  6 11  1  0  0  0  0
  8 13  1  0  0  0  0
  9 10  1  1  0  0  0
  9 15  1  0  0  0  0
 11 12  1  6  0  0  0
 11 17  1  0  0  0  0
 13 14  1  6  0  0  0
 13 19  1  0  0  0  0
 15 16  1  1  0  0  0
 15 20  1  0  0  0  0
 17 18  1  6  0  0  0
 17 22  1  0  0  0  0
 19  2  1  1  0  0  0
 19 24  1  0  0  0  0
 20 21  1  0  0  0  0
 20 26  1  6  0  0  0
 22 23  1  0  0  0  0
 22 28  1  6  0  0  0
 24 25  1  6  0  0  0
 24 30  1  0  0  0  0
 26 27  1  0  0  0  0
 28 29  1  0  0  0  0
 30 31  1  1  0  0  0
M  END
>  <CHROM.1>
179.36021185,-170.99650044,-177.80340622,-178.83153539,-61.54748951,-171.30170788
18.22844735,9.06783971,8.17101544,1.71544071,0.81183288,-1.97910201

>  <Name>
2o3x_lig

>  <RI>
3.34184e+07

>  <Rbt.Current_Directory>
/home/itssahil/PROJECTS/Mol_Feturizer/New_Systems/rnas/2o3x

>  <Rbt.Executable>
rbdock ($Id: //depot/dev/client3/rdock/2013.1/src/exe/rbdock.cxx#4 $)

>  <Rbt.Library>
libRbt.so (2013.1, Build901 2013/11/27)

>  <Rbt.Parameter_File>
/export/apps/rDock/src/rDock_2013.1_src/data/scripts/dock_solv.prm

>  <Rbt.Receptor>
prm/pocket_docking_6.prm

>  <SCORE>
-11.8058

>  <SCORE.INTER>
-8.53399

>  <SCORE.INTER.CONST>
1

>  <SCORE.INTER.POLAR>
-0.906658

>  <SCORE.INTER.ROT>
6

>  <SCORE.INTER.SOLV>
10.5868

>  <SCORE.INTER.VDW>
-13.7961

>  <SCORE.INTER.norm>
-0.27529

>  <SCORE.INTRA>
-3.27184

>  <SCORE.INTRA.DIHEDRAL>
-8.39814

>  <SCORE.INTRA.DIHEDRAL.0>
9.37739

>  <SCORE.INTRA.POLAR>
0

>  <SCORE.INTRA.POLAR.0>
0

>  <SCORE.INTRA.REPUL>
0

>  <SCORE.INTRA.REPUL.0>
0

>  <SCORE.INTRA.SOLV>
-2.81024

>  <SCORE.INTRA.SOLV.lig_0>
-82.9274

>  <SCORE.INTRA.VDW>
2.33235

>  <SCORE.INTRA.VDW.0>
-3.84922

>  <SCORE.INTRA.norm>
-0.105543

>  <SCORE.RESTR>
0

>  <SCORE.RESTR.CAVITY>
0

>  <SCORE.RESTR.norm>
0

>  <SCORE.SYSTEM>
0

>  <SCORE.SYSTEM.CONST>
0

>  <SCORE.SYSTEM.DIHEDRAL>
0

>  <SCORE.SYSTEM.SOLV>
0

>  <SCORE.SYSTEM.norm>
0

>  <SCORE.heavy>
31

>  <SCORE.norm>
-0.380833

>  <RMSD>
4.217

$$$$
2o3x_lig
 OpenBabel11021811463D
libRbt.so/2013.1/901 2013/11/27
 31 33  0  0  0  0  0  0  0  0999 V2000
   17.3105    8.7096    7.0337 C   0  0  2  0  0  0  0  0  0  0  0  0
   17.9732    7.5088    7.4512 O   0  0  0  0  0  0  0  0  0  0  0  0
   20.7935    6.9156   10.6122 C   0  0  2  0  0  0  0  0  0  0  0  0
   21.9836    7.0010   11.4873 N   0  0  0  0  0  0  0  0  0  0  0  0
   18.4626   10.7365   10.2111 C   0  0  1  0  0  0  0  0  0  0  0  0
   16.0468    8.3126    6.2066 C   0  0  2  0  0  0  0  0  0  0  0  0
   15.2352    7.2730    6.8894 N   0  0  0  0  0  0  0  0  0  0  0  0
   21.1379    6.3177    9.2074 C   0  0  0  0  0  0  0  0  0  0  0  0
   17.9463   12.1161    9.6855 C   0  0  2  0  0  0  0  0  0  0  0  0
   18.9668   13.0500    9.2373 O   0  0  0  0  0  0  0  0  0  0  0  0
   16.4252    7.7813    4.8111 C   0  0  1  0  0  0  0  0  0  0  0  0
   15.2721    7.4787    4.0674 O   0  0  0  0  0  0  0  0  0  0  0  0
   19.8109    6.2401    8.3675 C   0  0  2  0  0  0  0  0  0  0  0  0
   20.0515    5.6593    7.0125 N   0  0  0  0  0  0  0  0  0  0  0  0
   17.1491   12.5328   10.9101 C   0  0  2  0  0  0  0  0  0  0  0  0
   18.0300   13.0638   11.9588 O   0  0  0  0  0  0  0  0  0  0  0  0
   17.2737    8.8106    4.0837 C   0  0  2  0  0  0  0  0  0  0  0  0
   17.5975    8.3426    2.8141 O   0  0  0  0  0  0  0  0  0  0  0  0
   19.1917    7.6563    8.1942 C   0  0  2  0  0  0  0  0  0  0  0  0
   16.4626   11.2526   11.3713 C   0  0  2  0  0  0  0  0  0  0  0  0
   17.5178   10.3104   11.2004 O   0  0  0  0  0  0  0  0  0  0  0  0
   18.5676    9.1004    4.8957 C   0  0  2  0  0  0  0  0  0  0  0  0
   18.2179    9.5704    6.2155 O   0  0  0  0  0  0  0  0  0  0  0  0
   18.9056    8.3645    9.5332 C   0  0  2  0  0  0  0  0  0  0  0  0
   18.5717    9.7509    9.1724 O   0  0  0  0  0  0  0  0  0  0  0  0
   15.2092   10.8358   10.5295 C   0  0  0  0  0  0  0  0  0  0  0  0
   14.5768    9.7043   11.1208 N   0  0  0  0  0  0  0  0  0  0  0  0
   19.4476   10.1339    4.2317 C   0  0  0  0  0  0  0  0  0  0  0  0
   20.2632   10.7701    5.1471 O   0  0  0  0  0  0  0  0  0  0  0  0
   20.1968    8.3268   10.4643 C   0  0  1  0  0  0  0  0  0  0  0  0
   19.8983    8.7801   11.7934 O   0  0  0  0  0  0  0  0  0  0  0  0
  1  2  1  6  0  0  0
  1  6  1  0  0  0  0
  1 23  1  0  0  0  0
  3  4  1  1  0  0  0
  3  8  1  0  0  0  0
  3 30  1  0  0  0  0
  5  9  1  0  0  0  0
  5 21  1  0  0  0  0
  5 25  1  6  0  0  0
  6  7  1  1  0  0  0
  6 11  1  0  0  0  0
  8 13  1  0  0  0  0
  9 10  1  1  0  0  0
  9 15  1  0  0  0  0
 11 12  1  6  0  0  0
 11 17  1  0  0  0  0
 13 14  1  6  0  0  0
 13 19  1  0  0  0  0
 15 16  1  1  0  0  0
 15 20  1  0  0  0  0
 17 18  1  6  0  0  0
 17 22  1  0  0  0  0
 19  2  1  1  0  0  0
 19 24  1  0  0  0  0
 20 21  1  0  0  0  0
 20 26  1  6  0  0  0
 22 23  1  0  0  0  0
 22 28  1  6  0  0  0
 24 25  1  6  0  0  0
 24 30  1  0  0  0  0
 26 27  1  0  0  0  0
 28 29  1  0  0  0  0
 30 31  1  1  0  0  0
M  END
>  <CHROM.1>
178.05280706,-173.50611785,-172.73240434,-174.55805297,155.63225325,-169.96721673
18.21135467,9.14548339,8.23770520,1.71630578,0.77309188,-2.03048059

>  <Name>
2o3x_lig

>  <RI>
2.78316e+07

>  <Rbt.Current_Directory>
/home/itssahil/PROJECTS/Mol_Feturizer/New_Systems/rnas/2o3x

>  <Rbt.Executable>
rbdock ($Id: //depot/dev/client3/rdock/2013.1/src/exe/rbdock.cxx#4 $)

>  <Rbt.Library>
libRbt.so (2013.1, Build901 2013/11/27)

>  <Rbt.Parameter_File>
/export/apps/rDock/src/rDock_2013.1_src/data/scripts/dock_solv.prm

>  <Rbt.Receptor>
prm/pocket_docking_7.prm

>  <SCORE>
-15.6851

>  <SCORE.INTER>
-13.0474

>  <SCORE.INTER.CONST>
1

>  <SCORE.INTER.POLAR>
-1.76097

>  <SCORE.INTER.ROT>
6

>  <SCORE.INTER.SOLV>
11.4178

>  <SCORE.INTER.VDW>
-14.2343

>  <SCORE.INTER.norm>
-0.420885

>  <SCORE.INTRA>
-2.63765

>  <SCORE.INTRA.DIHEDRAL>
-6.28007

>  <SCORE.INTRA.DIHEDRAL.0>
9.37739

>  <SCORE.INTRA.POLAR>
0

>  <SCORE.INTRA.POLAR.0>
0

>  <SCORE.INTRA.REPUL>
0

>  <SCORE.INTRA.REPUL.0>
0

>  <SCORE.INTRA.SOLV>
-3.12337

>  <SCORE.INTRA.SOLV.lig_0>
-82.9274

>  <SCORE.INTRA.VDW>
2.06407

>  <SCORE.INTRA.VDW.0>
-3.84922

>  <SCORE.INTRA.norm>
-0.0850855

>  <SCORE.RESTR>
0

>  <SCORE.RESTR.CAVITY>
0

>  <SCORE.RESTR.norm>
0

>  <SCORE.SYSTEM>
0

>  <SCORE.SYSTEM.CONST>
0

>  <SCORE.SYSTEM.DIHEDRAL>
0

>  <SCORE.SYSTEM.SOLV>
0

>  <SCORE.SYSTEM.norm>
0

>  <SCORE.heavy>
31

>  <SCORE.norm>
-0.50597

>  <RMSD>
4.240

$$$$
2o3x_lig
 OpenBabel11021811463D
libRbt.so/2013.1/901 2013/11/27
 31 33  0  0  0  0  0  0  0  0999 V2000
   18.8196    9.7599    6.9379 C   0  0  2  0  0  0  0  0  0  0  0  0
   19.6141    8.6296    7.3210 O   0  0  0  0  0  0  0  0  0  0  0  0
   23.5280    7.4322    6.0777 C   0  0  2  0  0  0  0  0  0  0  0  0
   24.9857    7.3854    5.8277 N   0  0  0  0  0  0  0  0  0  0  0  0
   21.5543    7.2134   10.4379 C   0  0  1  0  0  0  0  0  0  0  0  0
   18.4900   10.5875    8.2205 C   0  0  2  0  0  0  0  0  0  0  0  0
   19.6958   10.8358    9.0513 N   0  0  0  0  0  0  0  0  0  0  0  0
   22.8308    8.5835    5.2792 C   0  0  0  0  0  0  0  0  0  0  0  0
   22.5289    7.5686   11.6085 C   0  0  2  0  0  0  0  0  0  0  0  0
   23.8733    7.0239   11.5063 O   0  0  0  0  0  0  0  0  0  0  0  0
   17.4429    9.8788    9.1003 C   0  0  1  0  0  0  0  0  0  0  0  0
   17.1247   10.6643   10.2210 O   0  0  0  0  0  0  0  0  0  0  0  0
   21.2895    8.5314    5.5862 C   0  0  2  0  0  0  0  0  0  0  0  0
   20.5451    9.5921    4.8433 N   0  0  0  0  0  0  0  0  0  0  0  0
   21.6838    7.0531   12.7613 C   0  0  2  0  0  0  0  0  0  0  0  0
   21.7894    5.5930   12.8827 O   0  0  0  0  0  0  0  0  0  0  0  0
   16.1964    9.5896    8.2810 C   0  0  2  0  0  0  0  0  0  0  0  0
   15.2403    8.9700    9.0796 O   0  0  0  0  0  0  0  0  0  0  0  0
   21.0301    8.7207    7.1080 C   0  0  2  0  0  0  0  0  0  0  0  0
   20.2612    7.4692   12.4063 C   0  0  2  0  0  0  0  0  0  0  0  0
   20.2416    7.1805   11.0111 O   0  0  0  0  0  0  0  0  0  0  0  0
   16.5561    8.6817    7.0710 C   0  0  2  0  0  0  0  0  0  0  0  0
   17.5596    9.3289    6.2593 O   0  0  0  0  0  0  0  0  0  0  0  0
   21.7588    7.6827    7.9843 C   0  0  2  0  0  0  0  0  0  0  0  0
   21.6033    8.1664    9.3648 O   0  0  0  0  0  0  0  0  0  0  0  0
   19.9320    8.9790   12.6621 C   0  0  0  0  0  0  0  0  0  0  0  0
   20.7814    9.8057   11.8716 N   0  0  0  0  0  0  0  0  0  0  0  0
   15.3579    8.3728    6.2037 C   0  0  0  0  0  0  0  0  0  0  0  0
   15.6918    7.5379    5.1552 O   0  0  0  0  0  0  0  0  0  0  0  0
   23.2999    7.6117    7.5894 C   0  0  1  0  0  0  0  0  0  0  0  0
   23.9551    6.5068    8.2305 O   0  0  0  0  0  0  0  0  0  0  0  0
  1  2  1  1  0  0  0
  1  6  1  0  0  0  0
  1 23  1  0  0  0  0
  3  4  1  1  0  0  0
  3  8  1  0  0  0  0
  3 30  1  0  0  0  0
  5  9  1  0  0  0  0
  5 21  1  0  0  0  0
  5 25  1  6  0  0  0
  6  7  1  1  0  0  0
  6 11  1  0  0  0  0
  8 13  1  0  0  0  0
  9 10  1  6  0  0  0
  9 15  1  0  0  0  0
 11 12  1  1  0  0  0
 11 17  1  0  0  0  0
 13 14  1  6  0  0  0
 13 19  1  0  0  0  0
 15 16  1  6  0  0  0
 15 20  1  0  0  0  0
 17 18  1  1  0  0  0
 17 22  1  0  0  0  0
 19  2  1  6  0  0  0
 19 24  1  0  0  0  0
 20 21  1  0  0  0  0
 20 26  1  6  0  0  0
 22 23  1  0  0  0  0
 22 28  1  6  0  0  0
 24 25  1  1  0  0  0
 24 30  1  0  0  0  0
 26 27  1  0  0  0  0
 28 29  1  0  0  0  0
 30 31  1  1  0  0  0
M  END
>  <CHROM.1>
-100.40226617,130.45685024,-75.57658427,60.95163257,-178.44682733,149.71294295
20.14233557,8.39677279,8.66360080,-2.64738125,-0.27438521,1.65860046

>  <Name>
2o3x_lig

>  <RI>
0

>  <Rbt.Current_Directory>
/home/itssahil/PROJECTS/Mol_Feturizer/New_Systems/rnas/2o3x

>  <Rbt.Executable>
rbdock ($Id: //depot/dev/client3/rdock/2013.1/src/exe/rbdock.cxx#4 $)

>  <Rbt.Library>
libRbt.so (2013.1, Build901 2013/11/27)

>  <Rbt.Parameter_File>
/export/apps/rDock/src/rDock_2013.1_src/data/scripts/dock_solv.prm

>  <Rbt.Receptor>
prm/pocket_docking_5.prm

>  <SCORE>
-5.22977

>  <SCORE.INTER>
-12.6347

>  <SCORE.INTER.CONST>
1

>  <SCORE.INTER.POLAR>
-1.30025

>  <SCORE.INTER.ROT>
6

>  <SCORE.INTER.SOLV>
16.5175

>  <SCORE.INTER.VDW>
-17.1948

>  <SCORE.INTER.norm>
-0.40757

>  <SCORE.INTRA>
7.40489

>  <SCORE.INTRA.DIHEDRAL>
7.69894

>  <SCORE.INTRA.DIHEDRAL.0>
9.37739

>  <SCORE.INTRA.POLAR>
0

>  <SCORE.INTRA.POLAR.0>
0

>  <SCORE.INTRA.REPUL>
0.00683946

>  <SCORE.INTRA.REPUL.0>
0

>  <SCORE.INTRA.SOLV>
5.57155

>  <SCORE.INTRA.SOLV.lig_0>
-82.9274

>  <SCORE.INTRA.VDW>
0.735445

>  <SCORE.INTRA.VDW.0>
-3.84922

>  <SCORE.INTRA.norm>
0.238867

>  <SCORE.RESTR>
0

>  <SCORE.RESTR.CAVITY>
0

>  <SCORE.RESTR.norm>
0

>  <SCORE.SYSTEM>
0

>  <SCORE.SYSTEM.CONST>
0

>  <SCORE.SYSTEM.DIHEDRAL>
0

>  <SCORE.SYSTEM.SOLV>
0

>  <SCORE.SYSTEM.norm>
0

>  <SCORE.heavy>
31

>  <SCORE.norm>
-0.168702

>  <RMSD>
4.318

$$$$
2o3x_lig
 OpenBabel11021811463D
libRbt.so/2013.1/901 2013/11/27
 31 33  0  0  0  0  0  0  0  0999 V2000
   18.1674    9.9903    7.1944 C   0  0  2  0  0  0  0  0  0  0  0  0
   18.9847    9.0298    7.8763 O   0  0  0  0  0  0  0  0  0  0  0  0
   22.8612    7.8396    6.5148 C   0  0  2  0  0  0  0  0  0  0  0  0
   24.3159    7.7774    6.2513 N   0  0  0  0  0  0  0  0  0  0  0  0
   21.0078    7.3329   10.8666 C   0  0  1  0  0  0  0  0  0  0  0  0
   17.0263   10.4406    8.1607 C   0  0  2  0  0  0  0  0  0  0  0  0
   17.5418   10.7983    9.5068 N   0  0  0  0  0  0  0  0  0  0  0  0
   22.1883    9.0667    5.8140 C   0  0  0  0  0  0  0  0  0  0  0  0
   22.3291    7.3487   11.7033 C   0  0  2  0  0  0  0  0  0  0  0  0
   23.4225    6.5434   11.1835 O   0  0  0  0  0  0  0  0  0  0  0  0
   15.9624    9.3403    8.3349 C   0  0  1  0  0  0  0  0  0  0  0  0
   14.9213    9.7857    9.1668 O   0  0  0  0  0  0  0  0  0  0  0  0
   20.6479    9.0278    6.1271 C   0  0  2  0  0  0  0  0  0  0  0  0
   19.9259   10.1613    5.4751 N   0  0  0  0  0  0  0  0  0  0  0  0
   21.7491    6.9087   13.0371 C   0  0  2  0  0  0  0  0  0  0  0  0
   21.5394    5.4552   13.0688 O   0  0  0  0  0  0  0  0  0  0  0  0
   15.4205    8.9316    6.9754 C   0  0  2  0  0  0  0  0  0  0  0  0
   14.4429    7.9541    7.1318 O   0  0  0  0  0  0  0  0  0  0  0  0
   20.4012    9.1031    7.6610 C   0  0  2  0  0  0  0  0  0  0  0  0
   20.4231    7.6532   13.1399 C   0  0  2  0  0  0  0  0  0  0  0  0
   19.9418    7.5216   11.8052 O   0  0  0  0  0  0  0  0  0  0  0  0
   16.5763    8.3978    6.0827 C   0  0  2  0  0  0  0  0  0  0  0  0
   17.5906    9.4155    5.9410 O   0  0  0  0  0  0  0  0  0  0  0  0
   21.1089    7.9822    8.4478 C   0  0  2  0  0  0  0  0  0  0  0  0
   20.9725    8.3595    9.8631 O   0  0  0  0  0  0  0  0  0  0  0  0
   20.5434    9.1637   13.5366 C   0  0  0  0  0  0  0  0  0  0  0  0
   19.2475    9.7452   13.6473 N   0  0  0  0  0  0  0  0  0  0  0  0
   16.1032    7.9916    4.7063 C   0  0  0  0  0  0  0  0  0  0  0  0
   15.3522    6.8330    4.7488 O   0  0  0  0  0  0  0  0  0  0  0  0
   22.6455    7.9052    8.0375 C   0  0  1  0  0  0  0  0  0  0  0  0
   23.2768    6.7379    8.5852 O   0  0  0  0  0  0  0  0  0  0  0  0
  1  2  1  1  0  0  0
  1  6  1  0  0  0  0
  1 23  1  0  0  0  0
  3  4  1  1  0  0  0
  3  8  1  0  0  0  0
  3 30  1  0  0  0  0
  5  9  1  0  0  0  0
  5 21  1  0  0  0  0
  5 25  1  6  0  0  0
  6  7  1  1  0  0  0
  6 11  1  0  0  0  0
  8 13  1  0  0  0  0
  9 10  1  6  0  0  0
  9 15  1  0  0  0  0
 11 12  1  1  0  0  0
 11 17  1  0  0  0  0
 13 14  1  6  0  0  0
 13 19  1  0  0  0  0
 15 16  1  6  0  0  0
 15 20  1  0  0  0  0
 17 18  1  1  0  0  0
 17 22  1  0  0  0  0
 19  2  1  6  0  0  0
 19 24  1  0  0  0  0
 20 21  1  0  0  0  0
 20 26  1  6  0  0  0
 22 23  1  0  0  0  0
 22 28  1  6  0  0  0
 24 25  1  1  0  0  0
 24 30  1  0  0  0  0
 26 27  1  0  0  0  0
 28 29  1  0  0  0  0
 30 31  1  1  0  0  0
M  END
>  <CHROM.1>
-140.95280781,108.11891562,-55.15900720,-178.02147906,-71.37158496,154.39482999
19.53992981,8.37440735,8.73789778,-2.41396390,-0.20265476,1.63736330

>  <Name>
2o3x_lig

>  <RI>
0

>  <Rbt.Current_Directory>
/home/itssahil/PROJECTS/Mol_Feturizer/New_Systems/rnas/2o3x

>  <Rbt.Executable>
rbdock ($Id: //depot/dev/client3/rdock/2013.1/src/exe/rbdock.cxx#4 $)

>  <Rbt.Library>
libRbt.so (2013.1, Build901 2013/11/27)

>  <Rbt.Parameter_File>
/export/apps/rDock/src/rDock_2013.1_src/data/scripts/dock_solv.prm

>  <Rbt.Receptor>
prm/pocket_docking_4.prm

>  <SCORE>
-6.95905

>  <SCORE.INTER>
-14.8401

>  <SCORE.INTER.CONST>
1

>  <SCORE.INTER.POLAR>
-0.890075

>  <SCORE.INTER.ROT>
6

>  <SCORE.INTER.SOLV>
15.5509

>  <SCORE.INTER.VDW>
-19.7101

>  <SCORE.INTER.norm>
-0.478711

>  <SCORE.INTRA>
7.881

>  <SCORE.INTRA.DIHEDRAL>
5.89584

>  <SCORE.INTRA.DIHEDRAL.0>
9.37739

>  <SCORE.INTRA.POLAR>
0

>  <SCORE.INTRA.POLAR.0>
0

>  <SCORE.INTRA.REPUL>
0

>  <SCORE.INTRA.REPUL.0>
0

>  <SCORE.INTRA.SOLV>
0.444792

>  <SCORE.INTRA.SOLV.lig_0>
-82.9274

>  <SCORE.INTRA.VDW>
4.71068

>  <SCORE.INTRA.VDW.0>
-3.84922

>  <SCORE.INTRA.norm>
0.254226

>  <SCORE.RESTR>
0

>  <SCORE.RESTR.CAVITY>
0

>  <SCORE.RESTR.norm>
0

>  <SCORE.SYSTEM>
0

>  <SCORE.SYSTEM.CONST>
0

>  <SCORE.SYSTEM.DIHEDRAL>
0

>  <SCORE.SYSTEM.SOLV>
0

>  <SCORE.SYSTEM.norm>
0

>  <SCORE.heavy>
31

>  <SCORE.norm>
-0.224486

>  <RMSD>
4.442

$$$$
2o3x_lig
 OpenBabel11021811463D
libRbt.so/2013.1/901 2013/11/27
 31 33  0  0  0  0  0  0  0  0999 V2000
   21.6541    7.1055    6.0454 C   0  0  2  0  0  0  0  0  0  0  0  0
   21.1276    6.4293    7.1948 O   0  0  0  0  0  0  0  0  0  0  0  0
   23.8062    3.1016    6.9716 C   0  0  2  0  0  0  0  0  0  0  0  0
   24.4775    1.8022    7.1961 N   0  0  0  0  0  0  0  0  0  0  0  0
   19.5219    2.9580    7.3379 C   0  0  1  0  0  0  0  0  0  0  0  0
   21.3761    8.6340    6.2030 C   0  0  2  0  0  0  0  0  0  0  0  0
   21.7660    9.1382    7.5444 N   0  0  0  0  0  0  0  0  0  0  0  0
   23.9184    4.0445    8.2157 C   0  0  0  0  0  0  0  0  0  0  0  0
   19.6331    3.4904    8.8043 C   0  0  2  0  0  0  0  0  0  0  0  0
   20.8576    3.1551    9.5132 O   0  0  0  0  0  0  0  0  0  0  0  0
   19.8880    8.9662    5.9832 C   0  0  1  0  0  0  0  0  0  0  0  0
   19.6706   10.3511    6.0795 O   0  0  0  0  0  0  0  0  0  0  0  0
   23.2053    5.4024    7.8693 C   0  0  2  0  0  0  0  0  0  0  0  0
   23.2847    6.3700    9.0046 N   0  0  0  0  0  0  0  0  0  0  0  0
   18.3533    2.8842    9.3552 C   0  0  2  0  0  0  0  0  0  0  0  0
   18.5358    1.4613    9.6714 O   0  0  0  0  0  0  0  0  0  0  0  0
   19.4428    8.4500    4.6253 C   0  0  2  0  0  0  0  0  0  0  0  0
   18.1051    8.7692    4.4148 O   0  0  0  0  0  0  0  0  0  0  0  0
   21.7064    5.1604    7.5316 C   0  0  2  0  0  0  0  0  0  0  0  0
   17.3332    3.0678    8.2378 C   0  0  2  0  0  0  0  0  0  0  0  0
   18.1259    2.7407    7.0997 O   0  0  0  0  0  0  0  0  0  0  0  0
   19.6461    6.9103    4.5508 C   0  0  2  0  0  0  0  0  0  0  0  0
   21.0346    6.5916    4.7860 O   0  0  0  0  0  0  0  0  0  0  0  0
   21.4955    4.1651    6.3735 C   0  0  2  0  0  0  0  0  0  0  0  0
   20.0530    3.8770    6.3707 O   0  0  0  0  0  0  0  0  0  0  0  0
   16.7512    4.5161    8.1070 C   0  0  0  0  0  0  0  0  0  0  0  0
   16.0102    4.8530    9.2763 N   0  0  0  0  0  0  0  0  0  0  0  0
   19.2382    6.3374    3.2134 C   0  0  0  0  0  0  0  0  0  0  0  0
   19.3429    4.9602    3.1977 O   0  0  0  0  0  0  0  0  0  0  0  0
   22.3290    2.8331    6.6320 C   0  0  1  0  0  0  0  0  0  0  0  0
   22.3290    1.9818    5.4759 O   0  0  0  0  0  0  0  0  0  0  0  0
  1  2  1  1  0  0  0
  1  6  1  0  0  0  0
  1 23  1  0  0  0  0
  3  4  1  1  0  0  0
  3  8  1  0  0  0  0
  3 30  1  0  0  0  0
  5  9  1  0  0  0  0
  5 21  1  0  0  0  0
  5 25  1  6  0  0  0
  6  7  1  1  0  0  0
  6 11  1  0  0  0  0
  8 13  1  0  0  0  0
  9 10  1  1  0  0  0
  9 15  1  0  0  0  0
 11 12  1  6  0  0  0
 11 17  1  0  0  0  0
 13 14  1  1  0  0  0
 13 19  1  0  0  0  0
 15 16  1  6  0  0  0
 15 20  1  0  0  0  0
 17 18  1  1  0  0  0
 17 22  1  0  0  0  0
 19  2  1  6  0  0  0
 19 24  1  0  0  0  0
 20 21  1  0  0  0  0
 20 26  1  6  0  0  0
 22 23  1  0  0  0  0
 22 28  1  6  0  0  0
 24 25  1  1  0  0  0
 24 30  1  0  0  0  0
 26 27  1  0  0  0  0
 28 29  1  0  0  0  0
 30 31  1  6  0  0  0
M  END
>  <CHROM.1>
-155.76876993,66.06248754,62.51287549,-64.27068029,-176.02165765,-78.37995632
20.42114690,5.16959885,6.84422977,-1.67164050,-0.06826911,2.66849741

>  <Name>
2o3x_lig

>  <RI>
3.34184e+07

>  <Rbt.Current_Directory>
/home/itssahil/PROJECTS/Mol_Feturizer/New_Systems/rnas/2o3x

>  <Rbt.Executable>
rbdock ($Id: //depot/dev/client3/rdock/2013.1/src/exe/rbdock.cxx#4 $)

>  <Rbt.Library>
libRbt.so (2013.1, Build901 2013/11/27)

>  <Rbt.Parameter_File>
/export/apps/rDock/src/rDock_2013.1_src/data/scripts/dock_solv.prm

>  <Rbt.Receptor>
prm/pocket_docking_6.prm

>  <SCORE>
-6.01397

>  <SCORE.INTER>
-5.36147

>  <SCORE.INTER.CONST>
1

>  <SCORE.INTER.POLAR>
-1.67348

>  <SCORE.INTER.ROT>
6

>  <SCORE.INTER.SOLV>
11.0046

>  <SCORE.INTER.VDW>
-9.26423

>  <SCORE.INTER.norm>
-0.172951

>  <SCORE.INTRA>
-0.653273

>  <SCORE.INTRA.DIHEDRAL>
-4.78543

>  <SCORE.INTRA.DIHEDRAL.0>
9.37739

>  <SCORE.INTRA.POLAR>
0

>  <SCORE.INTRA.POLAR.0>
0

>  <SCORE.INTRA.REPUL>
0

>  <SCORE.INTRA.REPUL.0>
0

>  <SCORE.INTRA.SOLV>
0.355253

>  <SCORE.INTRA.SOLV.lig_0>
-82.9274

>  <SCORE.INTRA.VDW>
1.56181

>  <SCORE.INTRA.VDW.0>
-3.84922

>  <SCORE.INTRA.norm>
-0.0210733

>  <SCORE.RESTR>
0.00077179

>  <SCORE.RESTR.CAVITY>
0.00077179

>  <SCORE.RESTR.norm>
2.48964e-05

>  <SCORE.SYSTEM>
0

>  <SCORE.SYSTEM.CONST>
0

>  <SCORE.SYSTEM.DIHEDRAL>
0

>  <SCORE.SYSTEM.SOLV>
0

>  <SCORE.SYSTEM.norm>
0

>  <SCORE.heavy>
31

>  <SCORE.norm>
-0.193999

>  <RMSD>
4.459

$$$$
2o3x_lig
 OpenBabel11021811463D
libRbt.so/2013.1/901 2013/11/27
 31 33  0  0  0  0  0  0  0  0999 V2000
   18.6804    8.0178    4.6211 C   0  0  2  0  0  0  0  0  0  0  0  0
   19.2152    7.9000    5.9461 O   0  0  0  0  0  0  0  0  0  0  0  0
   23.2935    7.4118    4.7517 C   0  0  2  0  0  0  0  0  0  0  0  0
   24.7686    7.2953    4.7523 N   0  0  0  0  0  0  0  0  0  0  0  0
   21.1078    6.0087    8.2983 C   0  0  1  0  0  0  0  0  0  0  0  0
   17.1312    7.8377    4.6974 C   0  0  2  0  0  0  0  0  0  0  0  0
   16.5235    8.6686    5.7680 N   0  0  0  0  0  0  0  0  0  0  0  0
   22.8167    8.8500    5.1434 C   0  0  0  0  0  0  0  0  0  0  0  0
   20.3585    5.2368    9.4335 C   0  0  2  0  0  0  0  0  0  0  0  0
   19.1367    5.8535    9.9247 O   0  0  0  0  0  0  0  0  0  0  0  0
   16.7420    6.3697    4.9550 C   0  0  1  0  0  0  0  0  0  0  0  0
   15.3447    6.2232    4.9690 O   0  0  0  0  0  0  0  0  0  0  0  0
   21.2457    8.8802    5.0846 C   0  0  2  0  0  0  0  0  0  0  0  0
   20.7087   10.2309    5.4286 N   0  0  0  0  0  0  0  0  0  0  0  0
   21.5050    5.1395   10.4260 C   0  0  2  0  0  0  0  0  0  0  0  0
   21.6791    6.4012   11.1579 O   0  0  0  0  0  0  0  0  0  0  0  0
   17.3603    5.4811    3.8888 C   0  0  2  0  0  0  0  0  0  0  0  0
   16.9913    4.1573    4.1061 O   0  0  0  0  0  0  0  0  0  0  0  0
   20.6430    7.8430    6.0747 C   0  0  2  0  0  0  0  0  0  0  0  0
   22.7268    4.8341    9.5677 C   0  0  2  0  0  0  0  0  0  0  0  0
   22.4983    5.7046    8.4630 O   0  0  0  0  0  0  0  0  0  0  0  0
   18.9088    5.6188    3.9166 C   0  0  2  0  0  0  0  0  0  0  0  0
   19.2778    6.9987    3.7054 O   0  0  0  0  0  0  0  0  0  0  0  0
   21.1341    6.4036    5.8233 C   0  0  2  0  0  0  0  0  0  0  0  0
   20.6694    5.6294    6.9845 O   0  0  0  0  0  0  0  0  0  0  0  0
   22.8395    3.3482    9.0851 C   0  0  0  0  0  0  0  0  0  0  0  0
   21.7114    3.0069    8.2846 N   0  0  0  0  0  0  0  0  0  0  0  0
   19.5836    4.7711    2.8632 C   0  0  0  0  0  0  0  0  0  0  0  0
   19.3995    3.4231    3.1017 O   0  0  0  0  0  0  0  0  0  0  0  0
   22.7235    6.3708    5.7320 C   0  0  1  0  0  0  0  0  0  0  0  0
   23.1967    5.0919    5.2829 O   0  0  0  0  0  0  0  0  0  0  0  0
  1  2  1  1  0  0  0
  1  6  1  0  0  0  0
  1 23  1  0  0  0  0
  3  4  1  1  0  0  0
  3  8  1  0  0  0  0
  3 30  1  0  0  0  0
  5  9  1  0  0  0  0
  5 21  1  0  0  0  0
  5 25  1  6  0  0  0
  6  7  1  1  0  0  0
  6 11  1  0  0  0  0
  8 13  1  0  0  0  0
  9 10  1  1  0  0  0
  9 15  1  0  0  0  0
 11 12  1  6  0  0  0
 11 17  1  0  0  0  0
 13 14  1  1  0  0  0
 13 19  1  0  0  0  0
 15 16  1  6  0  0  0
 15 20  1  0  0  0  0
 17 18  1  1  0  0  0
 17 22  1  0  0  0  0
 19  2  1  6  0  0  0
 19 24  1  0  0  0  0
 20 21  1  0  0  0  0
 20 26  1  6  0  0  0
 22 23  1  0  0  0  0
 22 28  1  6  0  0  0
 24 25  1  1  0  0  0
 24 30  1  0  0  0  0
 26 27  1  0  0  0  0
 28 29  1  0  0  0  0
 30 31  1  6  0  0  0
M  END
>  <CHROM.1>
171.27513741,171.06615235,41.31661589,60.84127709,-65.47182783,-59.63513011
20.29609499,6.25789170,6.20749080,-2.36769507,0.22703923,2.03322944

>  <Name>
2o3x_lig

>  <RI>
0

>  <Rbt.Current_Directory>
/home/itssahil/PROJECTS/Mol_Feturizer/New_Systems/rnas/2o3x

>  <Rbt.Executable>
rbdock ($Id: //depot/dev/client3/rdock/2013.1/src/exe/rbdock.cxx#4 $)

>  <Rbt.Library>
libRbt.so (2013.1, Build901 2013/11/27)

>  <Rbt.Parameter_File>
/export/apps/rDock/src/rDock_2013.1_src/data/scripts/dock_solv.prm

>  <Rbt.Receptor>
prm/pocket_docking_5.prm

>  <SCORE>
-5.41137

>  <SCORE.INTER>
-6.03219

>  <SCORE.INTER.CONST>
1

>  <SCORE.INTER.POLAR>
-0.894427

>  <SCORE.INTER.ROT>
6

>  <SCORE.INTER.SOLV>
9.29927

>  <SCORE.INTER.VDW>
-11.7398

>  <SCORE.INTER.norm>
-0.194587

>  <SCORE.INTRA>
0.620829

>  <SCORE.INTRA.DIHEDRAL>
-6.76265

>  <SCORE.INTRA.DIHEDRAL.0>
9.37739

>  <SCORE.INTRA.POLAR>
0

>  <SCORE.INTRA.POLAR.0>
0

>  <SCORE.INTRA.REPUL>
0

>  <SCORE.INTRA.REPUL.0>
0

>  <SCORE.INTRA.SOLV>
2.24485

>  <SCORE.INTRA.SOLV.lig_0>
-82.9274

>  <SCORE.INTRA.VDW>
2.87973

>  <SCORE.INTRA.VDW.0>
-3.84922

>  <SCORE.INTRA.norm>
0.0200267

>  <SCORE.RESTR>
0

>  <SCORE.RESTR.CAVITY>
0

>  <SCORE.RESTR.norm>
0

>  <SCORE.SYSTEM>
0

>  <SCORE.SYSTEM.CONST>
0

>  <SCORE.SYSTEM.DIHEDRAL>
0

>  <SCORE.SYSTEM.SOLV>
0

>  <SCORE.SYSTEM.norm>
0

>  <SCORE.heavy>
31

>  <SCORE.norm>
-0.17456

>  <RMSD>
4.460

$$$$
2o3x_lig
 OpenBabel11021811463D
libRbt.so/2013.1/901 2013/11/27
 31 33  0  0  0  0  0  0  0  0999 V2000
   21.0089    7.9706    7.6046 C   0  0  2  0  0  0  0  0  0  0  0  0
   22.2935    8.6065    7.5766 O   0  0  0  0  0  0  0  0  0  0  0  0
   24.5947    5.0235    7.1710 C   0  0  2  0  0  0  0  0  0  0  0  0
   25.6948    4.0339    7.1834 N   0  0  0  0  0  0  0  0  0  0  0  0
   22.3688    7.2563   10.9650 C   0  0  1  0  0  0  0  0  0  0  0  0
   20.1155    8.6163    6.4985 C   0  0  2  0  0  0  0  0  0  0  0  0
   20.8182    8.7051    5.1931 N   0  0  0  0  0  0  0  0  0  0  0  0
   24.8487    6.1726    6.1394 C   0  0  0  0  0  0  0  0  0  0  0  0
   22.4118    5.8509   11.6499 C   0  0  2  0  0  0  0  0  0  0  0  0
   21.6273    4.8062   11.0114 O   0  0  0  0  0  0  0  0  0  0  0  0
   19.6605   10.0344    6.8921 C   0  0  1  0  0  0  0  0  0  0  0  0
   18.8176   10.5751    5.9064 O   0  0  0  0  0  0  0  0  0  0  0  0
   23.6178    7.1502    6.1796 C   0  0  2  0  0  0  0  0  0  0  0  0
   23.7741    8.2709    5.2045 N   0  0  0  0  0  0  0  0  0  0  0  0
   21.9626    6.2704   13.0396 C   0  0  2  0  0  0  0  0  0  0  0  0
   20.5053    6.4467   13.0934 O   0  0  0  0  0  0  0  0  0  0  0  0
   18.9506    9.9906    8.2348 C   0  0  2  0  0  0  0  0  0  0  0  0
   18.5184   11.2668    8.5816 O   0  0  0  0  0  0  0  0  0  0  0  0
   23.4478    7.7547    7.6025 C   0  0  2  0  0  0  0  0  0  0  0  0
   22.6811    7.5912   13.2894 C   0  0  2  0  0  0  0  0  0  0  0  0
   22.5379    8.2150   12.0163 O   0  0  0  0  0  0  0  0  0  0  0  0
   19.9105    9.4338    9.3240 C   0  0  2  0  0  0  0  0  0  0  0  0
   20.3635    8.1163    8.9448 O   0  0  0  0  0  0  0  0  0  0  0  0
   23.2859    6.6873    8.7029 C   0  0  2  0  0  0  0  0  0  0  0  0
   23.3929    7.4229    9.9723 O   0  0  0  0  0  0  0  0  0  0  0  0
   24.1942    7.4574   13.6712 C   0  0  0  0  0  0  0  0  0  0  0  0
   24.7160    8.7262   14.0554 N   0  0  0  0  0  0  0  0  0  0  0  0
   19.2550    9.3475   10.6827 C   0  0  0  0  0  0  0  0  0  0  0  0
   20.1382    8.8980   11.6450 O   0  0  0  0  0  0  0  0  0  0  0  0
   24.4431    5.5991    8.5906 C   0  0  1  0  0  0  0  0  0  0  0  0
   24.1964    4.4802    9.4557 O   0  0  0  0  0  0  0  0  0  0  0  0
  1  2  1  1  0  0  0
  1  6  1  0  0  0  0
  1 23  1  0  0  0  0
  3  4  1  1  0  0  0
  3  8  1  0  0  0  0
  3 30  1  0  0  0  0
  5  9  1  0  0  0  0
  5 21  1  0  0  0  0
  5 25  1  6  0  0  0
  6  7  1  6  0  0  0
  6 11  1  0  0  0  0
  8 13  1  0  0  0  0
  9 10  1  6  0  0  0
  9 15  1  0  0  0  0
 11 12  1  6  0  0  0
 11 17  1  0  0  0  0
 13 14  1  6  0  0  0
 13 19  1  0  0  0  0
 15 16  1  6  0  0  0
 15 20  1  0  0  0  0
 17 18  1  1  0  0  0
 17 22  1  0  0  0  0
 19  2  1  6  0  0  0
 19 24  1  0  0  0  0
 20 21  1  0  0  0  0
 20 26  1  6  0  0  0
 22 23  1  0  0  0  0
 22 28  1  1  0  0  0
 24 25  1  1  0  0  0
 24 30  1  0  0  0  0
 26 27  1  0  0  0  0
 28 29  1  0  0  0  0
 30 31  1  1  0  0  0
M  END
>  <CHROM.1>
-132.88377424,71.31386465,76.71907022,-172.21005478,-177.75895950,128.18381050
22.03307799,7.65288305,9.26298002,-2.16590216,-0.69401047,1.64924176

>  <Name>
2o3x_lig

>  <RI>
224

>  <Rbt.Current_Directory>
/home/itssahil/PROJECTS/Mol_Feturizer/New_Systems/rnas/2o3x

>  <Rbt.Executable>
rbdock ($Id: //depot/dev/client3/rdock/2013.1/src/exe/rbdock.cxx#4 $)

>  <Rbt.Library>
libRbt.so (2013.1, Build901 2013/11/27)

>  <Rbt.Parameter_File>
/export/apps/rDock/src/rDock_2013.1_src/data/scripts/dock_solv.prm

>  <Rbt.Receptor>
prm/blind_docking_100.prm

>  <SCORE>
7.3445

>  <SCORE.INTER>
-1.83149

>  <SCORE.INTER.CONST>
1

>  <SCORE.INTER.POLAR>
-0.037165

>  <SCORE.INTER.ROT>
6

>  <SCORE.INTER.SOLV>
17.4245

>  <SCORE.INTER.VDW>
-14.5053

>  <SCORE.INTER.norm>
-0.0590802

>  <SCORE.INTRA>
4.10057

>  <SCORE.INTRA.DIHEDRAL>
6.17423

>  <SCORE.INTRA.DIHEDRAL.0>
9.37739

>  <SCORE.INTRA.POLAR>
0

>  <SCORE.INTRA.POLAR.0>
0

>  <SCORE.INTRA.REPUL>
0

>  <SCORE.INTRA.REPUL.0>
0

>  <SCORE.INTRA.SOLV>
1.99208

>  <SCORE.INTRA.SOLV.lig_0>
-82.9274

>  <SCORE.INTRA.VDW>
0.0174152

>  <SCORE.INTRA.VDW.0>
-3.84922

>  <SCORE.INTRA.norm>
0.132277

>  <SCORE.RESTR>
5.07541

>  <SCORE.RESTR.CAVITY>
5.07541

>  <SCORE.RESTR.norm>
0.163723

>  <SCORE.SYSTEM>
0

>  <SCORE.SYSTEM.CONST>
0

>  <SCORE.SYSTEM.DIHEDRAL>
0

>  <SCORE.SYSTEM.SOLV>
0

>  <SCORE.SYSTEM.norm>
0

>  <SCORE.heavy>
31

>  <SCORE.norm>
0.236919

>  <RMSD>
4.505

$$$$
2o3x_lig
 OpenBabel11021811463D
libRbt.so/2013.1/901 2013/11/27
 31 33  0  0  0  0  0  0  0  0999 V2000
   22.2246    8.4160    7.7320 C   0  0  2  0  0  0  0  0  0  0  0  0
   21.3705    7.2649    7.7642 O   0  0  0  0  0  0  0  0  0  0  0  0
   21.3558    3.4254    9.6500 C   0  0  2  0  0  0  0  0  0  0  0  0
   21.7670    2.1666   10.3101 N   0  0  0  0  0  0  0  0  0  0  0  0
   22.6370    6.9882   11.8844 C   0  0  1  0  0  0  0  0  0  0  0  0
   21.6281    9.4436    6.7188 C   0  0  2  0  0  0  0  0  0  0  0  0
   20.1751    9.6628    6.9343 N   0  0  0  0  0  0  0  0  0  0  0  0
   21.8665    3.5093    8.1730 C   0  0  0  0  0  0  0  0  0  0  0  0
   23.5652    8.1456   12.3795 C   0  0  2  0  0  0  0  0  0  0  0  0
   24.9954    7.9014   12.2831 O   0  0  0  0  0  0  0  0  0  0  0  0
   21.8300    8.9871    5.2615 C   0  0  1  0  0  0  0  0  0  0  0  0
   21.3317    9.9498    4.3676 O   0  0  0  0  0  0  0  0  0  0  0  0
   21.3557    4.8606    7.5522 C   0  0  2  0  0  0  0  0  0  0  0  0
   21.7868    5.0095    6.1298 N   0  0  0  0  0  0  0  0  0  0  0  0
   23.0043    8.2907   13.7842 C   0  0  2  0  0  0  0  0  0  0  0  0
   23.5331    7.2492   14.6749 O   0  0  0  0  0  0  0  0  0  0  0  0
   23.3059    8.7339    5.0037 C   0  0  2  0  0  0  0  0  0  0  0  0
   23.4935    8.3435    3.6815 O   0  0  0  0  0  0  0  0  0  0  0  0
   21.8992    6.0724    8.3616 C   0  0  2  0  0  0  0  0  0  0  0  0
   21.4972    8.1448   13.6094 C   0  0  2  0  0  0  0  0  0  0  0  0
   21.4423    7.0741   12.6707 O   0  0  0  0  0  0  0  0  0  0  0  0
   23.8315    7.6338    5.9686 C   0  0  2  0  0  0  0  0  0  0  0  0
   23.6171    8.0441    7.3362 O   0  0  0  0  0  0  0  0  0  0  0  0
   21.5236    6.0249    9.8560 C   0  0  2  0  0  0  0  0  0  0  0  0
   22.3197    7.0885   10.4875 O   0  0  0  0  0  0  0  0  0  0  0  0
   20.7728    9.4128   13.0429 C   0  0  0  0  0  0  0  0  0  0  0  0
   20.8254    9.4113   11.6192 N   0  0  0  0  0  0  0  0  0  0  0  0
   25.3027    7.3490    5.7741 C   0  0  0  0  0  0  0  0  0  0  0  0
   25.7852    6.4875    6.7400 O   0  0  0  0  0  0  0  0  0  0  0  0
   21.8990    4.6064   10.4745 C   0  0  1  0  0  0  0  0  0  0  0  0
   21.3650    4.4537   11.7985 O   0  0  0  0  0  0  0  0  0  0  0  0
  1  2  1  6  0  0  0
  1  6  1  0  0  0  0
  1 23  1  0  0  0  0
  3  4  1  1  0  0  0
  3  8  1  0  0  0  0
  3 30  1  0  0  0  0
  5  9  1  0  0  0  0
  5 21  1  0  0  0  0
  5 25  1  6  0  0  0
  6  7  1  1  0  0  0
  6 11  1  0  0  0  0
  8 13  1  0  0  0  0
  9 10  1  1  0  0  0
  9 15  1  0  0  0  0
 11 12  1  6  0  0  0
 11 17  1  0  0  0  0
 13 14  1  6  0  0  0
 13 19  1  0  0  0  0
 15 16  1  1  0  0  0
 15 20  1  0  0  0  0
 17 18  1  6  0  0  0
 17 22  1  0  0  0  0
 19  2  1  6  0  0  0
 19 24  1  0  0  0  0
 20 21  1  0  0  0  0
 20 26  1  6  0  0  0
 22 23  1  0  0  0  0
 22 28  1  1  0  0  0
 24 25  1  1  0  0  0
 24 30  1  0  0  0  0
 26 27  1  0  0  0  0
 28 29  1  0  0  0  0
 30 31  1  1  0  0  0
M  END
>  <CHROM.1>
164.60965258,176.20608369,-143.77076875,85.52717977,172.92426140,-154.95651722
22.39362732,7.11368120,9.09933781,-0.55488742,1.49236788,0.70283981

>  <Name>
2o3x_lig

>  <RI>
0

>  <Rbt.Current_Directory>
/home/itssahil/PROJECTS/Mol_Feturizer/New_Systems/rnas/2o3x

>  <Rbt.Executable>
rbdock ($Id: //depot/dev/client3/rdock/2013.1/src/exe/rbdock.cxx#4 $)

>  <Rbt.Library>
libRbt.so (2013.1, Build901 2013/11/27)

>  <Rbt.Parameter_File>
/export/apps/rDock/src/rDock_2013.1_src/data/scripts/dock_solv.prm

>  <Rbt.Receptor>
prm/blind_docking_40.prm

>  <SCORE>
0.812592

>  <SCORE.INTER>
-9.27232

>  <SCORE.INTER.CONST>
1

>  <SCORE.INTER.POLAR>
-0.750273

>  <SCORE.INTER.ROT>
6

>  <SCORE.INTER.SOLV>
18.6791

>  <SCORE.INTER.VDW>
-17.507

>  <SCORE.INTER.norm>
-0.299107

>  <SCORE.INTRA>
3.35503

>  <SCORE.INTRA.DIHEDRAL>
1.4244

>  <SCORE.INTRA.DIHEDRAL.0>
9.37739

>  <SCORE.INTRA.POLAR>
0

>  <SCORE.INTRA.POLAR.0>
0

>  <SCORE.INTRA.REPUL>
0

>  <SCORE.INTRA.REPUL.0>
0

>  <SCORE.INTRA.SOLV>
2.60849

>  <SCORE.INTRA.SOLV.lig_0>
-82.9274

>  <SCORE.INTRA.VDW>
1.33859

>  <SCORE.INTRA.VDW.0>
-3.84922

>  <SCORE.INTRA.norm>
0.108227

>  <SCORE.RESTR>
6.72988

>  <SCORE.RESTR.CAVITY>
6.72988

>  <SCORE.RESTR.norm>
0.217093

>  <SCORE.SYSTEM>
0

>  <SCORE.SYSTEM.CONST>
0

>  <SCORE.SYSTEM.DIHEDRAL>
0

>  <SCORE.SYSTEM.SOLV>
0

>  <SCORE.SYSTEM.norm>
0

>  <SCORE.heavy>
31

>  <SCORE.norm>
0.0262127

>  <RMSD>
4.540

$$$$
2o3x_lig
 OpenBabel11021811463D
libRbt.so/2013.1/901 2013/11/27
 31 33  0  0  0  0  0  0  0  0999 V2000
   18.8647    9.7632    5.3204 C   0  0  2  0  0  0  0  0  0  0  0  0
   19.7168    8.6360    5.5630 O   0  0  0  0  0  0  0  0  0  0  0  0
   18.6247    8.1504    9.6702 C   0  0  2  0  0  0  0  0  0  0  0  0
   18.4902    7.6397   11.0525 N   0  0  0  0  0  0  0  0  0  0  0  0
   22.5363    7.5751    8.0158 C   0  0  1  0  0  0  0  0  0  0  0  0
   18.0658    9.5024    4.0043 C   0  0  2  0  0  0  0  0  0  0  0  0
   17.4521    8.1501    3.9809 N   0  0  0  0  0  0  0  0  0  0  0  0
   17.9625    7.1945    8.6228 C   0  0  0  0  0  0  0  0  0  0  0  0
   21.9200    6.2283    7.5134 C   0  0  2  0  0  0  0  0  0  0  0  0
   20.8970    5.6392    8.3624 O   0  0  0  0  0  0  0  0  0  0  0  0
   18.9620    9.6404    2.7591 C   0  0  1  0  0  0  0  0  0  0  0  0
   18.2119    9.4520    1.5860 O   0  0  0  0  0  0  0  0  0  0  0  0
   18.1307    7.8355    7.1969 C   0  0  2  0  0  0  0  0  0  0  0  0
   17.5053    6.9893    6.1367 N   0  0  0  0  0  0  0  0  0  0  0  0
   23.2093    5.4368    7.3714 C   0  0  2  0  0  0  0  0  0  0  0  0
   23.6720    4.9419    8.6747 O   0  0  0  0  0  0  0  0  0  0  0  0
   19.6250   11.0076    2.7538 C   0  0  2  0  0  0  0  0  0  0  0  0
   20.4170   11.1433    1.6181 O   0  0  0  0  0  0  0  0  0  0  0  0
   19.6371    8.0196    6.8561 C   0  0  2  0  0  0  0  0  0  0  0  0
   24.2031    6.4305    6.7815 C   0  0  2  0  0  0  0  0  0  0  0  0
   23.8842    7.5999    7.5306 O   0  0  0  0  0  0  0  0  0  0  0  0
   20.4881   11.1831    4.0351 C   0  0  2  0  0  0  0  0  0  0  0  0
   19.6579   11.0248    5.2058 O   0  0  0  0  0  0  0  0  0  0  0  0
   20.3961    8.8738    7.8907 C   0  0  2  0  0  0  0  0  0  0  0  0
   21.8181    8.7257    7.5442 O   0  0  0  0  0  0  0  0  0  0  0  0
   24.0382    6.6964    5.2467 C   0  0  0  0  0  0  0  0  0  0  0  0
   25.0498    7.5915    4.7937 N   0  0  0  0  0  0  0  0  0  0  0  0
   21.1607   12.5347    4.0984 C   0  0  0  0  0  0  0  0  0  0  0  0
   22.1444   12.6580    3.1366 O   0  0  0  0  0  0  0  0  0  0  0  0
   20.1221    8.3307    9.3624 C   0  0  1  0  0  0  0  0  0  0  0  0
   20.6332    9.2309   10.3572 O   0  0  0  0  0  0  0  0  0  0  0  0
  1  2  1  6  0  0  0
  1  6  1  0  0  0  0
  1 23  1  0  0  0  0
  3  4  1  1  0  0  0
  3  8  1  0  0  0  0
  3 30  1  0  0  0  0
  5  9  1  0  0  0  0
  5 21  1  0  0  0  0
  5 25  1  6  0  0  0
  6  7  1  1  0  0  0
  6 11  1  0  0  0  0
  8 13  1  0  0  0  0
  9 10  1  1  0  0  0
  9 15  1  0  0  0  0
 11 12  1  6  0  0  0
 11 17  1  0  0  0  0
 13 14  1  6  0  0  0
 13 19  1  0  0  0  0
 15 16  1  1  0  0  0
 15 20  1  0  0  0  0
 17 18  1  6  0  0  0
 17 22  1  0  0  0  0
 19  2  1  6  0  0  0
 19 24  1  0  0  0  0
 20 21  1  0  0  0  0
 20 26  1  6  0  0  0
 22 23  1  0  0  0  0
 22 28  1  6  0  0  0
 24 25  1  6  0  0  0
 24 30  1  0  0  0  0
 26 27  1  0  0  0  0
 28 29  1  0  0  0  0
 30 31  1  1  0  0  0
M  END
>  <CHROM.1>
-127.62708305,59.63930920,46.48656908,-177.51245286,-68.91937710,-82.85604487
20.59593044,8.53101815,6.20964694,1.86269574,0.23199332,-1.02600944

>  <Name>
2o3x_lig

>  <RI>
3.41138e+07

>  <Rbt.Current_Directory>
/home/itssahil/PROJECTS/Mol_Feturizer/New_Systems/rnas/2o3x

>  <Rbt.Executable>
rbdock ($Id: //depot/dev/client3/rdock/2013.1/src/exe/rbdock.cxx#4 $)

>  <Rbt.Library>
libRbt.so (2013.1, Build901 2013/11/27)

>  <Rbt.Parameter_File>
/export/apps/rDock/src/rDock_2013.1_src/data/scripts/dock_solv.prm

>  <Rbt.Receptor>
prm/pocket_docking_2.prm

>  <SCORE>
-6.86996

>  <SCORE.INTER>
-12.4458

>  <SCORE.INTER.CONST>
1

>  <SCORE.INTER.POLAR>
-1.64276

>  <SCORE.INTER.ROT>
6

>  <SCORE.INTER.SOLV>
16.6722

>  <SCORE.INTER.VDW>
-15.9787

>  <SCORE.INTER.norm>
-0.401477

>  <SCORE.INTRA>
5.21916

>  <SCORE.INTRA.DIHEDRAL>
1.14122

>  <SCORE.INTRA.DIHEDRAL.0>
9.37739

>  <SCORE.INTRA.POLAR>
0

>  <SCORE.INTRA.POLAR.0>
0

>  <SCORE.INTRA.REPUL>
0

>  <SCORE.INTRA.REPUL.0>
0

>  <SCORE.INTRA.SOLV>
2.51854

>  <SCORE.INTRA.SOLV.lig_0>
-82.9274

>  <SCORE.INTRA.VDW>
3.38929

>  <SCORE.INTRA.VDW.0>
-3.84922

>  <SCORE.INTRA.norm>
0.16836

>  <SCORE.RESTR>
0.356658

>  <SCORE.RESTR.CAVITY>
0.356658

>  <SCORE.RESTR.norm>
0.0115051

>  <SCORE.SYSTEM>
0

>  <SCORE.SYSTEM.CONST>
0

>  <SCORE.SYSTEM.DIHEDRAL>
0

>  <SCORE.SYSTEM.SOLV>
0

>  <SCORE.SYSTEM.norm>
0

>  <SCORE.heavy>
31

>  <SCORE.norm>
-0.221612

>  <RMSD>
4.547

$$$$
2o3x_lig
 OpenBabel11021811463D
libRbt.so/2013.1/901 2013/11/27
 31 33  0  0  0  0  0  0  0  0999 V2000
   18.2170    7.6767    7.7024 C   0  0  2  0  0  0  0  0  0  0  0  0
   18.9110    8.1253    6.5309 O   0  0  0  0  0  0  0  0  0  0  0  0
   22.8380    7.2409    5.0834 C   0  0  2  0  0  0  0  0  0  0  0  0
   24.3021    7.0583    4.9722 N   0  0  0  0  0  0  0  0  0  0  0  0
   20.7014    4.6488    8.1519 C   0  0  1  0  0  0  0  0  0  0  0  0
   16.6910    7.9410    7.5023 C   0  0  2  0  0  0  0  0  0  0  0  0
   16.2083    7.4604    6.1826 N   0  0  0  0  0  0  0  0  0  0  0  0
   22.4434    8.7468    5.2449 C   0  0  0  0  0  0  0  0  0  0  0  0
   20.2229    4.2366    9.5827 C   0  0  2  0  0  0  0  0  0  0  0  0
   21.1757    4.4510   10.6600 O   0  0  0  0  0  0  0  0  0  0  0  0
   16.3546    9.4399    7.6157 C   0  0  1  0  0  0  0  0  0  0  0  0
   14.9714    9.6481    7.4831 O   0  0  0  0  0  0  0  0  0  0  0  0
   20.8757    8.8385    5.3236 C   0  0  2  0  0  0  0  0  0  0  0  0
   20.4142   10.2526    5.4601 N   0  0  0  0  0  0  0  0  0  0  0  0
   19.8631    2.7905    9.2854 C   0  0  2  0  0  0  0  0  0  0  0  0
   21.0627    1.9435    9.2514 O   0  0  0  0  0  0  0  0  0  0  0  0
   16.8490    9.9768    8.9483 C   0  0  2  0  0  0  0  0  0  0  0  0
   16.5259   11.3252    9.0628 O   0  0  0  0  0  0  0  0  0  0  0  0
   20.3423    8.0264    6.5382 C   0  0  2  0  0  0  0  0  0  0  0  0
   19.1908    2.8388    7.9183 C   0  0  2  0  0  0  0  0  0  0  0  0
   20.0348    3.7660    7.2412 O   0  0  0  0  0  0  0  0  0  0  0  0
   18.3875    9.7814    9.0607 C   0  0  2  0  0  0  0  0  0  0  0  0
   18.7106    8.3807    8.9250 O   0  0  0  0  0  0  0  0  0  0  0  0
   20.7647    6.5441    6.5129 C   0  0  2  0  0  0  0  0  0  0  0  0
   20.3928    6.0147    7.8341 O   0  0  0  0  0  0  0  0  0  0  0  0
   17.7094    3.3472    7.9290 C   0  0  0  0  0  0  0  0  0  0  0  0
   16.8814    2.4272    8.6346 N   0  0  0  0  0  0  0  0  0  0  0  0
   18.9390   10.2797   10.3763 C   0  0  0  0  0  0  0  0  0  0  0  0
   20.2966   10.0464   10.4788 O   0  0  0  0  0  0  0  0  0  0  0  0
   22.3361    6.4217    6.2860 C   0  0  1  0  0  0  0  0  0  0  0  0
   22.7260    5.0622    6.0393 O   0  0  0  0  0  0  0  0  0  0  0  0
  1  2  1  6  0  0  0
  1  6  1  0  0  0  0
  1 23  1  0  0  0  0
  3  4  1  1  0  0  0
  3  8  1  0  0  0  0
  3 30  1  0  0  0  0
  5  9  1  0  0  0  0
  5 21  1  0  0  0  0
  5 25  1  6  0  0  0
  6  7  1  6  0  0  0
  6 11  1  0  0  0  0
  8 13  1  0  0  0  0
  9 10  1  1  0  0  0
  9 15  1  0  0  0  0
 11 12  1  1  0  0  0
 11 17  1  0  0  0  0
 13 14  1  1  0  0  0
 13 19  1  0  0  0  0
 15 16  1  6  0  0  0
 15 20  1  0  0  0  0
 17 18  1  6  0  0  0
 17 22  1  0  0  0  0
 19  2  1  6  0  0  0
 19 24  1  0  0  0  0
 20 21  1  0  0  0  0
 20 26  1  1  0  0  0
 22 23  1  0  0  0  0
 22 28  1  1  0  0  0
 24 25  1  1  0  0  0
 24 30  1  0  0  0  0
 26 27  1  0  0  0  0
 28 29  1  0  0  0  0
 30 31  1  6  0  0  0
M  END
>  <CHROM.1>
177.23791269,-179.15199951,-168.02372179,-65.51479458,177.48193298,-177.80058182
19.52443220,6.92608556,7.70654888,2.13659510,0.47845625,-0.25092915

>  <Name>
2o3x_lig

>  <RI>
0

>  <Rbt.Current_Directory>
/home/itssahil/PROJECTS/Mol_Feturizer/New_Systems/rnas/2o3x

>  <Rbt.Executable>
rbdock ($Id: //depot/dev/client3/rdock/2013.1/src/exe/rbdock.cxx#4 $)

>  <Rbt.Library>
libRbt.so (2013.1, Build901 2013/11/27)

>  <Rbt.Parameter_File>
/export/apps/rDock/src/rDock_2013.1_src/data/scripts/dock_solv.prm

>  <Rbt.Receptor>
prm/pocket_docking_8.prm

>  <SCORE>
-12.1206

>  <SCORE.INTER>
-7.79371

>  <SCORE.INTER.CONST>
1

>  <SCORE.INTER.POLAR>
-1.64276

>  <SCORE.INTER.ROT>
6

>  <SCORE.INTER.SOLV>
8.89136

>  <SCORE.INTER.VDW>
-10.2837

>  <SCORE.INTER.norm>
-0.25141

>  <SCORE.INTRA>
-4.32687

>  <SCORE.INTRA.DIHEDRAL>
-8.31276

>  <SCORE.INTRA.DIHEDRAL.0>
9.37739

>  <SCORE.INTRA.POLAR>
0

>  <SCORE.INTRA.POLAR.0>
0

>  <SCORE.INTRA.REPUL>
0

>  <SCORE.INTRA.REPUL.0>
0

>  <SCORE.INTRA.SOLV>
-2.94455

>  <SCORE.INTRA.SOLV.lig_0>
-82.9274

>  <SCORE.INTRA.VDW>
1.30179

>  <SCORE.INTRA.VDW.0>
-3.84922

>  <SCORE.INTRA.norm>
-0.139577

>  <SCORE.RESTR>
0

>  <SCORE.RESTR.CAVITY>
0

>  <SCORE.RESTR.norm>
0

>  <SCORE.SYSTEM>
0

>  <SCORE.SYSTEM.CONST>
0

>  <SCORE.SYSTEM.DIHEDRAL>
0

>  <SCORE.SYSTEM.SOLV>
0

>  <SCORE.SYSTEM.norm>
0

>  <SCORE.heavy>
31

>  <SCORE.norm>
-0.390987

>  <RMSD>
4.583

$$$$
2o3x_lig
 OpenBabel11021811463D
libRbt.so/2013.1/901 2013/11/27
 31 33  0  0  0  0  0  0  0  0999 V2000
   20.8410    6.0342    7.6402 C   0  0  2  0  0  0  0  0  0  0  0  0
   21.9601    5.7747    8.4980 O   0  0  0  0  0  0  0  0  0  0  0  0
   22.9423    6.8417   12.5223 C   0  0  2  0  0  0  0  0  0  0  0  0
   23.1147    7.5790   13.7936 N   0  0  0  0  0  0  0  0  0  0  0  0
   18.6576    6.1405   11.0887 C   0  0  1  0  0  0  0  0  0  0  0  0
   20.9262    5.0706    6.4144 C   0  0  2  0  0  0  0  0  0  0  0  0
   21.1759    3.6650    6.8240 N   0  0  0  0  0  0  0  0  0  0  0  0
   23.8298    7.4305   11.3756 C   0  0  0  0  0  0  0  0  0  0  0  0
   17.3004    6.4988   10.3989 C   0  0  2  0  0  0  0  0  0  0  0  0
   16.7884    7.8355   10.6550 O   0  0  0  0  0  0  0  0  0  0  0  0
   22.0436    5.4885    5.4400 C   0  0  1  0  0  0  0  0  0  0  0  0
   22.0682    4.6386    4.3213 O   0  0  0  0  0  0  0  0  0  0  0  0
   23.6000    6.5657   10.0827 C   0  0  2  0  0  0  0  0  0  0  0  0
   24.4300    7.0535    8.9406 N   0  0  0  0  0  0  0  0  0  0  0  0
   16.4686    5.3484   10.9408 C   0  0  2  0  0  0  0  0  0  0  0  0
   16.0384    5.6111   12.3205 O   0  0  0  0  0  0  0  0  0  0  0  0
   21.8349    6.9306    5.0091 C   0  0  2  0  0  0  0  0  0  0  0  0
   22.8301    7.3032    4.1110 O   0  0  0  0  0  0  0  0  0  0  0  0
   22.1043    6.6065    9.6580 C   0  0  2  0  0  0  0  0  0  0  0  0
   17.4002    4.1435   10.8803 C   0  0  2  0  0  0  0  0  0  0  0  0
   18.6190    4.7287   11.3302 O   0  0  0  0  0  0  0  0  0  0  0  0
   21.8565    7.8638    6.2527 C   0  0  2  0  0  0  0  0  0  0  0  0
   20.8299    7.4572    7.1831 O   0  0  0  0  0  0  0  0  0  0  0  0
   21.1431    6.1313   10.7655 C   0  0  2  0  0  0  0  0  0  0  0  0
   19.7971    6.4746   10.2813 O   0  0  0  0  0  0  0  0  0  0  0  0
   17.5807    3.5200    9.4549 C   0  0  0  0  0  0  0  0  0  0  0  0
   16.3490    2.9630    9.0048 N   0  0  0  0  0  0  0  0  0  0  0  0
   21.6345    9.3140    5.8910 C   0  0  0  0  0  0  0  0  0  0  0  0
   20.4066    9.5048    5.2878 O   0  0  0  0  0  0  0  0  0  0  0  0
   21.4546    6.8909   12.1300 C   0  0  1  0  0  0  0  0  0  0  0  0
   20.7286    6.3168   13.2274 O   0  0  0  0  0  0  0  0  0  0  0  0
  1  2  1  1  0  0  0
  1  6  1  0  0  0  0
  1 23  1  0  0  0  0
  3  4  1  1  0  0  0
  3  8  1  0  0  0  0
  3 30  1  0  0  0  0
  5  9  1  0  0  0  0
  5 21  1  0  0  0  0
  5 25  1  6  0  0  0
  6  7  1  1  0  0  0
  6 11  1  0  0  0  0
  8 13  1  0  0  0  0
  9 10  1  1  0  0  0
  9 15  1  0  0  0  0
 11 12  1  6  0  0  0
 11 17  1  0  0  0  0
 13 14  1  6  0  0  0
 13 19  1  0  0  0  0
 15 16  1  1  0  0  0
 15 20  1  0  0  0  0
 17 18  1  6  0  0  0
 17 22  1  0  0  0  0
 19  2  1  6  0  0  0
 19 24  1  0  0  0  0
 20 21  1  0  0  0  0
 20 26  1  6  0  0  0
 22 23  1  0  0  0  0
 22 28  1  6  0  0  0
 24 25  1  6  0  0  0
 24 30  1  0  0  0  0
 26 27  1  0  0  0  0
 28 29  1  0  0  0  0
 30 31  1  1  0  0  0
M  END
>  <CHROM.1>
177.00316685,-176.77963527,-157.03105733,-65.63042016,60.79120766,179.12629645
20.51410414,6.26563678,9.06679108,0.95221163,-0.38337562,-1.61842630

>  <Name>
2o3x_lig

>  <RI>
3.34184e+07

>  <Rbt.Current_Directory>
/home/itssahil/PROJECTS/Mol_Feturizer/New_Systems/rnas/2o3x

>  <Rbt.Executable>
rbdock ($Id: //depot/dev/client3/rdock/2013.1/src/exe/rbdock.cxx#4 $)

>  <Rbt.Library>
libRbt.so (2013.1, Build901 2013/11/27)

>  <Rbt.Parameter_File>
/export/apps/rDock/src/rDock_2013.1_src/data/scripts/dock_solv.prm

>  <Rbt.Receptor>
prm/pocket_docking_6.prm

>  <SCORE>
-5.41089

>  <SCORE.INTER>
-1.85882

>  <SCORE.INTER.CONST>
1

>  <SCORE.INTER.POLAR>
0

>  <SCORE.INTER.ROT>
6

>  <SCORE.INTER.SOLV>
10.3121

>  <SCORE.INTER.VDW>
-12.2766

>  <SCORE.INTER.norm>
-0.0599621

>  <SCORE.INTRA>
-3.55207

>  <SCORE.INTRA.DIHEDRAL>
-6.69408

>  <SCORE.INTRA.DIHEDRAL.0>
9.37739

>  <SCORE.INTRA.POLAR>
0

>  <SCORE.INTRA.POLAR.0>
0

>  <SCORE.INTRA.REPUL>
0

>  <SCORE.INTRA.REPUL.0>
0

>  <SCORE.INTRA.SOLV>
-2.04601

>  <SCORE.INTRA.SOLV.lig_0>
-82.9274

>  <SCORE.INTRA.VDW>
0.817978

>  <SCORE.INTRA.VDW.0>
-3.84922

>  <SCORE.INTRA.norm>
-0.114583

>  <SCORE.RESTR>
0

>  <SCORE.RESTR.CAVITY>
0

>  <SCORE.RESTR.norm>
0

>  <SCORE.SYSTEM>
0

>  <SCORE.SYSTEM.CONST>
0

>  <SCORE.SYSTEM.DIHEDRAL>
0

>  <SCORE.SYSTEM.SOLV>
0

>  <SCORE.SYSTEM.norm>
0

>  <SCORE.heavy>
31

>  <SCORE.norm>
-0.174545

>  <RMSD>
4.585

$$$$
2o3x_lig
 OpenBabel11021811463D
libRbt.so/2013.1/901 2013/11/27
 31 33  0  0  0  0  0  0  0  0999 V2000
   18.8545    9.8607    5.2004 C   0  0  2  0  0  0  0  0  0  0  0  0
   19.6913    8.7312    5.4825 O   0  0  0  0  0  0  0  0  0  0  0  0
   18.5360    8.3584    9.5843 C   0  0  2  0  0  0  0  0  0  0  0  0
   18.3775    7.8840   10.9769 N   0  0  0  0  0  0  0  0  0  0  0  0
   22.4400    7.6603    7.9121 C   0  0  1  0  0  0  0  0  0  0  0  0
   18.1133    9.5997    3.8510 C   0  0  2  0  0  0  0  0  0  0  0  0
   17.4966    8.2494    3.8036 N   0  0  0  0  0  0  0  0  0  0  0  0
   17.8816    7.3812    8.5518 C   0  0  0  0  0  0  0  0  0  0  0  0
   21.9126    6.3789    7.1867 C   0  0  2  0  0  0  0  0  0  0  0  0
   20.8048    5.6919    7.8310 O   0  0  0  0  0  0  0  0  0  0  0  0
   19.0638    9.7318    2.6461 C   0  0  1  0  0  0  0  0  0  0  0  0
   18.3653    9.5433    1.4416 O   0  0  0  0  0  0  0  0  0  0  0  0
   18.0754    7.9844    7.1127 C   0  0  2  0  0  0  0  0  0  0  0  0
   17.4588    7.1163    6.0653 N   0  0  0  0  0  0  0  0  0  0  0  0
   23.2232    5.6135    7.1135 C   0  0  2  0  0  0  0  0  0  0  0  0
   23.5333    4.9721    8.3981 O   0  0  0  0  0  0  0  0  0  0  0  0
   19.7311   11.0967    2.6671 C   0  0  2  0  0  0  0  0  0  0  0  0
   20.5728   11.2272    1.5669 O   0  0  0  0  0  0  0  0  0  0  0  0
   19.5880    8.1485    6.7895 C   0  0  2  0  0  0  0  0  0  0  0  0
   24.2637    6.6722    6.7675 C   0  0  2  0  0  0  0  0  0  0  0  0
   23.8361    7.7456    7.6014 O   0  0  0  0  0  0  0  0  0  0  0  0
   20.5378   11.2722    3.9847 C   0  0  2  0  0  0  0  0  0  0  0  0
   19.6563   11.1194    5.1181 O   0  0  0  0  0  0  0  0  0  0  0  0
   20.3387    9.0230    7.8132 C   0  0  2  0  0  0  0  0  0  0  0  0
   21.7643    8.8555    7.4915 O   0  0  0  0  0  0  0  0  0  0  0  0
   24.2811    7.1139    5.2649 C   0  0  0  0  0  0  0  0  0  0  0  0
   24.4926    5.9828    4.4248 N   0  0  0  0  0  0  0  0  0  0  0  0
   21.2116   12.6217    4.0746 C   0  0  0  0  0  0  0  0  0  0  0  0
   22.1936   12.7640    3.1137 O   0  0  0  0  0  0  0  0  0  0  0  0
   20.0391    8.5196    9.2940 C   0  0  1  0  0  0  0  0  0  0  0  0
   20.5427    9.4409   10.2731 O   0  0  0  0  0  0  0  0  0  0  0  0
  1  2  1  6  0  0  0
  1  6  1  0  0  0  0
  1 23  1  0  0  0  0
  3  4  1  1  0  0  0
  3  8  1  0  0  0  0
  3 30  1  0  0  0  0
  5  9  1  0  0  0  0
  5 21  1  0  0  0  0
  5 25  1  6  0  0  0
  6  7  1  1  0  0  0
  6 11  1  0  0  0  0
  8 13  1  0  0  0  0
  9 10  1  1  0  0  0
  9 15  1  0  0  0  0
 11 12  1  6  0  0  0
 11 17  1  0  0  0  0
 13 14  1  6  0  0  0
 13 19  1  0  0  0  0
 15 16  1  1  0  0  0
 15 20  1  0  0  0  0
 17 18  1  6  0  0  0
 17 22  1  0  0  0  0
 19  2  1  6  0  0  0
 19 24  1  0  0  0  0
 20 21  1  0  0  0  0
 20 26  1  6  0  0  0
 22 23  1  0  0  0  0
 22 28  1  6  0  0  0
 24 25  1  6  0  0  0
 24 30  1  0  0  0  0
 26 27  1  0  0  0  0
 28 29  1  0  0  0  0
 30 31  1  1  0  0  0
M  END
>  <CHROM.1>
-129.86119223,66.54175189,46.66907326,-57.23650364,-65.98404201,-77.94562381
20.57600050,8.61203339,6.09180429,1.86212220,0.33050239,-1.04751821

>  <Name>
2o3x_lig

>  <RI>
3.41138e+07

>  <Rbt.Current_Directory>
/home/itssahil/PROJECTS/Mol_Feturizer/New_Systems/rnas/2o3x

>  <Rbt.Executable>
rbdock ($Id: //depot/dev/client3/rdock/2013.1/src/exe/rbdock.cxx#4 $)

>  <Rbt.Library>
libRbt.so (2013.1, Build901 2013/11/27)

>  <Rbt.Parameter_File>
/export/apps/rDock/src/rDock_2013.1_src/data/scripts/dock_solv.prm

>  <Rbt.Receptor>
prm/pocket_docking_2.prm

>  <SCORE>
-8.51461

>  <SCORE.INTER>
-13.6691

>  <SCORE.INTER.CONST>
1

>  <SCORE.INTER.POLAR>
-1.60718

>  <SCORE.INTER.ROT>
6

>  <SCORE.INTER.SOLV>
14.3105

>  <SCORE.INTER.VDW>
-16.1256

>  <SCORE.INTER.norm>
-0.440937

>  <SCORE.INTRA>
4.44988

>  <SCORE.INTRA.DIHEDRAL>
0.185451

>  <SCORE.INTRA.DIHEDRAL.0>
9.37739

>  <SCORE.INTRA.POLAR>
0

>  <SCORE.INTRA.POLAR.0>
0

>  <SCORE.INTRA.REPUL>
0

>  <SCORE.INTRA.REPUL.0>
0

>  <SCORE.INTRA.SOLV>
2.6352

>  <SCORE.INTRA.SOLV.lig_0>
-82.9274

>  <SCORE.INTRA.VDW>
3.03955

>  <SCORE.INTRA.VDW.0>
-3.84922

>  <SCORE.INTRA.norm>
0.143544

>  <SCORE.RESTR>
0.704579

>  <SCORE.RESTR.CAVITY>
0.704579

>  <SCORE.RESTR.norm>
0.0227283

>  <SCORE.SYSTEM>
0

>  <SCORE.SYSTEM.CONST>
0

>  <SCORE.SYSTEM.DIHEDRAL>
0

>  <SCORE.SYSTEM.SOLV>
0

>  <SCORE.SYSTEM.norm>
0

>  <SCORE.heavy>
31

>  <SCORE.norm>
-0.274665

>  <RMSD>
4.618

$$$$
2o3x_lig
 OpenBabel11021811463D
libRbt.so/2013.1/901 2013/11/27
 31 33  0  0  0  0  0  0  0  0999 V2000
   22.2994    7.9642    7.8926 C   0  0  2  0  0  0  0  0  0  0  0  0
   21.4561    6.8073    7.8167 O   0  0  0  0  0  0  0  0  0  0  0  0
   21.0872    3.1985   10.0836 C   0  0  2  0  0  0  0  0  0  0  0  0
   21.3801    1.9849   10.8779 N   0  0  0  0  0  0  0  0  0  0  0  0
   22.6012    6.8807   11.9775 C   0  0  1  0  0  0  0  0  0  0  0  0
   21.6588    9.0980    7.0309 C   0  0  2  0  0  0  0  0  0  0  0  0
   20.2128    9.2725    7.3216 N   0  0  0  0  0  0  0  0  0  0  0  0
   21.6235    3.0859    8.6177 C   0  0  0  0  0  0  0  0  0  0  0  0
   23.5061    8.0868   12.3929 C   0  0  2  0  0  0  0  0  0  0  0  0
   24.9391    7.8401   12.3881 O   0  0  0  0  0  0  0  0  0  0  0  0
   21.8116    8.8208    5.5233 C   0  0  1  0  0  0  0  0  0  0  0  0
   21.2738    9.8772    4.7689 O   0  0  0  0  0  0  0  0  0  0  0  0
   21.2387    4.4036    7.8508 C   0  0  2  0  0  0  0  0  0  0  0  0
   21.7006    4.3678    6.4308 N   0  0  0  0  0  0  0  0  0  0  0  0
   22.8808    8.3734   13.7478 C   0  0  2  0  0  0  0  0  0  0  0  0
   23.3673    7.4315   14.7645 O   0  0  0  0  0  0  0  0  0  0  0  0
   23.2791    8.6180    5.1857 C   0  0  2  0  0  0  0  0  0  0  0  0
   23.4219    8.3902    3.8206 O   0  0  0  0  0  0  0  0  0  0  0  0
   21.8725    5.6431    8.5445 C   0  0  2  0  0  0  0  0  0  0  0  0
   21.3834    8.2039   13.5196 C   0  0  2  0  0  0  0  0  0  0  0  0
   21.3714    7.0420   12.6948 O   0  0  0  0  0  0  0  0  0  0  0  0
   23.8477    7.4171    5.9933 C   0  0  2  0  0  0  0  0  0  0  0  0
   23.6796    7.6589    7.4068 O   0  0  0  0  0  0  0  0  0  0  0  0
   21.4737    5.7822   10.0270 C   0  0  2  0  0  0  0  0  0  0  0  0
   22.3490    6.8352   10.5645 O   0  0  0  0  0  0  0  0  0  0  0  0
   20.6866    9.4037   12.7927 C   0  0  0  0  0  0  0  0  0  0  0  0
   20.9276    9.3328   11.3903 N   0  0  0  0  0  0  0  0  0  0  0  0
   25.3131    7.1753    5.7149 C   0  0  0  0  0  0  0  0  0  0  0  0
   26.0615    8.3209    5.9028 O   0  0  0  0  0  0  0  0  0  0  0  0
   21.7178    4.4090   10.7954 C   0  0  1  0  0  0  0  0  0  0  0  0
   21.1546    4.4394   12.1156 O   0  0  0  0  0  0  0  0  0  0  0  0
  1  2  1  6  0  0  0
  1  6  1  0  0  0  0
  1 23  1  0  0  0  0
  3  4  1  1  0  0  0
  3  8  1  0  0  0  0
  3 30  1  0  0  0  0
  5  9  1  0  0  0  0
  5 21  1  0  0  0  0
  5 25  1  6  0  0  0
  6  7  1  1  0  0  0
  6 11  1  0  0  0  0
  8 13  1  0  0  0  0
  9 10  1  1  0  0  0
  9 15  1  0  0  0  0
 11 12  1  6  0  0  0
 11 17  1  0  0  0  0
 13 14  1  6  0  0  0
 13 19  1  0  0  0  0
 15 16  1  1  0  0  0
 15 20  1  0  0  0  0
 17 18  1  6  0  0  0
 17 22  1  0  0  0  0
 19  2  1  6  0  0  0
 19 24  1  0  0  0  0
 20 21  1  0  0  0  0
 20 26  1  6  0  0  0
 22 23  1  0  0  0  0
 22 28  1  1  0  0  0
 24 25  1  1  0  0  0
 24 30  1  0  0  0  0
 26 27  1  0  0  0  0
 28 29  1  0  0  0  0
 30 31  1  1  0  0  0
M  END
>  <CHROM.1>
179.88877415,-177.89246403,-154.97835686,79.31075631,53.38582889,-157.02316391
22.33977467,6.99685804,9.22109986,-1.03027769,1.32902935,1.23622146

>  <Name>
2o3x_lig

>  <RI>
224

>  <Rbt.Current_Directory>
/home/itssahil/PROJECTS/Mol_Feturizer/New_Systems/rnas/2o3x

>  <Rbt.Executable>
rbdock ($Id: //depot/dev/client3/rdock/2013.1/src/exe/rbdock.cxx#4 $)

>  <Rbt.Library>
libRbt.so (2013.1, Build901 2013/11/27)

>  <Rbt.Parameter_File>
/export/apps/rDock/src/rDock_2013.1_src/data/scripts/dock_solv.prm

>  <Rbt.Receptor>
prm/blind_docking_100.prm

>  <SCORE>
-5.40571

>  <SCORE.INTER>
-11.6141

>  <SCORE.INTER.CONST>
1

>  <SCORE.INTER.POLAR>
-0.748331

>  <SCORE.INTER.ROT>
6

>  <SCORE.INTER.SOLV>
20.4893

>  <SCORE.INTER.VDW>
-19.6781

>  <SCORE.INTER.norm>
-0.374648

>  <SCORE.INTRA>
1.19261

>  <SCORE.INTRA.DIHEDRAL>
-2.92583

>  <SCORE.INTRA.DIHEDRAL.0>
9.37739

>  <SCORE.INTRA.POLAR>
0

>  <SCORE.INTRA.POLAR.0>
0

>  <SCORE.INTRA.REPUL>
0

>  <SCORE.INTRA.REPUL.0>
0

>  <SCORE.INTRA.SOLV>
2.24066

>  <SCORE.INTRA.SOLV.lig_0>
-82.9274

>  <SCORE.INTRA.VDW>
1.53519

>  <SCORE.INTRA.VDW.0>
-3.84922

>  <SCORE.INTRA.norm>
0.0384713

>  <SCORE.RESTR>
5.01577

>  <SCORE.RESTR.CAVITY>
5.01577

>  <SCORE.RESTR.norm>
0.161799

>  <SCORE.SYSTEM>
0

>  <SCORE.SYSTEM.CONST>
0

>  <SCORE.SYSTEM.DIHEDRAL>
0

>  <SCORE.SYSTEM.SOLV>
0

>  <SCORE.SYSTEM.norm>
0

>  <SCORE.heavy>
31

>  <SCORE.norm>
-0.174378

>  <RMSD>
4.641

$$$$
2o3x_lig
 OpenBabel11021811463D
libRbt.so/2013.1/901 2013/11/27
 31 33  0  0  0  0  0  0  0  0999 V2000
   22.3725    7.9603    7.9913 C   0  0  2  0  0  0  0  0  0  0  0  0
   21.4764    6.8450    7.8982 O   0  0  0  0  0  0  0  0  0  0  0  0
   21.0011    3.2370   10.1463 C   0  0  2  0  0  0  0  0  0  0  0  0
   21.2582    1.9915   10.9028 N   0  0  0  0  0  0  0  0  0  0  0  0
   22.8877    6.7995   11.9710 C   0  0  1  0  0  0  0  0  0  0  0  0
   21.6393    9.2277    7.4483 C   0  0  2  0  0  0  0  0  0  0  0  0
   20.2800    9.3787    8.0273 N   0  0  0  0  0  0  0  0  0  0  0  0
   21.4169    3.1087    8.6430 C   0  0  0  0  0  0  0  0  0  0  0  0
   23.7957    8.0148   12.3516 C   0  0  2  0  0  0  0  0  0  0  0  0
   25.2299    7.7866   12.2785 O   0  0  0  0  0  0  0  0  0  0  0  0
   21.5024    9.1912    5.9144 C   0  0  1  0  0  0  0  0  0  0  0  0
   20.8863   10.3633    5.4445 O   0  0  0  0  0  0  0  0  0  0  0  0
   21.0784    4.4644    7.9219 C   0  0  2  0  0  0  0  0  0  0  0  0
   21.4296    4.4176    6.4708 N   0  0  0  0  0  0  0  0  0  0  0  0
   23.2307    8.2854   13.7360 C   0  0  2  0  0  0  0  0  0  0  0  0
   23.7760    7.3438   14.7228 O   0  0  0  0  0  0  0  0  0  0  0  0
   22.8731    9.0192    5.2816 C   0  0  2  0  0  0  0  0  0  0  0  0
   22.7546    9.0090    3.8954 O   0  0  0  0  0  0  0  0  0  0  0  0
   21.8552    5.6406    8.5796 C   0  0  2  0  0  0  0  0  0  0  0  0
   21.7266    8.0979   13.5767 C   0  0  2  0  0  0  0  0  0  0  0  0
   21.6908    6.9408   12.7459 O   0  0  0  0  0  0  0  0  0  0  0  0
   23.5225    7.6954    5.7752 C   0  0  2  0  0  0  0  0  0  0  0  0
   23.6256    7.7123    7.2153 O   0  0  0  0  0  0  0  0  0  0  0  0
   21.5794    5.7846   10.0894 C   0  0  2  0  0  0  0  0  0  0  0  0
   22.5704    6.7591   10.5710 O   0  0  0  0  0  0  0  0  0  0  0  0
   20.9816    9.2928   12.8909 C   0  0  0  0  0  0  0  0  0  0  0  0
   19.5833    9.0268   12.8287 N   0  0  0  0  0  0  0  0  0  0  0  0
   24.9000    7.4756    5.1942 C   0  0  0  0  0  0  0  0  0  0  0  0
   25.8487    8.2538    5.8285 O   0  0  0  0  0  0  0  0  0  0  0  0
   21.7738    4.3841   10.8219 C   0  0  1  0  0  0  0  0  0  0  0  0
   21.3141    4.4350   12.1811 O   0  0  0  0  0  0  0  0  0  0  0  0
  1  2  1  6  0  0  0
  1  6  1  0  0  0  0
  1 23  1  0  0  0  0
  3  4  1  1  0  0  0
  3  8  1  0  0  0  0
  3 30  1  0  0  0  0
  5  9  1  0  0  0  0
  5 21  1  0  0  0  0
  5 25  1  6  0  0  0
  6  7  1  1  0  0  0
  6 11  1  0  0  0  0
  8 13  1  0  0  0  0
  9 10  1  1  0  0  0
  9 15  1  0  0  0  0
 11 12  1  6  0  0  0
 11 17  1  0  0  0  0
 13 14  1  6  0  0  0
 13 19  1  0  0  0  0
 15 16  1  1  0  0  0
 15 20  1  0  0  0  0
 17 18  1  6  0  0  0
 17 22  1  0  0  0  0
 19  2  1  6  0  0  0
 19 24  1  0  0  0  0
 20 21  1  0  0  0  0
 20 26  1  6  0  0  0
 22 23  1  0  0  0  0
 22 28  1  6  0  0  0
 24 25  1  1  0  0  0
 24 30  1  0  0  0  0
 26 27  1  0  0  0  0
 28 29  1  0  0  0  0
 30 31  1  1  0  0  0
M  END
>  <CHROM.1>
-168.22710531,-171.75703130,-158.66759339,-178.36571982,77.38822704,-159.63772520
22.28523130,7.05502518,9.32901007,-1.19091300,1.35209616,1.43561475

>  <Name>
2o3x_lig

>  <RI>
224

>  <Rbt.Current_Directory>
/home/itssahil/PROJECTS/Mol_Feturizer/New_Systems/rnas/2o3x

>  <Rbt.Executable>
rbdock ($Id: //depot/dev/client3/rdock/2013.1/src/exe/rbdock.cxx#4 $)

>  <Rbt.Library>
libRbt.so (2013.1, Build901 2013/11/27)

>  <Rbt.Parameter_File>
/export/apps/rDock/src/rDock_2013.1_src/data/scripts/dock_solv.prm

>  <Rbt.Receptor>
prm/blind_docking_100.prm

>  <SCORE>
-7.12403

>  <SCORE.INTER>
-11.3544

>  <SCORE.INTER.CONST>
1

>  <SCORE.INTER.POLAR>
-0.87013

>  <SCORE.INTER.ROT>
6

>  <SCORE.INTER.SOLV>
20.138

>  <SCORE.INTER.VDW>
-18.9818

>  <SCORE.INTER.norm>
-0.36627

>  <SCORE.INTRA>
-0.846833

>  <SCORE.INTRA.DIHEDRAL>
-3.31573

>  <SCORE.INTRA.DIHEDRAL.0>
9.37739

>  <SCORE.INTRA.POLAR>
0

>  <SCORE.INTRA.POLAR.0>
0

>  <SCORE.INTRA.REPUL>
0

>  <SCORE.INTRA.REPUL.0>
0

>  <SCORE.INTRA.SOLV>
-2.16392

>  <SCORE.INTRA.SOLV.lig_0>
-82.9274

>  <SCORE.INTRA.VDW>
1.89299

>  <SCORE.INTRA.VDW.0>
-3.84922

>  <SCORE.INTRA.norm>
-0.0273172

>  <SCORE.RESTR>
5.07716

>  <SCORE.RESTR.CAVITY>
5.07716

>  <SCORE.RESTR.norm>
0.163779

>  <SCORE.SYSTEM>
0

>  <SCORE.SYSTEM.CONST>
0

>  <SCORE.SYSTEM.DIHEDRAL>
0

>  <SCORE.SYSTEM.SOLV>
0

>  <SCORE.SYSTEM.norm>
0

>  <SCORE.heavy>
31

>  <SCORE.norm>
-0.229807

>  <RMSD>
4.649

$$$$
2o3x_lig
 OpenBabel11021811463D
libRbt.so/2013.1/901 2013/11/27
 31 33  0  0  0  0  0  0  0  0999 V2000
   22.8657    7.9444    6.2168 C   0  0  2  0  0  0  0  0  0  0  0  0
   22.3146    7.0435    7.1864 O   0  0  0  0  0  0  0  0  0  0  0  0
   21.9424    6.7145   11.4351 C   0  0  2  0  0  0  0  0  0  0  0  0
   21.9441    7.0017   12.8866 N   0  0  0  0  0  0  0  0  0  0  0  0
   19.0670    9.1565    8.8931 C   0  0  1  0  0  0  0  0  0  0  0  0
   22.3569    7.5182    4.8033 C   0  0  2  0  0  0  0  0  0  0  0  0
   20.8898    7.2883    4.7827 N   0  0  0  0  0  0  0  0  0  0  0  0
   23.3856    6.7336   10.8299 C   0  0  0  0  0  0  0  0  0  0  0  0
   18.6712   10.5411    8.2829 C   0  0  2  0  0  0  0  0  0  0  0  0
   19.0100   11.7092    9.0798 O   0  0  0  0  0  0  0  0  0  0  0  0
   23.0478    6.2307    4.3155 C   0  0  1  0  0  0  0  0  0  0  0  0
   22.6125    5.8950    3.0223 O   0  0  0  0  0  0  0  0  0  0  0  0
   23.2813    6.3894    9.2992 C   0  0  2  0  0  0  0  0  0  0  0  0
   24.6254    6.3684    8.6479 N   0  0  0  0  0  0  0  0  0  0  0  0
   17.1888   10.2759    8.0807 C   0  0  2  0  0  0  0  0  0  0  0  0
   16.4488   10.4222    9.3411 O   0  0  0  0  0  0  0  0  0  0  0  0
   24.5555    6.4179    4.3384 C   0  0  2  0  0  0  0  0  0  0  0  0
   25.1811    5.2643    3.8763 O   0  0  0  0  0  0  0  0  0  0  0  0
   22.3938    7.4343    8.5646 C   0  0  2  0  0  0  0  0  0  0  0  0
   17.1245    8.8397    7.5744 C   0  0  2  0  0  0  0  0  0  0  0  0
   18.0944    8.2196    8.4142 O   0  0  0  0  0  0  0  0  0  0  0  0
   25.0274    6.7430    5.7838 C   0  0  2  0  0  0  0  0  0  0  0  0
   24.3597    7.9327    6.2569 O   0  0  0  0  0  0  0  0  0  0  0  0
   20.9756    7.5535    9.1571 C   0  0  2  0  0  0  0  0  0  0  0  0
   20.3873    8.7383    8.5137 O   0  0  0  0  0  0  0  0  0  0  0  0
   17.5020    8.6544    6.0656 C   0  0  0  0  0  0  0  0  0  0  0  0
   17.2951    7.3008    5.6721 N   0  0  0  0  0  0  0  0  0  0  0  0
   26.5204    6.9597    5.8695 C   0  0  0  0  0  0  0  0  0  0  0  0
   26.9172    8.0581    5.1319 O   0  0  0  0  0  0  0  0  0  0  0  0
   21.0519    7.7565   10.7346 C   0  0  1  0  0  0  0  0  0  0  0  0
   19.7545    7.6511   11.3403 O   0  0  0  0  0  0  0  0  0  0  0  0
  1  2  1  1  0  0  0
  1  6  1  0  0  0  0
  1 23  1  0  0  0  0
  3  4  1  1  0  0  0
  3  8  1  0  0  0  0
  3 30  1  0  0  0  0
  5  9  1  0  0  0  0
  5 21  1  0  0  0  0
  5 25  1  6  0  0  0
  6  7  1  1  0  0  0
  6 11  1  0  0  0  0
  8 13  1  0  0  0  0
  9 10  1  1  0  0  0
  9 15  1  0  0  0  0
 11 12  1  6  0  0  0
 11 17  1  0  0  0  0
 13 14  1  6  0  0  0
 13 19  1  0  0  0  0
 15 16  1  1  0  0  0
 15 20  1  0  0  0  0
 17 18  1  1  0  0  0
 17 22  1  0  0  0  0
 19  2  1  6  0  0  0
 19 24  1  0  0  0  0
 20 21  1  0  0  0  0
 20 26  1  6  0  0  0
 22 23  1  0  0  0  0
 22 28  1  6  0  0  0
 24 25  1  6  0  0  0
 24 30  1  0  0  0  0
 26 27  1  0  0  0  0
 28 29  1  0  0  0  0
 30 31  1  1  0  0  0
M  END
>  <CHROM.1>
-165.65526449,171.42917803,-116.93569724,-174.91285668,63.47728551,-177.70158931
21.51304449,7.77933048,7.54193429,0.51358238,0.35723052,-1.61224275

>  <Name>
2o3x_lig

>  <RI>
3.34184e+07

>  <Rbt.Current_Directory>
/home/itssahil/PROJECTS/Mol_Feturizer/New_Systems/rnas/2o3x

>  <Rbt.Executable>
rbdock ($Id: //depot/dev/client3/rdock/2013.1/src/exe/rbdock.cxx#4 $)

>  <Rbt.Library>
libRbt.so (2013.1, Build901 2013/11/27)

>  <Rbt.Parameter_File>
/export/apps/rDock/src/rDock_2013.1_src/data/scripts/dock_solv.prm

>  <Rbt.Receptor>
prm/pocket_docking_6.prm

>  <SCORE>
-5.49789

>  <SCORE.INTER>
-6.43782

>  <SCORE.INTER.CONST>
1

>  <SCORE.INTER.POLAR>
0

>  <SCORE.INTER.ROT>
6

>  <SCORE.INTER.SOLV>
12.1783

>  <SCORE.INTER.VDW>
-15.9513

>  <SCORE.INTER.norm>
-0.207671

>  <SCORE.INTRA>
0.939926

>  <SCORE.INTRA.DIHEDRAL>
-0.657356

>  <SCORE.INTRA.DIHEDRAL.0>
9.37739

>  <SCORE.INTRA.POLAR>
0

>  <SCORE.INTRA.POLAR.0>
0

>  <SCORE.INTRA.REPUL>
0

>  <SCORE.INTRA.REPUL.0>
0

>  <SCORE.INTRA.SOLV>
1.56949

>  <SCORE.INTRA.SOLV.lig_0>
-82.9274

>  <SCORE.INTRA.VDW>
0.48386

>  <SCORE.INTRA.VDW.0>
-3.84922

>  <SCORE.INTRA.norm>
0.0303202

>  <SCORE.RESTR>
0

>  <SCORE.RESTR.CAVITY>
0

>  <SCORE.RESTR.norm>
0

>  <SCORE.SYSTEM>
0

>  <SCORE.SYSTEM.CONST>
0

>  <SCORE.SYSTEM.DIHEDRAL>
0

>  <SCORE.SYSTEM.SOLV>
0

>  <SCORE.SYSTEM.norm>
0

>  <SCORE.heavy>
31

>  <SCORE.norm>
-0.177351

>  <RMSD>
4.663

$$$$
2o3x_lig
 OpenBabel11021811463D
libRbt.so/2013.1/901 2013/11/27
 31 33  0  0  0  0  0  0  0  0999 V2000
   22.9805    7.4059    7.7012 C   0  0  2  0  0  0  0  0  0  0  0  0
   22.2202    6.1913    7.6531 O   0  0  0  0  0  0  0  0  0  0  0  0
   21.3410    2.9801   10.3388 C   0  0  2  0  0  0  0  0  0  0  0  0
   21.4151    1.9752   11.4224 N   0  0  0  0  0  0  0  0  0  0  0  0
   22.7928    6.7553   11.6391 C   0  0  1  0  0  0  0  0  0  0  0  0
   21.9874    8.6037    7.8333 C   0  0  2  0  0  0  0  0  0  0  0  0
   20.9744    8.3760    8.8954 N   0  0  0  0  0  0  0  0  0  0  0  0
   22.4131    2.7268    9.2271 C   0  0  0  0  0  0  0  0  0  0  0  0
   23.7343    7.9970   11.7723 C   0  0  2  0  0  0  0  0  0  0  0  0
   25.0395    7.8779   11.1425 O   0  0  0  0  0  0  0  0  0  0  0  0
   21.2410    8.8711    6.5126 C   0  0  1  0  0  0  0  0  0  0  0  0
   20.3919    9.9833    6.6404 O   0  0  0  0  0  0  0  0  0  0  0  0
   22.2343    3.8218    8.1130 C   0  0  2  0  0  0  0  0  0  0  0  0
   23.2132    3.6381    6.9998 N   0  0  0  0  0  0  0  0  0  0  0  0
   23.7304    8.1134   13.2874 C   0  0  2  0  0  0  0  0  0  0  0  0
   24.6430    7.1359   13.8951 O   0  0  0  0  0  0  0  0  0  0  0  0
   22.2440    9.0922    5.3929 C   0  0  2  0  0  0  0  0  0  0  0  0
   21.5723    9.3567    4.2035 O   0  0  0  0  0  0  0  0  0  0  0  0
   22.4287    5.2446    8.7108 C   0  0  2  0  0  0  0  0  0  0  0  0
   22.2865    7.8332   13.6870 C   0  0  2  0  0  0  0  0  0  0  0  0
   21.9773    6.7478   12.8171 O   0  0  0  0  0  0  0  0  0  0  0  0
   23.1456    7.8355    5.2329 C   0  0  2  0  0  0  0  0  0  0  0  0
   23.8246    7.5631    6.4778 O   0  0  0  0  0  0  0  0  0  0  0  0
   21.4737    5.5494    9.8818 C   0  0  2  0  0  0  0  0  0  0  0  0
   21.9676    6.8063   10.4649 O   0  0  0  0  0  0  0  0  0  0  0  0
   21.2953    9.0240   13.4575 C   0  0  0  0  0  0  0  0  0  0  0  0
   21.1660    9.2913   12.0640 N   0  0  0  0  0  0  0  0  0  0  0  0
   24.1799    8.0010    4.1439 C   0  0  0  0  0  0  0  0  0  0  0  0
   23.6188    8.4914    2.9809 O   0  0  0  0  0  0  0  0  0  0  0  0
   21.5281    4.3769   10.9579 C   0  0  1  0  0  0  0  0  0  0  0  0
   20.4958    4.5226   11.9449 O   0  0  0  0  0  0  0  0  0  0  0  0
  1  2  1  6  0  0  0
  1  6  1  0  0  0  0
  1 23  1  0  0  0  0
  3  4  1  1  0  0  0
  3  8  1  0  0  0  0
  3 30  1  0  0  0  0
  5  9  1  0  0  0  0
  5 21  1  0  0  0  0
  5 25  1  6  0  0  0
  6  7  1  1  0  0  0
  6 11  1  0  0  0  0
  8 13  1  0  0  0  0
  9 10  1  1  0  0  0
  9 15  1  0  0  0  0
 11 12  1  1  0  0  0
 11 17  1  0  0  0  0
 13 14  1  6  0  0  0
 13 19  1  0  0  0  0
 15 16  1  1  0  0  0
 15 20  1  0  0  0  0
 17 18  1  6  0  0  0
 17 22  1  0  0  0  0
 19  2  1  6  0  0  0
 19 24  1  0  0  0  0
 20 21  1  0  0  0  0
 20 26  1  6  0  0  0
 22 23  1  0  0  0  0
 22 28  1  6  0  0  0
 24 25  1  1  0  0  0
 24 30  1  0  0  0  0
 26 27  1  0  0  0  0
 28 29  1  0  0  0  0
 30 31  1  1  0  0  0
M  END
>  <CHROM.1>
-117.67446262,154.31117889,-147.61208389,65.75953431,-47.85621115,-98.90877971
22.38213201,6.87596644,9.18704996,-1.06723689,1.49975302,1.34418305

>  <Name>
2o3x_lig

>  <RI>
0

>  <Rbt.Current_Directory>
/home/itssahil/PROJECTS/Mol_Feturizer/New_Systems/rnas/2o3x

>  <Rbt.Executable>
rbdock ($Id: //depot/dev/client3/rdock/2013.1/src/exe/rbdock.cxx#4 $)

>  <Rbt.Library>
libRbt.so (2013.1, Build901 2013/11/27)

>  <Rbt.Parameter_File>
/export/apps/rDock/src/rDock_2013.1_src/data/scripts/dock_solv.prm

>  <Rbt.Receptor>
prm/blind_docking_40.prm

>  <SCORE>
8.45888

>  <SCORE.INTER>
-8.22243

>  <SCORE.INTER.CONST>
1

>  <SCORE.INTER.POLAR>
-0.709013

>  <SCORE.INTER.ROT>
6

>  <SCORE.INTER.SOLV>
23.5683

>  <SCORE.INTER.VDW>
-18.5743

>  <SCORE.INTER.norm>
-0.26524

>  <SCORE.INTRA>
11.983

>  <SCORE.INTRA.DIHEDRAL>
10.5887

>  <SCORE.INTRA.DIHEDRAL.0>
9.37739

>  <SCORE.INTRA.POLAR>
0

>  <SCORE.INTRA.POLAR.0>
0

>  <SCORE.INTRA.REPUL>
0.238134

>  <SCORE.INTRA.REPUL.0>
0

>  <SCORE.INTRA.SOLV>
5.34375

>  <SCORE.INTRA.SOLV.lig_0>
-82.9274

>  <SCORE.INTRA.VDW>
2.82611

>  <SCORE.INTRA.VDW.0>
-3.84922

>  <SCORE.INTRA.norm>
0.386549

>  <SCORE.RESTR>
4.69829

>  <SCORE.RESTR.CAVITY>
4.69829

>  <SCORE.RESTR.norm>
0.151558

>  <SCORE.SYSTEM>
0

>  <SCORE.SYSTEM.CONST>
0

>  <SCORE.SYSTEM.DIHEDRAL>
0

>  <SCORE.SYSTEM.SOLV>
0

>  <SCORE.SYSTEM.norm>
0

>  <SCORE.heavy>
31

>  <SCORE.norm>
0.272867

>  <RMSD>
4.685

$$$$
2o3x_lig
 OpenBabel11021811463D
libRbt.so/2013.1/901 2013/11/27
 31 33  0  0  0  0  0  0  0  0999 V2000
   22.2638    7.8415    7.4318 C   0  0  2  0  0  0  0  0  0  0  0  0
   21.6171    6.5721    7.2705 O   0  0  0  0  0  0  0  0  0  0  0  0
   21.2309    3.1094    9.7521 C   0  0  2  0  0  0  0  0  0  0  0  0
   21.5045    1.9937   10.6848 N   0  0  0  0  0  0  0  0  0  0  0  0
   22.8014    6.7370   11.3129 C   0  0  1  0  0  0  0  0  0  0  0  0
   21.5137    8.8916    6.5525 C   0  0  2  0  0  0  0  0  0  0  0  0
   20.0421    8.8327    6.7441 N   0  0  0  0  0  0  0  0  0  0  0  0
   22.0150    2.9569    8.4063 C   0  0  0  0  0  0  0  0  0  0  0  0
   23.6244    8.0184   11.6691 C   0  0  2  0  0  0  0  0  0  0  0  0
   24.9614    8.0954   11.1025 O   0  0  0  0  0  0  0  0  0  0  0  0
   21.8074    8.6911    5.0537 C   0  0  1  0  0  0  0  0  0  0  0  0
   21.1636    9.6769    4.2870 O   0  0  0  0  0  0  0  0  0  0  0  0
   21.6362    4.1673    7.4768 C   0  0  2  0  0  0  0  0  0  0  0  0
   22.3320    4.0858    6.1575 N   0  0  0  0  0  0  0  0  0  0  0  0
   23.5440    7.9168   13.1831 C   0  0  2  0  0  0  0  0  0  0  0  0
   24.5108    6.9388   13.6994 O   0  0  0  0  0  0  0  0  0  0  0  0
   23.3078    8.7268    4.8163 C   0  0  2  0  0  0  0  0  0  0  0  0
   23.5746    8.5689    3.4600 O   0  0  0  0  0  0  0  0  0  0  0  0
   22.0182    5.5147    8.1534 C   0  0  2  0  0  0  0  0  0  0  0  0
   22.1139    7.4675   13.4591 C   0  0  2  0  0  0  0  0  0  0  0  0
   21.9388    6.4961   12.4313 O   0  0  0  0  0  0  0  0  0  0  0  0
   24.0010    7.6012    5.6350 C   0  0  2  0  0  0  0  0  0  0  0  0
   23.7038    7.7675    7.0382 O   0  0  0  0  0  0  0  0  0  0  0  0
   21.3636    5.7100    9.5352 C   0  0  2  0  0  0  0  0  0  0  0  0
   22.0272    6.8888   10.1130 O   0  0  0  0  0  0  0  0  0  0  0  0
   21.0336    8.5956   13.3418 C   0  0  0  0  0  0  0  0  0  0  0  0
   21.2228    9.5630   14.3705 N   0  0  0  0  0  0  0  0  0  0  0  0
   25.5013    7.5961    5.4556 C   0  0  0  0  0  0  0  0  0  0  0  0
   26.1078    6.6655    6.2767 O   0  0  0  0  0  0  0  0  0  0  0  0
   21.6096    4.4289   10.4485 C   0  0  1  0  0  0  0  0  0  0  0  0
   20.8318    4.4869   11.6538 O   0  0  0  0  0  0  0  0  0  0  0  0
  1  2  1  6  0  0  0
  1  6  1  0  0  0  0
  1 23  1  0  0  0  0
  3  4  1  1  0  0  0
  3  8  1  0  0  0  0
  3 30  1  0  0  0  0
  5  9  1  0  0  0  0
  5 21  1  0  0  0  0
  5 25  1  6  0  0  0
  6  7  1  6  0  0  0
  6 11  1  0  0  0  0
  8 13  1  0  0  0  0
  9 10  1  1  0  0  0
  9 15  1  0  0  0  0
 11 12  1  6  0  0  0
 11 17  1  0  0  0  0
 13 14  1  6  0  0  0
 13 19  1  0  0  0  0
 15 16  1  6  0  0  0
 15 20  1  0  0  0  0
 17 18  1  6  0  0  0
 17 22  1  0  0  0  0
 19  2  1  6  0  0  0
 19 24  1  0  0  0  0
 20 21  1  0  0  0  0
 20 26  1  6  0  0  0
 22 23  1  0  0  0  0
 22 28  1  1  0  0  0
 24 25  1  1  0  0  0
 24 30  1  0  0  0  0
 26 27  1  0  0  0  0
 28 29  1  0  0  0  0
 30 31  1  1  0  0  0
M  END
>  <CHROM.1>
-170.42073124,170.73910297,-158.45570880,-66.57195378,174.85593736,-116.72559037
22.51119545,6.81333512,8.92686448,-1.18562413,1.32646911,1.36104570

>  <Name>
2o3x_lig

>  <RI>
0

>  <Rbt.Current_Directory>
/home/itssahil/PROJECTS/Mol_Feturizer/New_Systems/rnas/2o3x

>  <Rbt.Executable>
rbdock ($Id: //depot/dev/client3/rdock/2013.1/src/exe/rbdock.cxx#4 $)

>  <Rbt.Library>
libRbt.so (2013.1, Build901 2013/11/27)

>  <Rbt.Parameter_File>
/export/apps/rDock/src/rDock_2013.1_src/data/scripts/dock_solv.prm

>  <Rbt.Receptor>
prm/blind_docking_40.prm

>  <SCORE>
3.93079

>  <SCORE.INTER>
-6.36982

>  <SCORE.INTER.CONST>
1

>  <SCORE.INTER.POLAR>
0

>  <SCORE.INTER.ROT>
6

>  <SCORE.INTER.SOLV>
21.3044

>  <SCORE.INTER.VDW>
-18.948

>  <SCORE.INTER.norm>
-0.205478

>  <SCORE.INTRA>
2.8527

>  <SCORE.INTRA.DIHEDRAL>
1.09125

>  <SCORE.INTRA.DIHEDRAL.0>
9.37739

>  <SCORE.INTRA.POLAR>
0

>  <SCORE.INTRA.POLAR.0>
0

>  <SCORE.INTRA.REPUL>
0

>  <SCORE.INTRA.REPUL.0>
0

>  <SCORE.INTRA.SOLV>
-2.22082

>  <SCORE.INTRA.SOLV.lig_0>
-82.9274

>  <SCORE.INTRA.VDW>
3.41749

>  <SCORE.INTRA.VDW.0>
-3.84922

>  <SCORE.INTRA.norm>
0.0920226

>  <SCORE.RESTR>
7.44791

>  <SCORE.RESTR.CAVITY>
7.44791

>  <SCORE.RESTR.norm>
0.240255

>  <SCORE.SYSTEM>
0

>  <SCORE.SYSTEM.CONST>
0

>  <SCORE.SYSTEM.DIHEDRAL>
0

>  <SCORE.SYSTEM.SOLV>
0

>  <SCORE.SYSTEM.norm>
0

>  <SCORE.heavy>
31

>  <SCORE.norm>
0.1268

>  <RMSD>
4.686

$$$$
2o3x_lig
 OpenBabel11021811463D
libRbt.so/2013.1/901 2013/11/27
 31 33  0  0  0  0  0  0  0  0999 V2000
   18.7291    9.3998    9.8019 C   0  0  2  0  0  0  0  0  0  0  0  0
   19.0692    9.3797    8.4092 O   0  0  0  0  0  0  0  0  0  0  0  0
   22.4841    7.4599    6.6913 C   0  0  2  0  0  0  0  0  0  0  0  0
   23.8667    7.1052    6.3015 N   0  0  0  0  0  0  0  0  0  0  0  0
   21.2672    7.1885   11.1587 C   0  0  1  0  0  0  0  0  0  0  0  0
   17.1810    9.5606    9.9285 C   0  0  2  0  0  0  0  0  0  0  0  0
   16.4467    8.6166    9.0479 N   0  0  0  0  0  0  0  0  0  0  0  0
   22.0323    8.8272    6.0784 C   0  0  0  0  0  0  0  0  0  0  0  0
   21.0606    7.6617   12.6350 C   0  0  2  0  0  0  0  0  0  0  0  0
   22.2311    8.2148   13.2970 O   0  0  0  0  0  0  0  0  0  0  0  0
   16.7279   10.9903    9.5773 C   0  0  1  0  0  0  0  0  0  0  0  0
   15.3396   11.1253    9.7471 O   0  0  0  0  0  0  0  0  0  0  0  0
   20.5488    9.0990    6.5229 C   0  0  2  0  0  0  0  0  0  0  0  0
   20.0332   10.3833    5.9607 N   0  0  0  0  0  0  0  0  0  0  0  0
   20.5192    6.3626   13.2079 C   0  0  2  0  0  0  0  0  0  0  0  0
   21.6051    5.4114   13.4794 O   0  0  0  0  0  0  0  0  0  0  0  0
   17.4708   11.9913   10.4460 C   0  0  2  0  0  0  0  0  0  0  0  0
   17.0464   13.2820   10.1466 O   0  0  0  0  0  0  0  0  0  0  0  0
   20.4473    9.1635    8.0736 C   0  0  2  0  0  0  0  0  0  0  0  0
   19.5854    5.8299   12.1274 C   0  0  2  0  0  0  0  0  0  0  0  0
   20.3502    6.1061   10.9572 O   0  0  0  0  0  0  0  0  0  0  0  0
   19.0026   11.8616   10.2127 C   0  0  2  0  0  0  0  0  0  0  0  0
   19.4273   10.5144   10.5120 O   0  0  0  0  0  0  0  0  0  0  0  0
   20.9623    7.8892    8.7716 C   0  0  2  0  0  0  0  0  0  0  0  0
   21.0228    8.2304   10.2012 O   0  0  0  0  0  0  0  0  0  0  0  0
   18.1898    6.5372   12.0540 C   0  0  0  0  0  0  0  0  0  0  0  0
   17.4633    6.3122   13.2587 N   0  0  0  0  0  0  0  0  0  0  0  0
   19.8005   12.8208   11.0651 C   0  0  0  0  0  0  0  0  0  0  0  0
   21.1594   12.6255   10.9130 O   0  0  0  0  0  0  0  0  0  0  0  0
   22.4099    7.5088    8.2280 C   0  0  1  0  0  0  0  0  0  0  0  0
   22.8215    6.2146    8.6935 O   0  0  0  0  0  0  0  0  0  0  0  0
  1  2  1  6  0  0  0
  1  6  1  0  0  0  0
  1 23  1  0  0  0  0
  3  4  1  1  0  0  0
  3  8  1  0  0  0  0
  3 30  1  0  0  0  0
  5  9  1  0  0  0  0
  5 21  1  0  0  0  0
  5 25  1  6  0  0  0
  6  7  1  6  0  0  0
  6 11  1  0  0  0  0
  8 13  1  0  0  0  0
  9 10  1  1  0  0  0
  9 15  1  0  0  0  0
 11 12  1  1  0  0  0
 11 17  1  0  0  0  0
 13 14  1  6  0  0  0
 13 19  1  0  0  0  0
 15 16  1  6  0  0  0
 15 20  1  0  0  0  0
 17 18  1  6  0  0  0
 17 22  1  0  0  0  0
 19  2  1  6  0  0  0
 19 24  1  0  0  0  0
 20 21  1  0  0  0  0
 20 26  1  6  0  0  0
 22 23  1  0  0  0  0
 22 28  1  1  0  0  0
 24 25  1  1  0  0  0
 24 30  1  0  0  0  0
 26 27  1  0  0  0  0
 28 29  1  0  0  0  0
 30 31  1  1  0  0  0
M  END
>  <CHROM.1>
-176.62563832,-170.18577493,176.67105615,-63.76475520,175.76297042,170.31810651
19.88628711,8.84467313,9.95524792,2.59953467,0.73678396,-0.95704377

>  <Name>
2o3x_lig

>  <RI>
2.78316e+07

>  <Rbt.Current_Directory>
/home/itssahil/PROJECTS/Mol_Feturizer/New_Systems/rnas/2o3x

>  <Rbt.Executable>
rbdock ($Id: //depot/dev/client3/rdock/2013.1/src/exe/rbdock.cxx#4 $)

>  <Rbt.Library>
libRbt.so (2013.1, Build901 2013/11/27)

>  <Rbt.Parameter_File>
/export/apps/rDock/src/rDock_2013.1_src/data/scripts/dock_solv.prm

>  <Rbt.Receptor>
prm/pocket_docking_7.prm

>  <SCORE>
-14.9125

>  <SCORE.INTER>
-11.276

>  <SCORE.INTER.CONST>
1

>  <SCORE.INTER.POLAR>
-1.55181

>  <SCORE.INTER.ROT>
6

>  <SCORE.INTER.SOLV>
14.071

>  <SCORE.INTER.VDW>
-14.635

>  <SCORE.INTER.norm>
-0.363743

>  <SCORE.INTRA>
-3.63643

>  <SCORE.INTRA.DIHEDRAL>
-8.04656

>  <SCORE.INTRA.DIHEDRAL.0>
9.37739

>  <SCORE.INTRA.POLAR>
0

>  <SCORE.INTRA.POLAR.0>
0

>  <SCORE.INTRA.REPUL>
0

>  <SCORE.INTRA.REPUL.0>
0

>  <SCORE.INTRA.SOLV>
-2.64754

>  <SCORE.INTRA.SOLV.lig_0>
-82.9274

>  <SCORE.INTRA.VDW>
1.71062

>  <SCORE.INTRA.VDW.0>
-3.84922

>  <SCORE.INTRA.norm>
-0.117304

>  <SCORE.RESTR>
0

>  <SCORE.RESTR.CAVITY>
0

>  <SCORE.RESTR.norm>
0

>  <SCORE.SYSTEM>
0

>  <SCORE.SYSTEM.CONST>
0

>  <SCORE.SYSTEM.DIHEDRAL>
0

>  <SCORE.SYSTEM.SOLV>
0

>  <SCORE.SYSTEM.norm>
0

>  <SCORE.heavy>
31

>  <SCORE.norm>
-0.481047

>  <RMSD>
4.700

$$$$
2o3x_lig
 OpenBabel11021811463D
libRbt.so/2013.1/901 2013/11/27
 31 33  0  0  0  0  0  0  0  0999 V2000
   19.7610    9.6986    4.9390 C   0  0  2  0  0  0  0  0  0  0  0  0
   19.8841   10.1677    6.2882 O   0  0  0  0  0  0  0  0  0  0  0  0
   17.4634    9.2732    9.6997 C   0  0  2  0  0  0  0  0  0  0  0  0
   16.7937    8.5806   10.8228 N   0  0  0  0  0  0  0  0  0  0  0  0
   21.4863    7.9263    8.6337 C   0  0  1  0  0  0  0  0  0  0  0  0
   20.9330    8.7070    4.6535 C   0  0  2  0  0  0  0  0  0  0  0  0
   21.0840    7.6946    5.7296 N   0  0  0  0  0  0  0  0  0  0  0  0
   16.9900    8.7331    8.3092 C   0  0  0  0  0  0  0  0  0  0  0  0
   23.0122    7.6101    8.5000 C   0  0  2  0  0  0  0  0  0  0  0  0
   23.5331    7.5435    7.1441 O   0  0  0  0  0  0  0  0  0  0  0  0
   22.2767    9.4446    4.5013 C   0  0  1  0  0  0  0  0  0  0  0  0
   23.3065    8.5390    4.1949 O   0  0  0  0  0  0  0  0  0  0  0  0
   17.7315    9.5476    7.1870 C   0  0  2  0  0  0  0  0  0  0  0  0
   17.3185    9.1037    5.8219 N   0  0  0  0  0  0  0  0  0  0  0  0
   23.0374    6.3130    9.2911 C   0  0  2  0  0  0  0  0  0  0  0  0
   22.5540    5.1888    8.4786 O   0  0  0  0  0  0  0  0  0  0  0  0
   22.1597   10.5046    3.4190 C   0  0  2  0  0  0  0  0  0  0  0  0
   23.3789   11.1567    3.2638 O   0  0  0  0  0  0  0  0  0  0  0  0
   19.2719    9.3761    7.3164 C   0  0  2  0  0  0  0  0  0  0  0  0
   22.1100    6.5698   10.4731 C   0  0  2  0  0  0  0  0  0  0  0  0
   21.0484    7.2691    9.8293 O   0  0  0  0  0  0  0  0  0  0  0  0
   21.0484   11.5252    3.7945 C   0  0  2  0  0  0  0  0  0  0  0  0
   19.7925   10.8341    3.9677 O   0  0  0  0  0  0  0  0  0  0  0  0
   19.8183    9.7961    8.6953 C   0  0  2  0  0  0  0  0  0  0  0  0
   21.2148    9.3341    8.7136 O   0  0  0  0  0  0  0  0  0  0  0  0
   22.7280    7.4395   11.6199 C   0  0  0  0  0  0  0  0  0  0  0  0
   21.8474    7.4701   12.7395 N   0  0  0  0  0  0  0  0  0  0  0  0
   20.8697   12.5975    2.7450 C   0  0  0  0  0  0  0  0  0  0  0  0
   21.9859   13.4055    2.6494 O   0  0  0  0  0  0  0  0  0  0  0  0
   18.9843    9.0947    9.8564 C   0  0  1  0  0  0  0  0  0  0  0  0
   19.3233    9.6321   11.1438 O   0  0  0  0  0  0  0  0  0  0  0  0
  1  2  1  1  0  0  0
  1  6  1  0  0  0  0
  1 23  1  0  0  0  0
  3  4  1  1  0  0  0
  3  8  1  0  0  0  0
  3 30  1  0  0  0  0
  5  9  1  0  0  0  0
  5 21  1  0  0  0  0
  5 25  1  1  0  0  0
  6  7  1  1  0  0  0
  6 11  1  0  0  0  0
  8 13  1  0  0  0  0
  9 10  1  6  0  0  0
  9 15  1  0  0  0  0
 11 12  1  6  0  0  0
 11 17  1  0  0  0  0
 13 14  1  6  0  0  0
 13 19  1  0  0  0  0
 15 16  1  6  0  0  0
 15 20  1  0  0  0  0
 17 18  1  1  0  0  0
 17 22  1  0  0  0  0
 19  2  1  6  0  0  0
 19 24  1  0  0  0  0
 20 21  1  0  0  0  0
 20 26  1  1  0  0  0
 22 23  1  0  0  0  0
 22 28  1  6  0  0  0
 24 25  1  6  0  0  0
 24 30  1  0  0  0  0
 26 27  1  0  0  0  0
 28 29  1  0  0  0  0
 30 31  1  1  0  0  0
M  END
>  <CHROM.1>
-87.05989605,173.41826764,-71.75923668,-172.46116996,-65.89258816,-63.40251638
20.77563773,9.04960160,7.20989981,1.45303113,0.37725163,-1.07223460

>  <Name>
2o3x_lig

>  <RI>
0

>  <Rbt.Current_Directory>
/home/itssahil/PROJECTS/Mol_Feturizer/New_Systems/rnas/2o3x

>  <Rbt.Executable>
rbdock ($Id: //depot/dev/client3/rdock/2013.1/src/exe/rbdock.cxx#4 $)

>  <Rbt.Library>
libRbt.so (2013.1, Build901 2013/11/27)

>  <Rbt.Parameter_File>
/export/apps/rDock/src/rDock_2013.1_src/data/scripts/dock_solv.prm

>  <Rbt.Receptor>
prm/pocket_docking_8.prm

>  <SCORE>
-12.3727

>  <SCORE.INTER>
-14.0575

>  <SCORE.INTER.CONST>
1

>  <SCORE.INTER.POLAR>
-0.961904

>  <SCORE.INTER.ROT>
6

>  <SCORE.INTER.SOLV>
13.232

>  <SCORE.INTER.VDW>
-18.176

>  <SCORE.INTER.norm>
-0.453469

>  <SCORE.INTRA>
1.68482

>  <SCORE.INTRA.DIHEDRAL>
-4.92964

>  <SCORE.INTRA.DIHEDRAL.0>
9.37739

>  <SCORE.INTRA.POLAR>
0

>  <SCORE.INTRA.POLAR.0>
0

>  <SCORE.INTRA.REPUL>
0

>  <SCORE.INTRA.REPUL.0>
0

>  <SCORE.INTRA.SOLV>
5.0252

>  <SCORE.INTRA.SOLV.lig_0>
-82.9274

>  <SCORE.INTRA.VDW>
1.63704

>  <SCORE.INTRA.VDW.0>
-3.84922

>  <SCORE.INTRA.norm>
0.0543491

>  <SCORE.RESTR>
0

>  <SCORE.RESTR.CAVITY>
0

>  <SCORE.RESTR.norm>
0

>  <SCORE.SYSTEM>
0

>  <SCORE.SYSTEM.CONST>
0

>  <SCORE.SYSTEM.DIHEDRAL>
0

>  <SCORE.SYSTEM.SOLV>
0

>  <SCORE.SYSTEM.norm>
0

>  <SCORE.heavy>
31

>  <SCORE.norm>
-0.399119

>  <RMSD>
4.737

$$$$
2o3x_lig
 OpenBabel11021811463D
libRbt.so/2013.1/901 2013/11/27
 31 33  0  0  0  0  0  0  0  0999 V2000
   20.8479    8.6752    5.1023 C   0  0  2  0  0  0  0  0  0  0  0  0
   21.0702    9.2981    6.3744 O   0  0  0  0  0  0  0  0  0  0  0  0
   18.5202   10.4627    9.6054 C   0  0  2  0  0  0  0  0  0  0  0  0
   17.4944   10.4721   10.6717 N   0  0  0  0  0  0  0  0  0  0  0  0
   21.8591    7.4609   10.1316 C   0  0  1  0  0  0  0  0  0  0  0  0
   22.1572    7.9363    4.6802 C   0  0  2  0  0  0  0  0  0  0  0  0
   22.7054    7.0986    5.7773 N   0  0  0  0  0  0  0  0  0  0  0  0
   17.8853   10.3553    8.1790 C   0  0  0  0  0  0  0  0  0  0  0  0
   20.9253    6.4901   10.9264 C   0  0  2  0  0  0  0  0  0  0  0  0
   19.9664    7.1179   11.8212 O   0  0  0  0  0  0  0  0  0  0  0  0
   23.2532    8.9271    4.2442 C   0  0  1  0  0  0  0  0  0  0  0  0
   24.4028    8.2388    3.8211 O   0  0  0  0  0  0  0  0  0  0  0  0
   19.0474   10.3835    7.1201 C   0  0  2  0  0  0  0  0  0  0  0  0
   18.5211   10.3038    5.7244 N   0  0  0  0  0  0  0  0  0  0  0  0
   22.0004    5.6424   11.5855 C   0  0  2  0  0  0  0  0  0  0  0  0
   22.5731    6.3279   12.7516 O   0  0  0  0  0  0  0  0  0  0  0  0
   22.7257    9.8178    3.1320 C   0  0  2  0  0  0  0  0  0  0  0  0
   23.7213   10.6983    2.7207 O   0  0  0  0  0  0  0  0  0  0  0  0
   20.0220    9.1930    7.3483 C   0  0  2  0  0  0  0  0  0  0  0  0
   23.0505    5.4463   10.4984 C   0  0  2  0  0  0  0  0  0  0  0  0
   23.0871    6.7514    9.9276 O   0  0  0  0  0  0  0  0  0  0  0  0
   21.4821   10.6073    3.6298 C   0  0  2  0  0  0  0  0  0  0  0  0
   20.4631    9.6829    4.0677 O   0  0  0  0  0  0  0  0  0  0  0  0
   20.6261    9.1631    8.7662 C   0  0  2  0  0  0  0  0  0  0  0  0
   21.3017    7.8605    8.8700 O   0  0  0  0  0  0  0  0  0  0  0  0
   22.6842    4.3791    9.4120 C   0  0  0  0  0  0  0  0  0  0  0  0
   22.5159    3.1010   10.0187 N   0  0  0  0  0  0  0  0  0  0  0  0
   20.8978   11.5000    2.5597 C   0  0  0  0  0  0  0  0  0  0  0  0
   19.5802   11.8171    2.8268 O   0  0  0  0  0  0  0  0  0  0  0  0
   19.4744    9.2818    9.8595 C   0  0  1  0  0  0  0  0  0  0  0  0
   20.0173    9.4773   11.1741 O   0  0  0  0  0  0  0  0  0  0  0  0
  1  2  1  1  0  0  0
  1  6  1  0  0  0  0
  1 23  1  0  0  0  0
  3  4  1  1  0  0  0
  3  8  1  0  0  0  0
  3 30  1  0  0  0  0
  5  9  1  0  0  0  0
  5 21  1  0  0  0  0
  5 25  1  6  0  0  0
  6  7  1  1  0  0  0
  6 11  1  0  0  0  0
  8 13  1  0  0  0  0
  9 10  1  1  0  0  0
  9 15  1  0  0  0  0
 11 12  1  6  0  0  0
 11 17  1  0  0  0  0
 13 14  1  6  0  0  0
 13 19  1  0  0  0  0
 15 16  1  1  0  0  0
 15 20  1  0  0  0  0
 17 18  1  1  0  0  0
 17 22  1  0  0  0  0
 19  2  1  6  0  0  0
 19 24  1  0  0  0  0
 20 21  1  0  0  0  0
 20 26  1  6  0  0  0
 22 23  1  0  0  0  0
 22 28  1  6  0  0  0
 24 25  1  1  0  0  0
 24 30  1  0  0  0  0
 26 27  1  0  0  0  0
 28 29  1  0  0  0  0
 30 31  1  1  0  0  0
M  END
>  <CHROM.1>
-137.00156319,98.76367625,-87.77207357,-60.88811469,158.73764011,-173.78172113
21.14681232,8.52408881,7.51965307,-1.56004453,-0.70474164,2.04277736

>  <Name>
2o3x_lig

>  <RI>
224

>  <Rbt.Current_Directory>
/home/itssahil/PROJECTS/Mol_Feturizer/New_Systems/rnas/2o3x

>  <Rbt.Executable>
rbdock ($Id: //depot/dev/client3/rdock/2013.1/src/exe/rbdock.cxx#4 $)

>  <Rbt.Library>
libRbt.so (2013.1, Build901 2013/11/27)

>  <Rbt.Parameter_File>
/export/apps/rDock/src/rDock_2013.1_src/data/scripts/dock_solv.prm

>  <Rbt.Receptor>
prm/blind_docking_100.prm

>  <SCORE>
13.4966

>  <SCORE.INTER>
2.2248

>  <SCORE.INTER.CONST>
1

>  <SCORE.INTER.POLAR>
0

>  <SCORE.INTER.ROT>
6

>  <SCORE.INTER.SOLV>
18.4376

>  <SCORE.INTER.VDW>
-12.2627

>  <SCORE.INTER.norm>
0.0717678

>  <SCORE.INTRA>
6.2784

>  <SCORE.INTRA.DIHEDRAL>
6.63883

>  <SCORE.INTRA.DIHEDRAL.0>
9.37739

>  <SCORE.INTRA.POLAR>
0

>  <SCORE.INTRA.POLAR.0>
0

>  <SCORE.INTRA.REPUL>
0

>  <SCORE.INTRA.REPUL.0>
0

>  <SCORE.INTRA.SOLV>
2.0003

>  <SCORE.INTRA.SOLV.lig_0>
-82.9274

>  <SCORE.INTRA.VDW>
1.95883

>  <SCORE.INTRA.VDW.0>
-3.84922

>  <SCORE.INTRA.norm>
0.202529

>  <SCORE.RESTR>
4.99337

>  <SCORE.RESTR.CAVITY>
4.99337

>  <SCORE.RESTR.norm>
0.161077

>  <SCORE.SYSTEM>
0

>  <SCORE.SYSTEM.CONST>
0

>  <SCORE.SYSTEM.DIHEDRAL>
0

>  <SCORE.SYSTEM.SOLV>
0

>  <SCORE.SYSTEM.norm>
0

>  <SCORE.heavy>
31

>  <SCORE.norm>
0.435373

>  <RMSD>
4.741

$$$$
2o3x_lig
 OpenBabel11021811463D
libRbt.so/2013.1/901 2013/11/27
 31 33  0  0  0  0  0  0  0  0999 V2000
   20.9627    8.4022    5.7669 C   0  0  2  0  0  0  0  0  0  0  0  0
   21.0272    9.2485    6.9223 O   0  0  0  0  0  0  0  0  0  0  0  0
   20.3532    8.6750   11.1073 C   0  0  2  0  0  0  0  0  0  0  0  0
   19.8071    8.2335   12.4098 N   0  0  0  0  0  0  0  0  0  0  0  0
   22.5027    5.7725    7.9370 C   0  0  1  0  0  0  0  0  0  0  0  0
   22.0479    8.8753    4.7486 C   0  0  2  0  0  0  0  0  0  0  0  0
   23.3717    9.0714    5.3926 N   0  0  0  0  0  0  0  0  0  0  0  0
   19.3478    9.5849   10.3259 C   0  0  0  0  0  0  0  0  0  0  0  0
   23.3527    5.8617    9.2469 C   0  0  2  0  0  0  0  0  0  0  0  0
   24.3571    6.9124    9.2848 O   0  0  0  0  0  0  0  0  0  0  0  0
   21.6491   10.1979    4.0670 C   0  0  1  0  0  0  0  0  0  0  0  0
   22.6148   10.5773    3.1195 O   0  0  0  0  0  0  0  0  0  0  0  0
   20.0279   10.0242    8.9780 C   0  0  2  0  0  0  0  0  0  0  0  0
   19.1359   10.9156    8.1774 N   0  0  0  0  0  0  0  0  0  0  0  0
   23.8755    4.4351    9.2664 C   0  0  2  0  0  0  0  0  0  0  0  0
   25.0019    4.2720    8.3377 O   0  0  0  0  0  0  0  0  0  0  0  0
   20.2880   10.0452    3.4090 C   0  0  2  0  0  0  0  0  0  0  0  0
   19.9359   11.2315    2.7731 O   0  0  0  0  0  0  0  0  0  0  0  0
   20.3837    8.7796    8.1158 C   0  0  2  0  0  0  0  0  0  0  0  0
   22.6851    3.5873    8.8337 C   0  0  2  0  0  0  0  0  0  0  0  0
   22.1565    4.3907    7.7823 O   0  0  0  0  0  0  0  0  0  0  0  0
   19.2218    9.6710    4.4771 C   0  0  2  0  0  0  0  0  0  0  0  0
   19.6067    8.4472    5.1398 O   0  0  0  0  0  0  0  0  0  0  0  0
   21.2989    7.7752    8.8437 C   0  0  2  0  0  0  0  0  0  0  0  0
   21.3154    6.5786    7.9884 O   0  0  0  0  0  0  0  0  0  0  0  0
   21.6053    3.3507    9.9435 C   0  0  0  0  0  0  0  0  0  0  0  0
   20.5290    2.5765    9.4218 N   0  0  0  0  0  0  0  0  0  0  0  0
   17.8460    9.4858    3.8804 C   0  0  0  0  0  0  0  0  0  0  0  0
   17.8253    8.4538    2.9626 O   0  0  0  0  0  0  0  0  0  0  0  0
   20.7036    7.4259   10.2788 C   0  0  1  0  0  0  0  0  0  0  0  0
   21.6377    6.6697   11.0641 O   0  0  0  0  0  0  0  0  0  0  0  0
  1  2  1  1  0  0  0
  1  6  1  0  0  0  0
  1 23  1  0  0  0  0
  3  4  1  1  0  0  0
  3  8  1  0  0  0  0
  3 30  1  0  0  0  0
  5  9  1  0  0  0  0
  5 21  1  0  0  0  0
  5 25  1  1  0  0  0
  6  7  1  1  0  0  0
  6 11  1  0  0  0  0
  8 13  1  0  0  0  0
  9 10  1  6  0  0  0
  9 15  1  0  0  0  0
 11 12  1  6  0  0  0
 11 17  1  0  0  0  0
 13 14  1  6  0  0  0
 13 19  1  0  0  0  0
 15 16  1  6  0  0  0
 15 20  1  0  0  0  0
 17 18  1  1  0  0  0
 17 22  1  0  0  0  0
 19  2  1  6  0  0  0
 19 24  1  0  0  0  0
 20 21  1  0  0  0  0
 20 26  1  1  0  0  0
 22 23  1  0  0  0  0
 22 28  1  6  0  0  0
 24 25  1  6  0  0  0
 24 30  1  0  0  0  0
 26 27  1  0  0  0  0
 28 29  1  0  0  0  0
 30 31  1  1  0  0  0
M  END
>  <CHROM.1>
-163.45124545,27.27514268,-155.37897733,178.63690754,61.72823987,147.64804571
21.18671365,7.72145236,7.37690084,-2.05268442,-0.89428878,1.87891117

>  <Name>
2o3x_lig

>  <RI>
224

>  <Rbt.Current_Directory>
/home/itssahil/PROJECTS/Mol_Feturizer/New_Systems/rnas/2o3x

>  <Rbt.Executable>
rbdock ($Id: //depot/dev/client3/rdock/2013.1/src/exe/rbdock.cxx#4 $)

>  <Rbt.Library>
libRbt.so (2013.1, Build901 2013/11/27)

>  <Rbt.Parameter_File>
/export/apps/rDock/src/rDock_2013.1_src/data/scripts/dock_solv.prm

>  <Rbt.Receptor>
prm/blind_docking_100.prm

>  <SCORE>
4.14718

>  <SCORE.INTER>
-2.96752

>  <SCORE.INTER.CONST>
1

>  <SCORE.INTER.POLAR>
-0.00840934

>  <SCORE.INTER.ROT>
6

>  <SCORE.INTER.SOLV>
17.656

>  <SCORE.INTER.VDW>
-15.4357

>  <SCORE.INTER.norm>
-0.0957263

>  <SCORE.INTRA>
2.77045

>  <SCORE.INTRA.DIHEDRAL>
2.80204

>  <SCORE.INTRA.DIHEDRAL.0>
9.37739

>  <SCORE.INTRA.POLAR>
0

>  <SCORE.INTRA.POLAR.0>
0

>  <SCORE.INTRA.REPUL>
0

>  <SCORE.INTRA.REPUL.0>
0

>  <SCORE.INTRA.SOLV>
-0.858513

>  <SCORE.INTRA.SOLV.lig_0>
-82.9274

>  <SCORE.INTRA.VDW>
1.79869

>  <SCORE.INTRA.VDW.0>
-3.84922

>  <SCORE.INTRA.norm>
0.0893694

>  <SCORE.RESTR>
4.34424

>  <SCORE.RESTR.CAVITY>
4.34424

>  <SCORE.RESTR.norm>
0.140137

>  <SCORE.SYSTEM>
0

>  <SCORE.SYSTEM.CONST>
0

>  <SCORE.SYSTEM.DIHEDRAL>
0

>  <SCORE.SYSTEM.SOLV>
0

>  <SCORE.SYSTEM.norm>
0

>  <SCORE.heavy>
31

>  <SCORE.norm>
0.13378

>  <RMSD>
4.742

$$$$
2o3x_lig
 OpenBabel11021811463D
libRbt.so/2013.1/901 2013/11/27
 31 33  0  0  0  0  0  0  0  0999 V2000
   19.7450    9.7100    4.9595 C   0  0  2  0  0  0  0  0  0  0  0  0
   19.8865   10.1611    6.3131 O   0  0  0  0  0  0  0  0  0  0  0  0
   17.4341    9.2733    9.7036 C   0  0  2  0  0  0  0  0  0  0  0  0
   16.7531    8.5827   10.8211 N   0  0  0  0  0  0  0  0  0  0  0  0
   21.4639    7.9182    8.6602 C   0  0  1  0  0  0  0  0  0  0  0  0
   20.9006    8.7058    4.6517 C   0  0  2  0  0  0  0  0  0  0  0  0
   21.0469    7.6786    5.7143 N   0  0  0  0  0  0  0  0  0  0  0  0
   16.9718    8.7336    8.3092 C   0  0  0  0  0  0  0  0  0  0  0  0
   22.9901    7.6008    8.5334 C   0  0  2  0  0  0  0  0  0  0  0  0
   23.5194    7.5449    7.1802 O   0  0  0  0  0  0  0  0  0  0  0  0
   22.2531    9.4266    4.4964 C   0  0  1  0  0  0  0  0  0  0  0  0
   23.2674    8.5107    4.1700 O   0  0  0  0  0  0  0  0  0  0  0  0
   17.7248    9.5460    7.1933 C   0  0  2  0  0  0  0  0  0  0  0  0
   17.3228    9.1023    5.8248 N   0  0  0  0  0  0  0  0  0  0  0  0
   23.0083    6.2969    9.3135 C   0  0  2  0  0  0  0  0  0  0  0  0
   22.5282    5.1804    8.4885 O   0  0  0  0  0  0  0  0  0  0  0  0
   22.1414   10.5011    3.4279 C   0  0  2  0  0  0  0  0  0  0  0  0
   23.3681   11.1381    3.2696 O   0  0  0  0  0  0  0  0  0  0  0  0
   19.2637    9.3713    7.3362 C   0  0  2  0  0  0  0  0  0  0  0  0
   22.0739    6.5452   10.4918 C   0  0  2  0  0  0  0  0  0  0  0  0
   21.0175    7.2516    9.8474 O   0  0  0  0  0  0  0  0  0  0  0  0
   21.0477   11.5324    3.8255 C   0  0  2  0  0  0  0  0  0  0  0  0
   19.7838   10.8567    4.0016 O   0  0  0  0  0  0  0  0  0  0  0  0
   19.7989    9.7908    8.7196 C   0  0  2  0  0  0  0  0  0  0  0  0
   21.1941    9.3258    8.7504 O   0  0  0  0  0  0  0  0  0  0  0  0
   22.6860    7.4040   11.6499 C   0  0  0  0  0  0  0  0  0  0  0  0
   21.7938    7.4351   12.7602 N   0  0  0  0  0  0  0  0  0  0  0  0
   20.8747   12.6196    2.7904 C   0  0  0  0  0  0  0  0  0  0  0  0
   20.3773   12.1168    1.6040 O   0  0  0  0  0  0  0  0  0  0  0  0
   18.9532    9.0917    9.8737 C   0  0  1  0  0  0  0  0  0  0  0  0
   19.2820    9.6290   11.1638 O   0  0  0  0  0  0  0  0  0  0  0  0
  1  2  1  1  0  0  0
  1  6  1  0  0  0  0
  1 23  1  0  0  0  0
  3  4  1  1  0  0  0
  3  8  1  0  0  0  0
  3 30  1  0  0  0  0
  5  9  1  0  0  0  0
  5 21  1  0  0  0  0
  5 25  1  1  0  0  0
  6  7  1  1  0  0  0
  6 11  1  0  0  0  0
  8 13  1  0  0  0  0
  9 10  1  6  0  0  0
  9 15  1  0  0  0  0
 11 12  1  6  0  0  0
 11 17  1  0  0  0  0
 13 14  1  6  0  0  0
 13 19  1  0  0  0  0
 15 16  1  6  0  0  0
 15 20  1  0  0  0  0
 17 18  1  1  0  0  0
 17 22  1  0  0  0  0
 19  2  1  6  0  0  0
 19 24  1  0  0  0  0
 20 21  1  0  0  0  0
 20 26  1  1  0  0  0
 22 23  1  0  0  0  0
 22 28  1  6  0  0  0
 24 25  1  6  0  0  0
 24 30  1  0  0  0  0
 26 27  1  0  0  0  0
 28 29  1  0  0  0  0
 30 31  1  1  0  0  0
M  END
>  <CHROM.1>
-87.52857306,173.07678496,-70.20085868,-172.91668831,66.07810582,-62.79184503
20.69580775,8.99606783,7.18706343,1.50656909,0.38522354,-1.12452071

>  <Name>
2o3x_lig

>  <RI>
2.78316e+07

>  <Rbt.Current_Directory>
/home/itssahil/PROJECTS/Mol_Feturizer/New_Systems/rnas/2o3x

>  <Rbt.Executable>
rbdock ($Id: //depot/dev/client3/rdock/2013.1/src/exe/rbdock.cxx#4 $)

>  <Rbt.Library>
libRbt.so (2013.1, Build901 2013/11/27)

>  <Rbt.Parameter_File>
/export/apps/rDock/src/rDock_2013.1_src/data/scripts/dock_solv.prm

>  <Rbt.Receptor>
prm/pocket_docking_7.prm

>  <SCORE>
-12.6873

>  <SCORE.INTER>
-14.2712

>  <SCORE.INTER.CONST>
1

>  <SCORE.INTER.POLAR>
-0.966834

>  <SCORE.INTER.ROT>
6

>  <SCORE.INTER.SOLV>
13.0572

>  <SCORE.INTER.VDW>
-18.2437

>  <SCORE.INTER.norm>
-0.460361

>  <SCORE.INTRA>
1.58389

>  <SCORE.INTRA.DIHEDRAL>
-5.00376

>  <SCORE.INTRA.DIHEDRAL.0>
9.37739

>  <SCORE.INTRA.POLAR>
0

>  <SCORE.INTRA.POLAR.0>
0

>  <SCORE.INTRA.REPUL>
0

>  <SCORE.INTRA.REPUL.0>
0

>  <SCORE.INTRA.SOLV>
4.91703

>  <SCORE.INTRA.SOLV.lig_0>
-82.9274

>  <SCORE.INTRA.VDW>
1.62726

>  <SCORE.INTRA.VDW.0>
-3.84922

>  <SCORE.INTRA.norm>
0.0510932

>  <SCORE.RESTR>
0

>  <SCORE.RESTR.CAVITY>
0

>  <SCORE.RESTR.norm>
0

>  <SCORE.SYSTEM>
0

>  <SCORE.SYSTEM.CONST>
0

>  <SCORE.SYSTEM.DIHEDRAL>
0

>  <SCORE.SYSTEM.SOLV>
0

>  <SCORE.SYSTEM.norm>
0

>  <SCORE.heavy>
31

>  <SCORE.norm>
-0.409268

>  <RMSD>
4.756

$$$$
2o3x_lig
 OpenBabel11021811463D
libRbt.so/2013.1/901 2013/11/27
 31 33  0  0  0  0  0  0  0  0999 V2000
   22.4458    6.4019    6.5243 C   0  0  2  0  0  0  0  0  0  0  0  0
   23.4923    6.3969    7.5043 O   0  0  0  0  0  0  0  0  0  0  0  0
   21.8488    3.2062    9.8315 C   0  0  2  0  0  0  0  0  0  0  0  0
   21.6146    2.1881   10.8794 N   0  0  0  0  0  0  0  0  0  0  0  0
   23.2467    6.8842   11.4633 C   0  0  1  0  0  0  0  0  0  0  0  0
   23.0720    6.7504    5.1369 C   0  0  2  0  0  0  0  0  0  0  0  0
   24.2859    5.9435    4.8524 N   0  0  0  0  0  0  0  0  0  0  0  0
   23.1440    2.9116    9.0039 C   0  0  0  0  0  0  0  0  0  0  0  0
   23.9324    8.2159   11.9133 C   0  0  2  0  0  0  0  0  0  0  0  0
   25.3144    8.3936   11.4976 O   0  0  0  0  0  0  0  0  0  0  0  0
   23.4572    8.2390    5.0454 C   0  0  1  0  0  0  0  0  0  0  0  0
   23.9707    8.5401    3.7726 O   0  0  0  0  0  0  0  0  0  0  0  0
   23.2880    4.0252    7.9032 C   0  0  2  0  0  0  0  0  0  0  0  0
   24.4963    3.8046    7.0531 N   0  0  0  0  0  0  0  0  0  0  0  0
   23.6942    8.0906   13.4088 C   0  0  2  0  0  0  0  0  0  0  0  0
   24.6660    7.1769   14.0242 O   0  0  0  0  0  0  0  0  0  0  0  0
   22.2437    9.1019    5.3483 C   0  0  2  0  0  0  0  0  0  0  0  0
   22.5836   10.4470    5.2437 O   0  0  0  0  0  0  0  0  0  0  0  0
   23.3974    5.4306    8.5605 C   0  0  2  0  0  0  0  0  0  0  0  0
   22.2782    7.5386   13.5239 C   0  0  2  0  0  0  0  0  0  0  0  0
   22.2863    6.5697   12.4791 O   0  0  0  0  0  0  0  0  0  0  0  0
   21.7152    8.7906    6.7770 C   0  0  2  0  0  0  0  0  0  0  0  0
   21.3808    7.3895    6.8768 O   0  0  0  0  0  0  0  0  0  0  0  0
   22.2037    5.7703    9.4749 C   0  0  2  0  0  0  0  0  0  0  0  0
   22.5996    6.9955   10.1863 O   0  0  0  0  0  0  0  0  0  0  0  0
   21.1396    8.5892   13.2934 C   0  0  0  0  0  0  0  0  0  0  0  0
   21.0772    9.4924   14.3935 N   0  0  0  0  0  0  0  0  0  0  0  0
   20.4933    9.6059    7.1317 C   0  0  0  0  0  0  0  0  0  0  0  0
   19.7290    9.8869    6.0161 O   0  0  0  0  0  0  0  0  0  0  0  0
   21.9448    4.5859   10.5073 C   0  0  1  0  0  0  0  0  0  0  0  0
   20.7132    4.7723   11.2212 O   0  0  0  0  0  0  0  0  0  0  0  0
  1  2  1  1  0  0  0
  1  6  1  0  0  0  0
  1 23  1  0  0  0  0
  3  4  1  1  0  0  0
  3  8  1  0  0  0  0
  3 30  1  0  0  0  0
  5  9  1  0  0  0  0
  5 21  1  0  0  0  0
  5 25  1  6  0  0  0
  6  7  1  1  0  0  0
  6 11  1  0  0  0  0
  8 13  1  0  0  0  0
  9 10  1  1  0  0  0
  9 15  1  0  0  0  0
 11 12  1  6  0  0  0
 11 17  1  0  0  0  0
 13 14  1  1  0  0  0
 13 19  1  0  0  0  0
 15 16  1  6  0  0  0
 15 20  1  0  0  0  0
 17 18  1  1  0  0  0
 17 22  1  0  0  0  0
 19  2  1  6  0  0  0
 19 24  1  0  0  0  0
 20 21  1  0  0  0  0
 20 26  1  6  0  0  0
 22 23  1  0  0  0  0
 22 28  1  6  0  0  0
 24 25  1  1  0  0  0
 24 30  1  0  0  0  0
 26 27  1  0  0  0  0
 28 29  1  0  0  0  0
 30 31  1  6  0  0  0
M  END
>  <CHROM.1>
-144.45998032,164.96003909,55.90637168,-71.14937328,31.13851679,-92.30916925
22.63461059,6.88613755,9.05486137,-1.55932657,-1.42135769,1.73600023

>  <Name>
2o3x_lig

>  <RI>
0

>  <Rbt.Current_Directory>
/home/itssahil/PROJECTS/Mol_Feturizer/New_Systems/rnas/2o3x

>  <Rbt.Executable>
rbdock ($Id: //depot/dev/client3/rdock/2013.1/src/exe/rbdock.cxx#4 $)

>  <Rbt.Library>
libRbt.so (2013.1, Build901 2013/11/27)

>  <Rbt.Parameter_File>
/export/apps/rDock/src/rDock_2013.1_src/data/scripts/dock_solv.prm

>  <Rbt.Receptor>
prm/blind_docking_40.prm

>  <SCORE>
5.42311

>  <SCORE.INTER>
-5.73949

>  <SCORE.INTER.CONST>
1

>  <SCORE.INTER.POLAR>
0

>  <SCORE.INTER.ROT>
6

>  <SCORE.INTER.SOLV>
22.4628

>  <SCORE.INTER.VDW>
-18.9139

>  <SCORE.INTER.norm>
-0.185145

>  <SCORE.INTRA>
4.9999

>  <SCORE.INTRA.DIHEDRAL>
3.50571

>  <SCORE.INTRA.DIHEDRAL.0>
9.37739

>  <SCORE.INTRA.POLAR>
0

>  <SCORE.INTRA.POLAR.0>
0

>  <SCORE.INTRA.REPUL>
0

>  <SCORE.INTRA.REPUL.0>
0

>  <SCORE.INTRA.SOLV>
0.494363

>  <SCORE.INTRA.SOLV.lig_0>
-82.9274

>  <SCORE.INTRA.VDW>
2.99986

>  <SCORE.INTRA.VDW.0>
-3.84922

>  <SCORE.INTRA.norm>
0.161287

>  <SCORE.RESTR>
6.1627

>  <SCORE.RESTR.CAVITY>
6.1627

>  <SCORE.RESTR.norm>
0.198797

>  <SCORE.SYSTEM>
0

>  <SCORE.SYSTEM.CONST>
0

>  <SCORE.SYSTEM.DIHEDRAL>
0

>  <SCORE.SYSTEM.SOLV>
0

>  <SCORE.SYSTEM.norm>
0

>  <SCORE.heavy>
31

>  <SCORE.norm>
0.174939

>  <RMSD>
4.794

$$$$
2o3x_lig
 OpenBabel11021811463D
libRbt.so/2013.1/901 2013/11/27
 31 33  0  0  0  0  0  0  0  0999 V2000
   18.7741    9.7171    6.9226 C   0  0  2  0  0  0  0  0  0  0  0  0
   19.6600    8.6789    7.3616 O   0  0  0  0  0  0  0  0  0  0  0  0
   20.3520    6.9428   11.2094 C   0  0  2  0  0  0  0  0  0  0  0  0
   20.1778    6.2628   12.5119 N   0  0  0  0  0  0  0  0  0  0  0  0
   19.6815    4.5413    7.2901 C   0  0  1  0  0  0  0  0  0  0  0  0
   17.5096    9.0518    6.2926 C   0  0  2  0  0  0  0  0  0  0  0  0
   16.9507    7.9817    7.1577 N   0  0  0  0  0  0  0  0  0  0  0  0
   19.5928    8.3103   11.1534 C   0  0  0  0  0  0  0  0  0  0  0  0
   18.7468    3.8339    6.2546 C   0  0  2  0  0  0  0  0  0  0  0  0
   17.6803    3.0177    6.8118 O   0  0  0  0  0  0  0  0  0  0  0  0
   17.8182    8.4375    4.9142 C   0  0  1  0  0  0  0  0  0  0  0  0
   16.6561    7.8902    4.3448 O   0  0  0  0  0  0  0  0  0  0  0  0
   19.8628    8.9654    9.7497 C   0  0  2  0  0  0  0  0  0  0  0  0
   19.1849   10.2903    9.6221 N   0  0  0  0  0  0  0  0  0  0  0  0
   19.8141    3.0934    5.4661 C   0  0  2  0  0  0  0  0  0  0  0  0
   20.2449    1.8789    6.1711 O   0  0  0  0  0  0  0  0  0  0  0  0
   18.4103    9.4981    4.0014 C   0  0  2  0  0  0  0  0  0  0  0  0
   18.6686    8.9513    2.7484 O   0  0  0  0  0  0  0  0  0  0  0  0
   19.3538    8.0390    8.6087 C   0  0  2  0  0  0  0  0  0  0  0  0
   20.9606    4.0907    5.3477 C   0  0  2  0  0  0  0  0  0  0  0  0
   20.9636    4.6472    6.6594 O   0  0  0  0  0  0  0  0  0  0  0  0
   19.7199   10.0610    4.6224 C   0  0  2  0  0  0  0  0  0  0  0  0
   19.4412   10.6113    5.9279 O   0  0  0  0  0  0  0  0  0  0  0  0
   19.9799    6.6307    8.6419 C   0  0  2  0  0  0  0  0  0  0  0  0
   19.2067    5.8421    7.6703 O   0  0  0  0  0  0  0  0  0  0  0  0
   20.7521    5.2113    4.2733 C   0  0  0  0  0  0  0  0  0  0  0  0
   21.8637    6.1024    4.2738 N   0  0  0  0  0  0  0  0  0  0  0  0
   20.3489   11.1371    3.7682 C   0  0  0  0  0  0  0  0  0  0  0  0
   21.1654   11.9648    4.5139 O   0  0  0  0  0  0  0  0  0  0  0  0
   19.8487    6.0027   10.0993 C   0  0  1  0  0  0  0  0  0  0  0  0
   20.6111    4.7921   10.2192 O   0  0  0  0  0  0  0  0  0  0  0  0
  1  2  1  6  0  0  0
  1  6  1  0  0  0  0
  1 23  1  0  0  0  0
  3  4  1  1  0  0  0
  3  8  1  0  0  0  0
  3 30  1  0  0  0  0
  5  9  1  0  0  0  0
  5 21  1  0  0  0  0
  5 25  1  6  0  0  0
  6  7  1  1  0  0  0
  6 11  1  0  0  0  0
  8 13  1  0  0  0  0
  9 10  1  1  0  0  0
  9 15  1  0  0  0  0
 11 12  1  6  0  0  0
 11 17  1  0  0  0  0
 13 14  1  1  0  0  0
 13 19  1  0  0  0  0
 15 16  1  1  0  0  0
 15 20  1  0  0  0  0
 17 18  1  6  0  0  0
 17 22  1  0  0  0  0
 19  2  1  6  0  0  0
 19 24  1  0  0  0  0
 20 21  1  0  0  0  0
 20 26  1  6  0  0  0
 22 23  1  0  0  0  0
 22 28  1  6  0  0  0
 24 25  1  6  0  0  0
 24 30  1  0  0  0  0
 26 27  1  0  0  0  0
 28 29  1  0  0  0  0
 30 31  1  6  0  0  0
M  END
>  <CHROM.1>
-79.32156759,179.87158945,-80.31782505,178.47540955,156.81316036,169.38221186
19.48592229,7.16449778,6.88642996,-3.02125404,1.46834187,-2.27961168

>  <Name>
2o3x_lig

>  <RI>
3.34184e+07

>  <Rbt.Current_Directory>
/home/itssahil/PROJECTS/Mol_Feturizer/New_Systems/rnas/2o3x

>  <Rbt.Executable>
rbdock ($Id: //depot/dev/client3/rdock/2013.1/src/exe/rbdock.cxx#4 $)

>  <Rbt.Library>
libRbt.so (2013.1, Build901 2013/11/27)

>  <Rbt.Parameter_File>
/export/apps/rDock/src/rDock_2013.1_src/data/scripts/dock_solv.prm

>  <Rbt.Receptor>
prm/pocket_docking_6.prm

>  <SCORE>
-11.5787

>  <SCORE.INTER>
-11.584

>  <SCORE.INTER.CONST>
1

>  <SCORE.INTER.POLAR>
-1.51339

>  <SCORE.INTER.ROT>
6

>  <SCORE.INTER.SOLV>
8.65767

>  <SCORE.INTER.VDW>
-13.1639

>  <SCORE.INTER.norm>
-0.373678

>  <SCORE.INTRA>
0.00447415

>  <SCORE.INTRA.DIHEDRAL>
-3.41872

>  <SCORE.INTRA.DIHEDRAL.0>
9.37739

>  <SCORE.INTRA.POLAR>
0

>  <SCORE.INTRA.POLAR.0>
0

>  <SCORE.INTRA.REPUL>
0

>  <SCORE.INTRA.REPUL.0>
0

>  <SCORE.INTRA.SOLV>
0.973119

>  <SCORE.INTRA.SOLV.lig_0>
-82.9274

>  <SCORE.INTRA.VDW>
1.22728

>  <SCORE.INTRA.VDW.0>
-3.84922

>  <SCORE.INTRA.norm>
0.000144328

>  <SCORE.RESTR>
0.000812508

>  <SCORE.RESTR.CAVITY>
0.000812508

>  <SCORE.RESTR.norm>
2.62099e-05

>  <SCORE.SYSTEM>
0

>  <SCORE.SYSTEM.CONST>
0

>  <SCORE.SYSTEM.DIHEDRAL>
0

>  <SCORE.SYSTEM.SOLV>
0

>  <SCORE.SYSTEM.norm>
0

>  <SCORE.heavy>
31

>  <SCORE.norm>
-0.373507

>  <RMSD>
4.806

$$$$
2o3x_lig
 OpenBabel11021811463D
libRbt.so/2013.1/901 2013/11/27
 31 33  0  0  0  0  0  0  0  0999 V2000
   19.1452    9.9408    6.7216 C   0  0  2  0  0  0  0  0  0  0  0  0
   19.8090    8.7339    7.1196 O   0  0  0  0  0  0  0  0  0  0  0  0
   19.1381    6.4103   10.6479 C   0  0  2  0  0  0  0  0  0  0  0  0
   18.5490    5.5111   11.6646 N   0  0  0  0  0  0  0  0  0  0  0  0
   20.7304    5.5428    6.0031 C   0  0  1  0  0  0  0  0  0  0  0  0
   17.8635    9.5555    5.9171 C   0  0  2  0  0  0  0  0  0  0  0  0
   17.0593    8.5167    6.6099 N   0  0  0  0  0  0  0  0  0  0  0  0
   18.3073    7.7250   10.4730 C   0  0  0  0  0  0  0  0  0  0  0  0
   21.5520    6.8042    5.5785 C   0  0  2  0  0  0  0  0  0  0  0  0
   21.1323    7.4536    4.3471 O   0  0  0  0  0  0  0  0  0  0  0  0
   18.2116    9.0298    4.5117 C   0  0  1  0  0  0  0  0  0  0  0  0
   17.0426    8.7379    3.7888 O   0  0  0  0  0  0  0  0  0  0  0  0
   19.0264    8.6219    9.4002 C   0  0  2  0  0  0  0  0  0  0  0  0
   18.3027    9.9113    9.1877 N   0  0  0  0  0  0  0  0  0  0  0  0
   22.9334    6.1714    5.5644 C   0  0  2  0  0  0  0  0  0  0  0  0
   23.1488    5.3998    4.3332 O   0  0  0  0  0  0  0  0  0  0  0  0
   19.0518   10.0583    3.7734 C   0  0  2  0  0  0  0  0  0  0  0  0
   19.3482    9.5955    2.4953 O   0  0  0  0  0  0  0  0  0  0  0  0
   19.1163    7.8766    8.0381 C   0  0  2  0  0  0  0  0  0  0  0  0
   22.9481    5.2619    6.7874 C   0  0  2  0  0  0  0  0  0  0  0  0
   21.6430    4.6950    6.7111 O   0  0  0  0  0  0  0  0  0  0  0  0
   20.3629   10.3363    4.5618 C   0  0  2  0  0  0  0  0  0  0  0  0
   20.0415   10.8010    5.8906 O   0  0  0  0  0  0  0  0  0  0  0  0
   19.8394    6.5184    8.1330 C   0  0  2  0  0  0  0  0  0  0  0  0
   19.6058    5.8658    6.8356 O   0  0  0  0  0  0  0  0  0  0  0  0
   23.1508    5.9982    8.1549 C   0  0  0  0  0  0  0  0  0  0  0  0
   24.4443    6.5937    8.2029 N   0  0  0  0  0  0  0  0  0  0  0  0
   21.2357   11.3684    3.8864 C   0  0  0  0  0  0  0  0  0  0  0  0
   20.6603   12.6236    3.9248 O   0  0  0  0  0  0  0  0  0  0  0  0
   19.2228    5.6464    9.3142 C   0  0  1  0  0  0  0  0  0  0  0  0
   20.0133    4.4754    9.5692 O   0  0  0  0  0  0  0  0  0  0  0  0
  1  2  1  6  0  0  0
  1  6  1  0  0  0  0
  1 23  1  0  0  0  0
  3  4  1  1  0  0  0
  3  8  1  0  0  0  0
  3 30  1  0  0  0  0
  5  9  1  0  0  0  0
  5 21  1  0  0  0  0
  5 25  1  1  0  0  0
  6  7  1  1  0  0  0
  6 11  1  0  0  0  0
  8 13  1  0  0  0  0
  9 10  1  6  0  0  0
  9 15  1  0  0  0  0
 11 12  1  6  0  0  0
 11 17  1  0  0  0  0
 13 14  1  6  0  0  0
 13 19  1  0  0  0  0
 15 16  1  6  0  0  0
 15 20  1  0  0  0  0
 17 18  1  6  0  0  0
 17 22  1  0  0  0  0
 19  2  1  6  0  0  0
 19 24  1  0  0  0  0
 20 21  1  0  0  0  0
 20 26  1  1  0  0  0
 22 23  1  0  0  0  0
 22 28  1  6  0  0  0
 24 25  1  6  0  0  0
 24 30  1  0  0  0  0
 26 27  1  0  0  0  0
 28 29  1  0  0  0  0
 30 31  1  1  0  0  0
M  END
>  <CHROM.1>
-64.89145700,-61.00601002,-67.44532354,-65.12743545,68.47059076,118.49611054
20.09696384,7.80437231,6.65750133,1.74120099,0.66912120,-0.93147441

>  <Name>
2o3x_lig

>  <RI>
0

>  <Rbt.Current_Directory>
/home/itssahil/PROJECTS/Mol_Feturizer/New_Systems/rnas/2o3x

>  <Rbt.Executable>
rbdock ($Id: //depot/dev/client3/rdock/2013.1/src/exe/rbdock.cxx#4 $)

>  <Rbt.Library>
libRbt.so (2013.1, Build901 2013/11/27)

>  <Rbt.Parameter_File>
/export/apps/rDock/src/rDock_2013.1_src/data/scripts/dock_solv.prm

>  <Rbt.Receptor>
prm/pocket_docking_3.prm

>  <SCORE>
-2.50126

>  <SCORE.INTER>
-5.89385

>  <SCORE.INTER.CONST>
1

>  <SCORE.INTER.POLAR>
-0.894427

>  <SCORE.INTER.ROT>
6

>  <SCORE.INTER.SOLV>
11.2459

>  <SCORE.INTER.VDW>
-12.2964

>  <SCORE.INTER.norm>
-0.190124

>  <SCORE.INTRA>
3.36378

>  <SCORE.INTRA.DIHEDRAL>
-1.26007

>  <SCORE.INTRA.DIHEDRAL.0>
9.37739

>  <SCORE.INTRA.POLAR>
0

>  <SCORE.INTRA.POLAR.0>
0

>  <SCORE.INTRA.REPUL>
0

>  <SCORE.INTRA.REPUL.0>
0

>  <SCORE.INTRA.SOLV>
4.62946

>  <SCORE.INTRA.SOLV.lig_0>
-82.9274

>  <SCORE.INTRA.VDW>
1.67908

>  <SCORE.INTRA.VDW.0>
-3.84922

>  <SCORE.INTRA.norm>
0.108509

>  <SCORE.RESTR>
0.0288097

>  <SCORE.RESTR.CAVITY>
0.0288097

>  <SCORE.RESTR.norm>
0.000929345

>  <SCORE.SYSTEM>
0

>  <SCORE.SYSTEM.CONST>
0

>  <SCORE.SYSTEM.DIHEDRAL>
0

>  <SCORE.SYSTEM.SOLV>
0

>  <SCORE.SYSTEM.norm>
0

>  <SCORE.heavy>
31

>  <SCORE.norm>
-0.0806858

>  <RMSD>
4.854

$$$$
2o3x_lig
 OpenBabel11021811463D
libRbt.so/2013.1/901 2013/11/27
 31 33  0  0  0  0  0  0  0  0999 V2000
   18.6549    9.8507    7.6867 C   0  0  2  0  0  0  0  0  0  0  0  0
   19.2329    8.6326    7.1993 O   0  0  0  0  0  0  0  0  0  0  0  0
   22.8100    7.7923    5.0092 C   0  0  2  0  0  0  0  0  0  0  0  0
   24.2218    7.7112    4.5737 N   0  0  0  0  0  0  0  0  0  0  0  0
   21.5772    5.6512    8.9162 C   0  0  1  0  0  0  0  0  0  0  0  0
   18.8722    9.9152    9.2317 C   0  0  2  0  0  0  0  0  0  0  0  0
   20.2752    9.6113    9.6126 N   0  0  0  0  0  0  0  0  0  0  0  0
   22.2710    9.2614    4.9874 C   0  0  0  0  0  0  0  0  0  0  0  0
   21.6461    5.5543   10.4757 C   0  0  2  0  0  0  0  0  0  0  0  0
   22.9387    5.8430   11.0760 O   0  0  0  0  0  0  0  0  0  0  0  0
   17.9522    8.9294    9.9763 C   0  0  1  0  0  0  0  0  0  0  0  0
   18.1284    9.0410   11.3659 O   0  0  0  0  0  0  0  0  0  0  0  0
   20.7636    9.2388    5.4341 C   0  0  2  0  0  0  0  0  0  0  0  0
   20.1662   10.6078    5.4218 N   0  0  0  0  0  0  0  0  0  0  0  0
   21.1399    4.1298   10.6294 C   0  0  2  0  0  0  0  0  0  0  0  0
   22.2039    3.1573   10.3466 O   0  0  0  0  0  0  0  0  0  0  0  0
   16.5044    9.1954    9.5998 C   0  0  2  0  0  0  0  0  0  0  0  0
   15.6696    8.3211   10.2887 O   0  0  0  0  0  0  0  0  0  0  0  0
   20.6291    8.6550    6.8695 C   0  0  2  0  0  0  0  0  0  0  0  0
   20.0115    4.0148    9.6113 C   0  0  2  0  0  0  0  0  0  0  0  0
   20.5832    4.7052    8.5037 O   0  0  0  0  0  0  0  0  0  0  0  0
   16.3152    9.0227    8.0661 C   0  0  2  0  0  0  0  0  0  0  0  0
   17.1975    9.9240    7.3632 O   0  0  0  0  0  0  0  0  0  0  0  0
   21.2227    7.2393    7.0098 C   0  0  2  0  0  0  0  0  0  0  0  0
   21.2317    6.9666    8.4553 O   0  0  0  0  0  0  0  0  0  0  0  0
   18.6629    4.6846   10.0426 C   0  0  0  0  0  0  0  0  0  0  0  0
   17.6524    4.4176    9.0743 N   0  0  0  0  0  0  0  0  0  0  0  0
   14.8956    9.2933    7.6247 C   0  0  0  0  0  0  0  0  0  0  0  0
   14.7042    8.9600    6.2979 O   0  0  0  0  0  0  0  0  0  0  0  0
   22.7040    7.2017    6.4267 C   0  0  1  0  0  0  0  0  0  0  0  0
   23.2003    5.8572    6.3420 O   0  0  0  0  0  0  0  0  0  0  0  0
  1  2  1  1  0  0  0
  1  6  1  0  0  0  0
  1 23  1  0  0  0  0
  3  4  1  1  0  0  0
  3  8  1  0  0  0  0
  3 30  1  0  0  0  0
  5  9  1  0  0  0  0
  5 21  1  0  0  0  0
  5 25  1  1  0  0  0
  6  7  1  6  0  0  0
  6 11  1  0  0  0  0
  8 13  1  0  0  0  0
  9 10  1  6  0  0  0
  9 15  1  0  0  0  0
 11 12  1  1  0  0  0
 11 17  1  0  0  0  0
 13 14  1  1  0  0  0
 13 19  1  0  0  0  0
 15 16  1  6  0  0  0
 15 20  1  0  0  0  0
 17 18  1  1  0  0  0
 17 22  1  0  0  0  0
 19  2  1  6  0  0  0
 19 24  1  0  0  0  0
 20 21  1  0  0  0  0
 20 26  1  1  0  0  0
 22 23  1  0  0  0  0
 22 28  1  1  0  0  0
 24 25  1  1  0  0  0
 24 30  1  0  0  0  0
 26 27  1  0  0  0  0
 28 29  1  0  0  0  0
 30 31  1  6  0  0  0
M  END
>  <CHROM.1>
-86.41112693,175.62783282,-82.65323499,-174.98283497,-171.78038032,172.37023261
19.78617493,7.50883036,8.20161736,-2.77876933,-0.43039191,2.34594813

>  <Name>
2o3x_lig

>  <RI>
2.78316e+07

>  <Rbt.Current_Directory>
/home/itssahil/PROJECTS/Mol_Feturizer/New_Systems/rnas/2o3x

>  <Rbt.Executable>
rbdock ($Id: //depot/dev/client3/rdock/2013.1/src/exe/rbdock.cxx#4 $)

>  <Rbt.Library>
libRbt.so (2013.1, Build901 2013/11/27)

>  <Rbt.Parameter_File>
/export/apps/rDock/src/rDock_2013.1_src/data/scripts/dock_solv.prm

>  <Rbt.Receptor>
prm/pocket_docking_7.prm

>  <SCORE>
-11.1045

>  <SCORE.INTER>
-10.3764

>  <SCORE.INTER.CONST>
1

>  <SCORE.INTER.POLAR>
-1.58138

>  <SCORE.INTER.ROT>
6

>  <SCORE.INTER.SOLV>
13.4898

>  <SCORE.INTER.VDW>
-13.743

>  <SCORE.INTER.norm>
-0.334724

>  <SCORE.INTRA>
-0.728038

>  <SCORE.INTRA.DIHEDRAL>
-3.3525

>  <SCORE.INTRA.DIHEDRAL.0>
9.37739

>  <SCORE.INTRA.POLAR>
0

>  <SCORE.INTRA.POLAR.0>
0

>  <SCORE.INTRA.REPUL>
0

>  <SCORE.INTRA.REPUL.0>
0

>  <SCORE.INTRA.SOLV>
0.442446

>  <SCORE.INTRA.SOLV.lig_0>
-82.9274

>  <SCORE.INTRA.VDW>
0.726988

>  <SCORE.INTRA.VDW.0>
-3.84922

>  <SCORE.INTRA.norm>
-0.0234851

>  <SCORE.RESTR>
0

>  <SCORE.RESTR.CAVITY>
0

>  <SCORE.RESTR.norm>
0

>  <SCORE.SYSTEM>
0

>  <SCORE.SYSTEM.CONST>
0

>  <SCORE.SYSTEM.DIHEDRAL>
0

>  <SCORE.SYSTEM.SOLV>
0

>  <SCORE.SYSTEM.norm>
0

>  <SCORE.heavy>
31

>  <SCORE.norm>
-0.358209

>  <RMSD>
4.855

$$$$
2o3x_lig
 OpenBabel11021811463D
libRbt.so/2013.1/901 2013/11/27
 31 33  0  0  0  0  0  0  0  0999 V2000
   18.6099    9.9060    7.6653 C   0  0  2  0  0  0  0  0  0  0  0  0
   19.1876    8.6800    7.1975 O   0  0  0  0  0  0  0  0  0  0  0  0
   22.7781    7.8199    5.0372 C   0  0  2  0  0  0  0  0  0  0  0  0
   24.1931    7.7299    4.6141 N   0  0  0  0  0  0  0  0  0  0  0  0
   21.5107    5.6816    8.9281 C   0  0  1  0  0  0  0  0  0  0  0  0
   18.8491   10.0072    9.2050 C   0  0  2  0  0  0  0  0  0  0  0  0
   20.2591    9.7194    9.5722 N   0  0  0  0  0  0  0  0  0  0  0  0
   22.2498    9.2930    5.0145 C   0  0  0  0  0  0  0  0  0  0  0  0
   21.5948    5.5891   10.4871 C   0  0  2  0  0  0  0  0  0  0  0  0
   22.8938    5.8771   11.0737 O   0  0  0  0  0  0  0  0  0  0  0  0
   17.9455    9.0338    9.9854 C   0  0  1  0  0  0  0  0  0  0  0  0
   18.1413    9.1783   11.3693 O   0  0  0  0  0  0  0  0  0  0  0  0
   20.7384    9.2799    5.4478 C   0  0  2  0  0  0  0  0  0  0  0  0
   20.1508   10.6532    5.4338 N   0  0  0  0  0  0  0  0  0  0  0  0
   21.0875    4.1661   10.6499 C   0  0  2  0  0  0  0  0  0  0  0  0
   22.1468    3.1908   10.3594 O   0  0  0  0  0  0  0  0  0  0  0  0
   16.4910    9.2834    9.6240 C   0  0  2  0  0  0  0  0  0  0  0  0
   15.6712    8.4209   10.3449 O   0  0  0  0  0  0  0  0  0  0  0  0
   20.5868    8.6933    6.8803 C   0  0  2  0  0  0  0  0  0  0  0  0
   19.9489    4.0503    9.6434 C   0  0  2  0  0  0  0  0  0  0  0  0
   20.5109    4.7364    8.5282 O   0  0  0  0  0  0  0  0  0  0  0  0
   16.2806    9.0745    8.0977 C   0  0  2  0  0  0  0  0  0  0  0  0
   17.1476    9.9640    7.3615 O   0  0  0  0  0  0  0  0  0  0  0  0
   21.1690    7.2730    7.0220 C   0  0  2  0  0  0  0  0  0  0  0  0
   21.1631    6.9964    8.4668 O   0  0  0  0  0  0  0  0  0  0  0  0
   18.6058    4.7239   10.0860 C   0  0  0  0  0  0  0  0  0  0  0  0
   17.6023    4.5104    9.0974 N   0  0  0  0  0  0  0  0  0  0  0  0
   14.8533    9.3274    7.6709 C   0  0  0  0  0  0  0  0  0  0  0  0
   14.6575    9.0113    6.3406 O   0  0  0  0  0  0  0  0  0  0  0  0
   22.6552    7.2264    6.4521 C   0  0  1  0  0  0  0  0  0  0  0  0
   23.1426    5.8786    6.3681 O   0  0  0  0  0  0  0  0  0  0  0  0
  1  2  1  1  0  0  0
  1  6  1  0  0  0  0
  1 23  1  0  0  0  0
  3  4  1  1  0  0  0
  3  8  1  0  0  0  0
  3 30  1  0  0  0  0
  5  9  1  0  0  0  0
  5 21  1  0  0  0  0
  5 25  1  1  0  0  0
  6  7  1  6  0  0  0
  6 11  1  0  0  0  0
  8 13  1  0  0  0  0
  9 10  1  6  0  0  0
  9 15  1  0  0  0  0
 11 12  1  1  0  0  0
 11 17  1  0  0  0  0
 13 14  1  1  0  0  0
 13 19  1  0  0  0  0
 15 16  1  6  0  0  0
 15 20  1  0  0  0  0
 17 18  1  1  0  0  0
 17 22  1  0  0  0  0
 19  2  1  6  0  0  0
 19 24  1  0  0  0  0
 20 21  1  0  0  0  0
 20 26  1  1  0  0  0
 22 23  1  0  0  0  0
 22 28  1  1  0  0  0
 24 25  1  1  0  0  0
 24 30  1  0  0  0  0
 26 27  1  0  0  0  0
 28 29  1  0  0  0  0
 30 31  1  6  0  0  0
M  END
>  <CHROM.1>
-84.81982075,174.29744983,-81.80195808,-177.76181666,-174.11655937,173.11145955
19.74678220,7.56021517,8.21807770,-2.77053635,-0.43530938,2.35166449

>  <Name>
2o3x_lig

>  <RI>
0

>  <Rbt.Current_Directory>
/home/itssahil/PROJECTS/Mol_Feturizer/New_Systems/rnas/2o3x

>  <Rbt.Executable>
rbdock ($Id: //depot/dev/client3/rdock/2013.1/src/exe/rbdock.cxx#4 $)

>  <Rbt.Library>
libRbt.so (2013.1, Build901 2013/11/27)

>  <Rbt.Parameter_File>
/export/apps/rDock/src/rDock_2013.1_src/data/scripts/dock_solv.prm

>  <Rbt.Receptor>
prm/pocket_docking_5.prm

>  <SCORE>
-11.1853

>  <SCORE.INTER>
-10.3144

>  <SCORE.INTER.CONST>
1

>  <SCORE.INTER.POLAR>
-1.53514

>  <SCORE.INTER.ROT>
6

>  <SCORE.INTER.SOLV>
13.7247

>  <SCORE.INTER.VDW>
-13.934

>  <SCORE.INTER.norm>
-0.332722

>  <SCORE.INTRA>
-0.870939

>  <SCORE.INTRA.DIHEDRAL>
-3.95668

>  <SCORE.INTRA.DIHEDRAL.0>
9.37739

>  <SCORE.INTRA.POLAR>
0

>  <SCORE.INTRA.POLAR.0>
0

>  <SCORE.INTRA.REPUL>
0

>  <SCORE.INTRA.REPUL.0>
0

>  <SCORE.INTRA.SOLV>
0.545031

>  <SCORE.INTRA.SOLV.lig_0>
-82.9274

>  <SCORE.INTRA.VDW>
0.834887

>  <SCORE.INTRA.VDW.0>
-3.84922

>  <SCORE.INTRA.norm>
-0.0280948

>  <SCORE.RESTR>
0

>  <SCORE.RESTR.CAVITY>
0

>  <SCORE.RESTR.norm>
0

>  <SCORE.SYSTEM>
0

>  <SCORE.SYSTEM.CONST>
0

>  <SCORE.SYSTEM.DIHEDRAL>
0

>  <SCORE.SYSTEM.SOLV>
0

>  <SCORE.SYSTEM.norm>
0

>  <SCORE.heavy>
31

>  <SCORE.norm>
-0.360816

>  <RMSD>
4.856

$$$$
2o3x_lig
 OpenBabel11021811463D
libRbt.so/2013.1/901 2013/11/27
 31 33  0  0  0  0  0  0  0  0999 V2000
   19.0618    9.9860    6.7247 C   0  0  2  0  0  0  0  0  0  0  0  0
   20.1745    9.2055    7.1811 O   0  0  0  0  0  0  0  0  0  0  0  0
   20.8530    7.9772   11.2219 C   0  0  2  0  0  0  0  0  0  0  0  0
   20.7955    7.2654   12.5179 N   0  0  0  0  0  0  0  0  0  0  0  0
   22.3414    5.6449    7.5435 C   0  0  1  0  0  0  0  0  0  0  0  0
   17.9394    9.0112    6.2468 C   0  0  2  0  0  0  0  0  0  0  0  0
   17.6740    7.9357    7.2360 N   0  0  0  0  0  0  0  0  0  0  0  0
   19.5179    8.7293   10.9040 C   0  0  0  0  0  0  0  0  0  0  0  0
   22.2219    4.6636    6.3315 C   0  0  2  0  0  0  0  0  0  0  0  0
   21.5241    3.4142    6.5891 O   0  0  0  0  0  0  0  0  0  0  0  0
   18.2984    8.3461    4.9046 C   0  0  1  0  0  0  0  0  0  0  0  0
   17.2535    7.5135    4.4696 O   0  0  0  0  0  0  0  0  0  0  0  0
   19.6887    9.4746    9.5300 C   0  0  2  0  0  0  0  0  0  0  0  0
   18.4578   10.2365    9.1615 N   0  0  0  0  0  0  0  0  0  0  0  0
   23.6995    4.5481    5.9965 C   0  0  2  0  0  0  0  0  0  0  0  0
   24.3773    3.6175    6.9088 O   0  0  0  0  0  0  0  0  0  0  0  0
   18.5957    9.4148    3.8663 C   0  0  2  0  0  0  0  0  0  0  0  0
   18.8978    8.8168    2.6470 O   0  0  0  0  0  0  0  0  0  0  0  0
   19.9987    8.4590    8.3936 C   0  0  2  0  0  0  0  0  0  0  0  0
   24.2393    5.9639    6.1620 C   0  0  2  0  0  0  0  0  0  0  0  0
   23.5634    6.3674    7.3498 O   0  0  0  0  0  0  0  0  0  0  0  0
   19.7838   10.2987    4.3404 C   0  0  2  0  0  0  0  0  0  0  0  0
   19.4638   10.9008    5.6132 O   0  0  0  0  0  0  0  0  0  0  0  0
   21.2508    7.6022    8.6667 C   0  0  2  0  0  0  0  0  0  0  0  0
   21.2351    6.5561    7.6326 O   0  0  0  0  0  0  0  0  0  0  0  0
   23.9088    6.9383    4.9810 C   0  0  0  0  0  0  0  0  0  0  0  0
   24.3676    6.3880    3.7496 N   0  0  0  0  0  0  0  0  0  0  0  0
   20.1168   11.3960    3.3563 C   0  0  0  0  0  0  0  0  0  0  0  0
   21.2666   12.0705    3.7179 O   0  0  0  0  0  0  0  0  0  0  0  0
   21.1686    6.9519   10.1180 C   0  0  1  0  0  0  0  0  0  0  0  0
   22.4102    6.3320   10.4859 O   0  0  0  0  0  0  0  0  0  0  0  0
  1  2  1  6  0  0  0
  1  6  1  0  0  0  0
  1 23  1  0  0  0  0
  3  4  1  1  0  0  0
  3  8  1  0  0  0  0
  3 30  1  0  0  0  0
  5  9  1  0  0  0  0
  5 21  1  0  0  0  0
  5 25  1  6  0  0  0
  6  7  1  1  0  0  0
  6 11  1  0  0  0  0
  8 13  1  0  0  0  0
  9 10  1  1  0  0  0
  9 15  1  0  0  0  0
 11 12  1  6  0  0  0
 11 17  1  0  0  0  0
 13 14  1  6  0  0  0
 13 19  1  0  0  0  0
 15 16  1  1  0  0  0
 15 20  1  0  0  0  0
 17 18  1  6  0  0  0
 17 22  1  0  0  0  0
 19  2  1  6  0  0  0
 19 24  1  0  0  0  0
 20 21  1  0  0  0  0
 20 26  1  6  0  0  0
 22 23  1  0  0  0  0
 22 28  1  6  0  0  0
 24 25  1  6  0  0  0
 24 30  1  0  0  0  0
 26 27  1  0  0  0  0
 28 29  1  0  0  0  0
 30 31  1  1  0  0  0
M  END
>  <CHROM.1>
-69.29409401,-175.80941283,-60.63096502,-55.43184888,-173.03564393,175.02120169
20.79366081,7.79476358,6.88381536,2.47337260,0.80095281,-1.39465184

>  <Name>
2o3x_lig

>  <RI>
0

>  <Rbt.Current_Directory>
/home/itssahil/PROJECTS/Mol_Feturizer/New_Systems/rnas/2o3x

>  <Rbt.Executable>
rbdock ($Id: //depot/dev/client3/rdock/2013.1/src/exe/rbdock.cxx#4 $)

>  <Rbt.Library>
libRbt.so (2013.1, Build901 2013/11/27)

>  <Rbt.Parameter_File>
/export/apps/rDock/src/rDock_2013.1_src/data/scripts/dock_solv.prm

>  <Rbt.Receptor>
prm/pocket_docking_4.prm

>  <SCORE>
-8.68136

>  <SCORE.INTER>
-10.4458

>  <SCORE.INTER.CONST>
1

>  <SCORE.INTER.POLAR>
-0.894427

>  <SCORE.INTER.ROT>
6

>  <SCORE.INTER.SOLV>
9.70239

>  <SCORE.INTER.VDW>
-14.8166

>  <SCORE.INTER.norm>
-0.336962

>  <SCORE.INTRA>
1.76447

>  <SCORE.INTRA.DIHEDRAL>
-8.32647

>  <SCORE.INTRA.DIHEDRAL.0>
9.37739

>  <SCORE.INTRA.POLAR>
0

>  <SCORE.INTRA.POLAR.0>
0

>  <SCORE.INTRA.REPUL>
0

>  <SCORE.INTRA.REPUL.0>
0

>  <SCORE.INTRA.SOLV>
2.85411

>  <SCORE.INTRA.SOLV.lig_0>
-82.9274

>  <SCORE.INTRA.VDW>
4.50065

>  <SCORE.INTRA.VDW.0>
-3.84922

>  <SCORE.INTRA.norm>
0.0569184

>  <SCORE.RESTR>
0

>  <SCORE.RESTR.CAVITY>
0

>  <SCORE.RESTR.norm>
0

>  <SCORE.SYSTEM>
0

>  <SCORE.SYSTEM.CONST>
0

>  <SCORE.SYSTEM.DIHEDRAL>
0

>  <SCORE.SYSTEM.SOLV>
0

>  <SCORE.SYSTEM.norm>
0

>  <SCORE.heavy>
31

>  <SCORE.norm>
-0.280044

>  <RMSD>
4.867

$$$$
2o3x_lig
 OpenBabel11021811463D
libRbt.so/2013.1/901 2013/11/27
 31 33  0  0  0  0  0  0  0  0999 V2000
   22.3906    6.4203    6.5973 C   0  0  2  0  0  0  0  0  0  0  0  0
   23.5026    6.3606    7.5003 O   0  0  0  0  0  0  0  0  0  0  0  0
   21.8882    3.2243    9.9201 C   0  0  2  0  0  0  0  0  0  0  0  0
   21.6721    2.2241   10.9889 N   0  0  0  0  0  0  0  0  0  0  0  0
   23.3024    6.9118   11.4963 C   0  0  1  0  0  0  0  0  0  0  0  0
   22.8997    6.9627    5.2244 C   0  0  2  0  0  0  0  0  0  0  0  0
   24.1284    6.2644    4.7678 N   0  0  0  0  0  0  0  0  0  0  0  0
   23.1550    2.9014    9.0596 C   0  0  0  0  0  0  0  0  0  0  0  0
   23.9698    8.2501   11.9542 C   0  0  2  0  0  0  0  0  0  0  0  0
   25.3638    8.4279   11.5808 O   0  0  0  0  0  0  0  0  0  0  0  0
   23.2048    8.4713    5.2875 C   0  0  1  0  0  0  0  0  0  0  0  0
   23.6120    8.9470    4.0296 O   0  0  0  0  0  0  0  0  0  0  0  0
   23.2807    3.9975    7.9392 C   0  0  2  0  0  0  0  0  0  0  0  0
   24.4608    3.7495    7.0578 N   0  0  0  0  0  0  0  0  0  0  0  0
   23.6845    8.1392   13.4426 C   0  0  2  0  0  0  0  0  0  0  0  0
   24.6387    7.2348   14.0978 O   0  0  0  0  0  0  0  0  0  0  0  0
   21.9752    9.2230    5.7689 C   0  0  2  0  0  0  0  0  0  0  0  0
   22.2411   10.5882    5.8048 O   0  0  0  0  0  0  0  0  0  0  0  0
   23.4266    5.4105    8.5727 C   0  0  2  0  0  0  0  0  0  0  0  0
   22.2671    7.5840   13.5182 C   0  0  2  0  0  0  0  0  0  0  0  0
   22.3111    6.6047   12.4841 O   0  0  0  0  0  0  0  0  0  0  0  0
   21.5644    8.7182    7.1811 C   0  0  2  0  0  0  0  0  0  0  0  0
   21.3064    7.2984    7.1334 O   0  0  0  0  0  0  0  0  0  0  0  0
   22.2644    5.7784    9.5164 C   0  0  2  0  0  0  0  0  0  0  0  0
   22.6960    7.0083   10.1982 O   0  0  0  0  0  0  0  0  0  0  0  0
   21.1335    8.6287   13.2409 C   0  0  0  0  0  0  0  0  0  0  0  0
   20.9660    9.4806   14.3706 N   0  0  0  0  0  0  0  0  0  0  0  0
   20.3325    9.4162    7.7088 C   0  0  0  0  0  0  0  0  0  0  0  0
   20.0389    9.0216    8.9995 O   0  0  0  0  0  0  0  0  0  0  0  0
   22.0210    4.6120   10.5728 C   0  0  1  0  0  0  0  0  0  0  0  0
   20.8132    4.8242   11.3193 O   0  0  0  0  0  0  0  0  0  0  0  0
  1  2  1  1  0  0  0
  1  6  1  0  0  0  0
  1 23  1  0  0  0  0
  3  4  1  1  0  0  0
  3  8  1  0  0  0  0
  3 30  1  0  0  0  0
  5  9  1  0  0  0  0
  5 21  1  0  0  0  0
  5 25  1  6  0  0  0
  6  7  1  1  0  0  0
  6 11  1  0  0  0  0
  8 13  1  0  0  0  0
  9 10  1  1  0  0  0
  9 15  1  0  0  0  0
 11 12  1  6  0  0  0
 11 17  1  0  0  0  0
 13 14  1  1  0  0  0
 13 19  1  0  0  0  0
 15 16  1  1  0  0  0
 15 20  1  0  0  0  0
 17 18  1  1  0  0  0
 17 22  1  0  0  0  0
 19  2  1  6  0  0  0
 19 24  1  0  0  0  0
 20 21  1  0  0  0  0
 20 26  1  6  0  0  0
 22 23  1  0  0  0  0
 22 28  1  6  0  0  0
 24 25  1  1  0  0  0
 24 30  1  0  0  0  0
 26 27  1  0  0  0  0
 28 29  1  0  0  0  0
 30 31  1  6  0  0  0
M  END
>  <CHROM.1>
-154.26991355,168.01954069,59.55141932,-75.46061023,-175.79908573,-96.22261504
22.59550765,6.90094586,9.27723604,-1.42119527,-1.42711234,1.82055661

>  <Name>
2o3x_lig

>  <RI>
0

>  <Rbt.Current_Directory>
/home/itssahil/PROJECTS/Mol_Feturizer/New_Systems/rnas/2o3x

>  <Rbt.Executable>
rbdock ($Id: //depot/dev/client3/rdock/2013.1/src/exe/rbdock.cxx#4 $)

>  <Rbt.Library>
libRbt.so (2013.1, Build901 2013/11/27)

>  <Rbt.Parameter_File>
/export/apps/rDock/src/rDock_2013.1_src/data/scripts/dock_solv.prm

>  <Rbt.Receptor>
prm/blind_docking_40.prm

>  <SCORE>
3.4954

>  <SCORE.INTER>
-5.94276

>  <SCORE.INTER.CONST>
1

>  <SCORE.INTER.POLAR>
-0.210996

>  <SCORE.INTER.ROT>
6

>  <SCORE.INTER.SOLV>
22.6053

>  <SCORE.INTER.VDW>
-18.3936

>  <SCORE.INTER.norm>
-0.191702

>  <SCORE.INTRA>
2.296

>  <SCORE.INTRA.DIHEDRAL>
-0.0833852

>  <SCORE.INTRA.DIHEDRAL.0>
9.37739

>  <SCORE.INTRA.POLAR>
0

>  <SCORE.INTRA.POLAR.0>
0

>  <SCORE.INTRA.REPUL>
0

>  <SCORE.INTRA.REPUL.0>
0

>  <SCORE.INTRA.SOLV>
-0.447203

>  <SCORE.INTRA.SOLV.lig_0>
-82.9274

>  <SCORE.INTRA.VDW>
2.5613

>  <SCORE.INTRA.VDW.0>
-3.84922

>  <SCORE.INTRA.norm>
0.0740646

>  <SCORE.RESTR>
7.14216

>  <SCORE.RESTR.CAVITY>
7.14216

>  <SCORE.RESTR.norm>
0.230392

>  <SCORE.SYSTEM>
0

>  <SCORE.SYSTEM.CONST>
0

>  <SCORE.SYSTEM.DIHEDRAL>
0

>  <SCORE.SYSTEM.SOLV>
0

>  <SCORE.SYSTEM.norm>
0

>  <SCORE.heavy>
31

>  <SCORE.norm>
0.112755

>  <RMSD>
4.896

$$$$
2o3x_lig
 OpenBabel11021811463D
libRbt.so/2013.1/901 2013/11/27
 31 33  0  0  0  0  0  0  0  0999 V2000
   23.0985    7.1435    7.8079 C   0  0  2  0  0  0  0  0  0  0  0  0
   22.5458    5.8577    7.4966 O   0  0  0  0  0  0  0  0  0  0  0  0
   21.0060    2.5869    9.7832 C   0  0  2  0  0  0  0  0  0  0  0  0
   20.7827    1.5719   10.8365 N   0  0  0  0  0  0  0  0  0  0  0  0
   22.2959    6.4315   11.2449 C   0  0  1  0  0  0  0  0  0  0  0  0
   22.0602    8.2371    7.4026 C   0  0  2  0  0  0  0  0  0  0  0  0
   20.6969    7.9274    7.9038 N   0  0  0  0  0  0  0  0  0  0  0  0
   22.3733    2.3826    9.0496 C   0  0  0  0  0  0  0  0  0  0  0  0
   23.1213    7.7533   11.3785 C   0  0  2  0  0  0  0  0  0  0  0  0
   24.4095    7.7714   10.7042 O   0  0  0  0  0  0  0  0  0  0  0  0
   21.9790    8.4042    5.8734 C   0  0  1  0  0  0  0  0  0  0  0  0
   21.0773    9.4272    5.5345 O   0  0  0  0  0  0  0  0  0  0  0  0
   22.5029    3.4846    7.9355 C   0  0  2  0  0  0  0  0  0  0  0  0
   23.7794    3.3468    7.1721 N   0  0  0  0  0  0  0  0  0  0  0  0
   23.1586    7.8360   12.8953 C   0  0  2  0  0  0  0  0  0  0  0  0
   24.1790    6.9359   13.4489 O   0  0  0  0  0  0  0  0  0  0  0  0
   23.3603    8.7054    5.3168 C   0  0  2  0  0  0  0  0  0  0  0  0
   23.2857    8.8795    3.9384 O   0  0  0  0  0  0  0  0  0  0  0  0
   22.4564    4.9056    8.5661 C   0  0  2  0  0  0  0  0  0  0  0  0
   21.7619    7.4123   13.3342 C   0  0  2  0  0  0  0  0  0  0  0  0
   21.5257    6.3217   12.4481 O   0  0  0  0  0  0  0  0  0  0  0  0
   24.3350    7.5435    5.6597 C   0  0  2  0  0  0  0  0  0  0  0  0
   24.3915    7.3632    7.0912 O   0  0  0  0  0  0  0  0  0  0  0  0
   21.1808    5.1646    9.3920 C   0  0  2  0  0  0  0  0  0  0  0  0
   21.4298    6.4299   10.0995 O   0  0  0  0  0  0  0  0  0  0  0  0
   20.6563    8.5091   13.1662 C   0  0  0  0  0  0  0  0  0  0  0  0
   20.9054    9.5950   14.0542 N   0  0  0  0  0  0  0  0  0  0  0  0
   25.7347    7.7930    5.1480 C   0  0  0  0  0  0  0  0  0  0  0  0
   26.5560    6.7036    5.3641 O   0  0  0  0  0  0  0  0  0  0  0  0
   20.9470    3.9815   10.4320 C   0  0  1  0  0  0  0  0  0  0  0  0
   19.6592    4.0811   11.0587 O   0  0  0  0  0  0  0  0  0  0  0  0
  1  2  1  6  0  0  0
  1  6  1  0  0  0  0
  1 23  1  0  0  0  0
  3  4  1  1  0  0  0
  3  8  1  0  0  0  0
  3 30  1  0  0  0  0
  5  9  1  0  0  0  0
  5 21  1  0  0  0  0
  5 25  1  6  0  0  0
  6  7  1  6  0  0  0
  6 11  1  0  0  0  0
  8 13  1  0  0  0  0
  9 10  1  1  0  0  0
  9 15  1  0  0  0  0
 11 12  1  1  0  0  0
 11 17  1  0  0  0  0
 13 14  1  1  0  0  0
 13 19  1  0  0  0  0
 15 16  1  1  0  0  0
 15 20  1  0  0  0  0
 17 18  1  6  0  0  0
 17 22  1  0  0  0  0
 19  2  1  6  0  0  0
 19 24  1  0  0  0  0
 20 21  1  0  0  0  0
 20 26  1  6  0  0  0
 22 23  1  0  0  0  0
 22 28  1  1  0  0  0
 24 25  1  1  0  0  0
 24 30  1  0  0  0  0
 26 27  1  0  0  0  0
 28 29  1  0  0  0  0
 30 31  1  6  0  0  0
M  END
>  <CHROM.1>
-124.05697287,146.15027954,-153.35100591,-66.67092578,-174.98094675,-76.32990889
22.51443916,6.49250153,9.06566170,-0.33511298,1.23928657,0.59147667

>  <Name>
2o3x_lig

>  <RI>
224

>  <Rbt.Current_Directory>
/home/itssahil/PROJECTS/Mol_Feturizer/New_Systems/rnas/2o3x

>  <Rbt.Executable>
rbdock ($Id: //depot/dev/client3/rdock/2013.1/src/exe/rbdock.cxx#4 $)

>  <Rbt.Library>
libRbt.so (2013.1, Build901 2013/11/27)

>  <Rbt.Parameter_File>
/export/apps/rDock/src/rDock_2013.1_src/data/scripts/dock_solv.prm

>  <Rbt.Receptor>
prm/blind_docking_100.prm

>  <SCORE>
8.55463

>  <SCORE.INTER>
0.584163

>  <SCORE.INTER.CONST>
1

>  <SCORE.INTER.POLAR>
0

>  <SCORE.INTER.ROT>
6

>  <SCORE.INTER.SOLV>
21.234

>  <SCORE.INTER.VDW>
-14.2886

>  <SCORE.INTER.norm>
0.018844

>  <SCORE.INTRA>
3.90423

>  <SCORE.INTRA.DIHEDRAL>
6.65361

>  <SCORE.INTRA.DIHEDRAL.0>
9.37739

>  <SCORE.INTRA.POLAR>
0

>  <SCORE.INTRA.POLAR.0>
0

>  <SCORE.INTRA.REPUL>
0

>  <SCORE.INTRA.REPUL.0>
0

>  <SCORE.INTRA.SOLV>
0.0391828

>  <SCORE.INTRA.SOLV.lig_0>
-82.9274

>  <SCORE.INTRA.VDW>
0.557833

>  <SCORE.INTRA.VDW.0>
-3.84922

>  <SCORE.INTRA.norm>
0.125943

>  <SCORE.RESTR>
4.06624

>  <SCORE.RESTR.CAVITY>
4.06624

>  <SCORE.RESTR.norm>
0.131169

>  <SCORE.SYSTEM>
0

>  <SCORE.SYSTEM.CONST>
0

>  <SCORE.SYSTEM.DIHEDRAL>
0

>  <SCORE.SYSTEM.SOLV>
0

>  <SCORE.SYSTEM.norm>
0

>  <SCORE.heavy>
31

>  <SCORE.norm>
0.275956

>  <RMSD>
4.910

$$$$
2o3x_lig
 OpenBabel11021811463D
libRbt.so/2013.1/901 2013/11/27
 31 33  0  0  0  0  0  0  0  0999 V2000
   22.9776    7.3452    7.7955 C   0  0  2  0  0  0  0  0  0  0  0  0
   22.3164    6.0772    7.6931 O   0  0  0  0  0  0  0  0  0  0  0  0
   21.3600    2.9112   10.4059 C   0  0  2  0  0  0  0  0  0  0  0  0
   21.3976    1.9319   11.5146 N   0  0  0  0  0  0  0  0  0  0  0  0
   22.8000    6.7355   11.6070 C   0  0  1  0  0  0  0  0  0  0  0  0
   22.0621    8.4317    7.1475 C   0  0  2  0  0  0  0  0  0  0  0  0
   20.6593    8.3393    7.6262 N   0  0  0  0  0  0  0  0  0  0  0  0
   22.4891    2.6521    9.3535 C   0  0  0  0  0  0  0  0  0  0  0  0
   23.7177    8.0002   11.6755 C   0  0  2  0  0  0  0  0  0  0  0  0
   24.9927    7.9010   10.9835 O   0  0  0  0  0  0  0  0  0  0  0  0
   22.0495    8.3210    5.6111 C   0  0  1  0  0  0  0  0  0  0  0  0
   21.2610    9.3386    5.0481 O   0  0  0  0  0  0  0  0  0  0  0  0
   22.3469    3.7191    8.2073 C   0  0  2  0  0  0  0  0  0  0  0  0
   23.3817    3.5279    7.1472 N   0  0  0  0  0  0  0  0  0  0  0  0
   23.7857    8.1399   13.1870 C   0  0  2  0  0  0  0  0  0  0  0  0
   24.7497    7.1929   13.7627 O   0  0  0  0  0  0  0  0  0  0  0  0
   23.4714    8.3933    5.0805 C   0  0  2  0  0  0  0  0  0  0  0  0
   23.4608    8.3166    3.6913 O   0  0  0  0  0  0  0  0  0  0  0  0
   22.4886    5.1578    8.7810 C   0  0  2  0  0  0  0  0  0  0  0  0
   22.3702    7.8332   13.6619 C   0  0  2  0  0  0  0  0  0  0  0  0
   22.0439    6.7278   12.8240 O   0  0  0  0  0  0  0  0  0  0  0  0
   24.3192    7.2340    5.6762 C   0  0  2  0  0  0  0  0  0  0  0  0
   24.3094    7.3159    7.1177 O   0  0  0  0  0  0  0  0  0  0  0  0
   21.4727    5.4717    9.8972 C   0  0  2  0  0  0  0  0  0  0  0  0
   21.9171    6.7496   10.4746 O   0  0  0  0  0  0  0  0  0  0  0  0
   21.3412    8.9976   13.4647 C   0  0  0  0  0  0  0  0  0  0  0  0
   20.0110    8.4953   13.5541 N   0  0  0  0  0  0  0  0  0  0  0  0
   25.7529    7.2623    5.1999 C   0  0  0  0  0  0  0  0  0  0  0  0
   26.4449    8.3310    5.7356 O   0  0  0  0  0  0  0  0  0  0  0  0
   21.4939    4.3244   11.0012 C   0  0  1  0  0  0  0  0  0  0  0  0
   20.4124    4.4738   11.9335 O   0  0  0  0  0  0  0  0  0  0  0  0
  1  2  1  6  0  0  0
  1  6  1  0  0  0  0
  1 23  1  0  0  0  0
  3  4  1  1  0  0  0
  3  8  1  0  0  0  0
  3 30  1  0  0  0  0
  5  9  1  0  0  0  0
  5 21  1  0  0  0  0
  5 25  1  6  0  0  0
  6  7  1  1  0  0  0
  6 11  1  0  0  0  0
  8 13  1  0  0  0  0
  9 10  1  1  0  0  0
  9 15  1  0  0  0  0
 11 12  1  6  0  0  0
 11 17  1  0  0  0  0
 13 14  1  6  0  0  0
 13 19  1  0  0  0  0
 15 16  1  1  0  0  0
 15 20  1  0  0  0  0
 17 18  1  6  0  0  0
 17 22  1  0  0  0  0
 19  2  1  6  0  0  0
 19 24  1  0  0  0  0
 20 21  1  0  0  0  0
 20 26  1  6  0  0  0
 22 23  1  0  0  0  0
 22 28  1  6  0  0  0
 24 25  1  1  0  0  0
 24 30  1  0  0  0  0
 26 27  1  0  0  0  0
 28 29  1  0  0  0  0
 30 31  1  1  0  0  0
M  END
>  <CHROM.1>
-144.45257504,151.58511469,-151.97230222,162.62796408,69.86441709,-92.46304825
22.72333618,6.66326289,9.23830986,-0.79294317,1.26220236,1.03150656

>  <Name>
2o3x_lig

>  <RI>
0

>  <Rbt.Current_Directory>
/home/itssahil/PROJECTS/Mol_Feturizer/New_Systems/rnas/2o3x

>  <Rbt.Executable>
rbdock ($Id: //depot/dev/client3/rdock/2013.1/src/exe/rbdock.cxx#4 $)

>  <Rbt.Library>
libRbt.so (2013.1, Build901 2013/11/27)

>  <Rbt.Parameter_File>
/export/apps/rDock/src/rDock_2013.1_src/data/scripts/dock_solv.prm

>  <Rbt.Receptor>
prm/blind_docking_40.prm

>  <SCORE>
4.00302

>  <SCORE.INTER>
-7.04476

>  <SCORE.INTER.CONST>
1

>  <SCORE.INTER.POLAR>
0

>  <SCORE.INTER.ROT>
6

>  <SCORE.INTER.SOLV>
21.8532

>  <SCORE.INTER.VDW>
-19.5809

>  <SCORE.INTER.norm>
-0.22725

>  <SCORE.INTRA>
4.66641

>  <SCORE.INTRA.DIHEDRAL>
7.3271

>  <SCORE.INTRA.DIHEDRAL.0>
9.37739

>  <SCORE.INTRA.POLAR>
0

>  <SCORE.INTRA.POLAR.0>
0

>  <SCORE.INTRA.REPUL>
0

>  <SCORE.INTRA.REPUL.0>
0

>  <SCORE.INTRA.SOLV>
-0.424881

>  <SCORE.INTRA.SOLV.lig_0>
-82.9274

>  <SCORE.INTRA.VDW>
1.21529

>  <SCORE.INTRA.VDW.0>
-3.84922

>  <SCORE.INTRA.norm>
0.150529

>  <SCORE.RESTR>
6.38138

>  <SCORE.RESTR.CAVITY>
6.38138

>  <SCORE.RESTR.norm>
0.205851

>  <SCORE.SYSTEM>
0

>  <SCORE.SYSTEM.CONST>
0

>  <SCORE.SYSTEM.DIHEDRAL>
0

>  <SCORE.SYSTEM.SOLV>
0

>  <SCORE.SYSTEM.norm>
0

>  <SCORE.heavy>
31

>  <SCORE.norm>
0.12913

>  <RMSD>
4.957

$$$$
2o3x_lig
 OpenBabel11021811463D
libRbt.so/2013.1/901 2013/11/27
 31 33  0  0  0  0  0  0  0  0999 V2000
   18.4560   10.2949    7.6812 C   0  0  2  0  0  0  0  0  0  0  0  0
   19.1337    9.3490    8.5187 O   0  0  0  0  0  0  0  0  0  0  0  0
   19.9528    9.2328   12.7156 C   0  0  2  0  0  0  0  0  0  0  0  0
   19.8184    9.2480   14.1890 N   0  0  0  0  0  0  0  0  0  0  0  0
   17.6458    5.9814   10.7411 C   0  0  1  0  0  0  0  0  0  0  0  0
   17.0819    9.6841    7.2601 C   0  0  2  0  0  0  0  0  0  0  0  0
   16.3394    9.1255    8.4187 N   0  0  0  0  0  0  0  0  0  0  0  0
   19.6087   10.6205   12.0790 C   0  0  0  0  0  0  0  0  0  0  0  0
   16.3997    5.2612   10.1291 C   0  0  2  0  0  0  0  0  0  0  0  0
   15.1110    5.6246   10.6961 O   0  0  0  0  0  0  0  0  0  0  0  0
   17.2543    8.5621    6.2189 C   0  0  1  0  0  0  0  0  0  0  0  0
   16.0037    8.0629    5.8176 O   0  0  0  0  0  0  0  0  0  0  0  0
   19.8096   10.5112   10.5233 C   0  0  2  0  0  0  0  0  0  0  0  0
   19.5182   11.8067    9.8392 N   0  0  0  0  0  0  0  0  0  0  0  0
   16.8466    3.8255   10.3485 C   0  0  2  0  0  0  0  0  0  0  0  0
   16.6236    3.4092   11.7394 O   0  0  0  0  0  0  0  0  0  0  0  0
   18.0271    9.0886    5.0213 C   0  0  2  0  0  0  0  0  0  0  0  0
   18.1641    8.0832    4.0694 O   0  0  0  0  0  0  0  0  0  0  0  0
   18.8762    9.4184    9.9285 C   0  0  2  0  0  0  0  0  0  0  0  0
   18.3335    3.8342   10.0137 C   0  0  2  0  0  0  0  0  0  0  0  0
   18.7349    5.0576   10.6241 O   0  0  0  0  0  0  0  0  0  0  0  0
   19.4260    9.5944    5.4739 C   0  0  2  0  0  0  0  0  0  0  0  0
   19.2701   10.6259    6.4722 O   0  0  0  0  0  0  0  0  0  0  0  0
   19.0794    8.0300   10.5666 C   0  0  2  0  0  0  0  0  0  0  0  0
   17.9635    7.2103   10.0697 O   0  0  0  0  0  0  0  0  0  0  0  0
   18.6652    3.8465    8.4830 C   0  0  0  0  0  0  0  0  0  0  0  0
   18.1726    5.0423    7.8851 N   0  0  0  0  0  0  0  0  0  0  0  0
   20.2386   10.1499    4.3274 C   0  0  0  0  0  0  0  0  0  0  0  0
   21.1873   11.0521    4.7677 O   0  0  0  0  0  0  0  0  0  0  0  0
   19.0262    8.1392   12.1544 C   0  0  1  0  0  0  0  0  0  0  0  0
   19.4282    6.9103   12.7783 O   0  0  0  0  0  0  0  0  0  0  0  0
  1  2  1  1  0  0  0
  1  6  1  0  0  0  0
  1 23  1  0  0  0  0
  3  4  1  1  0  0  0
  3  8  1  0  0  0  0
  3 30  1  0  0  0  0
  5  9  1  0  0  0  0
  5 21  1  0  0  0  0
  5 25  1  6  0  0  0
  6  7  1  1  0  0  0
  6 11  1  0  0  0  0
  8 13  1  0  0  0  0
  9 10  1  1  0  0  0
  9 15  1  0  0  0  0
 11 12  1  6  0  0  0
 11 17  1  0  0  0  0
 13 14  1  6  0  0  0
 13 19  1  0  0  0  0
 15 16  1  1  0  0  0
 15 20  1  0  0  0  0
 17 18  1  6  0  0  0
 17 22  1  0  0  0  0
 19  2  1  6  0  0  0
 19 24  1  0  0  0  0
 20 21  1  0  0  0  0
 20 26  1  6  0  0  0
 22 23  1  0  0  0  0
 22 28  1  6  0  0  0
 24 25  1  6  0  0  0
 24 30  1  0  0  0  0
 26 27  1  0  0  0  0
 28 29  1  0  0  0  0
 30 31  1  1  0  0  0
M  END
>  <CHROM.1>
-88.76476993,177.55325615,-83.59353015,63.12552594,155.61582621,-163.35432737
18.38600587,7.93845331,8.99106440,-1.19602121,1.12372842,1.87656861

>  <Name>
2o3x_lig

>  <RI>
0

>  <Rbt.Current_Directory>
/home/itssahil/PROJECTS/Mol_Feturizer/New_Systems/rnas/2o3x

>  <Rbt.Executable>
rbdock ($Id: //depot/dev/client3/rdock/2013.1/src/exe/rbdock.cxx#4 $)

>  <Rbt.Library>
libRbt.so (2013.1, Build901 2013/11/27)

>  <Rbt.Parameter_File>
/export/apps/rDock/src/rDock_2013.1_src/data/scripts/dock_solv.prm

>  <Rbt.Receptor>
prm/pocket_docking_5.prm

>  <SCORE>
-10.8143

>  <SCORE.INTER>
-14.6472

>  <SCORE.INTER.CONST>
1

>  <SCORE.INTER.POLAR>
-2.4193

>  <SCORE.INTER.ROT>
6

>  <SCORE.INTER.SOLV>
10.737

>  <SCORE.INTER.VDW>
-12.8795

>  <SCORE.INTER.norm>
-0.47249

>  <SCORE.INTRA>
3.83287

>  <SCORE.INTRA.DIHEDRAL>
-0.248214

>  <SCORE.INTRA.DIHEDRAL.0>
9.37739

>  <SCORE.INTRA.POLAR>
0

>  <SCORE.INTRA.POLAR.0>
0

>  <SCORE.INTRA.REPUL>
0

>  <SCORE.INTRA.REPUL.0>
0

>  <SCORE.INTRA.SOLV>
4.66118

>  <SCORE.INTRA.SOLV.lig_0>
-82.9274

>  <SCORE.INTRA.VDW>
1.62639

>  <SCORE.INTRA.VDW.0>
-3.84922

>  <SCORE.INTRA.norm>
0.123641

>  <SCORE.RESTR>
0

>  <SCORE.RESTR.CAVITY>
0

>  <SCORE.RESTR.norm>
0

>  <SCORE.SYSTEM>
0

>  <SCORE.SYSTEM.CONST>
0

>  <SCORE.SYSTEM.DIHEDRAL>
0

>  <SCORE.SYSTEM.SOLV>
0

>  <SCORE.SYSTEM.norm>
0

>  <SCORE.heavy>
31

>  <SCORE.norm>
-0.348849

>  <RMSD>
4.986

$$$$
2o3x_lig
 OpenBabel11021811463D
libRbt.so/2013.1/901 2013/11/27
 31 33  0  0  0  0  0  0  0  0999 V2000
   21.1199    9.5822    4.4844 C   0  0  2  0  0  0  0  0  0  0  0  0
   20.7150   10.3081    5.6526 O   0  0  0  0  0  0  0  0  0  0  0  0
   18.6561    9.5786    9.3304 C   0  0  2  0  0  0  0  0  0  0  0  0
   18.0337    8.9259   10.5035 N   0  0  0  0  0  0  0  0  0  0  0  0
   22.3125    7.7074    8.1709 C   0  0  1  0  0  0  0  0  0  0  0  0
   21.7511   10.5902    3.4724 C   0  0  2  0  0  0  0  0  0  0  0  0
   22.7499   11.4797    4.1181 N   0  0  0  0  0  0  0  0  0  0  0  0
   17.9144    9.2255    7.9983 C   0  0  0  0  0  0  0  0  0  0  0  0
   23.6823    7.0866    7.7416 C   0  0  2  0  0  0  0  0  0  0  0  0
   23.7286    6.5030    6.4105 O   0  0  0  0  0  0  0  0  0  0  0  0
   20.6794   11.4777    2.8116 C   0  0  1  0  0  0  0  0  0  0  0  0
   21.2638   12.3405    1.8691 O   0  0  0  0  0  0  0  0  0  0  0  0
   18.6280    9.9863    6.8218 C   0  0  2  0  0  0  0  0  0  0  0  0
   17.9653    9.7161    5.5107 N   0  0  0  0  0  0  0  0  0  0  0  0
   23.8588    6.1215    8.9019 C   0  0  2  0  0  0  0  0  0  0  0  0
   23.0500    4.9104    8.7100 O   0  0  0  0  0  0  0  0  0  0  0  0
   19.6254   10.6039    2.1527 C   0  0  2  0  0  0  0  0  0  0  0  0
   18.6686   11.4034    1.5354 O   0  0  0  0  0  0  0  0  0  0  0  0
   20.1190    9.5554    6.7187 C   0  0  2  0  0  0  0  0  0  0  0  0
   23.3882    6.9035   10.1226 C   0  0  2  0  0  0  0  0  0  0  0  0
   22.2347    7.5513    9.5931 O   0  0  0  0  0  0  0  0  0  0  0  0
   18.9557    9.6881    3.2159 C   0  0  2  0  0  0  0  0  0  0  0  0
   19.9608    8.8753    3.8594 O   0  0  0  0  0  0  0  0  0  0  0  0
   20.9096    9.7792    8.0230 C   0  0  2  0  0  0  0  0  0  0  0  0
   22.1950    9.0942    7.8170 O   0  0  0  0  0  0  0  0  0  0  0  0
   24.4118    7.9571   10.6662 C   0  0  0  0  0  0  0  0  0  0  0  0
   25.6865    7.3490   10.8543 N   0  0  0  0  0  0  0  0  0  0  0  0
   17.9080    8.7783    2.6178 C   0  0  0  0  0  0  0  0  0  0  0  0
   18.4709    7.6299    2.0959 O   0  0  0  0  0  0  0  0  0  0  0  0
   20.1304    9.1420    9.2570 C   0  0  1  0  0  0  0  0  0  0  0  0
   20.7266    9.5220   10.5065 O   0  0  0  0  0  0  0  0  0  0  0  0
  1  2  1  1  0  0  0
  1  6  1  0  0  0  0
  1 23  1  0  0  0  0
  3  4  1  1  0  0  0
  3  8  1  0  0  0  0
  3 30  1  0  0  0  0
  5  9  1  0  0  0  0
  5 21  1  0  0  0  0
  5 25  1  1  0  0  0
  6  7  1  1  0  0  0
  6 11  1  0  0  0  0
  8 13  1  0  0  0  0
  9 10  1  6  0  0  0
  9 15  1  0  0  0  0
 11 12  1  6  0  0  0
 11 17  1  0  0  0  0
 13 14  1  6  0  0  0
 13 19  1  0  0  0  0
 15 16  1  6  0  0  0
 15 20  1  0  0  0  0
 17 18  1  1  0  0  0
 17 22  1  0  0  0  0
 19  2  1  6  0  0  0
 19 24  1  0  0  0  0
 20 21  1  0  0  0  0
 20 26  1  6  0  0  0
 22 23  1  0  0  0  0
 22 28  1  6  0  0  0
 24 25  1  6  0  0  0
 24 30  1  0  0  0  0
 26 27  1  0  0  0  0
 28 29  1  0  0  0  0
 30 31  1  1  0  0  0
M  END
>  <CHROM.1>
-179.35763216,173.42277743,-112.67197441,-51.15561061,84.33145042,-88.82824932
20.95715589,8.99932503,6.46950475,-2.02132443,-0.32496023,1.82459579

>  <Name>
2o3x_lig

>  <RI>
224

>  <Rbt.Current_Directory>
/home/itssahil/PROJECTS/Mol_Feturizer/New_Systems/rnas/2o3x

>  <Rbt.Executable>
rbdock ($Id: //depot/dev/client3/rdock/2013.1/src/exe/rbdock.cxx#4 $)

>  <Rbt.Library>
libRbt.so (2013.1, Build901 2013/11/27)

>  <Rbt.Parameter_File>
/export/apps/rDock/src/rDock_2013.1_src/data/scripts/dock_solv.prm

>  <Rbt.Receptor>
prm/blind_docking_100.prm

>  <SCORE>
1.19282

>  <SCORE.INTER>
-10.032

>  <SCORE.INTER.CONST>
1

>  <SCORE.INTER.POLAR>
-1.33291

>  <SCORE.INTER.ROT>
6

>  <SCORE.INTER.SOLV>
29.6239

>  <SCORE.INTER.VDW>
-19.7196

>  <SCORE.INTER.norm>
-0.323612

>  <SCORE.INTRA>
7.22156

>  <SCORE.INTRA.DIHEDRAL>
3.3675

>  <SCORE.INTRA.DIHEDRAL.0>
9.37739

>  <SCORE.INTRA.POLAR>
0

>  <SCORE.INTRA.POLAR.0>
0

>  <SCORE.INTRA.REPUL>
0

>  <SCORE.INTRA.REPUL.0>
0

>  <SCORE.INTRA.SOLV>
2.17651

>  <SCORE.INTRA.SOLV.lig_0>
-82.9274

>  <SCORE.INTRA.VDW>
4.44956

>  <SCORE.INTRA.VDW.0>
-3.84922

>  <SCORE.INTRA.norm>
0.232954

>  <SCORE.RESTR>
4.00324

>  <SCORE.RESTR.CAVITY>
4.00324

>  <SCORE.RESTR.norm>
0.129137

>  <SCORE.SYSTEM>
0

>  <SCORE.SYSTEM.CONST>
0

>  <SCORE.SYSTEM.DIHEDRAL>
0

>  <SCORE.SYSTEM.SOLV>
0

>  <SCORE.SYSTEM.norm>
0

>  <SCORE.heavy>
31

>  <SCORE.norm>
0.0384781

>  <RMSD>
5.005

$$$$
2o3x_lig
 OpenBabel11021811463D
libRbt.so/2013.1/901 2013/11/27
 31 33  0  0  0  0  0  0  0  0999 V2000
   18.8235   10.2398    7.5814 C   0  0  2  0  0  0  0  0  0  0  0  0
   19.3661    9.2201    8.4306 O   0  0  0  0  0  0  0  0  0  0  0  0
   19.7904    8.9846   12.6806 C   0  0  2  0  0  0  0  0  0  0  0  0
   19.5182    8.9506   14.1346 N   0  0  0  0  0  0  0  0  0  0  0  0
   17.8502    5.6939   10.3086 C   0  0  1  0  0  0  0  0  0  0  0  0
   17.4066    9.7847    7.1086 C   0  0  2  0  0  0  0  0  0  0  0  0
   16.5691    9.3017    8.2360 N   0  0  0  0  0  0  0  0  0  0  0  0
   19.4795   10.3857   12.0564 C   0  0  0  0  0  0  0  0  0  0  0  0
   16.7330    4.9392    9.5158 C   0  0  2  0  0  0  0  0  0  0  0  0
   15.3739    5.1220    9.9992 O   0  0  0  0  0  0  0  0  0  0  0  0
   17.4919    8.6580    6.0617 C   0  0  1  0  0  0  0  0  0  0  0  0
   16.2090    8.3002    5.6140 O   0  0  0  0  0  0  0  0  0  0  0  0
   19.8275   10.3294   10.5241 C   0  0  2  0  0  0  0  0  0  0  0  0
   19.5753   11.6408    9.8548 N   0  0  0  0  0  0  0  0  0  0  0  0
   17.2987    3.5331    9.6247 C   0  0  2  0  0  0  0  0  0  0  0  0
   17.0070    2.9463   10.9393 O   0  0  0  0  0  0  0  0  0  0  0  0
   18.3574    9.1060    4.8960 C   0  0  2  0  0  0  0  0  0  0  0  0
   18.4171    8.0985    3.9383 O   0  0  0  0  0  0  0  0  0  0  0  0
   18.9763    9.2402    9.8112 C   0  0  2  0  0  0  0  0  0  0  0  0
   18.7997    3.7103    9.4276 C   0  0  2  0  0  0  0  0  0  0  0  0
   19.0299    4.8887   10.1950 O   0  0  0  0  0  0  0  0  0  0  0  0
   19.7866    9.4540    5.3999 C   0  0  2  0  0  0  0  0  0  0  0  0
   19.7093   10.4891    6.4036 O   0  0  0  0  0  0  0  0  0  0  0  0
   19.1467    7.8358   10.4236 C   0  0  2  0  0  0  0  0  0  0  0  0
   18.0992    7.0132    9.7993 O   0  0  0  0  0  0  0  0  0  0  0  0
   19.2498    3.9223    7.9424 C   0  0  0  0  0  0  0  0  0  0  0  0
   18.9936    2.7458    7.1808 N   0  0  0  0  0  0  0  0  0  0  0  0
   20.6930    9.9262    4.2869 C   0  0  0  0  0  0  0  0  0  0  0  0
   21.9554   10.2334    4.7558 O   0  0  0  0  0  0  0  0  0  0  0  0
   18.9428    7.8935   12.0019 C   0  0  1  0  0  0  0  0  0  0  0  0
   19.3093    6.6525   12.6237 O   0  0  0  0  0  0  0  0  0  0  0  0
  1  2  1  1  0  0  0
  1  6  1  0  0  0  0
  1 23  1  0  0  0  0
  3  4  1  1  0  0  0
  3  8  1  0  0  0  0
  3 30  1  0  0  0  0
  5  9  1  0  0  0  0
  5 21  1  0  0  0  0
  5 25  1  6  0  0  0
  6  7  1  1  0  0  0
  6 11  1  0  0  0  0
  8 13  1  0  0  0  0
  9 10  1  1  0  0  0
  9 15  1  0  0  0  0
 11 12  1  6  0  0  0
 11 17  1  0  0  0  0
 13 14  1  6  0  0  0
 13 19  1  0  0  0  0
 15 16  1  1  0  0  0
 15 20  1  0  0  0  0
 17 18  1  6  0  0  0
 17 22  1  0  0  0  0
 19  2  1  6  0  0  0
 19 24  1  0  0  0  0
 20 21  1  0  0  0  0
 20 26  1  6  0  0  0
 22 23  1  0  0  0  0
 22 28  1  6  0  0  0
 24 25  1  6  0  0  0
 24 30  1  0  0  0  0
 26 27  1  0  0  0  0
 28 29  1  0  0  0  0
 30 31  1  1  0  0  0
M  END
>  <CHROM.1>
-83.51523063,-178.59936821,-79.28172606,-65.84113883,179.83045444,-170.38555457
18.63361302,7.69535211,8.73786271,-0.94744914,1.25776509,1.69827893

>  <Name>
2o3x_lig

>  <RI>
0

>  <Rbt.Current_Directory>
/home/itssahil/PROJECTS/Mol_Feturizer/New_Systems/rnas/2o3x

>  <Rbt.Executable>
rbdock ($Id: //depot/dev/client3/rdock/2013.1/src/exe/rbdock.cxx#4 $)

>  <Rbt.Library>
libRbt.so (2013.1, Build901 2013/11/27)

>  <Rbt.Parameter_File>
/export/apps/rDock/src/rDock_2013.1_src/data/scripts/dock_solv.prm

>  <Rbt.Receptor>
prm/pocket_docking_5.prm

>  <SCORE>
-10.5929

>  <SCORE.INTER>
-10.5479

>  <SCORE.INTER.CONST>
1

>  <SCORE.INTER.POLAR>
-1.64253

>  <SCORE.INTER.ROT>
6

>  <SCORE.INTER.SOLV>
10.0137

>  <SCORE.INTER.VDW>
-12.4947

>  <SCORE.INTER.norm>
-0.340254

>  <SCORE.INTRA>
-0.0450301

>  <SCORE.INTRA.DIHEDRAL>
-4.54713

>  <SCORE.INTRA.DIHEDRAL.0>
9.37739

>  <SCORE.INTRA.POLAR>
0

>  <SCORE.INTRA.POLAR.0>
0

>  <SCORE.INTRA.REPUL>
0

>  <SCORE.INTRA.REPUL.0>
0

>  <SCORE.INTRA.SOLV>
0.934725

>  <SCORE.INTRA.SOLV.lig_0>
-82.9274

>  <SCORE.INTRA.VDW>
1.76117

>  <SCORE.INTRA.VDW.0>
-3.84922

>  <SCORE.INTRA.norm>
-0.00145258

>  <SCORE.RESTR>
0

>  <SCORE.RESTR.CAVITY>
0

>  <SCORE.RESTR.norm>
0

>  <SCORE.SYSTEM>
0

>  <SCORE.SYSTEM.CONST>
0

>  <SCORE.SYSTEM.DIHEDRAL>
0

>  <SCORE.SYSTEM.SOLV>
0

>  <SCORE.SYSTEM.norm>
0

>  <SCORE.heavy>
31

>  <SCORE.norm>
-0.341707

>  <RMSD>
5.024

$$$$
2o3x_lig
 OpenBabel11021811463D
libRbt.so/2013.1/901 2013/11/27
 31 33  0  0  0  0  0  0  0  0999 V2000
   23.3474    7.2560    7.7834 C   0  0  2  0  0  0  0  0  0  0  0  0
   22.8678    5.9194    7.5856 O   0  0  0  0  0  0  0  0  0  0  0  0
   21.4849    2.9670   10.3548 C   0  0  2  0  0  0  0  0  0  0  0  0
   21.3727    2.0381   11.5011 N   0  0  0  0  0  0  0  0  0  0  0  0
   23.1104    6.7162   11.5332 C   0  0  1  0  0  0  0  0  0  0  0  0
   22.3121    8.2474    7.1640 C   0  0  2  0  0  0  0  0  0  0  0  0
   20.9214    7.9392    7.5846 N   0  0  0  0  0  0  0  0  0  0  0  0
   22.6484    2.5689    9.3867 C   0  0  0  0  0  0  0  0  0  0  0  0
   23.9253    8.0287   11.7770 C   0  0  2  0  0  0  0  0  0  0  0  0
   25.2742    8.0517   11.2344 O   0  0  0  0  0  0  0  0  0  0  0  0
   22.3592    8.2293    5.6244 C   0  0  1  0  0  0  0  0  0  0  0  0
   21.4565    9.1645    5.0906 O   0  0  0  0  0  0  0  0  0  0  0  0
   22.6663    3.5920    8.1928 C   0  0  2  0  0  0  0  0  0  0  0  0
   23.7424    3.2690    7.2084 N   0  0  0  0  0  0  0  0  0  0  0  0
   23.8121    8.0788   13.2914 C   0  0  2  0  0  0  0  0  0  0  0  0
   24.7677    7.1597   13.9237 O   0  0  0  0  0  0  0  0  0  0  0  0
   23.7730    8.5233    5.1516 C   0  0  2  0  0  0  0  0  0  0  0  0
   23.8132    8.5303    3.7609 O   0  0  0  0  0  0  0  0  0  0  0  0
   22.8958    5.0381    8.7174 C   0  0  2  0  0  0  0  0  0  0  0  0
   22.3765    7.6562   13.5802 C   0  0  2  0  0  0  0  0  0  0  0  0
   22.2238    6.5865   12.6513 O   0  0  0  0  0  0  0  0  0  0  0  0
   24.7526    7.4540    5.7122 C   0  0  2  0  0  0  0  0  0  0  0  0
   24.6899    7.4464    7.1547 O   0  0  0  0  0  0  0  0  0  0  0  0
   21.8458    5.4843    9.7541 C   0  0  2  0  0  0  0  0  0  0  0  0
   22.3623    6.7454   10.3078 O   0  0  0  0  0  0  0  0  0  0  0  0
   21.2988    8.7644   13.3274 C   0  0  0  0  0  0  0  0  0  0  0  0
   21.1469    8.9892   11.9288 N   0  0  0  0  0  0  0  0  0  0  0  0
   26.1825    7.7028    5.2916 C   0  0  0  0  0  0  0  0  0  0  0  0
   26.9946    6.6265    5.5915 O   0  0  0  0  0  0  0  0  0  0  0  0
   21.7031    4.3893   10.9014 C   0  0  1  0  0  0  0  0  0  0  0  0
   20.5847    4.6689   11.7571 O   0  0  0  0  0  0  0  0  0  0  0  0
  1  2  1  6  0  0  0
  1  6  1  0  0  0  0
  1 23  1  0  0  0  0
  3  4  1  1  0  0  0
  3  8  1  0  0  0  0
  3 30  1  0  0  0  0
  5  9  1  0  0  0  0
  5 21  1  0  0  0  0
  5 25  1  6  0  0  0
  6  7  1  6  0  0  0
  6 11  1  0  0  0  0
  8 13  1  0  0  0  0
  9 10  1  1  0  0  0
  9 15  1  0  0  0  0
 11 12  1  6  0  0  0
 11 17  1  0  0  0  0
 13 14  1  6  0  0  0
 13 19  1  0  0  0  0
 15 16  1  1  0  0  0
 15 20  1  0  0  0  0
 17 18  1  6  0  0  0
 17 22  1  0  0  0  0
 19  2  1  6  0  0  0
 19 24  1  0  0  0  0
 20 21  1  0  0  0  0
 20 26  1  6  0  0  0
 22 23  1  0  0  0  0
 22 28  1  1  0  0  0
 24 25  1  1  0  0  0
 24 30  1  0  0  0  0
 26 27  1  0  0  0  0
 28 29  1  0  0  0  0
 30 31  1  1  0  0  0
M  END
>  <CHROM.1>
-132.63437690,163.58685716,-166.54776396,71.23696244,-169.19612986,-95.82636889
23.01736192,6.59934981,9.17308400,-0.69908179,1.26713948,0.92847054

>  <Name>
2o3x_lig

>  <RI>
0

>  <Rbt.Current_Directory>
/home/itssahil/PROJECTS/Mol_Feturizer/New_Systems/rnas/2o3x

>  <Rbt.Executable>
rbdock ($Id: //depot/dev/client3/rdock/2013.1/src/exe/rbdock.cxx#4 $)

>  <Rbt.Library>
libRbt.so (2013.1, Build901 2013/11/27)

>  <Rbt.Parameter_File>
/export/apps/rDock/src/rDock_2013.1_src/data/scripts/dock_solv.prm

>  <Rbt.Receptor>
prm/blind_docking_60.prm

>  <SCORE>
4.21326

>  <SCORE.INTER>
-8.0656

>  <SCORE.INTER.CONST>
1

>  <SCORE.INTER.POLAR>
-0.622132

>  <SCORE.INTER.ROT>
6

>  <SCORE.INTER.SOLV>
22.203

>  <SCORE.INTER.VDW>
-18.3043

>  <SCORE.INTER.norm>
-0.26018

>  <SCORE.INTRA>
5.4159

>  <SCORE.INTRA.DIHEDRAL>
4.82264

>  <SCORE.INTRA.DIHEDRAL.0>
9.37739

>  <SCORE.INTRA.POLAR>
0

>  <SCORE.INTRA.POLAR.0>
0

>  <SCORE.INTRA.REPUL>
0

>  <SCORE.INTRA.REPUL.0>
0

>  <SCORE.INTRA.SOLV>
1.85006

>  <SCORE.INTRA.SOLV.lig_0>
-82.9274

>  <SCORE.INTRA.VDW>
2.07956

>  <SCORE.INTRA.VDW.0>
-3.84922

>  <SCORE.INTRA.norm>
0.174707

>  <SCORE.RESTR>
6.86295

>  <SCORE.RESTR.CAVITY>
6.86295

>  <SCORE.RESTR.norm>
0.221385

>  <SCORE.SYSTEM>
0

>  <SCORE.SYSTEM.CONST>
0

>  <SCORE.SYSTEM.DIHEDRAL>
0

>  <SCORE.SYSTEM.SOLV>
0

>  <SCORE.SYSTEM.norm>
0

>  <SCORE.heavy>
31

>  <SCORE.norm>
0.135911

>  <RMSD>
5.075

$$$$
2o3x_lig
 OpenBabel11021811463D
libRbt.so/2013.1/901 2013/11/27
 31 33  0  0  0  0  0  0  0  0999 V2000
   20.3848    8.5979    8.6170 C   0  0  2  0  0  0  0  0  0  0  0  0
   20.5805    7.1852    8.7640 O   0  0  0  0  0  0  0  0  0  0  0  0
   23.2003    7.4464   12.1355 C   0  0  2  0  0  0  0  0  0  0  0  0
   24.1943    7.1400   13.1878 N   0  0  0  0  0  0  0  0  0  0  0  0
   23.9601    5.5986    8.3019 C   0  0  1  0  0  0  0  0  0  0  0  0
   18.8748    8.8571    8.3153 C   0  0  2  0  0  0  0  0  0  0  0  0
   17.9836    8.1265    9.2521 N   0  0  0  0  0  0  0  0  0  0  0  0
   21.8978    6.5926   12.2898 C   0  0  0  0  0  0  0  0  0  0  0  0
   22.8569    4.4977    8.4335 C   0  0  2  0  0  0  0  0  0  0  0  0
   22.5085    4.1031    9.7889 O   0  0  0  0  0  0  0  0  0  0  0  0
   18.5024    8.4394    6.8801 C   0  0  1  0  0  0  0  0  0  0  0  0
   17.1532    8.7285    6.6148 O   0  0  0  0  0  0  0  0  0  0  0  0
   20.8981    7.0104   11.1504 C   0  0  2  0  0  0  0  0  0  0  0  0
   19.6151    6.2506   11.2392 N   0  0  0  0  0  0  0  0  0  0  0  0
   23.5096    3.4294    7.5722 C   0  0  2  0  0  0  0  0  0  0  0  0
   24.5568    2.7173    8.3164 O   0  0  0  0  0  0  0  0  0  0  0  0
   19.4054    9.1530    5.8881 C   0  0  2  0  0  0  0  0  0  0  0  0
   19.0559    8.7949    4.5899 O   0  0  0  0  0  0  0  0  0  0  0  0
   21.5276    6.7534    9.7515 C   0  0  2  0  0  0  0  0  0  0  0  0
   24.1025    4.1976    6.3968 C   0  0  2  0  0  0  0  0  0  0  0  0
   24.6381    5.3350    7.0675 O   0  0  0  0  0  0  0  0  0  0  0  0
   20.8910    8.7870    6.1650 C   0  0  2  0  0  0  0  0  0  0  0  0
   21.2364    9.1494    7.5194 O   0  0  0  0  0  0  0  0  0  0  0  0
   22.8696    7.4830    9.5437 C   0  0  2  0  0  0  0  0  0  0  0  0
   23.4204    6.9293    8.2972 O   0  0  0  0  0  0  0  0  0  0  0  0
   23.0676    4.6369    5.3062 C   0  0  0  0  0  0  0  0  0  0  0  0
   23.7445    5.2166    4.1946 N   0  0  0  0  0  0  0  0  0  0  0  0
   21.8435    9.4824    5.2204 C   0  0  0  0  0  0  0  0  0  0  0  0
   21.6478   10.8498    5.2175 O   0  0  0  0  0  0  0  0  0  0  0  0
   23.8507    7.1918   10.7638 C   0  0  1  0  0  0  0  0  0  0  0  0
   25.0175    8.0265   10.7091 O   0  0  0  0  0  0  0  0  0  0  0  0
  1  2  1  6  0  0  0
  1  6  1  0  0  0  0
  1 23  1  0  0  0  0
  3  4  1  1  0  0  0
  3  8  1  0  0  0  0
  3 30  1  0  0  0  0
  5  9  1  0  0  0  0
  5 21  1  0  0  0  0
  5 25  1  6  0  0  0
  6  7  1  1  0  0  0
  6 11  1  0  0  0  0
  8 13  1  0  0  0  0
  9 10  1  1  0  0  0
  9 15  1  0  0  0  0
 11 12  1  6  0  0  0
 11 17  1  0  0  0  0
 13 14  1  6  0  0  0
 13 19  1  0  0  0  0
 15 16  1  1  0  0  0
 15 20  1  0  0  0  0
 17 18  1  6  0  0  0
 17 22  1  0  0  0  0
 19  2  1  6  0  0  0
 19 24  1  0  0  0  0
 20 21  1  0  0  0  0
 20 26  1  6  0  0  0
 22 23  1  0  0  0  0
 22 28  1  6  0  0  0
 24 25  1  6  0  0  0
 24 30  1  0  0  0  0
 26 27  1  0  0  0  0
 28 29  1  0  0  0  0
 30 31  1  6  0  0  0
M  END
>  <CHROM.1>
-143.34404290,71.24068839,71.86458990,-173.84194234,53.63930813,-73.50870457
21.84712113,7.00015994,8.26991993,2.62994320,0.72143804,-1.62049904

>  <Name>
2o3x_lig

>  <RI>
3.34184e+07

>  <Rbt.Current_Directory>
/home/itssahil/PROJECTS/Mol_Feturizer/New_Systems/rnas/2o3x

>  <Rbt.Executable>
rbdock ($Id: //depot/dev/client3/rdock/2013.1/src/exe/rbdock.cxx#4 $)

>  <Rbt.Library>
libRbt.so (2013.1, Build901 2013/11/27)

>  <Rbt.Parameter_File>
/export/apps/rDock/src/rDock_2013.1_src/data/scripts/dock_solv.prm

>  <Rbt.Receptor>
prm/pocket_docking_6.prm

>  <SCORE>
-7.34152

>  <SCORE.INTER>
-8.54749

>  <SCORE.INTER.CONST>
1

>  <SCORE.INTER.POLAR>
-0.825521

>  <SCORE.INTER.ROT>
6

>  <SCORE.INTER.SOLV>
14.4206

>  <SCORE.INTER.VDW>
-15.3535

>  <SCORE.INTER.norm>
-0.275725

>  <SCORE.INTRA>
1.20597

>  <SCORE.INTRA.DIHEDRAL>
-1.98249

>  <SCORE.INTRA.DIHEDRAL.0>
9.37739

>  <SCORE.INTRA.POLAR>
0

>  <SCORE.INTRA.POLAR.0>
0

>  <SCORE.INTRA.REPUL>
0

>  <SCORE.INTRA.REPUL.0>
0

>  <SCORE.INTRA.SOLV>
0.831177

>  <SCORE.INTRA.SOLV.lig_0>
-82.9274

>  <SCORE.INTRA.VDW>
1.78162

>  <SCORE.INTRA.VDW.0>
-3.84922

>  <SCORE.INTRA.norm>
0.0389022

>  <SCORE.RESTR>
0

>  <SCORE.RESTR.CAVITY>
0

>  <SCORE.RESTR.norm>
0

>  <SCORE.SYSTEM>
0

>  <SCORE.SYSTEM.CONST>
0

>  <SCORE.SYSTEM.DIHEDRAL>
0

>  <SCORE.SYSTEM.SOLV>
0

>  <SCORE.SYSTEM.norm>
0

>  <SCORE.heavy>
31

>  <SCORE.norm>
-0.236823

>  <RMSD>
5.106

$$$$
2o3x_lig
 OpenBabel11021811463D
libRbt.so/2013.1/901 2013/11/27
 31 33  0  0  0  0  0  0  0  0999 V2000
   21.4064    8.8241    8.3484 C   0  0  2  0  0  0  0  0  0  0  0  0
   20.8788    7.6110    8.9012 O   0  0  0  0  0  0  0  0  0  0  0  0
   22.4053    8.2383   12.8477 C   0  0  2  0  0  0  0  0  0  0  0  0
   22.8337    8.0470   14.2510 N   0  0  0  0  0  0  0  0  0  0  0  0
   22.9225    4.8194   10.2192 C   0  0  1  0  0  0  0  0  0  0  0  0
   20.2263    9.6359    7.7265 C   0  0  2  0  0  0  0  0  0  0  0  0
   19.0697    9.7401    8.6524 N   0  0  0  0  0  0  0  0  0  0  0  0
   20.8559    8.0941   12.6807 C   0  0  0  0  0  0  0  0  0  0  0  0
   21.4243    4.4183   10.0175 C   0  0  2  0  0  0  0  0  0  0  0  0
   20.5146    4.7914   11.0887 O   0  0  0  0  0  0  0  0  0  0  0  0
   19.7298    9.0011    6.4137 C   0  0  1  0  0  0  0  0  0  0  0  0
   18.7035    9.7754    5.8466 O   0  0  0  0  0  0  0  0  0  0  0  0
   20.4990    8.3432   11.1697 C   0  0  2  0  0  0  0  0  0  0  0  0
   19.0284    8.2418   10.9285 N   0  0  0  0  0  0  0  0  0  0  0  0
   21.6241    2.9280    9.7977 C   0  0  2  0  0  0  0  0  0  0  0  0
   21.8226    2.2275   11.0735 O   0  0  0  0  0  0  0  0  0  0  0  0
   20.8895    8.8597    5.4422 C   0  0  2  0  0  0  0  0  0  0  0  0
   20.4391    8.3077    4.2472 O   0  0  0  0  0  0  0  0  0  0  0  0
   21.2203    7.3070   10.2612 C   0  0  2  0  0  0  0  0  0  0  0  0
   22.8706    2.8355    8.9254 C   0  0  2  0  0  0  0  0  0  0  0  0
   23.6949    3.8244    9.5362 O   0  0  0  0  0  0  0  0  0  0  0  0
   21.9964    7.9627    6.0650 C   0  0  2  0  0  0  0  0  0  0  0  0
   22.4440    8.5382    7.3113 O   0  0  0  0  0  0  0  0  0  0  0  0
   22.7526    7.3112   10.4295 C   0  0  2  0  0  0  0  0  0  0  0  0
   23.2238    6.1239    9.7000 O   0  0  0  0  0  0  0  0  0  0  0  0
   22.6424    3.1659    7.4114 C   0  0  0  0  0  0  0  0  0  0  0  0
   23.7841    3.8307    6.8782 N   0  0  0  0  0  0  0  0  0  0  0  0
   23.1892    7.7987    5.1520 C   0  0  0  0  0  0  0  0  0  0  0  0
   23.4696    8.9657    4.4683 O   0  0  0  0  0  0  0  0  0  0  0  0
   23.1388    7.2075   11.9708 C   0  0  1  0  0  0  0  0  0  0  0  0
   24.5424    7.4291   12.1759 O   0  0  0  0  0  0  0  0  0  0  0  0
  1  2  1  6  0  0  0
  1  6  1  0  0  0  0
  1 23  1  0  0  0  0
  3  4  1  1  0  0  0
  3  8  1  0  0  0  0
  3 30  1  0  0  0  0
  5  9  1  0  0  0  0
  5 21  1  0  0  0  0
  5 25  1  6  0  0  0
  6  7  1  1  0  0  0
  6 11  1  0  0  0  0
  8 13  1  0  0  0  0
  9 10  1  1  0  0  0
  9 15  1  0  0  0  0
 11 12  1  6  0  0  0
 11 17  1  0  0  0  0
 13 14  1  1  0  0  0
 13 19  1  0  0  0  0
 15 16  1  1  0  0  0
 15 20  1  0  0  0  0
 17 18  1  6  0  0  0
 17 22  1  0  0  0  0
 19  2  1  6  0  0  0
 19 24  1  0  0  0  0
 20 21  1  0  0  0  0
 20 26  1  6  0  0  0
 22 23  1  0  0  0  0
 22 28  1  6  0  0  0
 24 25  1  6  0  0  0
 24 30  1  0  0  0  0
 26 27  1  0  0  0  0
 28 29  1  0  0  0  0
 30 31  1  6  0  0  0
M  END
>  <CHROM.1>
-128.32012062,73.82130584,68.84814084,144.85997114,37.48945591,-69.21588719
21.76307129,6.90080924,8.99600816,2.19371565,1.17004283,-1.57061240

>  <Name>
2o3x_lig

>  <RI>
224

>  <Rbt.Current_Directory>
/home/itssahil/PROJECTS/Mol_Feturizer/New_Systems/rnas/2o3x

>  <Rbt.Executable>
rbdock ($Id: //depot/dev/client3/rdock/2013.1/src/exe/rbdock.cxx#4 $)

>  <Rbt.Library>
libRbt.so (2013.1, Build901 2013/11/27)

>  <Rbt.Parameter_File>
/export/apps/rDock/src/rDock_2013.1_src/data/scripts/dock_solv.prm

>  <Rbt.Receptor>
prm/blind_docking_100.prm

>  <SCORE>
5.01108

>  <SCORE.INTER>
-5.8807

>  <SCORE.INTER.CONST>
1

>  <SCORE.INTER.POLAR>
0

>  <SCORE.INTER.ROT>
6

>  <SCORE.INTER.SOLV>
13.111

>  <SCORE.INTER.VDW>
-15.8908

>  <SCORE.INTER.norm>
-0.1897

>  <SCORE.INTRA>
6.42393

>  <SCORE.INTRA.DIHEDRAL>
4.19997

>  <SCORE.INTRA.DIHEDRAL.0>
9.37739

>  <SCORE.INTRA.POLAR>
0

>  <SCORE.INTRA.POLAR.0>
0

>  <SCORE.INTRA.REPUL>
0

>  <SCORE.INTRA.REPUL.0>
0

>  <SCORE.INTRA.SOLV>
3.59585

>  <SCORE.INTRA.SOLV.lig_0>
-82.9274

>  <SCORE.INTRA.VDW>
2.52602

>  <SCORE.INTRA.VDW.0>
-3.84922

>  <SCORE.INTRA.norm>
0.207224

>  <SCORE.RESTR>
4.46785

>  <SCORE.RESTR.CAVITY>
4.46785

>  <SCORE.RESTR.norm>
0.144124

>  <SCORE.SYSTEM>
0

>  <SCORE.SYSTEM.CONST>
0

>  <SCORE.SYSTEM.DIHEDRAL>
0

>  <SCORE.SYSTEM.SOLV>
0

>  <SCORE.SYSTEM.norm>
0

>  <SCORE.heavy>
31

>  <SCORE.norm>
0.161648

>  <RMSD>
5.107

$$$$
2o3x_lig
 OpenBabel11021811463D
libRbt.so/2013.1/901 2013/11/27
 31 33  0  0  0  0  0  0  0  0999 V2000
   19.6829    6.9571    9.0971 C   0  0  2  0  0  0  0  0  0  0  0  0
   20.6734    6.3144    9.9104 O   0  0  0  0  0  0  0  0  0  0  0  0
   22.6071    7.7066   13.4630 C   0  0  2  0  0  0  0  0  0  0  0  0
   23.3887    8.5031   14.4346 N   0  0  0  0  0  0  0  0  0  0  0  0
   19.6212   10.1533   11.5588 C   0  0  1  0  0  0  0  0  0  0  0  0
   19.1131    5.9062    8.0925 C   0  0  2  0  0  0  0  0  0  0  0  0
   18.7419    4.6344    8.7638 N   0  0  0  0  0  0  0  0  0  0  0  0
   23.5075    7.1142   12.3282 C   0  0  0  0  0  0  0  0  0  0  0  0
   19.3195   11.2104   10.4463 C   0  0  2  0  0  0  0  0  0  0  0  0
   20.4775   11.8594    9.8527 O   0  0  0  0  0  0  0  0  0  0  0  0
   20.1249    5.5790    6.9781 C   0  0  1  0  0  0  0  0  0  0  0  0
   19.5725    4.6712    6.0588 O   0  0  0  0  0  0  0  0  0  0  0  0
   22.5953    6.2647   11.3698 C   0  0  2  0  0  0  0  0  0  0  0  0
   23.3863    5.6458   10.2641 N   0  0  0  0  0  0  0  0  0  0  0  0
   18.3852   12.1060   11.2425 C   0  0  2  0  0  0  0  0  0  0  0  0
   19.1395   12.9988   12.1322 O   0  0  0  0  0  0  0  0  0  0  0  0
   20.5455    6.8590    6.2757 C   0  0  2  0  0  0  0  0  0  0  0  0
   21.4420    6.5635    5.2536 O   0  0  0  0  0  0  0  0  0  0  0  0
   21.4847    7.1552   10.7431 C   0  0  2  0  0  0  0  0  0  0  0  0
   17.5223   11.1388   12.0445 C   0  0  2  0  0  0  0  0  0  0  0  0
   18.5010   10.1865   12.4516 O   0  0  0  0  0  0  0  0  0  0  0  0
   21.1969    7.8344    7.2965 C   0  0  2  0  0  0  0  0  0  0  0  0
   20.2624    8.1207    8.3593 O   0  0  0  0  0  0  0  0  0  0  0  0
   20.6028    7.8590   11.7934 C   0  0  2  0  0  0  0  0  0  0  0  0
   19.7981    8.8284   11.0340 O   0  0  0  0  0  0  0  0  0  0  0  0
   16.3802   10.4423   11.2297 C   0  0  0  0  0  0  0  0  0  0  0  0
   15.6722    9.5286   12.0626 N   0  0  0  0  0  0  0  0  0  0  0  0
   21.6207    9.1381    6.6609 C   0  0  0  0  0  0  0  0  0  0  0  0
   20.5354    9.9511    6.3976 O   0  0  0  0  0  0  0  0  0  0  0  0
   21.5120    8.6080   12.8649 C   0  0  1  0  0  0  0  0  0  0  0  0
   20.7326    9.0850   13.9722 O   0  0  0  0  0  0  0  0  0  0  0  0
  1  2  1  6  0  0  0
  1  6  1  0  0  0  0
  1 23  1  0  0  0  0
  3  4  1  1  0  0  0
  3  8  1  0  0  0  0
  3 30  1  0  0  0  0
  5  9  1  0  0  0  0
  5 21  1  0  0  0  0
  5 25  1  6  0  0  0
  6  7  1  1  0  0  0
  6 11  1  0  0  0  0
  8 13  1  0  0  0  0
  9 10  1  1  0  0  0
  9 15  1  0  0  0  0
 11 12  1  6  0  0  0
 11 17  1  0  0  0  0
 13 14  1  6  0  0  0
 13 19  1  0  0  0  0
 15 16  1  1  0  0  0
 15 20  1  0  0  0  0
 17 18  1  6  0  0  0
 17 22  1  0  0  0  0
 19  2  1  6  0  0  0
 19 24  1  0  0  0  0
 20 21  1  0  0  0  0
 20 26  1  6  0  0  0
 22 23  1  0  0  0  0
 22 28  1  6  0  0  0
 24 25  1  6  0  0  0
 24 30  1  0  0  0  0
 26 27  1  0  0  0  0
 28 29  1  0  0  0  0
 30 31  1  1  0  0  0
M  END
>  <CHROM.1>
169.53166711,154.94550226,-172.40921956,177.88995497,74.76909371,-136.66578322
20.25459914,8.37889168,10.11296052,1.29532460,0.78051183,-2.05225266

>  <Name>
2o3x_lig

>  <RI>
0

>  <Rbt.Current_Directory>
/home/itssahil/PROJECTS/Mol_Feturizer/New_Systems/rnas/2o3x

>  <Rbt.Executable>
rbdock ($Id: //depot/dev/client3/rdock/2013.1/src/exe/rbdock.cxx#4 $)

>  <Rbt.Library>
libRbt.so (2013.1, Build901 2013/11/27)

>  <Rbt.Parameter_File>
/export/apps/rDock/src/rDock_2013.1_src/data/scripts/dock_solv.prm

>  <Rbt.Receptor>
prm/pocket_docking_5.prm

>  <SCORE>
-6.71285

>  <SCORE.INTER>
-8.65028

>  <SCORE.INTER.CONST>
1

>  <SCORE.INTER.POLAR>
-1.35104

>  <SCORE.INTER.ROT>
6

>  <SCORE.INTER.SOLV>
11.7117

>  <SCORE.INTER.VDW>
-12.7673

>  <SCORE.INTER.norm>
-0.279041

>  <SCORE.INTRA>
1.89938

>  <SCORE.INTRA.DIHEDRAL>
0.96766

>  <SCORE.INTRA.DIHEDRAL.0>
9.37739

>  <SCORE.INTRA.POLAR>
0

>  <SCORE.INTRA.POLAR.0>
0

>  <SCORE.INTRA.REPUL>
0

>  <SCORE.INTRA.REPUL.0>
0

>  <SCORE.INTRA.SOLV>
-2.48197

>  <SCORE.INTRA.SOLV.lig_0>
-82.9274

>  <SCORE.INTRA.VDW>
2.65653

>  <SCORE.INTRA.VDW.0>
-3.84922

>  <SCORE.INTRA.norm>
0.0612702

>  <SCORE.RESTR>
0.0380564

>  <SCORE.RESTR.CAVITY>
0.0380564

>  <SCORE.RESTR.norm>
0.00122762

>  <SCORE.SYSTEM>
0

>  <SCORE.SYSTEM.CONST>
0

>  <SCORE.SYSTEM.DIHEDRAL>
0

>  <SCORE.SYSTEM.SOLV>
0

>  <SCORE.SYSTEM.norm>
0

>  <SCORE.heavy>
31

>  <SCORE.norm>
-0.216544

>  <RMSD>
5.107

$$$$
2o3x_lig
 OpenBabel11021811463D
libRbt.so/2013.1/901 2013/11/27
 31 33  0  0  0  0  0  0  0  0999 V2000
   20.1671    9.2767    5.5189 C   0  0  2  0  0  0  0  0  0  0  0  0
   19.2445    9.6800    6.5396 O   0  0  0  0  0  0  0  0  0  0  0  0
   18.5630    8.6713   10.6403 C   0  0  2  0  0  0  0  0  0  0  0  0
   18.4695    7.9474   11.9274 N   0  0  0  0  0  0  0  0  0  0  0  0
   21.9657    7.5463    8.2840 C   0  0  1  0  0  0  0  0  0  0  0  0
   20.1419   10.3465    4.3817 C   0  0  2  0  0  0  0  0  0  0  0  0
   20.2538   11.7293    4.9119 N   0  0  0  0  0  0  0  0  0  0  0  0
   17.5603    8.1123    9.5766 C   0  0  0  0  0  0  0  0  0  0  0  0
   21.3624    6.5939    7.2000 C   0  0  2  0  0  0  0  0  0  0  0  0
   20.0974    5.9622    7.5391 O   0  0  0  0  0  0  0  0  0  0  0  0
   18.8495   10.2590    3.5480 C   0  0  1  0  0  0  0  0  0  0  0  0
   18.8716   11.1957    2.5009 O   0  0  0  0  0  0  0  0  0  0  0  0
   17.7140    8.9613    8.2621 C   0  0  2  0  0  0  0  0  0  0  0  0
   16.7728    8.5011    7.1975 N   0  0  0  0  0  0  0  0  0  0  0  0
   22.5530    5.6637    7.0385 C   0  0  2  0  0  0  0  0  0  0  0  0
   22.6058    4.6787    8.1269 O   0  0  0  0  0  0  0  0  0  0  0  0
   18.6874    8.8511    3.0003 C   0  0  2  0  0  0  0  0  0  0  0  0
   17.5326    8.7756    2.2279 O   0  0  0  0  0  0  0  0  0  0  0  0
   19.1661    8.8599    7.7142 C   0  0  2  0  0  0  0  0  0  0  0  0
   23.7655    6.5865    7.0791 C   0  0  2  0  0  0  0  0  0  0  0  0
   23.3882    7.4727    8.1292 O   0  0  0  0  0  0  0  0  0  0  0  0
   18.6179    7.8312    4.1718 C   0  0  2  0  0  0  0  0  0  0  0  0
   19.8145    7.9303    4.9739 O   0  0  0  0  0  0  0  0  0  0  0  0
   20.2345    9.3023    8.7336 C   0  0  2  0  0  0  0  0  0  0  0  0
   21.5208    8.9042    8.1412 O   0  0  0  0  0  0  0  0  0  0  0  0
   24.0345    7.3811    5.7564 C   0  0  0  0  0  0  0  0  0  0  0  0
   22.9657    8.2890    5.5050 N   0  0  0  0  0  0  0  0  0  0  0  0
   18.4754    6.4061    3.6900 C   0  0  0  0  0  0  0  0  0  0  0  0
   18.4914    5.5105    4.7415 O   0  0  0  0  0  0  0  0  0  0  0  0
   20.0095    8.5620   10.1253 C   0  0  1  0  0  0  0  0  0  0  0  0
   20.8467    9.1124   11.1535 O   0  0  0  0  0  0  0  0  0  0  0  0
  1  2  1  1  0  0  0
  1  6  1  0  0  0  0
  1 23  1  0  0  0  0
  3  4  1  1  0  0  0
  3  8  1  0  0  0  0
  3 30  1  0  0  0  0
  5  9  1  0  0  0  0
  5 21  1  0  0  0  0
  5 25  1  6  0  0  0
  6  7  1  1  0  0  0
  6 11  1  0  0  0  0
  8 13  1  0  0  0  0
  9 10  1  1  0  0  0
  9 15  1  0  0  0  0
 11 12  1  6  0  0  0
 11 17  1  0  0  0  0
 13 14  1  6  0  0  0
 13 19  1  0  0  0  0
 15 16  1  1  0  0  0
 15 20  1  0  0  0  0
 17 18  1  1  0  0  0
 17 22  1  0  0  0  0
 19  2  1  6  0  0  0
 19 24  1  0  0  0  0
 20 21  1  0  0  0  0
 20 26  1  6  0  0  0
 22 23  1  0  0  0  0
 22 28  1  6  0  0  0
 24 25  1  6  0  0  0
 24 30  1  0  0  0  0
 26 27  1  0  0  0  0
 28 29  1  0  0  0  0
 30 31  1  1  0  0  0
M  END
>  <CHROM.1>
-176.94561840,84.16340582,-149.67117796,64.97259524,176.60209726,-81.92347039
20.09414531,8.20394710,6.70268364,-1.95063335,-0.50414110,1.65110181

>  <Name>
2o3x_lig

>  <RI>
3.41138e+07

>  <Rbt.Current_Directory>
/home/itssahil/PROJECTS/Mol_Feturizer/New_Systems/rnas/2o3x

>  <Rbt.Executable>
rbdock ($Id: //depot/dev/client3/rdock/2013.1/src/exe/rbdock.cxx#4 $)

>  <Rbt.Library>
libRbt.so (2013.1, Build901 2013/11/27)

>  <Rbt.Parameter_File>
/export/apps/rDock/src/rDock_2013.1_src/data/scripts/dock_solv.prm

>  <Rbt.Receptor>
prm/pocket_docking_2.prm

>  <SCORE>
-5.49874

>  <SCORE.INTER>
-8.50289

>  <SCORE.INTER.CONST>
1

>  <SCORE.INTER.POLAR>
-1.07395

>  <SCORE.INTER.ROT>
6

>  <SCORE.INTER.SOLV>
17.2142

>  <SCORE.INTER.VDW>
-15.4268

>  <SCORE.INTER.norm>
-0.274287

>  <SCORE.INTRA>
1.43349

>  <SCORE.INTRA.DIHEDRAL>
-0.78544

>  <SCORE.INTRA.DIHEDRAL.0>
9.37739

>  <SCORE.INTRA.POLAR>
0

>  <SCORE.INTRA.POLAR.0>
0

>  <SCORE.INTRA.REPUL>
0

>  <SCORE.INTRA.REPUL.0>
0

>  <SCORE.INTRA.SOLV>
4.90397

>  <SCORE.INTRA.SOLV.lig_0>
-82.9274

>  <SCORE.INTRA.VDW>
-0.625772

>  <SCORE.INTRA.VDW.0>
-3.84922

>  <SCORE.INTRA.norm>
0.0462416

>  <SCORE.RESTR>
1.57066

>  <SCORE.RESTR.CAVITY>
1.57066

>  <SCORE.RESTR.norm>
0.0506665

>  <SCORE.SYSTEM>
0

>  <SCORE.SYSTEM.CONST>
0

>  <SCORE.SYSTEM.DIHEDRAL>
0

>  <SCORE.SYSTEM.SOLV>
0

>  <SCORE.SYSTEM.norm>
0

>  <SCORE.heavy>
31

>  <SCORE.norm>
-0.177379

>  <RMSD>
5.108

$$$$
2o3x_lig
 OpenBabel11021811463D
libRbt.so/2013.1/901 2013/11/27
 31 33  0  0  0  0  0  0  0  0999 V2000
   20.4549    9.6618    5.4230 C   0  0  2  0  0  0  0  0  0  0  0  0
   19.6093   10.3246    6.3722 O   0  0  0  0  0  0  0  0  0  0  0  0
   18.2411    9.6880   10.3749 C   0  0  2  0  0  0  0  0  0  0  0  0
   17.8826    9.0714   11.6713 N   0  0  0  0  0  0  0  0  0  0  0  0
   21.6473    8.0020    8.1793 C   0  0  1  0  0  0  0  0  0  0  0  0
   20.5441   10.5476    4.1401 C   0  0  2  0  0  0  0  0  0  0  0  0
   20.8390   11.9676    4.4601 N   0  0  0  0  0  0  0  0  0  0  0  0
   17.3410    9.1657    9.2060 C   0  0  0  0  0  0  0  0  0  0  0  0
   23.0330    7.5682    7.5982 C   0  0  2  0  0  0  0  0  0  0  0  0
   23.1210    7.4920    6.1488 O   0  0  0  0  0  0  0  0  0  0  0  0
   19.2361   10.5040    3.3277 C   0  0  1  0  0  0  0  0  0  0  0  0
   19.3570   11.2663    2.1536 O   0  0  0  0  0  0  0  0  0  0  0  0
   17.7771    9.8981    7.8847 C   0  0  2  0  0  0  0  0  0  0  0  0
   16.9491    9.4671    6.7185 N   0  0  0  0  0  0  0  0  0  0  0  0
   23.1836    6.2551    8.3478 C   0  0  2  0  0  0  0  0  0  0  0  0
   22.3892    5.1924    7.7174 O   0  0  0  0  0  0  0  0  0  0  0  0
   18.8879    9.0631    2.9940 C   0  0  2  0  0  0  0  0  0  0  0  0
   17.7190    9.0227    2.2406 O   0  0  0  0  0  0  0  0  0  0  0  0
   19.2704    9.6030    7.5651 C   0  0  2  0  0  0  0  0  0  0  0  0
   22.6732    6.5574    9.7518 C   0  0  2  0  0  0  0  0  0  0  0  0
   21.5305    7.3541    9.4519 O   0  0  0  0  0  0  0  0  0  0  0  0
   18.7118    8.2434    4.3035 C   0  0  2  0  0  0  0  0  0  0  0  0
   19.9257    8.3060    5.0829 O   0  0  0  0  0  0  0  0  0  0  0  0
   20.2278    9.9995    8.7064 C   0  0  2  0  0  0  0  0  0  0  0  0
   21.5299    9.4248    8.3344 O   0  0  0  0  0  0  0  0  0  0  0  0
   23.6736    7.3478   10.6616 C   0  0  0  0  0  0  0  0  0  0  0  0
   23.1075    7.5463   11.9539 N   0  0  0  0  0  0  0  0  0  0  0  0
   18.3821    6.7929    4.0376 C   0  0  0  0  0  0  0  0  0  0  0  0
   18.2178    6.0858    5.2127 O   0  0  0  0  0  0  0  0  0  0  0  0
   19.7233    9.3880   10.0874 C   0  0  1  0  0  0  0  0  0  0  0  0
   20.4648    9.9170   11.1972 O   0  0  0  0  0  0  0  0  0  0  0  0
  1  2  1  1  0  0  0
  1  6  1  0  0  0  0
  1 23  1  0  0  0  0
  3  4  1  1  0  0  0
  3  8  1  0  0  0  0
  3 30  1  0  0  0  0
  5  9  1  0  0  0  0
  5 21  1  0  0  0  0
  5 25  1  1  0  0  0
  6  7  1  1  0  0  0
  6 11  1  0  0  0  0
  8 13  1  0  0  0  0
  9 10  1  6  0  0  0
  9 15  1  0  0  0  0
 11 12  1  6  0  0  0
 11 17  1  0  0  0  0
 13 14  1  6  0  0  0
 13 19  1  0  0  0  0
 15 16  1  6  0  0  0
 15 20  1  0  0  0  0
 17 18  1  1  0  0  0
 17 22  1  0  0  0  0
 19  2  1  6  0  0  0
 19 24  1  0  0  0  0
 20 21  1  0  0  0  0
 20 26  1  1  0  0  0
 22 23  1  0  0  0  0
 22 28  1  6  0  0  0
 24 25  1  6  0  0  0
 24 30  1  0  0  0  0
 26 27  1  0  0  0  0
 28 29  1  0  0  0  0
 30 31  1  1  0  0  0
M  END
>  <CHROM.1>
172.99007212,172.25185729,-140.26164592,-178.63959651,-179.44503424,-60.77829808
20.18908820,8.71347141,7.10796495,-2.03706689,-0.58096085,1.55187733

>  <Name>
2o3x_lig

>  <RI>
3.34184e+07

>  <Rbt.Current_Directory>
/home/itssahil/PROJECTS/Mol_Feturizer/New_Systems/rnas/2o3x

>  <Rbt.Executable>
rbdock ($Id: //depot/dev/client3/rdock/2013.1/src/exe/rbdock.cxx#4 $)

>  <Rbt.Library>
libRbt.so (2013.1, Build901 2013/11/27)

>  <Rbt.Parameter_File>
/export/apps/rDock/src/rDock_2013.1_src/data/scripts/dock_solv.prm

>  <Rbt.Receptor>
prm/pocket_docking_6.prm

>  <SCORE>
-14.7602

>  <SCORE.INTER>
-13.5347

>  <SCORE.INTER.CONST>
1

>  <SCORE.INTER.POLAR>
-1.17134

>  <SCORE.INTER.ROT>
6

>  <SCORE.INTER.SOLV>
21.7755

>  <SCORE.INTER.VDW>
-19.9771

>  <SCORE.INTER.norm>
-0.436602

>  <SCORE.INTRA>
-1.22549

>  <SCORE.INTRA.DIHEDRAL>
-3.36427

>  <SCORE.INTRA.DIHEDRAL.0>
9.37739

>  <SCORE.INTRA.POLAR>
0

>  <SCORE.INTRA.POLAR.0>
0

>  <SCORE.INTRA.REPUL>
0

>  <SCORE.INTRA.REPUL.0>
0

>  <SCORE.INTRA.SOLV>
0.509806

>  <SCORE.INTRA.SOLV.lig_0>
-82.9274

>  <SCORE.INTRA.VDW>
0.201737

>  <SCORE.INTRA.VDW.0>
-3.84922

>  <SCORE.INTRA.norm>
-0.0395321

>  <SCORE.RESTR>
0

>  <SCORE.RESTR.CAVITY>
0

>  <SCORE.RESTR.norm>
0

>  <SCORE.SYSTEM>
0

>  <SCORE.SYSTEM.CONST>
0

>  <SCORE.SYSTEM.DIHEDRAL>
0

>  <SCORE.SYSTEM.SOLV>
0

>  <SCORE.SYSTEM.norm>
0

>  <SCORE.heavy>
31

>  <SCORE.norm>
-0.476134

>  <RMSD>
5.115

$$$$
2o3x_lig
 OpenBabel11021811463D
libRbt.so/2013.1/901 2013/11/27
 31 33  0  0  0  0  0  0  0  0999 V2000
   19.9464    8.0217    8.9330 C   0  0  2  0  0  0  0  0  0  0  0  0
   19.8512    8.4011    7.5537 O   0  0  0  0  0  0  0  0  0  0  0  0
   22.6033    8.0980    4.2931 C   0  0  2  0  0  0  0  0  0  0  0  0
   23.8164    8.1653    3.4485 N   0  0  0  0  0  0  0  0  0  0  0  0
   22.4817    5.3096    8.0560 C   0  0  1  0  0  0  0  0  0  0  0  0
   18.5558    7.4796    9.3919 C   0  0  2  0  0  0  0  0  0  0  0  0
   17.9985    6.4888    8.4361 N   0  0  0  0  0  0  0  0  0  0  0  0
   22.0612    9.5199    4.6585 C   0  0  0  0  0  0  0  0  0  0  0  0
   23.6828    5.0798    9.0311 C   0  0  2  0  0  0  0  0  0  0  0  0
   25.0033    5.0608    8.4227 O   0  0  0  0  0  0  0  0  0  0  0  0
   17.5283    8.6159    9.5534 C   0  0  1  0  0  0  0  0  0  0  0  0
   16.3009    8.1113   10.0152 O   0  0  0  0  0  0  0  0  0  0  0  0
   20.7621    9.3426    5.5264 C   0  0  2  0  0  0  0  0  0  0  0  0
   20.1686   10.6607    5.9029 N   0  0  0  0  0  0  0  0  0  0  0  0
   23.2136    3.7752    9.6531 C   0  0  2  0  0  0  0  0  0  0  0  0
   23.4886    2.6374    8.7657 O   0  0  0  0  0  0  0  0  0  0  0  0
   18.0688    9.6630   10.5126 C   0  0  2  0  0  0  0  0  0  0  0  0
   17.1329   10.6790   10.6780 O   0  0  0  0  0  0  0  0  0  0  0  0
   21.0800    8.5548    6.8293 C   0  0  2  0  0  0  0  0  0  0  0  0
   21.7138    3.9642    9.8484 C   0  0  2  0  0  0  0  0  0  0  0  0
   21.3679    4.6128    8.6277 O   0  0  0  0  0  0  0  0  0  0  0  0
   19.4028   10.2449    9.9654 C   0  0  2  0  0  0  0  0  0  0  0  0
   20.3597    9.1790    9.7839 O   0  0  0  0  0  0  0  0  0  0  0  0
   21.7095    7.1722    6.5673 C   0  0  2  0  0  0  0  0  0  0  0  0
   22.1625    6.6991    7.8844 O   0  0  0  0  0  0  0  0  0  0  0  0
   21.3148    4.8506   11.0766 C   0  0  0  0  0  0  0  0  0  0  0  0
   19.8964    4.9445   11.1720 N   0  0  0  0  0  0  0  0  0  0  0  0
   20.0025   11.2815   10.8869 C   0  0  0  0  0  0  0  0  0  0  0  0
   20.8693   12.1195   10.2129 O   0  0  0  0  0  0  0  0  0  0  0  0
   22.9432    7.3077    5.5696 C   0  0  1  0  0  0  0  0  0  0  0  0
   23.4103    6.0214    5.1356 O   0  0  0  0  0  0  0  0  0  0  0  0
  1  2  1  6  0  0  0
  1  6  1  0  0  0  0
  1 23  1  0  0  0  0
  3  4  1  6  0  0  0
  3  8  1  0  0  0  0
  3 30  1  0  0  0  0
  5  9  1  0  0  0  0
  5 21  1  0  0  0  0
  5 25  1  1  0  0  0
  6  7  1  6  0  0  0
  6 11  1  0  0  0  0
  8 13  1  0  0  0  0
  9 10  1  6  0  0  0
  9 15  1  0  0  0  0
 11 12  1  1  0  0  0
 11 17  1  0  0  0  0
 13 14  1  1  0  0  0
 13 19  1  0  0  0  0
 15 16  1  6  0  0  0
 15 20  1  0  0  0  0
 17 18  1  6  0  0  0
 17 22  1  0  0  0  0
 19  2  1  6  0  0  0
 19 24  1  0  0  0  0
 20 21  1  0  0  0  0
 20 26  1  1  0  0  0
 22 23  1  0  0  0  0
 22 28  1  1  0  0  0
 24 25  1  1  0  0  0
 24 30  1  0  0  0  0
 26 27  1  0  0  0  0
 28 29  1  0  0  0  0
 30 31  1  6  0  0  0
M  END
>  <CHROM.1>
-162.32435155,144.23039517,-164.09597491,-179.25541579,-157.98385228,164.09123244
20.93357625,7.48483692,8.29518928,2.86585567,0.79585267,-0.69956840

>  <Name>
2o3x_lig

>  <RI>
0

>  <Rbt.Current_Directory>
/home/itssahil/PROJECTS/Mol_Feturizer/New_Systems/rnas/2o3x

>  <Rbt.Executable>
rbdock ($Id: //depot/dev/client3/rdock/2013.1/src/exe/rbdock.cxx#4 $)

>  <Rbt.Library>
libRbt.so (2013.1, Build901 2013/11/27)

>  <Rbt.Parameter_File>
/export/apps/rDock/src/rDock_2013.1_src/data/scripts/dock_solv.prm

>  <Rbt.Receptor>
prm/pocket_docking_8.prm

>  <SCORE>
-11.7645

>  <SCORE.INTER>
-12.3252

>  <SCORE.INTER.CONST>
1

>  <SCORE.INTER.POLAR>
-2.59236

>  <SCORE.INTER.ROT>
6

>  <SCORE.INTER.SOLV>
16.7556

>  <SCORE.INTER.VDW>
-12.7608

>  <SCORE.INTER.norm>
-0.397587

>  <SCORE.INTRA>
0.549868

>  <SCORE.INTRA.DIHEDRAL>
0.813363

>  <SCORE.INTRA.DIHEDRAL.0>
9.37739

>  <SCORE.INTRA.POLAR>
0

>  <SCORE.INTRA.POLAR.0>
0

>  <SCORE.INTRA.REPUL>
0

>  <SCORE.INTRA.REPUL.0>
0

>  <SCORE.INTRA.SOLV>
-0.0241308

>  <SCORE.INTRA.SOLV.lig_0>
-82.9274

>  <SCORE.INTRA.VDW>
0.155252

>  <SCORE.INTRA.VDW.0>
-3.84922

>  <SCORE.INTRA.norm>
0.0177377

>  <SCORE.RESTR>
0.0108404

>  <SCORE.RESTR.CAVITY>
0.0108404

>  <SCORE.RESTR.norm>
0.000349691

>  <SCORE.SYSTEM>
0

>  <SCORE.SYSTEM.CONST>
0

>  <SCORE.SYSTEM.DIHEDRAL>
0

>  <SCORE.SYSTEM.SOLV>
0

>  <SCORE.SYSTEM.norm>
0

>  <SCORE.heavy>
31

>  <SCORE.norm>
-0.3795

>  <RMSD>
5.125

$$$$
2o3x_lig
 OpenBabel11021811463D
libRbt.so/2013.1/901 2013/11/27
 31 33  0  0  0  0  0  0  0  0999 V2000
   20.0006    9.4054    5.4437 C   0  0  2  0  0  0  0  0  0  0  0  0
   18.9630    9.9204    6.2884 O   0  0  0  0  0  0  0  0  0  0  0  0
   18.3497    9.6584   10.5137 C   0  0  2  0  0  0  0  0  0  0  0  0
   18.1968    9.1572   11.8975 N   0  0  0  0  0  0  0  0  0  0  0  0
   21.2881    7.5408    8.1961 C   0  0  1  0  0  0  0  0  0  0  0  0
   20.2769   10.4460    4.3127 C   0  0  2  0  0  0  0  0  0  0  0  0
   20.4351   11.8231    4.8461 N   0  0  0  0  0  0  0  0  0  0  0  0
   17.1957    9.1654    9.5785 C   0  0  0  0  0  0  0  0  0  0  0  0
   20.1959    6.6650    7.4989 C   0  0  2  0  0  0  0  0  0  0  0  0
   18.9761    6.4428    8.2586 O   0  0  0  0  0  0  0  0  0  0  0  0
   19.1431   10.4663    3.2701 C   0  0  1  0  0  0  0  0  0  0  0  0
   19.4370   11.3719    2.2368 O   0  0  0  0  0  0  0  0  0  0  0  0
   17.4300    9.7721    8.1469 C   0  0  2  0  0  0  0  0  0  0  0  0
   16.3551    9.3626    7.1939 N   0  0  0  0  0  0  0  0  0  0  0  0
   21.0449    5.4357    7.2215 C   0  0  2  0  0  0  0  0  0  0  0  0
   21.1883    4.6092    8.4273 O   0  0  0  0  0  0  0  0  0  0  0  0
   18.9361    9.0687    2.7110 C   0  0  2  0  0  0  0  0  0  0  0  0
   17.9280    9.0889    1.7523 O   0  0  0  0  0  0  0  0  0  0  0  0
   18.7996    9.3070    7.5751 C   0  0  2  0  0  0  0  0  0  0  0  0
   22.3924    5.9951    6.7806 C   0  0  2  0  0  0  0  0  0  0  0  0
   22.5484    7.0683    7.7049 O   0  0  0  0  0  0  0  0  0  0  0  0
   18.5662    8.0878    3.8593 C   0  0  2  0  0  0  0  0  0  0  0  0
   19.6126    8.0878    4.8543 O   0  0  0  0  0  0  0  0  0  0  0  0
   19.9928    9.6675    8.4820 C   0  0  2  0  0  0  0  0  0  0  0  0
   21.1403    8.9415    7.9161 O   0  0  0  0  0  0  0  0  0  0  0  0
   22.4366    6.5251    5.3073 C   0  0  0  0  0  0  0  0  0  0  0  0
   22.2887    5.4424    4.3932 N   0  0  0  0  0  0  0  0  0  0  0  0
   18.3655    6.6728    3.3685 C   0  0  0  0  0  0  0  0  0  0  0  0
   17.9331    5.8402    4.3824 O   0  0  0  0  0  0  0  0  0  0  0  0
   19.7142    9.1914    9.9758 C   0  0  1  0  0  0  0  0  0  0  0  0
   20.7024    9.7039   10.8825 O   0  0  0  0  0  0  0  0  0  0  0  0
  1  2  1  1  0  0  0
  1  6  1  0  0  0  0
  1 23  1  0  0  0  0
  3  4  1  1  0  0  0
  3  8  1  0  0  0  0
  3 30  1  0  0  0  0
  5  9  1  0  0  0  0
  5 21  1  0  0  0  0
  5 25  1  6  0  0  0
  6  7  1  1  0  0  0
  6 11  1  0  0  0  0
  8 13  1  0  0  0  0
  9 10  1  1  0  0  0
  9 15  1  0  0  0  0
 11 12  1  6  0  0  0
 11 17  1  0  0  0  0
 13 14  1  6  0  0  0
 13 19  1  0  0  0  0
 15 16  1  1  0  0  0
 15 20  1  0  0  0  0
 17 18  1  6  0  0  0
 17 22  1  0  0  0  0
 19  2  1  6  0  0  0
 19 24  1  0  0  0  0
 20 21  1  0  0  0  0
 20 26  1  6  0  0  0
 22 23  1  0  0  0  0
 22 28  1  6  0  0  0
 24 25  1  6  0  0  0
 24 30  1  0  0  0  0
 26 27  1  0  0  0  0
 28 29  1  0  0  0  0
 30 31  1  1  0  0  0
M  END
>  <CHROM.1>
-163.78407124,69.24432074,-166.16926373,-67.21764928,-175.13008364,-78.97371507
19.67811075,8.36472467,6.53934408,1.69385477,0.96278050,-1.56936519

>  <Name>
2o3x_lig

>  <RI>
0

>  <Rbt.Current_Directory>
/home/itssahil/PROJECTS/Mol_Feturizer/New_Systems/rnas/2o3x

>  <Rbt.Executable>
rbdock ($Id: //depot/dev/client3/rdock/2013.1/src/exe/rbdock.cxx#4 $)

>  <Rbt.Library>
libRbt.so (2013.1, Build901 2013/11/27)

>  <Rbt.Parameter_File>
/export/apps/rDock/src/rDock_2013.1_src/data/scripts/dock_solv.prm

>  <Rbt.Receptor>
prm/pocket_docking_5.prm

>  <SCORE>
-13.9809

>  <SCORE.INTER>
-11.3238

>  <SCORE.INTER.CONST>
1

>  <SCORE.INTER.POLAR>
-1.60749

>  <SCORE.INTER.ROT>
6

>  <SCORE.INTER.SOLV>
17.8366

>  <SCORE.INTER.VDW>
-15.7364

>  <SCORE.INTER.norm>
-0.365283

>  <SCORE.INTRA>
-2.65717

>  <SCORE.INTRA.DIHEDRAL>
-4.75317

>  <SCORE.INTRA.DIHEDRAL.0>
9.37739

>  <SCORE.INTRA.POLAR>
0

>  <SCORE.INTRA.POLAR.0>
0

>  <SCORE.INTRA.REPUL>
0

>  <SCORE.INTRA.REPUL.0>
0

>  <SCORE.INTRA.SOLV>
-0.389506

>  <SCORE.INTRA.SOLV.lig_0>
-82.9274

>  <SCORE.INTRA.VDW>
-0.0858302

>  <SCORE.INTRA.VDW.0>
-3.84922

>  <SCORE.INTRA.norm>
-0.0857151

>  <SCORE.RESTR>
0

>  <SCORE.RESTR.CAVITY>
0

>  <SCORE.RESTR.norm>
0

>  <SCORE.SYSTEM>
0

>  <SCORE.SYSTEM.CONST>
0

>  <SCORE.SYSTEM.DIHEDRAL>
0

>  <SCORE.SYSTEM.SOLV>
0

>  <SCORE.SYSTEM.norm>
0

>  <SCORE.heavy>
31

>  <SCORE.norm>
-0.450998

>  <RMSD>
5.129

$$$$
2o3x_lig
 OpenBabel11021811463D
libRbt.so/2013.1/901 2013/11/27
 31 33  0  0  0  0  0  0  0  0999 V2000
   21.9155    7.0596    6.6472 C   0  0  2  0  0  0  0  0  0  0  0  0
   22.5149    7.5830    7.8397 O   0  0  0  0  0  0  0  0  0  0  0  0
   21.3689    7.8993   11.9488 C   0  0  2  0  0  0  0  0  0  0  0  0
   20.8329    7.6168   13.2988 N   0  0  0  0  0  0  0  0  0  0  0  0
   23.1623    4.4927   10.0435 C   0  0  1  0  0  0  0  0  0  0  0  0
   23.0060    7.0051    5.5308 C   0  0  2  0  0  0  0  0  0  0  0  0
   24.2646    6.3777    6.0084 N   0  0  0  0  0  0  0  0  0  0  0  0
   20.2376    7.9713   10.8698 C   0  0  0  0  0  0  0  0  0  0  0  0
   21.7418    4.2968    9.4190 C   0  0  2  0  0  0  0  0  0  0  0  0
   20.6205    4.7309   10.2366 O   0  0  0  0  0  0  0  0  0  0  0  0
   23.3459    8.4105    4.9998 C   0  0  1  0  0  0  0  0  0  0  0  0
   24.2906    8.3326    3.9626 O   0  0  0  0  0  0  0  0  0  0  0  0
   20.9010    8.3037    9.4835 C   0  0  2  0  0  0  0  0  0  0  0  0
   19.8809    8.4093    8.3974 N   0  0  0  0  0  0  0  0  0  0  0  0
   21.8289    2.8057    9.1398 C   0  0  2  0  0  0  0  0  0  0  0  0
   21.5923    2.0245   10.3611 O   0  0  0  0  0  0  0  0  0  0  0  0
   22.0789    9.0959    4.5163 C   0  0  2  0  0  0  0  0  0  0  0  0
   22.3867   10.3567    4.0150 O   0  0  0  0  0  0  0  0  0  0  0  0
   21.9264    7.2019    9.0915 C   0  0  2  0  0  0  0  0  0  0  0  0
   23.2484    2.5968    8.6255 C   0  0  2  0  0  0  0  0  0  0  0  0
   23.9777    3.4413    9.5118 O   0  0  0  0  0  0  0  0  0  0  0  0
   21.0619    9.2164    5.6863 C   0  0  2  0  0  0  0  0  0  0  0  0
   20.7629    7.9034    6.2073 O   0  0  0  0  0  0  0  0  0  0  0  0
   23.0305    6.9935   10.1469 C   0  0  2  0  0  0  0  0  0  0  0  0
   23.7358    5.7716    9.7309 O   0  0  0  0  0  0  0  0  0  0  0  0
   23.4810    3.0267    7.1374 C   0  0  0  0  0  0  0  0  0  0  0  0
   22.6147    2.2943    6.2755 N   0  0  0  0  0  0  0  0  0  0  0  0
   19.7692    9.8747    5.2631 C   0  0  0  0  0  0  0  0  0  0  0  0
   19.8062   11.2410    5.4623 O   0  0  0  0  0  0  0  0  0  0  0  0
   22.3852    6.8002   11.5898 C   0  0  1  0  0  0  0  0  0  0  0  0
   23.3857    6.8238   12.6192 O   0  0  0  0  0  0  0  0  0  0  0  0
  1  2  1  1  0  0  0
  1  6  1  0  0  0  0
  1 23  1  0  0  0  0
  3  4  1  1  0  0  0
  3  8  1  0  0  0  0
  3 30  1  0  0  0  0
  5  9  1  0  0  0  0
  5 21  1  0  0  0  0
  5 25  1  6  0  0  0
  6  7  1  1  0  0  0
  6 11  1  0  0  0  0
  8 13  1  0  0  0  0
  9 10  1  1  0  0  0
  9 15  1  0  0  0  0
 11 12  1  6  0  0  0
 11 17  1  0  0  0  0
 13 14  1  6  0  0  0
 13 19  1  0  0  0  0
 15 16  1  1  0  0  0
 15 20  1  0  0  0  0
 17 18  1  1  0  0  0
 17 22  1  0  0  0  0
 19  2  1  6  0  0  0
 19 24  1  0  0  0  0
 20 21  1  0  0  0  0
 20 26  1  6  0  0  0
 22 23  1  0  0  0  0
 22 28  1  6  0  0  0
 24 25  1  6  0  0  0
 24 30  1  0  0  0  0
 26 27  1  0  0  0  0
 28 29  1  0  0  0  0
 30 31  1  1  0  0  0
M  END
>  <CHROM.1>
-153.71722756,59.63940516,-93.68171256,-59.17791463,-91.80000992,-80.15160809
22.10744429,6.65373100,8.18172824,-1.79547518,-1.16057577,2.10324336

>  <Name>
2o3x_lig

>  <RI>
0

>  <Rbt.Current_Directory>
/home/itssahil/PROJECTS/Mol_Feturizer/New_Systems/rnas/2o3x

>  <Rbt.Executable>
rbdock ($Id: //depot/dev/client3/rdock/2013.1/src/exe/rbdock.cxx#4 $)

>  <Rbt.Library>
libRbt.so (2013.1, Build901 2013/11/27)

>  <Rbt.Parameter_File>
/export/apps/rDock/src/rDock_2013.1_src/data/scripts/dock_solv.prm

>  <Rbt.Receptor>
prm/blind_docking_40.prm

>  <SCORE>
3.39301

>  <SCORE.INTER>
-8.22392

>  <SCORE.INTER.CONST>
1

>  <SCORE.INTER.POLAR>
-0.894427

>  <SCORE.INTER.ROT>
6

>  <SCORE.INTER.SOLV>
11.4754

>  <SCORE.INTER.VDW>
-13.9263

>  <SCORE.INTER.norm>
-0.265288

>  <SCORE.INTRA>
4.2848

>  <SCORE.INTRA.DIHEDRAL>
2.63693

>  <SCORE.INTRA.DIHEDRAL.0>
9.37739

>  <SCORE.INTRA.POLAR>
0

>  <SCORE.INTRA.POLAR.0>
0

>  <SCORE.INTRA.REPUL>
0

>  <SCORE.INTRA.REPUL.0>
0

>  <SCORE.INTRA.SOLV>
2.98551

>  <SCORE.INTRA.SOLV.lig_0>
-82.9274

>  <SCORE.INTRA.VDW>
1.47357

>  <SCORE.INTRA.VDW.0>
-3.84922

>  <SCORE.INTRA.norm>
0.138219

>  <SCORE.RESTR>
7.33213

>  <SCORE.RESTR.CAVITY>
7.33213

>  <SCORE.RESTR.norm>
0.23652

>  <SCORE.SYSTEM>
0

>  <SCORE.SYSTEM.CONST>
0

>  <SCORE.SYSTEM.DIHEDRAL>
0

>  <SCORE.SYSTEM.SOLV>
0

>  <SCORE.SYSTEM.norm>
0

>  <SCORE.heavy>
31

>  <SCORE.norm>
0.109452

>  <RMSD>
5.140

$$$$
2o3x_lig
 OpenBabel11021811463D
libRbt.so/2013.1/901 2013/11/27
 31 33  0  0  0  0  0  0  0  0999 V2000
   21.2753    8.2173    7.6277 C   0  0  2  0  0  0  0  0  0  0  0  0
   20.2109    7.4248    7.0850 O   0  0  0  0  0  0  0  0  0  0  0  0
   17.2503    4.8914    8.8499 C   0  0  2  0  0  0  0  0  0  0  0  0
   16.5596    3.8817    9.6822 N   0  0  0  0  0  0  0  0  0  0  0  0
   19.2136    8.9288   10.5584 C   0  0  1  0  0  0  0  0  0  0  0  0
   21.7026    9.2688    6.5552 C   0  0  2  0  0  0  0  0  0  0  0  0
   20.5358    9.9789    5.9721 N   0  0  0  0  0  0  0  0  0  0  0  0
   18.2695    4.2386    7.8577 C   0  0  0  0  0  0  0  0  0  0  0  0
   19.2826   10.1878    9.6329 C   0  0  2  0  0  0  0  0  0  0  0  0
   20.5299   10.9345    9.6642 O   0  0  0  0  0  0  0  0  0  0  0  0
   22.4885    8.6166    5.4019 C   0  0  1  0  0  0  0  0  0  0  0  0
   22.9058    9.5877    4.4761 O   0  0  0  0  0  0  0  0  0  0  0  0
   18.9252    5.3836    7.0025 C   0  0  2  0  0  0  0  0  0  0  0  0
   19.9020    4.8392    6.0122 N   0  0  0  0  0  0  0  0  0  0  0  0
   18.0550   10.9132   10.1579 C   0  0  2  0  0  0  0  0  0  0  0  0
   18.3496   11.6067   11.4189 O   0  0  0  0  0  0  0  0  0  0  0  0
   23.6843    7.8625    5.9587 C   0  0  2  0  0  0  0  0  0  0  0  0
   24.4087    7.2917    4.9170 O   0  0  0  0  0  0  0  0  0  0  0  0
   19.6674    6.3945    7.9226 C   0  0  2  0  0  0  0  0  0  0  0  0
   17.0232    9.8115   10.3698 C   0  0  2  0  0  0  0  0  0  0  0  0
   17.8390    8.7911   10.9387 O   0  0  0  0  0  0  0  0  0  0  0  0
   23.2038    6.7613    6.9457 C   0  0  2  0  0  0  0  0  0  0  0  0
   22.4409    7.3646    8.0129 O   0  0  0  0  0  0  0  0  0  0  0  0
   18.7583    7.0202    8.9988 C   0  0  2  0  0  0  0  0  0  0  0  0
   19.6700    7.7335    9.9065 O   0  0  0  0  0  0  0  0  0  0  0  0
   16.3284    9.2981    9.0633 C   0  0  0  0  0  0  0  0  0  0  0  0
   15.2331    8.4487    9.3931 N   0  0  0  0  0  0  0  0  0  0  0  0
   24.3514    5.9859    7.5500 C   0  0  0  0  0  0  0  0  0  0  0  0
   23.9024    4.9959    8.4022 O   0  0  0  0  0  0  0  0  0  0  0  0
   17.9686    5.8820    9.7840 C   0  0  1  0  0  0  0  0  0  0  0  0
   16.9567    6.4387   10.6369 O   0  0  0  0  0  0  0  0  0  0  0  0
  1  2  1  6  0  0  0
  1  6  1  0  0  0  0
  1 23  1  0  0  0  0
  3  4  1  1  0  0  0
  3  8  1  0  0  0  0
  3 30  1  0  0  0  0
  5  9  1  0  0  0  0
  5 21  1  0  0  0  0
  5 25  1  6  0  0  0
  6  7  1  6  0  0  0
  6 11  1  0  0  0  0
  8 13  1  0  0  0  0
  9 10  1  1  0  0  0
  9 15  1  0  0  0  0
 11 12  1  6  0  0  0
 11 17  1  0  0  0  0
 13 14  1  6  0  0  0
 13 19  1  0  0  0  0
 15 16  1  1  0  0  0
 15 20  1  0  0  0  0
 17 18  1  6  0  0  0
 17 22  1  0  0  0  0
 19  2  1  6  0  0  0
 19 24  1  0  0  0  0
 20 21  1  0  0  0  0
 20 26  1  6  0  0  0
 22 23  1  0  0  0  0
 22 28  1  1  0  0  0
 24 25  1  1  0  0  0
 24 30  1  0  0  0  0
 26 27  1  0  0  0  0
 28 29  1  0  0  0  0
 30 31  1  1  0  0  0
M  END
>  <CHROM.1>
-179.77086198,-80.27916982,-160.52070046,-169.99251325,-178.78463335,147.97570596
19.93712184,7.72689300,8.29474555,-0.23582833,0.55685952,0.20495530

>  <Name>
2o3x_lig

>  <RI>
2.78316e+07

>  <Rbt.Current_Directory>
/home/itssahil/PROJECTS/Mol_Feturizer/New_Systems/rnas/2o3x

>  <Rbt.Executable>
rbdock ($Id: //depot/dev/client3/rdock/2013.1/src/exe/rbdock.cxx#4 $)

>  <Rbt.Library>
libRbt.so (2013.1, Build901 2013/11/27)

>  <Rbt.Parameter_File>
/export/apps/rDock/src/rDock_2013.1_src/data/scripts/dock_solv.prm

>  <Rbt.Receptor>
prm/pocket_docking_7.prm

>  <SCORE>
-3.61307

>  <SCORE.INTER>
-3.31743

>  <SCORE.INTER.CONST>
1

>  <SCORE.INTER.POLAR>
-1.21573

>  <SCORE.INTER.ROT>
6

>  <SCORE.INTER.SOLV>
7.82729

>  <SCORE.INTER.VDW>
-8.36829

>  <SCORE.INTER.norm>
-0.107014

>  <SCORE.INTRA>
-0.295645

>  <SCORE.INTRA.DIHEDRAL>
-1.35564

>  <SCORE.INTRA.DIHEDRAL.0>
9.37739

>  <SCORE.INTRA.POLAR>
0

>  <SCORE.INTRA.POLAR.0>
0

>  <SCORE.INTRA.REPUL>
0

>  <SCORE.INTRA.REPUL.0>
0

>  <SCORE.INTRA.SOLV>
1.16566

>  <SCORE.INTRA.SOLV.lig_0>
-82.9274

>  <SCORE.INTRA.VDW>
-0.200658

>  <SCORE.INTRA.VDW.0>
-3.84922

>  <SCORE.INTRA.norm>
-0.00953694

>  <SCORE.RESTR>
0

>  <SCORE.RESTR.CAVITY>
0

>  <SCORE.RESTR.norm>
0

>  <SCORE.SYSTEM>
0

>  <SCORE.SYSTEM.CONST>
0

>  <SCORE.SYSTEM.DIHEDRAL>
0

>  <SCORE.SYSTEM.SOLV>
0

>  <SCORE.SYSTEM.norm>
0

>  <SCORE.heavy>
31

>  <SCORE.norm>
-0.116551

>  <RMSD>
5.155

$$$$
2o3x_lig
 OpenBabel11021811463D
libRbt.so/2013.1/901 2013/11/27
 31 33  0  0  0  0  0  0  0  0999 V2000
   19.9835    9.3588    5.4407 C   0  0  2  0  0  0  0  0  0  0  0  0
   18.9518    9.8730    6.2933 O   0  0  0  0  0  0  0  0  0  0  0  0
   18.3308    9.5950   10.5164 C   0  0  2  0  0  0  0  0  0  0  0  0
   18.1819    9.0893   11.8991 N   0  0  0  0  0  0  0  0  0  0  0  0
   21.1825    7.4918    7.9888 C   0  0  1  0  0  0  0  0  0  0  0  0
   20.2443   10.3958    4.3027 C   0  0  2  0  0  0  0  0  0  0  0  0
   20.4016   11.7758    4.8287 N   0  0  0  0  0  0  0  0  0  0  0  0
   17.1873    9.0854    9.5772 C   0  0  0  0  0  0  0  0  0  0  0  0
   22.3740    6.8850    7.1775 C   0  0  2  0  0  0  0  0  0  0  0  0
   22.1036    6.5760    5.7825 O   0  0  0  0  0  0  0  0  0  0  0  0
   19.1004   10.4067    3.2711 C   0  0  1  0  0  0  0  0  0  0  0  0
   19.3803   11.3092    2.2312 O   0  0  0  0  0  0  0  0  0  0  0  0
   17.4161    9.6979    8.1472 C   0  0  2  0  0  0  0  0  0  0  0  0
   16.3505    9.2730    7.1906 N   0  0  0  0  0  0  0  0  0  0  0  0
   22.6724    5.6995    8.0799 C   0  0  2  0  0  0  0  0  0  0  0  0
   21.7236    4.6032    7.8436 O   0  0  0  0  0  0  0  0  0  0  0  0
   18.8940    9.0059    2.7199 C   0  0  2  0  0  0  0  0  0  0  0  0
   17.8766    9.0176    1.7710 O   0  0  0  0  0  0  0  0  0  0  0  0
   18.7945    9.2551    7.5786 C   0  0  2  0  0  0  0  0  0  0  0  0
   22.5273    6.2509    9.4934 C   0  0  2  0  0  0  0  0  0  0  0  0
   21.3649    7.0612    9.3432 O   0  0  0  0  0  0  0  0  0  0  0  0
   18.5396    8.0282    3.8759 C   0  0  2  0  0  0  0  0  0  0  0  0
   19.5955    8.0370    4.8607 O   0  0  0  0  0  0  0  0  0  0  0  0
   19.9794    9.6329    8.4894 C   0  0  2  0  0  0  0  0  0  0  0  0
   21.1396    8.9258    7.9258 O   0  0  0  0  0  0  0  0  0  0  0  0
   23.7377    7.1098    9.9941 C   0  0  0  0  0  0  0  0  0  0  0  0
   23.5199    7.5247   11.3396 N   0  0  0  0  0  0  0  0  0  0  0  0
   18.3403    6.6103    3.3931 C   0  0  0  0  0  0  0  0  0  0  0  0
   17.9715    5.7696    4.4252 O   0  0  0  0  0  0  0  0  0  0  0  0
   19.7041    9.1502    9.9817 C   0  0  1  0  0  0  0  0  0  0  0  0
   20.6815    9.6768   10.8919 O   0  0  0  0  0  0  0  0  0  0  0  0
  1  2  1  1  0  0  0
  1  6  1  0  0  0  0
  1 23  1  0  0  0  0
  3  4  1  1  0  0  0
  3  8  1  0  0  0  0
  3 30  1  0  0  0  0
  5  9  1  0  0  0  0
  5 21  1  0  0  0  0
  5 25  1  1  0  0  0
  6  7  1  1  0  0  0
  6 11  1  0  0  0  0
  8 13  1  0  0  0  0
  9 10  1  6  0  0  0
  9 15  1  0  0  0  0
 11 12  1  6  0  0  0
 11 17  1  0  0  0  0
 13 14  1  6  0  0  0
 13 19  1  0  0  0  0
 15 16  1  6  0  0  0
 15 20  1  0  0  0  0
 17 18  1  6  0  0  0
 17 22  1  0  0  0  0
 19  2  1  6  0  0  0
 19 24  1  0  0  0  0
 20 21  1  0  0  0  0
 20 26  1  6  0  0  0
 22 23  1  0  0  0  0
 22 28  1  6  0  0  0
 24 25  1  6  0  0  0
 24 30  1  0  0  0  0
 26 27  1  0  0  0  0
 28 29  1  0  0  0  0
 30 31  1  1  0  0  0
M  END
>  <CHROM.1>
-164.41725206,172.04630033,-165.02652282,-177.59569200,-177.46688604,-67.44373346
19.94848393,8.43467560,6.95211790,-2.07490305,-0.73483088,1.45101653

>  <Name>
2o3x_lig

>  <RI>
0

>  <Rbt.Current_Directory>
/home/itssahil/PROJECTS/Mol_Feturizer/New_Systems/rnas/2o3x

>  <Rbt.Executable>
rbdock ($Id: //depot/dev/client3/rdock/2013.1/src/exe/rbdock.cxx#4 $)

>  <Rbt.Library>
libRbt.so (2013.1, Build901 2013/11/27)

>  <Rbt.Parameter_File>
/export/apps/rDock/src/rDock_2013.1_src/data/scripts/dock_solv.prm

>  <Rbt.Receptor>
prm/pocket_docking_4.prm

>  <SCORE>
-15.8355

>  <SCORE.INTER>
-12.9307

>  <SCORE.INTER.CONST>
1

>  <SCORE.INTER.POLAR>
-1.62665

>  <SCORE.INTER.ROT>
6

>  <SCORE.INTER.SOLV>
21.8665

>  <SCORE.INTER.VDW>
-18.0871

>  <SCORE.INTER.norm>
-0.417118

>  <SCORE.INTRA>
-2.90482

>  <SCORE.INTRA.DIHEDRAL>
-6.40745

>  <SCORE.INTRA.DIHEDRAL.0>
9.37739

>  <SCORE.INTRA.POLAR>
0

>  <SCORE.INTRA.POLAR.0>
0

>  <SCORE.INTRA.REPUL>
0

>  <SCORE.INTRA.REPUL.0>
0

>  <SCORE.INTRA.SOLV>
-1.32977

>  <SCORE.INTRA.SOLV.lig_0>
-82.9274

>  <SCORE.INTRA.VDW>
0.963792

>  <SCORE.INTRA.VDW.0>
-3.84922

>  <SCORE.INTRA.norm>
-0.0937038

>  <SCORE.RESTR>
0

>  <SCORE.RESTR.CAVITY>
0

>  <SCORE.RESTR.norm>
0

>  <SCORE.SYSTEM>
0

>  <SCORE.SYSTEM.CONST>
0

>  <SCORE.SYSTEM.DIHEDRAL>
0

>  <SCORE.SYSTEM.SOLV>
0

>  <SCORE.SYSTEM.norm>
0

>  <SCORE.heavy>
31

>  <SCORE.norm>
-0.510822

>  <RMSD>
5.165

$$$$
2o3x_lig
 OpenBabel11021811463D
libRbt.so/2013.1/901 2013/11/27
 31 33  0  0  0  0  0  0  0  0999 V2000
   20.6623    9.5891    5.2643 C   0  0  2  0  0  0  0  0  0  0  0  0
   19.9109   10.1161    6.3658 O   0  0  0  0  0  0  0  0  0  0  0  0
   19.6685    8.7961   10.4274 C   0  0  2  0  0  0  0  0  0  0  0  0
   19.4722    7.9785   11.6449 N   0  0  0  0  0  0  0  0  0  0  0  0
   22.9946    7.5114    7.5570 C   0  0  1  0  0  0  0  0  0  0  0  0
   20.5050   10.5601    4.0514 C   0  0  2  0  0  0  0  0  0  0  0  0
   20.7356   11.9762    4.4350 N   0  0  0  0  0  0  0  0  0  0  0  0
   18.3266    9.0397    9.6596 C   0  0  0  0  0  0  0  0  0  0  0  0
   23.0020    5.9789    7.8691 C   0  0  2  0  0  0  0  0  0  0  0  0
   22.7606    5.6092    9.2546 O   0  0  0  0  0  0  0  0  0  0  0  0
   19.1030   10.4594    3.4213 C   0  0  1  0  0  0  0  0  0  0  0  0
   19.0015   11.3033    2.3025 O   0  0  0  0  0  0  0  0  0  0  0  0
   18.6336    9.9379    8.4061 C   0  0  2  0  0  0  0  0  0  0  0  0
   17.3949   10.2340    7.6256 N   0  0  0  0  0  0  0  0  0  0  0  0
   24.3796    5.6498    7.3188 C   0  0  2  0  0  0  0  0  0  0  0  0
   25.4330    6.0272    8.2705 O   0  0  0  0  0  0  0  0  0  0  0  0
   18.8194    9.0190    3.0297 C   0  0  2  0  0  0  0  0  0  0  0  0
   17.5628    8.9294    2.4393 O   0  0  0  0  0  0  0  0  0  0  0  0
   19.6519    9.2322    7.4658 C   0  0  2  0  0  0  0  0  0  0  0  0
   24.4834    6.4688    6.0376 C   0  0  2  0  0  0  0  0  0  0  0  0
   23.8984    7.6972    6.4608 O   0  0  0  0  0  0  0  0  0  0  0  0
   18.8897    8.1046    4.2854 C   0  0  2  0  0  0  0  0  0  0  0  0
   20.1926    8.2185    4.8971 O   0  0  0  0  0  0  0  0  0  0  0  0
   20.9756    8.8661    8.1659 C   0  0  2  0  0  0  0  0  0  0  0  0
   21.6899    8.0027    7.2129 O   0  0  0  0  0  0  0  0  0  0  0  0
   23.7046    5.8798    4.8130 C   0  0  0  0  0  0  0  0  0  0  0  0
   23.9568    6.6631    3.6499 N   0  0  0  0  0  0  0  0  0  0  0  0
   18.6345    6.6518    3.9576 C   0  0  0  0  0  0  0  0  0  0  0  0
   18.6456    5.8655    5.0932 O   0  0  0  0  0  0  0  0  0  0  0  0
   20.6848    8.0800    9.5198 C   0  0  1  0  0  0  0  0  0  0  0  0
   21.8794    7.9192   10.2998 O   0  0  0  0  0  0  0  0  0  0  0  0
  1  2  1  1  0  0  0
  1  6  1  0  0  0  0
  1 23  1  0  0  0  0
  3  4  1  1  0  0  0
  3  8  1  0  0  0  0
  3 30  1  0  0  0  0
  5  9  1  0  0  0  0
  5 21  1  0  0  0  0
  5 25  1  6  0  0  0
  6  7  1  1  0  0  0
  6 11  1  0  0  0  0
  8 13  1  0  0  0  0
  9 10  1  1  0  0  0
  9 15  1  0  0  0  0
 11 12  1  6  0  0  0
 11 17  1  0  0  0  0
 13 14  1  6  0  0  0
 13 19  1  0  0  0  0
 15 16  1  1  0  0  0
 15 20  1  0  0  0  0
 17 18  1  1  0  0  0
 17 22  1  0  0  0  0
 19  2  1  6  0  0  0
 19 24  1  0  0  0  0
 20 21  1  0  0  0  0
 20 26  1  6  0  0  0
 22 23  1  0  0  0  0
 22 28  1  6  0  0  0
 24 25  1  6  0  0  0
 24 30  1  0  0  0  0
 26 27  1  0  0  0  0
 28 29  1  0  0  0  0
 30 31  1  1  0  0  0
M  END
>  <CHROM.1>
165.26142493,108.80299849,-170.51344045,-175.39187578,-177.46506193,178.43609373
20.83771834,8.25049985,6.47550456,-2.35384029,-0.56587842,1.64681039

>  <Name>
2o3x_lig

>  <RI>
0

>  <Rbt.Current_Directory>
/home/itssahil/PROJECTS/Mol_Feturizer/New_Systems/rnas/2o3x

>  <Rbt.Executable>
rbdock ($Id: //depot/dev/client3/rdock/2013.1/src/exe/rbdock.cxx#4 $)

>  <Rbt.Library>
libRbt.so (2013.1, Build901 2013/11/27)

>  <Rbt.Parameter_File>
/export/apps/rDock/src/rDock_2013.1_src/data/scripts/dock_solv.prm

>  <Rbt.Receptor>
prm/pocket_docking_8.prm

>  <SCORE>
-11.7753

>  <SCORE.INTER>
-11.122

>  <SCORE.INTER.CONST>
1

>  <SCORE.INTER.POLAR>
-1.11369

>  <SCORE.INTER.ROT>
6

>  <SCORE.INTER.SOLV>
21.6224

>  <SCORE.INTER.VDW>
-18.5098

>  <SCORE.INTER.norm>
-0.358775

>  <SCORE.INTRA>
-0.748544

>  <SCORE.INTRA.DIHEDRAL>
-1.0628

>  <SCORE.INTRA.DIHEDRAL.0>
9.37739

>  <SCORE.INTRA.POLAR>
0

>  <SCORE.INTRA.POLAR.0>
0

>  <SCORE.INTRA.REPUL>
0

>  <SCORE.INTRA.REPUL.0>
0

>  <SCORE.INTRA.SOLV>
-2.47567

>  <SCORE.INTRA.SOLV.lig_0>
-82.9274

>  <SCORE.INTRA.VDW>
1.02069

>  <SCORE.INTRA.VDW.0>
-3.84922

>  <SCORE.INTRA.norm>
-0.0241466

>  <SCORE.RESTR>
0.0952412

>  <SCORE.RESTR.CAVITY>
0.0952412

>  <SCORE.RESTR.norm>
0.0030723

>  <SCORE.SYSTEM>
0

>  <SCORE.SYSTEM.CONST>
0

>  <SCORE.SYSTEM.DIHEDRAL>
0

>  <SCORE.SYSTEM.SOLV>
0

>  <SCORE.SYSTEM.norm>
0

>  <SCORE.heavy>
31

>  <SCORE.norm>
-0.379849

>  <RMSD>
5.200

$$$$
2o3x_lig
 OpenBabel11021811463D
libRbt.so/2013.1/901 2013/11/27
 31 33  0  0  0  0  0  0  0  0999 V2000
   17.7420    8.7014    6.0850 C   0  0  2  0  0  0  0  0  0  0  0  0
   17.4792    7.8333    7.1953 O   0  0  0  0  0  0  0  0  0  0  0  0
   17.9747   10.8376   10.1997 C   0  0  2  0  0  0  0  0  0  0  0  0
   18.0330   11.5578   11.4910 N   0  0  0  0  0  0  0  0  0  0  0  0
   20.6611    7.3392   10.0675 C   0  0  1  0  0  0  0  0  0  0  0  0
   17.6271    7.8674    4.7698 C   0  0  2  0  0  0  0  0  0  0  0  0
   16.3888    7.0483    4.7331 N   0  0  0  0  0  0  0  0  0  0  0  0
   16.5149   10.4134    9.8279 C   0  0  0  0  0  0  0  0  0  0  0  0
   21.1411    5.8682   10.2952 C   0  0  2  0  0  0  0  0  0  0  0  0
   20.5355    5.1660   11.4153 O   0  0  0  0  0  0  0  0  0  0  0  0
   18.8295    6.9213    4.5904 C   0  0  1  0  0  0  0  0  0  0  0  0
   18.7302    6.2193    3.3773 O   0  0  0  0  0  0  0  0  0  0  0  0
   16.5539    9.6868    8.4341 C   0  0  2  0  0  0  0  0  0  0  0  0
   15.1897    9.2646    7.9961 N   0  0  0  0  0  0  0  0  0  0  0  0
   22.6326    6.1385   10.4023 C   0  0  2  0  0  0  0  0  0  0  0  0
   22.9836    6.6454   11.7355 O   0  0  0  0  0  0  0  0  0  0  0  0
   20.1214    7.7195    4.6399 C   0  0  2  0  0  0  0  0  0  0  0  0
   21.2079    6.8703    4.4551 O   0  0  0  0  0  0  0  0  0  0  0  0
   17.4623    8.4260    8.5018 C   0  0  2  0  0  0  0  0  0  0  0  0
   22.9074    7.1869    9.3306 C   0  0  2  0  0  0  0  0  0  0  0  0
   21.7743    8.0353    9.4940 O   0  0  0  0  0  0  0  0  0  0  0  0
   20.2392    8.4533    6.0057 C   0  0  2  0  0  0  0  0  0  0  0  0
   19.0988    9.3191    6.1920 O   0  0  0  0  0  0  0  0  0  0  0  0
   18.9029    8.7363    8.9544 C   0  0  2  0  0  0  0  0  0  0  0  0
   19.5215    7.4241    9.1978 O   0  0  0  0  0  0  0  0  0  0  0  0
   22.9753    6.6326    7.8672 C   0  0  0  0  0  0  0  0  0  0  0  0
   21.7364    6.0223    7.5172 N   0  0  0  0  0  0  0  0  0  0  0  0
   21.4981    9.2825    6.1098 C   0  0  0  0  0  0  0  0  0  0  0  0
   21.6171    9.8710    7.3538 O   0  0  0  0  0  0  0  0  0  0  0  0
   18.8871    9.6012   10.2913 C   0  0  1  0  0  0  0  0  0  0  0  0
   20.1976   10.0897   10.6154 O   0  0  0  0  0  0  0  0  0  0  0  0
  1  2  1  1  0  0  0
  1  6  1  0  0  0  0
  1 23  1  0  0  0  0
  3  4  1  1  0  0  0
  3  8  1  0  0  0  0
  3 30  1  0  0  0  0
  5  9  1  0  0  0  0
  5 21  1  0  0  0  0
  5 25  1  6  0  0  0
  6  7  1  1  0  0  0
  6 11  1  0  0  0  0
  8 13  1  0  0  0  0
  9 10  1  1  0  0  0
  9 15  1  0  0  0  0
 11 12  1  6  0  0  0
 11 17  1  0  0  0  0
 13 14  1  1  0  0  0
 13 19  1  0  0  0  0
 15 16  1  1  0  0  0
 15 20  1  0  0  0  0
 17 18  1  1  0  0  0
 17 22  1  0  0  0  0
 19  2  1  6  0  0  0
 19 24  1  0  0  0  0
 20 21  1  0  0  0  0
 20 26  1  6  0  0  0
 22 23  1  0  0  0  0
 22 28  1  6  0  0  0
 24 25  1  1  0  0  0
 24 30  1  0  0  0  0
 26 27  1  0  0  0  0
 28 29  1  0  0  0  0
 30 31  1  6  0  0  0
M  END
>  <CHROM.1>
-176.62972190,176.25067624,49.04981784,60.19184821,-176.93981542,-157.69196005
19.62467464,8.08644543,8.03969065,2.26365863,0.52427059,-1.86256476

>  <Name>
2o3x_lig

>  <RI>
0

>  <Rbt.Current_Directory>
/home/itssahil/PROJECTS/Mol_Feturizer/New_Systems/rnas/2o3x

>  <Rbt.Executable>
rbdock ($Id: //depot/dev/client3/rdock/2013.1/src/exe/rbdock.cxx#4 $)

>  <Rbt.Library>
libRbt.so (2013.1, Build901 2013/11/27)

>  <Rbt.Parameter_File>
/export/apps/rDock/src/rDock_2013.1_src/data/scripts/dock_solv.prm

>  <Rbt.Receptor>
prm/pocket_docking_4.prm

>  <SCORE>
-6.80487

>  <SCORE.INTER>
-7.04666

>  <SCORE.INTER.CONST>
1

>  <SCORE.INTER.POLAR>
-1.07264

>  <SCORE.INTER.ROT>
6

>  <SCORE.INTER.SOLV>
8.59794

>  <SCORE.INTER.VDW>
-11.5883

>  <SCORE.INTER.norm>
-0.227312

>  <SCORE.INTRA>
0.241791

>  <SCORE.INTRA.DIHEDRAL>
-6.27675

>  <SCORE.INTRA.DIHEDRAL.0>
9.37739

>  <SCORE.INTRA.POLAR>
0

>  <SCORE.INTRA.POLAR.0>
0

>  <SCORE.INTRA.REPUL>
0

>  <SCORE.INTRA.REPUL.0>
0

>  <SCORE.INTRA.SOLV>
5.75392

>  <SCORE.INTRA.SOLV.lig_0>
-82.9274

>  <SCORE.INTRA.VDW>
0.503209

>  <SCORE.INTRA.VDW.0>
-3.84922

>  <SCORE.INTRA.norm>
0.00779972

>  <SCORE.RESTR>
0

>  <SCORE.RESTR.CAVITY>
0

>  <SCORE.RESTR.norm>
0

>  <SCORE.SYSTEM>
0

>  <SCORE.SYSTEM.CONST>
0

>  <SCORE.SYSTEM.DIHEDRAL>
0

>  <SCORE.SYSTEM.SOLV>
0

>  <SCORE.SYSTEM.norm>
0

>  <SCORE.heavy>
31

>  <SCORE.norm>
-0.219512

>  <RMSD>
5.203

$$$$
2o3x_lig
 OpenBabel11021811463D
libRbt.so/2013.1/901 2013/11/27
 31 33  0  0  0  0  0  0  0  0999 V2000
   20.6800    9.3078    5.3926 C   0  0  2  0  0  0  0  0  0  0  0  0
   20.0590    9.9682    6.5034 O   0  0  0  0  0  0  0  0  0  0  0  0
   19.8171    8.8105   10.6142 C   0  0  2  0  0  0  0  0  0  0  0  0
   19.5610    8.0644   11.8661 N   0  0  0  0  0  0  0  0  0  0  0  0
   22.7373    6.9110    7.6893 C   0  0  1  0  0  0  0  0  0  0  0  0
   20.6586   10.2772    4.1686 C   0  0  2  0  0  0  0  0  0  0  0  0
   21.1372   11.6375    4.5238 N   0  0  0  0  0  0  0  0  0  0  0  0
   18.4906    9.2274    9.8959 C   0  0  0  0  0  0  0  0  0  0  0  0
   22.9583    5.6535    6.7860 C   0  0  2  0  0  0  0  0  0  0  0  0
   22.3529    4.4173    7.2549 O   0  0  0  0  0  0  0  0  0  0  0  0
   19.2437   10.4102    3.5741 C   0  0  1  0  0  0  0  0  0  0  0  0
   19.2580   11.2459    2.4447 O   0  0  0  0  0  0  0  0  0  0  0  0
   18.8661   10.0359    8.6007 C   0  0  2  0  0  0  0  0  0  0  0  0
   17.6486   10.4892    7.8636 N   0  0  0  0  0  0  0  0  0  0  0  0
   24.4769    5.6800    6.7411 C   0  0  2  0  0  0  0  0  0  0  0  0
   25.0520    5.1162    7.9695 O   0  0  0  0  0  0  0  0  0  0  0  0
   18.7084    9.0349    3.2126 C   0  0  2  0  0  0  0  0  0  0  0  0
   17.4397    9.1544    2.6542 O   0  0  0  0  0  0  0  0  0  0  0  0
   19.7258    9.1626    7.6428 C   0  0  2  0  0  0  0  0  0  0  0  0
   24.8279    7.1567    6.6026 C   0  0  2  0  0  0  0  0  0  0  0  0
   23.8943    7.7367    7.5095 O   0  0  0  0  0  0  0  0  0  0  0  0
   18.6550    8.1367    4.4807 C   0  0  2  0  0  0  0  0  0  0  0  0
   19.9740    8.0334    5.0589 O   0  0  0  0  0  0  0  0  0  0  0  0
   21.0134    8.6254    8.2985 C   0  0  2  0  0  0  0  0  0  0  0  0
   21.5490    7.6406    7.3461 O   0  0  0  0  0  0  0  0  0  0  0  0
   24.6399    7.7476    5.1643 C   0  0  0  0  0  0  0  0  0  0  0  0
   23.2673    7.6888    4.7867 N   0  0  0  0  0  0  0  0  0  0  0  0
   18.1473    6.7451    4.1825 C   0  0  0  0  0  0  0  0  0  0  0  0
   18.9525    6.0962    3.2668 O   0  0  0  0  0  0  0  0  0  0  0  0
   20.6748    7.9281    9.6895 C   0  0  1  0  0  0  0  0  0  0  0  0
   21.8684    7.6150   10.4234 O   0  0  0  0  0  0  0  0  0  0  0  0
  1  2  1  1  0  0  0
  1  6  1  0  0  0  0
  1 23  1  0  0  0  0
  3  4  1  1  0  0  0
  3  8  1  0  0  0  0
  3 30  1  0  0  0  0
  5  9  1  0  0  0  0
  5 21  1  0  0  0  0
  5 25  1  6  0  0  0
  6  7  1  1  0  0  0
  6 11  1  0  0  0  0
  8 13  1  0  0  0  0
  9 10  1  1  0  0  0
  9 15  1  0  0  0  0
 11 12  1  6  0  0  0
 11 17  1  0  0  0  0
 13 14  1  6  0  0  0
 13 19  1  0  0  0  0
 15 16  1  1  0  0  0
 15 20  1  0  0  0  0
 17 18  1  1  0  0  0
 17 22  1  0  0  0  0
 19  2  1  6  0  0  0
 19 24  1  0  0  0  0
 20 21  1  0  0  0  0
 20 26  1  6  0  0  0
 22 23  1  0  0  0  0
 22 28  1  6  0  0  0
 24 25  1  6  0  0  0
 24 30  1  0  0  0  0
 26 27  1  0  0  0  0
 28 29  1  0  0  0  0
 30 31  1  1  0  0  0
M  END
>  <CHROM.1>
167.43156485,164.25789880,-170.84916533,63.31926348,59.96995416,-177.65696912
20.85549707,8.22165006,6.49621816,-2.37482672,-0.58262202,1.60798424

>  <Name>
2o3x_lig

>  <RI>
0

>  <Rbt.Current_Directory>
/home/itssahil/PROJECTS/Mol_Feturizer/New_Systems/rnas/2o3x

>  <Rbt.Executable>
rbdock ($Id: //depot/dev/client3/rdock/2013.1/src/exe/rbdock.cxx#4 $)

>  <Rbt.Library>
libRbt.so (2013.1, Build901 2013/11/27)

>  <Rbt.Parameter_File>
/export/apps/rDock/src/rDock_2013.1_src/data/scripts/dock_solv.prm

>  <Rbt.Receptor>
prm/pocket_docking_3.prm

>  <SCORE>
-12.9457

>  <SCORE.INTER>
-11.9215

>  <SCORE.INTER.CONST>
1

>  <SCORE.INTER.POLAR>
-1.02527

>  <SCORE.INTER.ROT>
6

>  <SCORE.INTER.SOLV>
17.5795

>  <SCORE.INTER.VDW>
-17.9899

>  <SCORE.INTER.norm>
-0.384565

>  <SCORE.INTRA>
-1.02422

>  <SCORE.INTRA.DIHEDRAL>
-6.83122

>  <SCORE.INTRA.DIHEDRAL.0>
9.37739

>  <SCORE.INTRA.POLAR>
0

>  <SCORE.INTRA.POLAR.0>
0

>  <SCORE.INTRA.REPUL>
0

>  <SCORE.INTRA.REPUL.0>
0

>  <SCORE.INTRA.SOLV>
2.43477

>  <SCORE.INTRA.SOLV.lig_0>
-82.9274

>  <SCORE.INTRA.VDW>
1.17401

>  <SCORE.INTRA.VDW.0>
-3.84922

>  <SCORE.INTRA.norm>
-0.0330394

>  <SCORE.RESTR>
0

>  <SCORE.RESTR.CAVITY>
0

>  <SCORE.RESTR.norm>
0

>  <SCORE.SYSTEM>
0

>  <SCORE.SYSTEM.CONST>
0

>  <SCORE.SYSTEM.DIHEDRAL>
0

>  <SCORE.SYSTEM.SOLV>
0

>  <SCORE.SYSTEM.norm>
0

>  <SCORE.heavy>
31

>  <SCORE.norm>
-0.417604

>  <RMSD>
5.205

$$$$
2o3x_lig
 OpenBabel11021811463D
libRbt.so/2013.1/901 2013/11/27
 31 33  0  0  0  0  0  0  0  0999 V2000
   19.9189    9.3630    5.4799 C   0  0  2  0  0  0  0  0  0  0  0  0
   18.8937    9.9078    6.3210 O   0  0  0  0  0  0  0  0  0  0  0  0
   18.2647    9.6916   10.5466 C   0  0  2  0  0  0  0  0  0  0  0  0
   18.1001    9.2047   11.9342 N   0  0  0  0  0  0  0  0  0  0  0  0
   21.0324    7.4736    8.0092 C   0  0  1  0  0  0  0  0  0  0  0  0
   20.2067   10.3814    4.3316 C   0  0  2  0  0  0  0  0  0  0  0  0
   20.3896   11.7638    4.8427 N   0  0  0  0  0  0  0  0  0  0  0  0
   17.1057    9.2089    9.6123 C   0  0  0  0  0  0  0  0  0  0  0  0
   22.0855    6.8233    7.0530 C   0  0  2  0  0  0  0  0  0  0  0  0
   21.6324    6.5464    5.6994 O   0  0  0  0  0  0  0  0  0  0  0  0
   19.0686   10.4038    3.2938 C   0  0  1  0  0  0  0  0  0  0  0  0
   19.3723   11.2884    2.2452 O   0  0  0  0  0  0  0  0  0  0  0  0
   17.3534    9.7995    8.1763 C   0  0  2  0  0  0  0  0  0  0  0  0
   16.2749    9.3988    7.2237 N   0  0  0  0  0  0  0  0  0  0  0  0
   22.4349    5.6128    7.9026 C   0  0  2  0  0  0  0  0  0  0  0  0
   21.4130    4.5652    7.7758 O   0  0  0  0  0  0  0  0  0  0  0  0
   18.8365    9.0012    2.7574 C   0  0  2  0  0  0  0  0  0  0  0  0
   17.8244    9.0228    1.8030 O   0  0  0  0  0  0  0  0  0  0  0  0
   18.7171    9.3081    7.6124 C   0  0  2  0  0  0  0  0  0  0  0  0
   22.4900    6.1509    9.3276 C   0  0  2  0  0  0  0  0  0  0  0  0
   21.3580    7.0164    9.3275 O   0  0  0  0  0  0  0  0  0  0  0  0
   18.4562    8.0443    3.9225 C   0  0  2  0  0  0  0  0  0  0  0  0
   19.5070    8.0429    4.9128 O   0  0  0  0  0  0  0  0  0  0  0  0
   19.9134    9.6575    8.5196 C   0  0  2  0  0  0  0  0  0  0  0  0
   21.0508    8.9087    7.9633 O   0  0  0  0  0  0  0  0  0  0  0  0
   23.7921    6.9457    9.6828 C   0  0  0  0  0  0  0  0  0  0  0  0
   23.9642    8.0326    8.7780 N   0  0  0  0  0  0  0  0  0  0  0  0
   18.2304    6.6253    3.4548 C   0  0  0  0  0  0  0  0  0  0  0  0
   17.9915    5.7731    4.5153 O   0  0  0  0  0  0  0  0  0  0  0  0
   19.6232    9.1986   10.0166 C   0  0  1  0  0  0  0  0  0  0  0  0
   20.6168    9.7033   10.9217 O   0  0  0  0  0  0  0  0  0  0  0  0
  1  2  1  1  0  0  0
  1  6  1  0  0  0  0
  1 23  1  0  0  0  0
  3  4  1  1  0  0  0
  3  8  1  0  0  0  0
  3 30  1  0  0  0  0
  5  9  1  0  0  0  0
  5 21  1  0  0  0  0
  5 25  1  1  0  0  0
  6  7  1  1  0  0  0
  6 11  1  0  0  0  0
  8 13  1  0  0  0  0
  9 10  1  6  0  0  0
  9 15  1  0  0  0  0
 11 12  1  6  0  0  0
 11 17  1  0  0  0  0
 13 14  1  6  0  0  0
 13 19  1  0  0  0  0
 15 16  1  1  0  0  0
 15 20  1  0  0  0  0
 17 18  1  6  0  0  0
 17 22  1  0  0  0  0
 19  2  1  6  0  0  0
 19 24  1  0  0  0  0
 20 21  1  0  0  0  0
 20 26  1  6  0  0  0
 22 23  1  0  0  0  0
 22 28  1  6  0  0  0
 24 25  1  6  0  0  0
 24 30  1  0  0  0  0
 26 27  1  0  0  0  0
 28 29  1  0  0  0  0
 30 31  1  1  0  0  0
M  END
>  <CHROM.1>
-164.41676060,164.20540207,-165.72833125,56.92881991,175.53605384,-65.82586845
19.87219865,8.45624945,6.86728241,-2.05796412,-0.72804647,1.46563348

>  <Name>
2o3x_lig

>  <RI>
0

>  <Rbt.Current_Directory>
/home/itssahil/PROJECTS/Mol_Feturizer/New_Systems/rnas/2o3x

>  <Rbt.Executable>
rbdock ($Id: //depot/dev/client3/rdock/2013.1/src/exe/rbdock.cxx#4 $)

>  <Rbt.Library>
libRbt.so (2013.1, Build901 2013/11/27)

>  <Rbt.Parameter_File>
/export/apps/rDock/src/rDock_2013.1_src/data/scripts/dock_solv.prm

>  <Rbt.Receptor>
prm/pocket_docking_3.prm

>  <SCORE>
-13.4337

>  <SCORE.INTER>
-12.3219

>  <SCORE.INTER.CONST>
1

>  <SCORE.INTER.POLAR>
-1.75446

>  <SCORE.INTER.ROT>
6

>  <SCORE.INTER.SOLV>
22.28

>  <SCORE.INTER.VDW>
-17.393

>  <SCORE.INTER.norm>
-0.39748

>  <SCORE.INTRA>
-1.11185

>  <SCORE.INTRA.DIHEDRAL>
-5.67959

>  <SCORE.INTRA.DIHEDRAL.0>
9.37739

>  <SCORE.INTRA.POLAR>
0

>  <SCORE.INTRA.POLAR.0>
0

>  <SCORE.INTRA.REPUL>
0

>  <SCORE.INTRA.REPUL.0>
0

>  <SCORE.INTRA.SOLV>
1.54379

>  <SCORE.INTRA.SOLV.lig_0>
-82.9274

>  <SCORE.INTRA.VDW>
0.956042

>  <SCORE.INTRA.VDW.0>
-3.84922

>  <SCORE.INTRA.norm>
-0.0358663

>  <SCORE.RESTR>
0

>  <SCORE.RESTR.CAVITY>
0

>  <SCORE.RESTR.norm>
0

>  <SCORE.SYSTEM>
0

>  <SCORE.SYSTEM.CONST>
0

>  <SCORE.SYSTEM.DIHEDRAL>
0

>  <SCORE.SYSTEM.SOLV>
0

>  <SCORE.SYSTEM.norm>
0

>  <SCORE.heavy>
31

>  <SCORE.norm>
-0.433346

>  <RMSD>
5.206

$$$$
2o3x_lig
 OpenBabel11021811463D
libRbt.so/2013.1/901 2013/11/27
 31 33  0  0  0  0  0  0  0  0999 V2000
   18.3218   10.2364    8.1524 C   0  0  2  0  0  0  0  0  0  0  0  0
   19.0529    9.1090    8.6526 O   0  0  0  0  0  0  0  0  0  0  0  0
   22.6854    7.5286    7.0385 C   0  0  2  0  0  0  0  0  0  0  0  0
   24.1040    7.3206    6.6728 N   0  0  0  0  0  0  0  0  0  0  0  0
   20.9645    7.2610   11.5183 C   0  0  1  0  0  0  0  0  0  0  0  0
   18.3101   11.3436    9.2535 C   0  0  2  0  0  0  0  0  0  0  0  0
   19.6627   11.5873    9.8163 N   0  0  0  0  0  0  0  0  0  0  0  0
   22.0859    8.8084    6.3661 C   0  0  0  0  0  0  0  0  0  0  0  0
   19.5161    6.6756   11.5936 C   0  0  2  0  0  0  0  0  0  0  0  0
   18.5962    7.3628   12.4857 O   0  0  0  0  0  0  0  0  0  0  0  0
   17.3689   10.9778   10.4168 C   0  0  1  0  0  0  0  0  0  0  0  0
   17.3355   12.0099   11.3697 O   0  0  0  0  0  0  0  0  0  0  0  0
   20.5760    8.9247    6.7892 C   0  0  2  0  0  0  0  0  0  0  0  0
   19.9222   10.1168    6.1706 N   0  0  0  0  0  0  0  0  0  0  0  0
   19.8759    5.2488   11.9728 C   0  0  2  0  0  0  0  0  0  0  0  0
   20.1818    5.1437   13.4057 O   0  0  0  0  0  0  0  0  0  0  0  0
   15.9743   10.7023    9.8804 C   0  0  2  0  0  0  0  0  0  0  0  0
   15.1169   10.3942   10.9319 O   0  0  0  0  0  0  0  0  0  0  0  0
   20.4504    9.0402    8.3352 C   0  0  2  0  0  0  0  0  0  0  0  0
   21.1037    4.9285   11.1284 C   0  0  2  0  0  0  0  0  0  0  0  0
   21.8267    6.1515   11.2383 O   0  0  0  0  0  0  0  0  0  0  0  0
   16.0202    9.5278    8.8625 C   0  0  2  0  0  0  0  0  0  0  0  0
   16.9245    9.8537    7.7851 O   0  0  0  0  0  0  0  0  0  0  0  0
   21.1009    7.8635    9.0892 C   0  0  2  0  0  0  0  0  0  0  0  0
   21.1056    8.2673   10.5036 O   0  0  0  0  0  0  0  0  0  0  0  0
   20.8040    4.5977    9.6270 C   0  0  0  0  0  0  0  0  0  0  0  0
   21.9297    3.9578    9.0328 N   0  0  0  0  0  0  0  0  0  0  0  0
   14.6623    9.2169    8.2770 C   0  0  0  0  0  0  0  0  0  0  0  0
   14.7012    8.0948    7.4723 O   0  0  0  0  0  0  0  0  0  0  0  0
   22.5888    7.6312    8.5713 C   0  0  1  0  0  0  0  0  0  0  0  0
   23.1415    6.4133    9.0931 O   0  0  0  0  0  0  0  0  0  0  0  0
  1  2  1  1  0  0  0
  1  6  1  0  0  0  0
  1 23  1  0  0  0  0
  3  4  1  1  0  0  0
  3  8  1  0  0  0  0
  3 30  1  0  0  0  0
  5  9  1  0  0  0  0
  5 21  1  0  0  0  0
  5 25  1  6  0  0  0
  6  7  1  1  0  0  0
  6 11  1  0  0  0  0
  8 13  1  0  0  0  0
  9 10  1  1  0  0  0
  9 15  1  0  0  0  0
 11 12  1  1  0  0  0
 11 17  1  0  0  0  0
 13 14  1  6  0  0  0
 13 19  1  0  0  0  0
 15 16  1  1  0  0  0
 15 20  1  0  0  0  0
 17 18  1  1  0  0  0
 17 22  1  0  0  0  0
 19  2  1  6  0  0  0
 19 24  1  0  0  0  0
 20 21  1  0  0  0  0
 20 26  1  6  0  0  0
 22 23  1  0  0  0  0
 22 28  1  6  0  0  0
 24 25  1  1  0  0  0
 24 30  1  0  0  0  0
 26 27  1  0  0  0  0
 28 29  1  0  0  0  0
 30 31  1  1  0  0  0
M  END
>  <CHROM.1>
-93.61126854,-72.06537840,-62.96457597,-163.63678264,-174.40873602,147.55924652
19.51208589,8.26326073,9.44129277,-2.72686612,-0.51137735,2.22014502

>  <Name>
2o3x_lig

>  <RI>
0

>  <Rbt.Current_Directory>
/home/itssahil/PROJECTS/Mol_Feturizer/New_Systems/rnas/2o3x

>  <Rbt.Executable>
rbdock ($Id: //depot/dev/client3/rdock/2013.1/src/exe/rbdock.cxx#4 $)

>  <Rbt.Library>
libRbt.so (2013.1, Build901 2013/11/27)

>  <Rbt.Parameter_File>
/export/apps/rDock/src/rDock_2013.1_src/data/scripts/dock_solv.prm

>  <Rbt.Receptor>
prm/pocket_docking_5.prm

>  <SCORE>
-9.96097

>  <SCORE.INTER>
-14.4987

>  <SCORE.INTER.CONST>
1

>  <SCORE.INTER.POLAR>
-2.07905

>  <SCORE.INTER.ROT>
6

>  <SCORE.INTER.SOLV>
14.17

>  <SCORE.INTER.VDW>
-15.059

>  <SCORE.INTER.norm>
-0.467701

>  <SCORE.INTRA>
4.53776

>  <SCORE.INTRA.DIHEDRAL>
0.822459

>  <SCORE.INTRA.DIHEDRAL.0>
9.37739

>  <SCORE.INTRA.POLAR>
0

>  <SCORE.INTRA.POLAR.0>
0

>  <SCORE.INTRA.REPUL>
0

>  <SCORE.INTRA.REPUL.0>
0

>  <SCORE.INTRA.SOLV>
3.45462

>  <SCORE.INTRA.SOLV.lig_0>
-82.9274

>  <SCORE.INTRA.VDW>
2.39923

>  <SCORE.INTRA.VDW.0>
-3.84922

>  <SCORE.INTRA.norm>
0.146379

>  <SCORE.RESTR>
0

>  <SCORE.RESTR.CAVITY>
0

>  <SCORE.RESTR.norm>
0

>  <SCORE.SYSTEM>
0

>  <SCORE.SYSTEM.CONST>
0

>  <SCORE.SYSTEM.DIHEDRAL>
0

>  <SCORE.SYSTEM.SOLV>
0

>  <SCORE.SYSTEM.norm>
0

>  <SCORE.heavy>
31

>  <SCORE.norm>
-0.321321

>  <RMSD>
5.213

$$$$
2o3x_lig
 OpenBabel11021811463D
libRbt.so/2013.1/901 2013/11/27
 31 33  0  0  0  0  0  0  0  0999 V2000
   19.9308    9.2849    5.6489 C   0  0  2  0  0  0  0  0  0  0  0  0
   18.9723    9.9381    6.4916 O   0  0  0  0  0  0  0  0  0  0  0  0
   18.4631    9.6498   10.7290 C   0  0  2  0  0  0  0  0  0  0  0  0
   18.2287    9.1431   12.0993 N   0  0  0  0  0  0  0  0  0  0  0  0
   22.1409    8.0553    8.5571 C   0  0  1  0  0  0  0  0  0  0  0  0
   20.2179   10.2076    4.4223 C   0  0  2  0  0  0  0  0  0  0  0  0
   20.4920   11.6095    4.8288 N   0  0  0  0  0  0  0  0  0  0  0  0
   17.1854    9.5346    9.8326 C   0  0  0  0  0  0  0  0  0  0  0  0
   22.1941    6.6759    9.2922 C   0  0  2  0  0  0  0  0  0  0  0  0
   21.8287    6.6889   10.6996 O   0  0  0  0  0  0  0  0  0  0  0  0
   19.0374   10.2207    3.4328 C   0  0  1  0  0  0  0  0  0  0  0  0
   19.3381   11.0159    2.3141 O   0  0  0  0  0  0  0  0  0  0  0  0
   17.5251   10.1229    8.4145 C   0  0  2  0  0  0  0  0  0  0  0  0
   16.3457   10.0672    7.4996 N   0  0  0  0  0  0  0  0  0  0  0  0
   23.6367    6.3159    8.9786 C   0  0  2  0  0  0  0  0  0  0  0  0
   24.5643    7.0251    9.8699 O   0  0  0  0  0  0  0  0  0  0  0  0
   18.7120    8.7997    3.0044 C   0  0  2  0  0  0  0  0  0  0  0  0
   17.6610    8.8108    2.0929 O   0  0  0  0  0  0  0  0  0  0  0  0
   18.6937    9.3311    7.7614 C   0  0  2  0  0  0  0  0  0  0  0  0
   23.8316    6.7512    7.5309 C   0  0  2  0  0  0  0  0  0  0  0  0
   23.1435    7.9990    7.5350 O   0  0  0  0  0  0  0  0  0  0  0  0
   18.3364    7.9442    4.2473 C   0  0  2  0  0  0  0  0  0  0  0  0
   19.4287    7.9534    5.1916 O   0  0  0  0  0  0  0  0  0  0  0  0
   19.9719    9.3097    8.6229 C   0  0  2  0  0  0  0  0  0  0  0  0
   20.8557    8.3272    7.9768 O   0  0  0  0  0  0  0  0  0  0  0  0
   23.2160    5.7851    6.4628 C   0  0  0  0  0  0  0  0  0  0  0  0
   23.5420    6.2347    5.1507 N   0  0  0  0  0  0  0  0  0  0  0  0
   18.0196    6.5110    3.8883 C   0  0  0  0  0  0  0  0  0  0  0  0
   19.1095    5.8755    3.3261 O   0  0  0  0  0  0  0  0  0  0  0  0
   19.6275    8.8559   10.1099 C   0  0  1  0  0  0  0  0  0  0  0  0
   20.7501    9.0364   10.9865 O   0  0  0  0  0  0  0  0  0  0  0  0
  1  2  1  1  0  0  0
  1  6  1  0  0  0  0
  1 23  1  0  0  0  0
  3  4  1  1  0  0  0
  3  8  1  0  0  0  0
  3 30  1  0  0  0  0
  5  9  1  0  0  0  0
  5 21  1  0  0  0  0
  5 25  1  6  0  0  0
  6  7  1  1  0  0  0
  6 11  1  0  0  0  0
  8 13  1  0  0  0  0
  9 10  1  1  0  0  0
  9 15  1  0  0  0  0
 11 12  1  6  0  0  0
 11 17  1  0  0  0  0
 13 14  1  6  0  0  0
 13 19  1  0  0  0  0
 15 16  1  1  0  0  0
 15 20  1  0  0  0  0
 17 18  1  6  0  0  0
 17 22  1  0  0  0  0
 19  2  1  6  0  0  0
 19 24  1  0  0  0  0
 20 21  1  0  0  0  0
 20 26  1  6  0  0  0
 22 23  1  0  0  0  0
 22 28  1  6  0  0  0
 24 25  1  6  0  0  0
 24 30  1  0  0  0  0
 26 27  1  0  0  0  0
 28 29  1  0  0  0  0
 30 31  1  1  0  0  0
M  END
>  <CHROM.1>
-172.48650742,105.44945275,-173.85291539,-175.69068594,61.99036671,-179.08809186
20.17935213,8.47028215,6.97782815,-2.08877675,-0.53528501,1.50072693

>  <Name>
2o3x_lig

>  <RI>
3.34184e+07

>  <Rbt.Current_Directory>
/home/itssahil/PROJECTS/Mol_Feturizer/New_Systems/rnas/2o3x

>  <Rbt.Executable>
rbdock ($Id: //depot/dev/client3/rdock/2013.1/src/exe/rbdock.cxx#4 $)

>  <Rbt.Library>
libRbt.so (2013.1, Build901 2013/11/27)

>  <Rbt.Parameter_File>
/export/apps/rDock/src/rDock_2013.1_src/data/scripts/dock_solv.prm

>  <Rbt.Receptor>
prm/pocket_docking_6.prm

>  <SCORE>
-10.9412

>  <SCORE.INTER>
-10.1441

>  <SCORE.INTER.CONST>
1

>  <SCORE.INTER.POLAR>
-1.06402

>  <SCORE.INTER.ROT>
6

>  <SCORE.INTER.SOLV>
19.6958

>  <SCORE.INTER.VDW>
-17.3813

>  <SCORE.INTER.norm>
-0.327229

>  <SCORE.INTRA>
-0.797141

>  <SCORE.INTRA.DIHEDRAL>
-2.47185

>  <SCORE.INTRA.DIHEDRAL.0>
9.37739

>  <SCORE.INTRA.POLAR>
0

>  <SCORE.INTRA.POLAR.0>
0

>  <SCORE.INTRA.REPUL>
0

>  <SCORE.INTRA.REPUL.0>
0

>  <SCORE.INTRA.SOLV>
-2.34394

>  <SCORE.INTRA.SOLV.lig_0>
-82.9274

>  <SCORE.INTRA.VDW>
1.61075

>  <SCORE.INTRA.VDW.0>
-3.84922

>  <SCORE.INTRA.norm>
-0.0257142

>  <SCORE.RESTR>
0

>  <SCORE.RESTR.CAVITY>
0

>  <SCORE.RESTR.norm>
0

>  <SCORE.SYSTEM>
0

>  <SCORE.SYSTEM.CONST>
0

>  <SCORE.SYSTEM.DIHEDRAL>
0

>  <SCORE.SYSTEM.SOLV>
0

>  <SCORE.SYSTEM.norm>
0

>  <SCORE.heavy>
31

>  <SCORE.norm>
-0.352943

>  <RMSD>
5.215

$$$$
2o3x_lig
 OpenBabel11021811463D
libRbt.so/2013.1/901 2013/11/27
 31 33  0  0  0  0  0  0  0  0999 V2000
   19.8157    8.1959    5.9445 C   0  0  2  0  0  0  0  0  0  0  0  0
   18.7478    8.4310    6.8717 O   0  0  0  0  0  0  0  0  0  0  0  0
   17.4428    6.4323   10.4214 C   0  0  2  0  0  0  0  0  0  0  0  0
   17.0565    5.4002   11.4088 N   0  0  0  0  0  0  0  0  0  0  0  0
   21.8949    7.1409    8.6354 C   0  0  1  0  0  0  0  0  0  0  0  0
   20.0219    9.4883    5.0927 C   0  0  2  0  0  0  0  0  0  0  0  0
   20.0905   10.7090    5.9359 N   0  0  0  0  0  0  0  0  0  0  0  0
   16.4516    6.4893    9.2116 C   0  0  0  0  0  0  0  0  0  0  0  0
   22.1191    6.9498   10.1714 C   0  0  2  0  0  0  0  0  0  0  0  0
   21.6898    8.0497   11.0201 O   0  0  0  0  0  0  0  0  0  0  0  0
   18.8878    9.6802    4.0681 C   0  0  1  0  0  0  0  0  0  0  0  0
   19.1205   10.8198    3.2798 O   0  0  0  0  0  0  0  0  0  0  0  0
   16.9275    7.6298    8.2394 C   0  0  2  0  0  0  0  0  0  0  0  0
   16.0185    7.7627    7.0616 N   0  0  0  0  0  0  0  0  0  0  0  0
   23.6125    6.6708   10.1419 C   0  0  2  0  0  0  0  0  0  0  0  0
   24.3803    7.9156   10.0066 O   0  0  0  0  0  0  0  0  0  0  0  0
   18.7718    8.4425    3.1943 C   0  0  2  0  0  0  0  0  0  0  0  0
   17.7633    8.6226    2.2530 O   0  0  0  0  0  0  0  0  0  0  0  0
   18.3656    7.3407    7.7224 C   0  0  2  0  0  0  0  0  0  0  0  0
   23.8083    5.7744    8.9248 C   0  0  2  0  0  0  0  0  0  0  0  0
   22.9418    6.4079    7.9876 O   0  0  0  0  0  0  0  0  0  0  0  0
   18.4684    7.1980    4.0756 C   0  0  2  0  0  0  0  0  0  0  0  0
   19.5138    7.0314    5.0575 O   0  0  0  0  0  0  0  0  0  0  0  0
   19.3982    7.1734    8.8546 C   0  0  2  0  0  0  0  0  0  0  0  0
   20.6124    6.6661    8.1971 O   0  0  0  0  0  0  0  0  0  0  0  0
   23.3954    4.2780    9.1341 C   0  0  0  0  0  0  0  0  0  0  0  0
   21.9994    4.1889    9.4048 N   0  0  0  0  0  0  0  0  0  0  0  0
   18.3599    5.9277    3.2644 C   0  0  0  0  0  0  0  0  0  0  0  0
   17.9716    4.8574    4.0464 O   0  0  0  0  0  0  0  0  0  0  0  0
   18.8703    6.1273    9.9329 C   0  0  1  0  0  0  0  0  0  0  0  0
   19.7030    6.1143   11.1024 O   0  0  0  0  0  0  0  0  0  0  0  0
  1  2  1  1  0  0  0
  1  6  1  0  0  0  0
  1 23  1  0  0  0  0
  3  4  1  1  0  0  0
  3  8  1  0  0  0  0
  3 30  1  0  0  0  0
  5  9  1  0  0  0  0
  5 21  1  0  0  0  0
  5 25  1  6  0  0  0
  6  7  1  1  0  0  0
  6 11  1  0  0  0  0
  8 13  1  0  0  0  0
  9 10  1  1  0  0  0
  9 15  1  0  0  0  0
 11 12  1  6  0  0  0
 11 17  1  0  0  0  0
 13 14  1  6  0  0  0
 13 19  1  0  0  0  0
 15 16  1  6  0  0  0
 15 20  1  0  0  0  0
 17 18  1  6  0  0  0
 17 22  1  0  0  0  0
 19  2  1  6  0  0  0
 19 24  1  0  0  0  0
 20 21  1  0  0  0  0
 20 26  1  1  0  0  0
 22 23  1  0  0  0  0
 22 28  1  6  0  0  0
 24 25  1  6  0  0  0
 24 30  1  0  0  0  0
 26 27  1  0  0  0  0
 28 29  1  0  0  0  0
 30 31  1  1  0  0  0
M  END
>  <CHROM.1>
177.82993914,54.55460469,-159.88343679,63.08489283,-174.54501201,141.41632011
19.83074146,7.22801303,7.41715646,-2.06487177,0.08317387,1.95027231

>  <Name>
2o3x_lig

>  <RI>
0

>  <Rbt.Current_Directory>
/home/itssahil/PROJECTS/Mol_Feturizer/New_Systems/rnas/2o3x

>  <Rbt.Executable>
rbdock ($Id: //depot/dev/client3/rdock/2013.1/src/exe/rbdock.cxx#4 $)

>  <Rbt.Library>
libRbt.so (2013.1, Build901 2013/11/27)

>  <Rbt.Parameter_File>
/export/apps/rDock/src/rDock_2013.1_src/data/scripts/dock_solv.prm

>  <Rbt.Receptor>
prm/pocket_docking_5.prm

>  <SCORE>
-6.8388

>  <SCORE.INTER>
-8.11581

>  <SCORE.INTER.CONST>
1

>  <SCORE.INTER.POLAR>
-1.12935

>  <SCORE.INTER.ROT>
6

>  <SCORE.INTER.SOLV>
13.5032

>  <SCORE.INTER.VDW>
-13.7471

>  <SCORE.INTER.norm>
-0.2618

>  <SCORE.INTRA>
1.277

>  <SCORE.INTRA.DIHEDRAL>
-1.93286

>  <SCORE.INTRA.DIHEDRAL.0>
9.37739

>  <SCORE.INTRA.POLAR>
0

>  <SCORE.INTRA.POLAR.0>
0

>  <SCORE.INTRA.REPUL>
0

>  <SCORE.INTRA.REPUL.0>
0

>  <SCORE.INTRA.SOLV>
2.44595

>  <SCORE.INTRA.SOLV.lig_0>
-82.9274

>  <SCORE.INTRA.VDW>
1.02046

>  <SCORE.INTRA.VDW.0>
-3.84922

>  <SCORE.INTRA.norm>
0.0411937

>  <SCORE.RESTR>
0

>  <SCORE.RESTR.CAVITY>
0

>  <SCORE.RESTR.norm>
0

>  <SCORE.SYSTEM>
0

>  <SCORE.SYSTEM.CONST>
0

>  <SCORE.SYSTEM.DIHEDRAL>
0

>  <SCORE.SYSTEM.SOLV>
0

>  <SCORE.SYSTEM.norm>
0

>  <SCORE.heavy>
31

>  <SCORE.norm>
-0.220607

>  <RMSD>
5.229

$$$$
2o3x_lig
 OpenBabel11021811463D
libRbt.so/2013.1/901 2013/11/27
 31 33  0  0  0  0  0  0  0  0999 V2000
   20.6351    9.2855    5.4257 C   0  0  2  0  0  0  0  0  0  0  0  0
   20.0156    9.9675    6.5241 O   0  0  0  0  0  0  0  0  0  0  0  0
   19.7821    8.8772   10.6539 C   0  0  2  0  0  0  0  0  0  0  0  0
   19.5245    8.1536   11.9186 N   0  0  0  0  0  0  0  0  0  0  0  0
   22.6836    6.9213    7.7332 C   0  0  1  0  0  0  0  0  0  0  0  0
   20.6403   10.2424    4.1917 C   0  0  2  0  0  0  0  0  0  0  0  0
   21.1384   11.5982    4.5372 N   0  0  0  0  0  0  0  0  0  0  0  0
   18.4564    9.2965    9.9354 C   0  0  0  0  0  0  0  0  0  0  0  0
   22.9043    5.6567    6.8398 C   0  0  2  0  0  0  0  0  0  0  0  0
   22.3143    4.4205    7.3277 O   0  0  0  0  0  0  0  0  0  0  0  0
   19.2330   10.3925    3.5835 C   0  0  1  0  0  0  0  0  0  0  0  0
   19.2708   11.2162    2.4457 O   0  0  0  0  0  0  0  0  0  0  0  0
   18.8338   10.0806    8.6257 C   0  0  2  0  0  0  0  0  0  0  0  0
   17.6173   10.5348    7.8874 N   0  0  0  0  0  0  0  0  0  0  0  0
   24.4221    5.6947    6.7772 C   0  0  2  0  0  0  0  0  0  0  0  0
   25.0157    5.1477    8.0044 O   0  0  0  0  0  0  0  0  0  0  0  0
   18.6782    9.0226    3.2313 C   0  0  2  0  0  0  0  0  0  0  0  0
   17.4165    9.1572    2.6606 O   0  0  0  0  0  0  0  0  0  0  0  0
   19.6797    9.1834    7.6777 C   0  0  2  0  0  0  0  0  0  0  0  0
   24.7597    7.1727    6.6201 C   0  0  2  0  0  0  0  0  0  0  0  0
   23.8320    7.7543    7.5319 O   0  0  0  0  0  0  0  0  0  0  0  0
   18.5989    8.1385    4.5080 C   0  0  2  0  0  0  0  0  0  0  0  0
   19.9110    8.0195    5.0988 O   0  0  0  0  0  0  0  0  0  0  0  0
   20.9650    8.6434    8.3357 C   0  0  2  0  0  0  0  0  0  0  0  0
   21.4857    7.6381    7.3964 O   0  0  0  0  0  0  0  0  0  0  0  0
   24.5506    7.7478    5.1783 C   0  0  0  0  0  0  0  0  0  0  0  0
   23.1935    7.5820    4.7774 N   0  0  0  0  0  0  0  0  0  0  0  0
   18.0708    6.7524    4.2195 C   0  0  0  0  0  0  0  0  0  0  0  0
   17.9540    6.0031    5.3739 O   0  0  0  0  0  0  0  0  0  0  0  0
   20.6262    7.9716    9.7391 C   0  0  1  0  0  0  0  0  0  0  0  0
   21.8200    7.6578   10.4721 O   0  0  0  0  0  0  0  0  0  0  0  0
  1  2  1  1  0  0  0
  1  6  1  0  0  0  0
  1 23  1  0  0  0  0
  3  4  1  1  0  0  0
  3  8  1  0  0  0  0
  3 30  1  0  0  0  0
  5  9  1  0  0  0  0
  5 21  1  0  0  0  0
  5 25  1  6  0  0  0
  6  7  1  1  0  0  0
  6 11  1  0  0  0  0
  8 13  1  0  0  0  0
  9 10  1  1  0  0  0
  9 15  1  0  0  0  0
 11 12  1  6  0  0  0
 11 17  1  0  0  0  0
 13 14  1  6  0  0  0
 13 19  1  0  0  0  0
 15 16  1  1  0  0  0
 15 20  1  0  0  0  0
 17 18  1  1  0  0  0
 17 22  1  0  0  0  0
 19  2  1  6  0  0  0
 19 24  1  0  0  0  0
 20 21  1  0  0  0  0
 20 26  1  6  0  0  0
 22 23  1  0  0  0  0
 22 28  1  6  0  0  0
 24 25  1  6  0  0  0
 24 30  1  0  0  0  0
 26 27  1  0  0  0  0
 28 29  1  0  0  0  0
 30 31  1  1  0  0  0
M  END
>  <CHROM.1>
168.45284457,165.21346162,-171.38788599,58.93126984,-177.40483127,-178.92798147
20.77732268,8.22671776,6.60229467,-2.39076869,-0.54433241,1.66783588

>  <Name>
2o3x_lig

>  <RI>
0

>  <Rbt.Current_Directory>
/home/itssahil/PROJECTS/Mol_Feturizer/New_Systems/rnas/2o3x

>  <Rbt.Executable>
rbdock ($Id: //depot/dev/client3/rdock/2013.1/src/exe/rbdock.cxx#4 $)

>  <Rbt.Library>
libRbt.so (2013.1, Build901 2013/11/27)

>  <Rbt.Parameter_File>
/export/apps/rDock/src/rDock_2013.1_src/data/scripts/dock_solv.prm

>  <Rbt.Receptor>
prm/pocket_docking_3.prm

>  <SCORE>
-12.7126

>  <SCORE.INTER>
-11.3249

>  <SCORE.INTER.CONST>
1

>  <SCORE.INTER.POLAR>
-1.01221

>  <SCORE.INTER.ROT>
6

>  <SCORE.INTER.SOLV>
17.1429

>  <SCORE.INTER.VDW>
-17.4902

>  <SCORE.INTER.norm>
-0.365319

>  <SCORE.INTRA>
-1.38776

>  <SCORE.INTRA.DIHEDRAL>
-7.13854

>  <SCORE.INTRA.DIHEDRAL.0>
9.37739

>  <SCORE.INTRA.POLAR>
0

>  <SCORE.INTRA.POLAR.0>
0

>  <SCORE.INTRA.REPUL>
0

>  <SCORE.INTRA.REPUL.0>
0

>  <SCORE.INTRA.SOLV>
2.04568

>  <SCORE.INTRA.SOLV.lig_0>
-82.9274

>  <SCORE.INTRA.VDW>
1.15867

>  <SCORE.INTRA.VDW.0>
-3.84922

>  <SCORE.INTRA.norm>
-0.0447663

>  <SCORE.RESTR>
0

>  <SCORE.RESTR.CAVITY>
0

>  <SCORE.RESTR.norm>
0

>  <SCORE.SYSTEM>
0

>  <SCORE.SYSTEM.CONST>
0

>  <SCORE.SYSTEM.DIHEDRAL>
0

>  <SCORE.SYSTEM.SOLV>
0

>  <SCORE.SYSTEM.norm>
0

>  <SCORE.heavy>
31

>  <SCORE.norm>
-0.410085

>  <RMSD>
5.246

$$$$
2o3x_lig
 OpenBabel11021811463D
libRbt.so/2013.1/901 2013/11/27
 31 33  0  0  0  0  0  0  0  0999 V2000
   19.9659    9.2989    5.9214 C   0  0  2  0  0  0  0  0  0  0  0  0
   18.9949    9.9879    6.7201 O   0  0  0  0  0  0  0  0  0  0  0  0
   17.5505    9.7678   10.7405 C   0  0  2  0  0  0  0  0  0  0  0  0
   17.1716    9.2895   12.0885 N   0  0  0  0  0  0  0  0  0  0  0  0
   21.0043    7.8991    8.7371 C   0  0  1  0  0  0  0  0  0  0  0  0
   20.2696   10.1659    4.6587 C   0  0  2  0  0  0  0  0  0  0  0  0
   20.5366   11.5851    5.0055 N   0  0  0  0  0  0  0  0  0  0  0  0
   16.6804    9.1116    9.6173 C   0  0  0  0  0  0  0  0  0  0  0  0
   22.4590    7.4290    8.4071 C   0  0  2  0  0  0  0  0  0  0  0  0
   22.7771    7.2825    6.9959 O   0  0  0  0  0  0  0  0  0  0  0  0
   19.1034   10.1325    3.6529 C   0  0  1  0  0  0  0  0  0  0  0  0
   19.4193   10.8771    2.5039 O   0  0  0  0  0  0  0  0  0  0  0  0
   17.1362    9.7033    8.2336 C   0  0  2  0  0  0  0  0  0  0  0  0
   16.3372    9.1390    7.1047 N   0  0  0  0  0  0  0  0  0  0  0  0
   22.4691    6.1525    9.2315 C   0  0  2  0  0  0  0  0  0  0  0  0
   21.7711    5.0658    8.5317 O   0  0  0  0  0  0  0  0  0  0  0  0
   18.7854    8.6931    3.2845 C   0  0  2  0  0  0  0  0  0  0  0  0
   17.7475    8.6616    2.3585 O   0  0  0  0  0  0  0  0  0  0  0  0
   18.6388    9.3944    7.9769 C   0  0  2  0  0  0  0  0  0  0  0  0
   21.7445    6.5254   10.5195 C   0  0  2  0  0  0  0  0  0  0  0  0
   20.6760    7.3140   10.0031 O   0  0  0  0  0  0  0  0  0  0  0  0
   18.3929    7.8939    4.5592 C   0  0  2  0  0  0  0  0  0  0  0  0
   19.4716    7.9474    5.5175 O   0  0  0  0  0  0  0  0  0  0  0  0
   19.5681    9.9232    9.0873 C   0  0  2  0  0  0  0  0  0  0  0  0
   20.8836    9.3284    8.8049 O   0  0  0  0  0  0  0  0  0  0  0  0
   22.5971    7.3523   11.5406 C   0  0  0  0  0  0  0  0  0  0  0  0
   21.8964    7.4778   12.7747 N   0  0  0  0  0  0  0  0  0  0  0  0
   18.0825    6.4455    4.2606 C   0  0  0  0  0  0  0  0  0  0  0  0
   17.7184    5.7585    5.4023 O   0  0  0  0  0  0  0  0  0  0  0  0
   19.0414    9.4574   10.5161 C   0  0  1  0  0  0  0  0  0  0  0  0
   19.7541   10.1119   11.5767 O   0  0  0  0  0  0  0  0  0  0  0  0
  1  2  1  1  0  0  0
  1  6  1  0  0  0  0
  1 23  1  0  0  0  0
  3  4  1  1  0  0  0
  3  8  1  0  0  0  0
  3 30  1  0  0  0  0
  5  9  1  0  0  0  0
  5 21  1  0  0  0  0
  5 25  1  1  0  0  0
  6  7  1  1  0  0  0
  6 11  1  0  0  0  0
  8 13  1  0  0  0  0
  9 10  1  6  0  0  0
  9 15  1  0  0  0  0
 11 12  1  6  0  0  0
 11 17  1  0  0  0  0
 13 14  1  6  0  0  0
 13 19  1  0  0  0  0
 15 16  1  6  0  0  0
 15 20  1  0  0  0  0
 17 18  1  6  0  0  0
 17 22  1  0  0  0  0
 19  2  1  6  0  0  0
 19 24  1  0  0  0  0
 20 21  1  0  0  0  0
 20 26  1  1  0  0  0
 22 23  1  0  0  0  0
 22 28  1  6  0  0  0
 24 25  1  6  0  0  0
 24 30  1  0  0  0  0
 26 27  1  0  0  0  0
 28 29  1  0  0  0  0
 30 31  1  1  0  0  0
M  END
>  <CHROM.1>
-176.17222423,179.09138647,-146.08278753,-171.63766632,-179.15983395,-57.54750784
19.64382760,8.53331275,7.59105537,-1.90594016,-0.61206561,1.53521005

>  <Name>
2o3x_lig

>  <RI>
0

>  <Rbt.Current_Directory>
/home/itssahil/PROJECTS/Mol_Feturizer/New_Systems/rnas/2o3x

>  <Rbt.Executable>
rbdock ($Id: //depot/dev/client3/rdock/2013.1/src/exe/rbdock.cxx#4 $)

>  <Rbt.Library>
libRbt.so (2013.1, Build901 2013/11/27)

>  <Rbt.Parameter_File>
/export/apps/rDock/src/rDock_2013.1_src/data/scripts/dock_solv.prm

>  <Rbt.Receptor>
prm/pocket_docking_3.prm

>  <SCORE>
-14.6943

>  <SCORE.INTER>
-12.7816

>  <SCORE.INTER.CONST>
1

>  <SCORE.INTER.POLAR>
-1.26433

>  <SCORE.INTER.ROT>
6

>  <SCORE.INTER.SOLV>
16.6779

>  <SCORE.INTER.VDW>
-17.4659

>  <SCORE.INTER.norm>
-0.41231

>  <SCORE.INTRA>
-1.91273

>  <SCORE.INTRA.DIHEDRAL>
-4.58467

>  <SCORE.INTRA.DIHEDRAL.0>
9.37739

>  <SCORE.INTRA.POLAR>
0

>  <SCORE.INTRA.POLAR.0>
0

>  <SCORE.INTRA.REPUL>
0

>  <SCORE.INTRA.REPUL.0>
0

>  <SCORE.INTRA.SOLV>
-0.370286

>  <SCORE.INTRA.SOLV.lig_0>
-82.9274

>  <SCORE.INTRA.VDW>
0.564752

>  <SCORE.INTRA.VDW.0>
-3.84922

>  <SCORE.INTRA.norm>
-0.0617009

>  <SCORE.RESTR>
0

>  <SCORE.RESTR.CAVITY>
0

>  <SCORE.RESTR.norm>
0

>  <SCORE.SYSTEM>
0

>  <SCORE.SYSTEM.CONST>
0

>  <SCORE.SYSTEM.DIHEDRAL>
0

>  <SCORE.SYSTEM.SOLV>
0

>  <SCORE.SYSTEM.norm>
0

>  <SCORE.heavy>
31

>  <SCORE.norm>
-0.474011

>  <RMSD>
5.250

$$$$
2o3x_lig
 OpenBabel11021811463D
libRbt.so/2013.1/901 2013/11/27
 31 33  0  0  0  0  0  0  0  0999 V2000
   19.6370    8.2372    6.0317 C   0  0  2  0  0  0  0  0  0  0  0  0
   18.5201    8.5025    6.8905 O   0  0  0  0  0  0  0  0  0  0  0  0
   17.2193    6.6467   10.5185 C   0  0  2  0  0  0  0  0  0  0  0  0
   16.8107    5.6562   11.5390 N   0  0  0  0  0  0  0  0  0  0  0  0
   21.6491    7.0670    8.6191 C   0  0  1  0  0  0  0  0  0  0  0  0
   19.9170    9.5150    5.1789 C   0  0  2  0  0  0  0  0  0  0  0  0
   19.9574   10.7448    6.0106 N   0  0  0  0  0  0  0  0  0  0  0  0
   16.1980    6.7281    9.3354 C   0  0  0  0  0  0  0  0  0  0  0  0
   21.8770    6.8907   10.1563 C   0  0  2  0  0  0  0  0  0  0  0  0
   21.5347    8.0341   10.9869 O   0  0  0  0  0  0  0  0  0  0  0  0
   18.8498    9.7137    4.0861 C   0  0  1  0  0  0  0  0  0  0  0  0
   19.1497   10.8391    3.3001 O   0  0  0  0  0  0  0  0  0  0  0  0
   16.7020    7.8227    8.3253 C   0  0  2  0  0  0  0  0  0  0  0  0
   15.7675    7.9764    7.1702 N   0  0  0  0  0  0  0  0  0  0  0  0
   23.3469    6.5078   10.1175 C   0  0  2  0  0  0  0  0  0  0  0  0
   24.1978    7.6933    9.9494 O   0  0  0  0  0  0  0  0  0  0  0  0
   18.7637    8.4674    3.2213 C   0  0  2  0  0  0  0  0  0  0  0  0
   17.8165    8.6531    2.2192 O   0  0  0  0  0  0  0  0  0  0  0  0
   18.1087    7.4509    7.7755 C   0  0  2  0  0  0  0  0  0  0  0  0
   23.4662    5.5765    8.9169 C   0  0  2  0  0  0  0  0  0  0  0  0
   22.6352    6.2504    7.9758 O   0  0  0  0  0  0  0  0  0  0  0  0
   18.3857    7.2395    4.0971 C   0  0  2  0  0  0  0  0  0  0  0  0
   19.3675    7.0670    5.1417 O   0  0  0  0  0  0  0  0  0  0  0  0
   19.1637    7.2556    8.8824 C   0  0  2  0  0  0  0  0  0  0  0  0
   20.3319    6.6743    8.2033 O   0  0  0  0  0  0  0  0  0  0  0  0
   22.9528    4.1169    9.1603 C   0  0  0  0  0  0  0  0  0  0  0  0
   23.0815    3.3477    7.9680 N   0  0  0  0  0  0  0  0  0  0  0  0
   18.3027    5.9612    3.2955 C   0  0  0  0  0  0  0  0  0  0  0  0
   19.4909    5.6920    2.6447 O   0  0  0  0  0  0  0  0  0  0  0  0
   18.6154    6.2602    9.9979 C   0  0  1  0  0  0  0  0  0  0  0  0
   19.4795    6.2299   11.1441 O   0  0  0  0  0  0  0  0  0  0  0  0
  1  2  1  1  0  0  0
  1  6  1  0  0  0  0
  1 23  1  0  0  0  0
  3  4  1  1  0  0  0
  3  8  1  0  0  0  0
  3 30  1  0  0  0  0
  5  9  1  0  0  0  0
  5 21  1  0  0  0  0
  5 25  1  1  0  0  0
  6  7  1  1  0  0  0
  6 11  1  0  0  0  0
  8 13  1  0  0  0  0
  9 10  1  1  0  0  0
  9 15  1  0  0  0  0
 11 12  1  6  0  0  0
 11 17  1  0  0  0  0
 13 14  1  6  0  0  0
 13 19  1  0  0  0  0
 15 16  1  6  0  0  0
 15 20  1  0  0  0  0
 17 18  1  6  0  0  0
 17 22  1  0  0  0  0
 19  2  1  6  0  0  0
 19 24  1  0  0  0  0
 20 21  1  0  0  0  0
 20 26  1  1  0  0  0
 22 23  1  0  0  0  0
 22 28  1  6  0  0  0
 24 25  1  6  0  0  0
 24 30  1  0  0  0  0
 26 27  1  0  0  0  0
 28 29  1  0  0  0  0
 30 31  1  1  0  0  0
M  END
>  <CHROM.1>
-179.25158078,53.23482121,-165.93925504,178.59128027,57.53383440,143.02189443
19.74409840,7.25905446,7.35246505,-2.01185310,-0.20337431,1.83440858

>  <Name>
2o3x_lig

>  <RI>
2.78316e+07

>  <Rbt.Current_Directory>
/home/itssahil/PROJECTS/Mol_Feturizer/New_Systems/rnas/2o3x

>  <Rbt.Executable>
rbdock ($Id: //depot/dev/client3/rdock/2013.1/src/exe/rbdock.cxx#4 $)

>  <Rbt.Library>
libRbt.so (2013.1, Build901 2013/11/27)

>  <Rbt.Parameter_File>
/export/apps/rDock/src/rDock_2013.1_src/data/scripts/dock_solv.prm

>  <Rbt.Receptor>
prm/pocket_docking_7.prm

>  <SCORE>
-8.81855

>  <SCORE.INTER>
-7.91101

>  <SCORE.INTER.CONST>
1

>  <SCORE.INTER.POLAR>
-1.14647

>  <SCORE.INTER.ROT>
6

>  <SCORE.INTER.SOLV>
14.189

>  <SCORE.INTER.VDW>
-13.7821

>  <SCORE.INTER.norm>
-0.255194

>  <SCORE.INTRA>
-0.907539

>  <SCORE.INTRA.DIHEDRAL>
-3.13339

>  <SCORE.INTRA.DIHEDRAL.0>
9.37739

>  <SCORE.INTRA.POLAR>
0

>  <SCORE.INTRA.POLAR.0>
0

>  <SCORE.INTRA.REPUL>
0

>  <SCORE.INTRA.REPUL.0>
0

>  <SCORE.INTRA.SOLV>
-1.91803

>  <SCORE.INTRA.SOLV.lig_0>
-82.9274

>  <SCORE.INTRA.VDW>
1.61817

>  <SCORE.INTRA.VDW.0>
-3.84922

>  <SCORE.INTRA.norm>
-0.0292755

>  <SCORE.RESTR>
0

>  <SCORE.RESTR.CAVITY>
0

>  <SCORE.RESTR.norm>
0

>  <SCORE.SYSTEM>
0

>  <SCORE.SYSTEM.CONST>
0

>  <SCORE.SYSTEM.DIHEDRAL>
0

>  <SCORE.SYSTEM.SOLV>
0

>  <SCORE.SYSTEM.norm>
0

>  <SCORE.heavy>
31

>  <SCORE.norm>
-0.284469

>  <RMSD>
5.282

$$$$
2o3x_lig
 OpenBabel11021811463D
libRbt.so/2013.1/901 2013/11/27
 31 33  0  0  0  0  0  0  0  0999 V2000
   16.9310    8.7443    6.4328 C   0  0  2  0  0  0  0  0  0  0  0  0
   17.0993    8.1429    7.7234 O   0  0  0  0  0  0  0  0  0  0  0  0
   18.2871   11.7254    9.7366 C   0  0  2  0  0  0  0  0  0  0  0  0
   18.6535   12.7171   10.7719 N   0  0  0  0  0  0  0  0  0  0  0  0
   19.1686    7.4330   10.4148 C   0  0  1  0  0  0  0  0  0  0  0  0
   16.6244    7.6145    5.3993 C   0  0  2  0  0  0  0  0  0  0  0  0
   15.5650    6.6905    5.8784 N   0  0  0  0  0  0  0  0  0  0  0  0
   16.7851   11.2974    9.8373 C   0  0  0  0  0  0  0  0  0  0  0  0
   19.9089    6.0720   10.6291 C   0  0  2  0  0  0  0  0  0  0  0  0
   19.2726    4.9015   10.0464 O   0  0  0  0  0  0  0  0  0  0  0  0
   17.8788    6.7782    5.0833 C   0  0  1  0  0  0  0  0  0  0  0  0
   17.5915    5.8017    4.1146 O   0  0  0  0  0  0  0  0  0  0  0  0
   16.4879   10.2715    8.6834 C   0  0  2  0  0  0  0  0  0  0  0  0
   15.0622    9.8258    8.6981 N   0  0  0  0  0  0  0  0  0  0  0  0
   19.9910    6.1036   12.1460 C   0  0  2  0  0  0  0  0  0  0  0  0
   18.7140    5.7056   12.7531 O   0  0  0  0  0  0  0  0  0  0  0  0
   18.9959    7.6904    4.6053 C   0  0  2  0  0  0  0  0  0  0  0  0
   20.1228    6.9347    4.2973 O   0  0  0  0  0  0  0  0  0  0  0  0
   17.3979    9.0177    8.8207 C   0  0  2  0  0  0  0  0  0  0  0  0
   20.3247    7.5530   12.4791 C   0  0  2  0  0  0  0  0  0  0  0  0
   19.4784    8.2373   11.5594 O   0  0  0  0  0  0  0  0  0  0  0  0
   19.3342    8.7357    5.7057 C   0  0  2  0  0  0  0  0  0  0  0  0
   18.1535    9.5023    6.0269 O   0  0  0  0  0  0  0  0  0  0  0  0
   18.9023    9.3542    8.8273 C   0  0  2  0  0  0  0  0  0  0  0  0
   19.5753    8.1041    9.2122 O   0  0  0  0  0  0  0  0  0  0  0  0
   21.8221    7.9538   12.2543 C   0  0  0  0  0  0  0  0  0  0  0  0
   22.6652    7.2043   13.1245 N   0  0  0  0  0  0  0  0  0  0  0  0
   20.4285    9.6876    5.2820 C   0  0  0  0  0  0  0  0  0  0  0  0
   20.0506   10.4411    4.1878 O   0  0  0  0  0  0  0  0  0  0  0  0
   19.2067   10.5005    9.8899 C   0  0  1  0  0  0  0  0  0  0  0  0
   20.5515   10.9873    9.7654 O   0  0  0  0  0  0  0  0  0  0  0  0
  1  2  1  1  0  0  0
  1  6  1  0  0  0  0
  1 23  1  0  0  0  0
  3  4  1  1  0  0  0
  3  8  1  0  0  0  0
  3 30  1  0  0  0  0
  5  9  1  0  0  0  0
  5 21  1  0  0  0  0
  5 25  1  6  0  0  0
  6  7  1  1  0  0  0
  6 11  1  0  0  0  0
  8 13  1  0  0  0  0
  9 10  1  1  0  0  0
  9 15  1  0  0  0  0
 11 12  1  6  0  0  0
 11 17  1  0  0  0  0
 13 14  1  1  0  0  0
 13 19  1  0  0  0  0
 15 16  1  1  0  0  0
 15 20  1  0  0  0  0
 17 18  1  1  0  0  0
 17 22  1  0  0  0  0
 19  2  1  6  0  0  0
 19 24  1  0  0  0  0
 20 21  1  0  0  0  0
 20 26  1  6  0  0  0
 22 23  1  0  0  0  0
 22 28  1  6  0  0  0
 24 25  1  1  0  0  0
 24 30  1  0  0  0  0
 26 27  1  0  0  0  0
 28 29  1  0  0  0  0
 30 31  1  6  0  0  0
M  END
>  <CHROM.1>
179.66197180,175.96523355,42.56094505,-63.35524357,62.70303107,-53.42514169
18.76408725,8.41873253,8.50455771,2.50799173,1.19764450,-2.42439202

>  <Name>
2o3x_lig

>  <RI>
0

>  <Rbt.Current_Directory>
/home/itssahil/PROJECTS/Mol_Feturizer/New_Systems/rnas/2o3x

>  <Rbt.Executable>
rbdock ($Id: //depot/dev/client3/rdock/2013.1/src/exe/rbdock.cxx#4 $)

>  <Rbt.Library>
libRbt.so (2013.1, Build901 2013/11/27)

>  <Rbt.Parameter_File>
/export/apps/rDock/src/rDock_2013.1_src/data/scripts/dock_solv.prm

>  <Rbt.Receptor>
prm/pocket_docking_5.prm

>  <SCORE>
-8.84293

>  <SCORE.INTER>
-7.03733

>  <SCORE.INTER.CONST>
1

>  <SCORE.INTER.POLAR>
-0.657572

>  <SCORE.INTER.ROT>
6

>  <SCORE.INTER.SOLV>
12.1579

>  <SCORE.INTER.VDW>
-14.1523

>  <SCORE.INTER.norm>
-0.227011

>  <SCORE.INTRA>
-1.8056

>  <SCORE.INTRA.DIHEDRAL>
-7.44492

>  <SCORE.INTRA.DIHEDRAL.0>
9.37739

>  <SCORE.INTRA.POLAR>
0

>  <SCORE.INTRA.POLAR.0>
0

>  <SCORE.INTRA.REPUL>
0

>  <SCORE.INTRA.REPUL.0>
0

>  <SCORE.INTRA.SOLV>
-1.35297

>  <SCORE.INTRA.SOLV.lig_0>
-82.9274

>  <SCORE.INTRA.VDW>
2.59335

>  <SCORE.INTRA.VDW.0>
-3.84922

>  <SCORE.INTRA.norm>
-0.0582451

>  <SCORE.RESTR>
0

>  <SCORE.RESTR.CAVITY>
0

>  <SCORE.RESTR.norm>
0

>  <SCORE.SYSTEM>
0

>  <SCORE.SYSTEM.CONST>
0

>  <SCORE.SYSTEM.DIHEDRAL>
0

>  <SCORE.SYSTEM.SOLV>
0

>  <SCORE.SYSTEM.norm>
0

>  <SCORE.heavy>
31

>  <SCORE.norm>
-0.285256

>  <RMSD>
5.299

$$$$
2o3x_lig
 OpenBabel11021811463D
libRbt.so/2013.1/901 2013/11/27
 31 33  0  0  0  0  0  0  0  0999 V2000
   21.5776    8.8621    8.2525 C   0  0  2  0  0  0  0  0  0  0  0  0
   20.9197    7.7021    8.7789 O   0  0  0  0  0  0  0  0  0  0  0  0
   22.3398    8.1675   12.7869 C   0  0  2  0  0  0  0  0  0  0  0  0
   22.7076    7.9258   14.1996 N   0  0  0  0  0  0  0  0  0  0  0  0
   22.8666    4.7733   10.1736 C   0  0  1  0  0  0  0  0  0  0  0  0
   20.7465    9.3928    7.0416 C   0  0  2  0  0  0  0  0  0  0  0  0
   19.2997    9.4995    7.3600 N   0  0  0  0  0  0  0  0  0  0  0  0
   20.7916    8.1142   12.5646 C   0  0  0  0  0  0  0  0  0  0  0  0
   21.3634    4.3671   10.0262 C   0  0  2  0  0  0  0  0  0  0  0  0
   20.4879    4.7552   11.1203 O   0  0  0  0  0  0  0  0  0  0  0  0
   20.8969    8.4834    5.8074 C   0  0  1  0  0  0  0  0  0  0  0  0
   20.1823    9.0071    4.7168 O   0  0  0  0  0  0  0  0  0  0  0  0
   20.5022    8.4115   11.0479 C   0  0  2  0  0  0  0  0  0  0  0  0
   19.0375    8.3979   10.7550 N   0  0  0  0  0  0  0  0  0  0  0  0
   21.5588    2.8740    9.8227 C   0  0  2  0  0  0  0  0  0  0  0  0
   21.7993    2.1931   11.1018 O   0  0  0  0  0  0  0  0  0  0  0  0
   22.3679    8.3330    5.4579 C   0  0  2  0  0  0  0  0  0  0  0  0
   22.5049    7.5307    4.3295 O   0  0  0  0  0  0  0  0  0  0  0  0
   21.1959    7.3537   10.1429 C   0  0  2  0  0  0  0  0  0  0  0  0
   22.7768    2.7700    8.9122 C   0  0  2  0  0  0  0  0  0  0  0  0
   23.6184    3.7691    9.4813 O   0  0  0  0  0  0  0  0  0  0  0  0
   23.1366    7.7097    6.6571 C   0  0  2  0  0  0  0  0  0  0  0  0
   22.9738    8.5433    7.8248 O   0  0  0  0  0  0  0  0  0  0  0  0
   22.7192    7.2682   10.3630 C   0  0  2  0  0  0  0  0  0  0  0  0
   23.1487    6.0702    9.6253 O   0  0  0  0  0  0  0  0  0  0  0  0
   22.4995    3.0771    7.4015 C   0  0  0  0  0  0  0  0  0  0  0  0
   23.7281    3.2883    6.7117 N   0  0  0  0  0  0  0  0  0  0  0  0
   24.6132    7.5515    6.3779 C   0  0  0  0  0  0  0  0  0  0  0  0
   24.8366    6.8793    5.1921 O   0  0  0  0  0  0  0  0  0  0  0  0
   23.0449    7.1137   11.9141 C   0  0  1  0  0  0  0  0  0  0  0  0
   24.4506    7.2518   12.1711 O   0  0  0  0  0  0  0  0  0  0  0  0
  1  2  1  6  0  0  0
  1  6  1  0  0  0  0
  1 23  1  0  0  0  0
  3  4  1  1  0  0  0
  3  8  1  0  0  0  0
  3 30  1  0  0  0  0
  5  9  1  0  0  0  0
  5 21  1  0  0  0  0
  5 25  1  6  0  0  0
  6  7  1  1  0  0  0
  6 11  1  0  0  0  0
  8 13  1  0  0  0  0
  9 10  1  1  0  0  0
  9 15  1  0  0  0  0
 11 12  1  6  0  0  0
 11 17  1  0  0  0  0
 13 14  1  1  0  0  0
 13 19  1  0  0  0  0
 15 16  1  1  0  0  0
 15 20  1  0  0  0  0
 17 18  1  6  0  0  0
 17 22  1  0  0  0  0
 19  2  1  6  0  0  0
 19 24  1  0  0  0  0
 20 21  1  0  0  0  0
 20 26  1  6  0  0  0
 22 23  1  0  0  0  0
 22 28  1  6  0  0  0
 24 25  1  6  0  0  0
 24 30  1  0  0  0  0
 26 27  1  0  0  0  0
 28 29  1  0  0  0  0
 30 31  1  6  0  0  0
M  END
>  <CHROM.1>
-157.20048712,74.85883889,71.42108286,165.19162812,-52.10895748,-75.07679504
22.11003136,6.67195520,8.94091822,1.60460275,1.20776592,-1.20801632

>  <Name>
2o3x_lig

>  <RI>
224

>  <Rbt.Current_Directory>
/home/itssahil/PROJECTS/Mol_Feturizer/New_Systems/rnas/2o3x

>  <Rbt.Executable>
rbdock ($Id: //depot/dev/client3/rdock/2013.1/src/exe/rbdock.cxx#4 $)

>  <Rbt.Library>
libRbt.so (2013.1, Build901 2013/11/27)

>  <Rbt.Parameter_File>
/export/apps/rDock/src/rDock_2013.1_src/data/scripts/dock_solv.prm

>  <Rbt.Receptor>
prm/blind_docking_100.prm

>  <SCORE>
1.12898

>  <SCORE.INTER>
-4.42912

>  <SCORE.INTER.CONST>
1

>  <SCORE.INTER.POLAR>
-0.256714

>  <SCORE.INTER.ROT>
6

>  <SCORE.INTER.SOLV>
13.0054

>  <SCORE.INTER.VDW>
-14.0322

>  <SCORE.INTER.norm>
-0.142875

>  <SCORE.INTRA>
0.981701

>  <SCORE.INTRA.DIHEDRAL>
-3.23092

>  <SCORE.INTRA.DIHEDRAL.0>
9.37739

>  <SCORE.INTRA.POLAR>
0

>  <SCORE.INTRA.POLAR.0>
0

>  <SCORE.INTRA.REPUL>
0

>  <SCORE.INTRA.REPUL.0>
0

>  <SCORE.INTRA.SOLV>
1.16121

>  <SCORE.INTRA.SOLV.lig_0>
-82.9274

>  <SCORE.INTRA.VDW>
2.01656

>  <SCORE.INTRA.VDW.0>
-3.84922

>  <SCORE.INTRA.norm>
0.0316678

>  <SCORE.RESTR>
4.5764

>  <SCORE.RESTR.CAVITY>
4.5764

>  <SCORE.RESTR.norm>
0.147626

>  <SCORE.SYSTEM>
0

>  <SCORE.SYSTEM.CONST>
0

>  <SCORE.SYSTEM.DIHEDRAL>
0

>  <SCORE.SYSTEM.SOLV>
0

>  <SCORE.SYSTEM.norm>
0

>  <SCORE.heavy>
31

>  <SCORE.norm>
0.0364187

>  <RMSD>
5.300

$$$$
2o3x_lig
 OpenBabel11021811463D
libRbt.so/2013.1/901 2013/11/27
 31 33  0  0  0  0  0  0  0  0999 V2000
   20.7124    9.3782    5.2605 C   0  0  2  0  0  0  0  0  0  0  0  0
   20.0533    9.9649    6.3904 O   0  0  0  0  0  0  0  0  0  0  0  0
   20.0296    8.6467   10.4598 C   0  0  2  0  0  0  0  0  0  0  0  0
   19.8465    7.8488   11.6923 N   0  0  0  0  0  0  0  0  0  0  0  0
   23.0111    7.2786    7.0766 C   0  0  1  0  0  0  0  0  0  0  0  0
   20.6434   10.3876    4.0711 C   0  0  2  0  0  0  0  0  0  0  0  0
   21.0476   11.7581    4.4763 N   0  0  0  0  0  0  0  0  0  0  0  0
   18.6633    9.0669    9.8225 C   0  0  0  0  0  0  0  0  0  0  0  0
   23.2706    5.8353    6.5328 C   0  0  2  0  0  0  0  0  0  0  0  0
   23.2396    4.7672    7.5189 O   0  0  0  0  0  0  0  0  0  0  0  0
   19.2255   10.4660    3.4742 C   0  0  1  0  0  0  0  0  0  0  0  0
   19.1989   11.3407    2.3749 O   0  0  0  0  0  0  0  0  0  0  0  0
   18.9625    9.9309    8.5433 C   0  0  2  0  0  0  0  0  0  0  0  0
   17.7035   10.3901    7.8835 N   0  0  0  0  0  0  0  0  0  0  0  0
   24.6113    6.0907    5.8647 C   0  0  2  0  0  0  0  0  0  0  0  0
   25.6995    6.1042    6.8512 O   0  0  0  0  0  0  0  0  0  0  0  0
   18.7656    9.0778    3.0619 C   0  0  2  0  0  0  0  0  0  0  0  0
   17.4942    9.1492    2.5014 O   0  0  0  0  0  0  0  0  0  0  0  0
   19.7887    9.1105    7.5121 C   0  0  2  0  0  0  0  0  0  0  0  0
   24.4548    7.4567    5.2068 C   0  0  2  0  0  0  0  0  0  0  0  0
   23.7520    8.1621    6.2261 O   0  0  0  0  0  0  0  0  0  0  0  0
   18.7559    8.1338    4.2974 C   0  0  2  0  0  0  0  0  0  0  0  0
   20.0766    8.0805    4.8785 O   0  0  0  0  0  0  0  0  0  0  0  0
   21.1151    8.5719    8.0840 C   0  0  2  0  0  0  0  0  0  0  0  0
   21.6197    7.6339    7.0694 O   0  0  0  0  0  0  0  0  0  0  0  0
   23.6363    7.4561    3.8714 C   0  0  0  0  0  0  0  0  0  0  0  0
   23.6382    8.7594    3.2958 N   0  0  0  0  0  0  0  0  0  0  0  0
   18.3242    6.7285    3.9479 C   0  0  0  0  0  0  0  0  0  0  0  0
   19.1603    6.1597    3.0069 O   0  0  0  0  0  0  0  0  0  0  0  0
   20.8556    7.8159    9.4613 C   0  0  1  0  0  0  0  0  0  0  0  0
   22.0882    7.4965   10.1246 O   0  0  0  0  0  0  0  0  0  0  0  0
  1  2  1  1  0  0  0
  1  6  1  0  0  0  0
  1 23  1  0  0  0  0
  3  4  1  1  0  0  0
  3  8  1  0  0  0  0
  3 30  1  0  0  0  0
  5  9  1  0  0  0  0
  5 21  1  0  0  0  0
  5 25  1  6  0  0  0
  6  7  1  1  0  0  0
  6 11  1  0  0  0  0
  8 13  1  0  0  0  0
  9 10  1  1  0  0  0
  9 15  1  0  0  0  0
 11 12  1  6  0  0  0
 11 17  1  0  0  0  0
 13 14  1  6  0  0  0
 13 19  1  0  0  0  0
 15 16  1  1  0  0  0
 15 20  1  0  0  0  0
 17 18  1  1  0  0  0
 17 22  1  0  0  0  0
 19  2  1  6  0  0  0
 19 24  1  0  0  0  0
 20 21  1  0  0  0  0
 20 26  1  6  0  0  0
 22 23  1  0  0  0  0
 22 28  1  6  0  0  0
 24 25  1  6  0  0  0
 24 30  1  0  0  0  0
 26 27  1  0  0  0  0
 28 29  1  0  0  0  0
 30 31  1  1  0  0  0
M  END
>  <CHROM.1>
168.89662126,149.88183251,-174.93780330,-175.69000236,59.52792236,160.44487781
20.96072925,8.33232246,6.12903877,-2.23448710,-0.51543783,1.66860811

>  <Name>
2o3x_lig

>  <RI>
0

>  <Rbt.Current_Directory>
/home/itssahil/PROJECTS/Mol_Feturizer/New_Systems/rnas/2o3x

>  <Rbt.Executable>
rbdock ($Id: //depot/dev/client3/rdock/2013.1/src/exe/rbdock.cxx#4 $)

>  <Rbt.Library>
libRbt.so (2013.1, Build901 2013/11/27)

>  <Rbt.Parameter_File>
/export/apps/rDock/src/rDock_2013.1_src/data/scripts/dock_solv.prm

>  <Rbt.Receptor>
prm/pocket_docking_3.prm

>  <SCORE>
-13.5802

>  <SCORE.INTER>
-12.3077

>  <SCORE.INTER.CONST>
1

>  <SCORE.INTER.POLAR>
-1.03707

>  <SCORE.INTER.ROT>
6

>  <SCORE.INTER.SOLV>
22.0544

>  <SCORE.INTER.VDW>
-19.6997

>  <SCORE.INTER.norm>
-0.397022

>  <SCORE.INTRA>
-1.28011

>  <SCORE.INTRA.DIHEDRAL>
-3.08295

>  <SCORE.INTRA.DIHEDRAL.0>
9.37739

>  <SCORE.INTRA.POLAR>
0

>  <SCORE.INTRA.POLAR.0>
0

>  <SCORE.INTRA.REPUL>
0.010183

>  <SCORE.INTRA.REPUL.0>
0

>  <SCORE.INTRA.SOLV>
-0.751711

>  <SCORE.INTRA.SOLV.lig_0>
-82.9274

>  <SCORE.INTRA.VDW>
0.586299

>  <SCORE.INTRA.VDW.0>
-3.84922

>  <SCORE.INTRA.norm>
-0.041294

>  <SCORE.RESTR>
0.00756644

>  <SCORE.RESTR.CAVITY>
0.00756644

>  <SCORE.RESTR.norm>
0.000244079

>  <SCORE.SYSTEM>
0

>  <SCORE.SYSTEM.CONST>
0

>  <SCORE.SYSTEM.DIHEDRAL>
0

>  <SCORE.SYSTEM.SOLV>
0

>  <SCORE.SYSTEM.norm>
0

>  <SCORE.heavy>
31

>  <SCORE.norm>
-0.438072

>  <RMSD>
5.300

$$$$
2o3x_lig
 OpenBabel11021811463D
libRbt.so/2013.1/901 2013/11/27
 31 33  0  0  0  0  0  0  0  0999 V2000
   20.5618    9.3073    5.5398 C   0  0  2  0  0  0  0  0  0  0  0  0
   19.8920   10.0034    6.5992 O   0  0  0  0  0  0  0  0  0  0  0  0
   19.6308    9.0036   10.7502 C   0  0  2  0  0  0  0  0  0  0  0  0
   19.3642    8.3081   12.0287 N   0  0  0  0  0  0  0  0  0  0  0  0
   22.4316    6.8510    7.9698 C   0  0  1  0  0  0  0  0  0  0  0  0
   20.6095   10.2417    4.2896 C   0  0  2  0  0  0  0  0  0  0  0  0
   21.0815   11.6081    4.6301 N   0  0  0  0  0  0  0  0  0  0  0  0
   18.3104    9.4090   10.0144 C   0  0  0  0  0  0  0  0  0  0  0  0
   22.6522    5.6134    7.0393 C   0  0  2  0  0  0  0  0  0  0  0  0
   21.8997    4.4169    7.3808 O   0  0  0  0  0  0  0  0  0  0  0  0
   19.2272   10.3679    3.6217 C   0  0  1  0  0  0  0  0  0  0  0  0
   19.3047   11.1711    2.4715 O   0  0  0  0  0  0  0  0  0  0  0  0
   18.6972   10.1639    8.6904 C   0  0  2  0  0  0  0  0  0  0  0  0
   17.4861   10.6037    7.9347 N   0  0  0  0  0  0  0  0  0  0  0  0
   24.1632    5.5120    7.1639 C   0  0  2  0  0  0  0  0  0  0  0  0
   24.5472    4.8563    8.4211 O   0  0  0  0  0  0  0  0  0  0  0  0
   18.6988    8.9867    3.2726 C   0  0  2  0  0  0  0  0  0  0  0  0
   17.4605    9.0994    2.6483 O   0  0  0  0  0  0  0  0  0  0  0  0
   19.5477    9.2451    7.7675 C   0  0  2  0  0  0  0  0  0  0  0  0
   24.6456    6.9575    7.1335 C   0  0  2  0  0  0  0  0  0  0  0  0
   23.6644    7.5811    7.9574 O   0  0  0  0  0  0  0  0  0  0  0  0
   18.5747    8.1253    4.5610 C   0  0  2  0  0  0  0  0  0  0  0  0
   19.8625    8.0290    5.2070 O   0  0  0  0  0  0  0  0  0  0  0  0
   20.8279    8.7176    8.4451 C   0  0  2  0  0  0  0  0  0  0  0  0
   21.3530    7.6914    7.5313 O   0  0  0  0  0  0  0  0  0  0  0  0
   24.6711    7.6148    5.7120 C   0  0  0  0  0  0  0  0  0  0  0  0
   25.5418    6.8860    4.8514 N   0  0  0  0  0  0  0  0  0  0  0  0
   18.0707    6.7294    4.2768 C   0  0  0  0  0  0  0  0  0  0  0  0
   18.9284    6.0399    3.4421 O   0  0  0  0  0  0  0  0  0  0  0  0
   20.4792    8.0770    9.8607 C   0  0  1  0  0  0  0  0  0  0  0  0
   21.6680    7.7775   10.6079 O   0  0  0  0  0  0  0  0  0  0  0  0
  1  2  1  1  0  0  0
  1  6  1  0  0  0  0
  1 23  1  0  0  0  0
  3  4  1  1  0  0  0
  3  8  1  0  0  0  0
  3 30  1  0  0  0  0
  5  9  1  0  0  0  0
  5 21  1  0  0  0  0
  5 25  1  6  0  0  0
  6  7  1  1  0  0  0
  6 11  1  0  0  0  0
  8 13  1  0  0  0  0
  9 10  1  1  0  0  0
  9 15  1  0  0  0  0
 11 12  1  6  0  0  0
 11 17  1  0  0  0  0
 13 14  1  6  0  0  0
 13 19  1  0  0  0  0
 15 16  1  1  0  0  0
 15 20  1  0  0  0  0
 17 18  1  1  0  0  0
 17 22  1  0  0  0  0
 19  2  1  6  0  0  0
 19 24  1  0  0  0  0
 20 21  1  0  0  0  0
 20 26  1  6  0  0  0
 22 23  1  0  0  0  0
 22 28  1  6  0  0  0
 24 25  1  6  0  0  0
 24 30  1  0  0  0  0
 26 27  1  0  0  0  0
 28 29  1  0  0  0  0
 30 31  1  1  0  0  0
M  END
>  <CHROM.1>
170.07583482,166.59118925,-173.62961908,-60.12256984,61.16336379,-170.20837876
20.77347096,8.19579118,6.67721359,-2.41550182,-0.59207379,1.60011113

>  <Name>
2o3x_lig

>  <RI>
0

>  <Rbt.Current_Directory>
/home/itssahil/PROJECTS/Mol_Feturizer/New_Systems/rnas/2o3x

>  <Rbt.Executable>
rbdock ($Id: //depot/dev/client3/rdock/2013.1/src/exe/rbdock.cxx#4 $)

>  <Rbt.Library>
libRbt.so (2013.1, Build901 2013/11/27)

>  <Rbt.Parameter_File>
/export/apps/rDock/src/rDock_2013.1_src/data/scripts/dock_solv.prm

>  <Rbt.Receptor>
prm/pocket_docking_3.prm

>  <SCORE>
-13.5377

>  <SCORE.INTER>
-10.602

>  <SCORE.INTER.CONST>
1

>  <SCORE.INTER.POLAR>
-1.00433

>  <SCORE.INTER.ROT>
6

>  <SCORE.INTER.SOLV>
18.6846

>  <SCORE.INTER.VDW>
-17.5484

>  <SCORE.INTER.norm>
-0.342001

>  <SCORE.INTRA>
-2.93568

>  <SCORE.INTRA.DIHEDRAL>
-7.20425

>  <SCORE.INTRA.DIHEDRAL.0>
9.37739

>  <SCORE.INTRA.POLAR>
0

>  <SCORE.INTRA.POLAR.0>
0

>  <SCORE.INTRA.REPUL>
0

>  <SCORE.INTRA.REPUL.0>
0

>  <SCORE.INTRA.SOLV>
-2.54196

>  <SCORE.INTRA.SOLV.lig_0>
-82.9274

>  <SCORE.INTRA.VDW>
1.93742

>  <SCORE.INTRA.VDW.0>
-3.84922

>  <SCORE.INTRA.norm>
-0.0946995

>  <SCORE.RESTR>
0

>  <SCORE.RESTR.CAVITY>
0

>  <SCORE.RESTR.norm>
0

>  <SCORE.SYSTEM>
0

>  <SCORE.SYSTEM.CONST>
0

>  <SCORE.SYSTEM.DIHEDRAL>
0

>  <SCORE.SYSTEM.SOLV>
0

>  <SCORE.SYSTEM.norm>
0

>  <SCORE.heavy>
31

>  <SCORE.norm>
-0.4367

>  <RMSD>
5.305

$$$$
2o3x_lig
 OpenBabel11021811463D
libRbt.so/2013.1/901 2013/11/27
 31 33  0  0  0  0  0  0  0  0999 V2000
   23.0254    6.2704    8.8557 C   0  0  2  0  0  0  0  0  0  0  0  0
   24.0735    6.7894    9.6851 O   0  0  0  0  0  0  0  0  0  0  0  0
   23.9590    7.2039   13.9410 C   0  0  2  0  0  0  0  0  0  0  0  0
   23.6312    7.6401   15.3164 N   0  0  0  0  0  0  0  0  0  0  0  0
   20.4939    5.5192   11.6828 C   0  0  1  0  0  0  0  0  0  0  0  0
   23.6572    5.7736    7.5169 C   0  0  2  0  0  0  0  0  0  0  0  0
   24.8503    4.9189    7.7445 N   0  0  0  0  0  0  0  0  0  0  0  0
   24.6644    8.3330   13.1182 C   0  0  0  0  0  0  0  0  0  0  0  0
   19.3905    6.5158   12.1680 C   0  0  2  0  0  0  0  0  0  0  0  0
   19.5513    7.0384   13.5154 O   0  0  0  0  0  0  0  0  0  0  0  0
   24.0788    6.9503    6.6167 C   0  0  1  0  0  0  0  0  0  0  0  0
   24.5970    6.4804    5.3982 O   0  0  0  0  0  0  0  0  0  0  0  0
   24.9973    7.7656   11.6900 C   0  0  2  0  0  0  0  0  0  0  0  0
   25.6929    8.7810   10.8437 N   0  0  0  0  0  0  0  0  0  0  0  0
   18.1776    5.6311   11.9336 C   0  0  2  0  0  0  0  0  0  0  0  0
   18.0191    4.6531   13.0181 O   0  0  0  0  0  0  0  0  0  0  0  0
   22.8877    7.8617    6.3732 C   0  0  2  0  0  0  0  0  0  0  0  0
   23.2604    8.9130    5.5416 O   0  0  0  0  0  0  0  0  0  0  0  0
   23.6957    7.3247   10.9615 C   0  0  2  0  0  0  0  0  0  0  0  0
   18.4649    4.9342   10.6089 C   0  0  2  0  0  0  0  0  0  0  0  0
   19.8477    4.6281   10.7655 O   0  0  0  0  0  0  0  0  0  0  0  0
   22.3545    8.4103    7.7269 C   0  0  2  0  0  0  0  0  0  0  0  0
   21.9858    7.3098    8.5858 O   0  0  0  0  0  0  0  0  0  0  0  0
   22.8818    6.2780   11.7478 C   0  0  2  0  0  0  0  0  0  0  0  0
   21.5959    6.1789   11.0404 O   0  0  0  0  0  0  0  0  0  0  0  0
   18.2361    5.8172    9.3356 C   0  0  0  0  0  0  0  0  0  0  0  0
   18.9224    7.0584    9.4710 N   0  0  0  0  0  0  0  0  0  0  0  0
   21.1539    9.3112    7.5528 C   0  0  0  0  0  0  0  0  0  0  0  0
   20.8053    9.9275    8.7389 O   0  0  0  0  0  0  0  0  0  0  0  0
   22.6568    6.7663   13.2467 C   0  0  1  0  0  0  0  0  0  0  0  0
   22.0968    5.7236   14.0594 O   0  0  0  0  0  0  0  0  0  0  0  0
  1  2  1  1  0  0  0
  1  6  1  0  0  0  0
  1 23  1  0  0  0  0
  3  4  1  1  0  0  0
  3  8  1  0  0  0  0
  3 30  1  0  0  0  0
  5  9  1  0  0  0  0
  5 21  1  0  0  0  0
  5 25  1  6  0  0  0
  6  7  1  1  0  0  0
  6 11  1  0  0  0  0
  8 13  1  0  0  0  0
  9 10  1  1  0  0  0
  9 15  1  0  0  0  0
 11 12  1  6  0  0  0
 11 17  1  0  0  0  0
 13 14  1  6  0  0  0
 13 19  1  0  0  0  0
 15 16  1  1  0  0  0
 15 20  1  0  0  0  0
 17 18  1  6  0  0  0
 17 22  1  0  0  0  0
 19  2  1  6  0  0  0
 19 24  1  0  0  0  0
 20 21  1  0  0  0  0
 20 26  1  6  0  0  0
 22 23  1  0  0  0  0
 22 28  1  6  0  0  0
 24 25  1  6  0  0  0
 24 30  1  0  0  0  0
 26 27  1  0  0  0  0
 28 29  1  0  0  0  0
 30 31  1  1  0  0  0
M  END
>  <CHROM.1>
178.83204451,107.04220712,177.71575556,51.10647590,-171.98733649,-165.92295532
22.02918618,6.86365941,10.27010993,1.05927766,-0.28191102,-1.48125744

>  <Name>
2o3x_lig

>  <RI>
0

>  <Rbt.Current_Directory>
/home/itssahil/PROJECTS/Mol_Feturizer/New_Systems/rnas/2o3x

>  <Rbt.Executable>
rbdock ($Id: //depot/dev/client3/rdock/2013.1/src/exe/rbdock.cxx#4 $)

>  <Rbt.Library>
libRbt.so (2013.1, Build901 2013/11/27)

>  <Rbt.Parameter_File>
/export/apps/rDock/src/rDock_2013.1_src/data/scripts/dock_solv.prm

>  <Rbt.Receptor>
prm/pocket_docking_8.prm

>  <SCORE>
-5.28751

>  <SCORE.INTER>
-8.05169

>  <SCORE.INTER.CONST>
1

>  <SCORE.INTER.POLAR>
-0.737012

>  <SCORE.INTER.ROT>
6

>  <SCORE.INTER.SOLV>
25.8039

>  <SCORE.INTER.VDW>
-19.1124

>  <SCORE.INTER.norm>
-0.259732

>  <SCORE.INTRA>
2.76418

>  <SCORE.INTRA.DIHEDRAL>
-1.31945

>  <SCORE.INTRA.DIHEDRAL.0>
9.37739

>  <SCORE.INTRA.POLAR>
0

>  <SCORE.INTRA.POLAR.0>
0

>  <SCORE.INTRA.REPUL>
0.00784141

>  <SCORE.INTRA.REPUL.0>
0

>  <SCORE.INTRA.SOLV>
2.56565

>  <SCORE.INTRA.SOLV.lig_0>
-82.9274

>  <SCORE.INTRA.VDW>
2.10188

>  <SCORE.INTRA.VDW.0>
-3.84922

>  <SCORE.INTRA.norm>
0.0891671

>  <SCORE.RESTR>
0

>  <SCORE.RESTR.CAVITY>
0

>  <SCORE.RESTR.norm>
0

>  <SCORE.SYSTEM>
0

>  <SCORE.SYSTEM.CONST>
0

>  <SCORE.SYSTEM.DIHEDRAL>
0

>  <SCORE.SYSTEM.SOLV>
0

>  <SCORE.SYSTEM.norm>
0

>  <SCORE.heavy>
31

>  <SCORE.norm>
-0.170565

>  <RMSD>
5.305

$$$$
2o3x_lig
 OpenBabel11021811463D
libRbt.so/2013.1/901 2013/11/27
 31 33  0  0  0  0  0  0  0  0999 V2000
   19.5925    8.2197    5.8683 C   0  0  2  0  0  0  0  0  0  0  0  0
   18.4474    8.3727    6.7172 O   0  0  0  0  0  0  0  0  0  0  0  0
   17.1586    6.1044   10.1072 C   0  0  2  0  0  0  0  0  0  0  0  0
   16.7487    5.0017   11.0047 N   0  0  0  0  0  0  0  0  0  0  0  0
   21.5310    7.0117    7.9602 C   0  0  1  0  0  0  0  0  0  0  0  0
   19.8415    9.5722    5.1286 C   0  0  2  0  0  0  0  0  0  0  0  0
   19.8155   10.7308    6.0574 N   0  0  0  0  0  0  0  0  0  0  0  0
   16.1283    6.3369    8.9523 C   0  0  0  0  0  0  0  0  0  0  0  0
   22.0208    6.9802    9.4452 C   0  0  2  0  0  0  0  0  0  0  0  0
   21.6212    8.1073   10.2724 O   0  0  0  0  0  0  0  0  0  0  0  0
   18.7918    9.8197    4.0287 C   0  0  1  0  0  0  0  0  0  0  0  0
   19.0651   11.0157    3.3438 O   0  0  0  0  0  0  0  0  0  0  0  0
   16.6347    7.5408    8.0767 C   0  0  2  0  0  0  0  0  0  0  0  0
   15.6922    7.8409    6.9575 N   0  0  0  0  0  0  0  0  0  0  0  0
   23.5106    6.8384    9.1816 C   0  0  2  0  0  0  0  0  0  0  0  0
   24.1101    8.1317    8.8271 O   0  0  0  0  0  0  0  0  0  0  0  0
   18.7735    8.6456    3.0644 C   0  0  2  0  0  0  0  0  0  0  0  0
   17.8422    8.8773    2.0570 O   0  0  0  0  0  0  0  0  0  0  0  0
   18.0330    7.2256    7.4728 C   0  0  2  0  0  0  0  0  0  0  0  0
   23.5997    5.8587    8.0174 C   0  0  2  0  0  0  0  0  0  0  0  0
   22.5303    6.3234    7.1983 O   0  0  0  0  0  0  0  0  0  0  0  0
   18.4242    7.3373    3.8286 C   0  0  2  0  0  0  0  0  0  0  0  0
   19.3885    7.1168    4.8803 O   0  0  0  0  0  0  0  0  0  0  0  0
   19.0952    6.8890    8.5381 C   0  0  2  0  0  0  0  0  0  0  0  0
   20.2519    6.3836    7.7829 O   0  0  0  0  0  0  0  0  0  0  0  0
   23.3869    4.3554    8.4022 C   0  0  0  0  0  0  0  0  0  0  0  0
   23.5067    3.5325    7.2453 N   0  0  0  0  0  0  0  0  0  0  0  0
   18.4088    6.1265    2.9248 C   0  0  0  0  0  0  0  0  0  0  0  0
   19.6019    5.9865    2.2430 O   0  0  0  0  0  0  0  0  0  0  0  0
   18.5464    5.7712    9.5306 C   0  0  1  0  0  0  0  0  0  0  0  0
   19.4196    5.5952   10.6566 O   0  0  0  0  0  0  0  0  0  0  0  0
  1  2  1  1  0  0  0
  1  6  1  0  0  0  0
  1 23  1  0  0  0  0
  3  4  1  1  0  0  0
  3  8  1  0  0  0  0
  3 30  1  0  0  0  0
  5  9  1  0  0  0  0
  5 21  1  0  0  0  0
  5 25  1  1  0  0  0
  6  7  1  1  0  0  0
  6 11  1  0  0  0  0
  8 13  1  0  0  0  0
  9 10  1  6  0  0  0
  9 15  1  0  0  0  0
 11 12  1  6  0  0  0
 11 17  1  0  0  0  0
 13 14  1  6  0  0  0
 13 19  1  0  0  0  0
 15 16  1  6  0  0  0
 15 20  1  0  0  0  0
 17 18  1  6  0  0  0
 17 22  1  0  0  0  0
 19  2  1  1  0  0  0
 19 24  1  0  0  0  0
 20 21  1  0  0  0  0
 20 26  1  1  0  0  0
 22 23  1  0  0  0  0
 22 28  1  6  0  0  0
 24 25  1  6  0  0  0
 24 30  1  0  0  0  0
 26 27  1  0  0  0  0
 28 29  1  0  0  0  0
 30 31  1  1  0  0  0
M  END
>  <CHROM.1>
178.88463146,58.33268378,-168.73175339,-179.32396084,55.06735071,124.37803118
19.75043261,7.22501658,6.92859238,-2.02252947,-0.10808046,1.94457801

>  <Name>
2o3x_lig

>  <RI>
0

>  <Rbt.Current_Directory>
/home/itssahil/PROJECTS/Mol_Feturizer/New_Systems/rnas/2o3x

>  <Rbt.Executable>
rbdock ($Id: //depot/dev/client3/rdock/2013.1/src/exe/rbdock.cxx#4 $)

>  <Rbt.Library>
libRbt.so (2013.1, Build901 2013/11/27)

>  <Rbt.Parameter_File>
/export/apps/rDock/src/rDock_2013.1_src/data/scripts/dock_solv.prm

>  <Rbt.Receptor>
prm/pocket_docking_4.prm

>  <SCORE>
-7.32533

>  <SCORE.INTER>
-6.56219

>  <SCORE.INTER.CONST>
1

>  <SCORE.INTER.POLAR>
-1.20716

>  <SCORE.INTER.ROT>
6

>  <SCORE.INTER.SOLV>
15.4131

>  <SCORE.INTER.VDW>
-13.0886

>  <SCORE.INTER.norm>
-0.211684

>  <SCORE.INTRA>
-0.776925

>  <SCORE.INTRA.DIHEDRAL>
-1.38713

>  <SCORE.INTRA.DIHEDRAL.0>
9.37739

>  <SCORE.INTRA.POLAR>
0

>  <SCORE.INTRA.POLAR.0>
0

>  <SCORE.INTRA.REPUL>
0.0186241

>  <SCORE.INTRA.REPUL.0>
0

>  <SCORE.INTRA.SOLV>
-2.27966

>  <SCORE.INTRA.SOLV.lig_0>
-82.9274

>  <SCORE.INTRA.VDW>
0.963352

>  <SCORE.INTRA.VDW.0>
-3.84922

>  <SCORE.INTRA.norm>
-0.0250621

>  <SCORE.RESTR>
0.0137873

>  <SCORE.RESTR.CAVITY>
0.0137873

>  <SCORE.RESTR.norm>
0.000444752

>  <SCORE.SYSTEM>
0

>  <SCORE.SYSTEM.CONST>
0

>  <SCORE.SYSTEM.DIHEDRAL>
0

>  <SCORE.SYSTEM.SOLV>
0

>  <SCORE.SYSTEM.norm>
0

>  <SCORE.heavy>
31

>  <SCORE.norm>
-0.236301

>  <RMSD>
5.309

$$$$
2o3x_lig
 OpenBabel11021811463D
libRbt.so/2013.1/901 2013/11/27
 31 33  0  0  0  0  0  0  0  0999 V2000
   20.7621    9.4691    5.2508 C   0  0  2  0  0  0  0  0  0  0  0  0
   20.0889   10.0387    6.3812 O   0  0  0  0  0  0  0  0  0  0  0  0
   19.9200    8.6951   10.4388 C   0  0  2  0  0  0  0  0  0  0  0  0
   19.7111    7.8822   11.6574 N   0  0  0  0  0  0  0  0  0  0  0  0
   23.0796    7.3432    7.3035 C   0  0  1  0  0  0  0  0  0  0  0  0
   20.6623   10.4744    4.0601 C   0  0  2  0  0  0  0  0  0  0  0  0
   21.0284   11.8564    4.4625 N   0  0  0  0  0  0  0  0  0  0  0  0
   18.5701    9.0587    9.7354 C   0  0  0  0  0  0  0  0  0  0  0  0
   23.2676    5.8129    7.0407 C   0  0  2  0  0  0  0  0  0  0  0  0
   23.0956    4.9424    8.1926 O   0  0  0  0  0  0  0  0  0  0  0  0
   19.2415   10.5119    3.4659 C   0  0  1  0  0  0  0  0  0  0  0  0
   19.1881   11.3839    2.3654 O   0  0  0  0  0  0  0  0  0  0  0  0
   18.8943    9.9431    8.4764 C   0  0  2  0  0  0  0  0  0  0  0  0
   17.6508   10.3505    7.7561 N   0  0  0  0  0  0  0  0  0  0  0  0
   24.6635    5.8631    6.4424 C   0  0  2  0  0  0  0  0  0  0  0  0
   25.6842    5.9872    7.4914 O   0  0  0  0  0  0  0  0  0  0  0  0
   18.8202    9.1106    3.0566 C   0  0  2  0  0  0  0  0  0  0  0  0
   17.5462    9.1454    2.4985 O   0  0  0  0  0  0  0  0  0  0  0  0
   19.8067    9.1664    7.4847 C   0  0  2  0  0  0  0  0  0  0  0  0
   24.6496    7.0963    5.5466 C   0  0  2  0  0  0  0  0  0  0  0  0
   23.9360    8.0138    6.3709 O   0  0  0  0  0  0  0  0  0  0  0  0
   18.8395    8.1686    4.2934 C   0  0  2  0  0  0  0  0  0  0  0  0
   20.1624    8.1535    4.8720 O   0  0  0  0  0  0  0  0  0  0  0  0
   21.1253    8.6832    8.1204 C   0  0  2  0  0  0  0  0  0  0  0  0
   21.7212    7.7748    7.1286 O   0  0  0  0  0  0  0  0  0  0  0  0
   23.9206    6.9062    4.1734 C   0  0  0  0  0  0  0  0  0  0  0  0
   24.5411    5.8605    3.4307 N   0  0  0  0  0  0  0  0  0  0  0  0
   18.4470    6.7512    3.9468 C   0  0  0  0  0  0  0  0  0  0  0  0
   19.3215    6.1903    3.0365 O   0  0  0  0  0  0  0  0  0  0  0  0
   20.8310    7.9078    9.4798 C   0  0  1  0  0  0  0  0  0  0  0  0
   22.0419    7.6390   10.2028 O   0  0  0  0  0  0  0  0  0  0  0  0
  1  2  1  1  0  0  0
  1  6  1  0  0  0  0
  1 23  1  0  0  0  0
  3  4  1  1  0  0  0
  3  8  1  0  0  0  0
  3 30  1  0  0  0  0
  5  9  1  0  0  0  0
  5 21  1  0  0  0  0
  5 25  1  6  0  0  0
  6  7  1  1  0  0  0
  6 11  1  0  0  0  0
  8 13  1  0  0  0  0
  9 10  1  1  0  0  0
  9 15  1  0  0  0  0
 11 12  1  6  0  0  0
 11 17  1  0  0  0  0
 13 14  1  6  0  0  0
 13 19  1  0  0  0  0
 15 16  1  1  0  0  0
 15 20  1  0  0  0  0
 17 18  1  1  0  0  0
 17 22  1  0  0  0  0
 19  2  1  6  0  0  0
 19 24  1  0  0  0  0
 20 21  1  0  0  0  0
 20 26  1  6  0  0  0
 22 23  1  0  0  0  0
 22 28  1  6  0  0  0
 24 25  1  6  0  0  0
 24 30  1  0  0  0  0
 26 27  1  0  0  0  0
 28 29  1  0  0  0  0
 30 31  1  1  0  0  0
M  END
>  <CHROM.1>
166.65450901,135.82527028,-171.47368307,-59.20091086,61.42680113,168.48309623
21.01818853,8.24281237,6.23850041,-2.42544043,-0.57141224,1.62078772

>  <Name>
2o3x_lig

>  <RI>
0

>  <Rbt.Current_Directory>
/home/itssahil/PROJECTS/Mol_Feturizer/New_Systems/rnas/2o3x

>  <Rbt.Executable>
rbdock ($Id: //depot/dev/client3/rdock/2013.1/src/exe/rbdock.cxx#4 $)

>  <Rbt.Library>
libRbt.so (2013.1, Build901 2013/11/27)

>  <Rbt.Parameter_File>
/export/apps/rDock/src/rDock_2013.1_src/data/scripts/dock_solv.prm

>  <Rbt.Receptor>
prm/pocket_docking_5.prm

>  <SCORE>
-13.8471

>  <SCORE.INTER>
-13.0664

>  <SCORE.INTER.CONST>
1

>  <SCORE.INTER.POLAR>
-1.1289

>  <SCORE.INTER.ROT>
6

>  <SCORE.INTER.SOLV>
20.006

>  <SCORE.INTER.VDW>
-19.2166

>  <SCORE.INTER.norm>
-0.421497

>  <SCORE.INTRA>
-0.780652

>  <SCORE.INTRA.DIHEDRAL>
-1.34066

>  <SCORE.INTRA.DIHEDRAL.0>
9.37739

>  <SCORE.INTRA.POLAR>
0

>  <SCORE.INTRA.POLAR.0>
0

>  <SCORE.INTRA.REPUL>
0

>  <SCORE.INTRA.REPUL.0>
0

>  <SCORE.INTRA.SOLV>
-2.24179

>  <SCORE.INTRA.SOLV.lig_0>
-82.9274

>  <SCORE.INTRA.VDW>
1.01057

>  <SCORE.INTRA.VDW.0>
-3.84922

>  <SCORE.INTRA.norm>
-0.0251823

>  <SCORE.RESTR>
0

>  <SCORE.RESTR.CAVITY>
0

>  <SCORE.RESTR.norm>
0

>  <SCORE.SYSTEM>
0

>  <SCORE.SYSTEM.CONST>
0

>  <SCORE.SYSTEM.DIHEDRAL>
0

>  <SCORE.SYSTEM.SOLV>
0

>  <SCORE.SYSTEM.norm>
0

>  <SCORE.heavy>
31

>  <SCORE.norm>
-0.446679

>  <RMSD>
5.311

$$$$
2o3x_lig
 OpenBabel11021811463D
libRbt.so/2013.1/901 2013/11/27
 31 33  0  0  0  0  0  0  0  0999 V2000
   20.7469    9.4917    5.2303 C   0  0  2  0  0  0  0  0  0  0  0  0
   20.0590   10.0482    6.3585 O   0  0  0  0  0  0  0  0  0  0  0  0
   19.9149    8.6926   10.4130 C   0  0  2  0  0  0  0  0  0  0  0  0
   19.7176    7.8745   11.6301 N   0  0  0  0  0  0  0  0  0  0  0  0
   23.0877    7.4016    7.2527 C   0  0  1  0  0  0  0  0  0  0  0  0
   20.6468   10.5029    4.0446 C   0  0  2  0  0  0  0  0  0  0  0  0
   20.9962   11.8860    4.4579 N   0  0  0  0  0  0  0  0  0  0  0  0
   18.5593    9.0438    9.7141 C   0  0  0  0  0  0  0  0  0  0  0  0
   23.3017    5.8675    7.0363 C   0  0  2  0  0  0  0  0  0  0  0  0
   23.1745    5.0328    8.2201 O   0  0  0  0  0  0  0  0  0  0  0  0
   19.2307   10.5300    3.4392 C   0  0  1  0  0  0  0  0  0  0  0  0
   19.1776   11.4077    2.3433 O   0  0  0  0  0  0  0  0  0  0  0  0
   18.8710    9.9348    8.4565 C   0  0  2  0  0  0  0  0  0  0  0  0
   17.6214   10.3310    7.7404 N   0  0  0  0  0  0  0  0  0  0  0  0
   24.6821    5.9259    6.4037 C   0  0  2  0  0  0  0  0  0  0  0  0
   25.7238    6.1057    7.4235 O   0  0  0  0  0  0  0  0  0  0  0  0
   18.8264    9.1271    3.0184 C   0  0  2  0  0  0  0  0  0  0  0  0
   17.5567    9.1526    2.4501 O   0  0  0  0  0  0  0  0  0  0  0  0
   19.7888    9.1701    7.4605 C   0  0  2  0  0  0  0  0  0  0  0  0
   24.6217    7.1277    5.4683 C   0  0  2  0  0  0  0  0  0  0  0  0
   23.9081    8.0578    6.2784 O   0  0  0  0  0  0  0  0  0  0  0  0
   18.8450    8.1781    4.2499 C   0  0  2  0  0  0  0  0  0  0  0  0
   20.1632    8.1725    4.8391 O   0  0  0  0  0  0  0  0  0  0  0  0
   21.1141    8.6992    8.0915 C   0  0  2  0  0  0  0  0  0  0  0  0
   21.7169    7.7996    7.0958 O   0  0  0  0  0  0  0  0  0  0  0  0
   23.8655    6.8769    4.1197 C   0  0  0  0  0  0  0  0  0  0  0  0
   24.4794    5.8075    3.4060 N   0  0  0  0  0  0  0  0  0  0  0  0
   18.4692    6.7590    3.8920 C   0  0  0  0  0  0  0  0  0  0  0  0
   19.3467    6.2178    2.9728 O   0  0  0  0  0  0  0  0  0  0  0  0
   20.8315    7.9173    9.4497 C   0  0  1  0  0  0  0  0  0  0  0  0
   22.0470    7.6593   10.1689 O   0  0  0  0  0  0  0  0  0  0  0  0
  1  2  1  1  0  0  0
  1  6  1  0  0  0  0
  1 23  1  0  0  0  0
  3  4  1  1  0  0  0
  3  8  1  0  0  0  0
  3 30  1  0  0  0  0
  5  9  1  0  0  0  0
  5 21  1  0  0  0  0
  5 25  1  6  0  0  0
  6  7  1  1  0  0  0
  6 11  1  0  0  0  0
  8 13  1  0  0  0  0
  9 10  1  1  0  0  0
  9 15  1  0  0  0  0
 11 12  1  6  0  0  0
 11 17  1  0  0  0  0
 13 14  1  6  0  0  0
 13 19  1  0  0  0  0
 15 16  1  1  0  0  0
 15 20  1  0  0  0  0
 17 18  1  1  0  0  0
 17 22  1  0  0  0  0
 19  2  1  6  0  0  0
 19 24  1  0  0  0  0
 20 21  1  0  0  0  0
 20 26  1  6  0  0  0
 22 23  1  0  0  0  0
 22 28  1  6  0  0  0
 24 25  1  6  0  0  0
 24 30  1  0  0  0  0
 26 27  1  0  0  0  0
 28 29  1  0  0  0  0
 30 31  1  1  0  0  0
M  END
>  <CHROM.1>
167.28659449,134.15646749,-172.07291733,-58.40757349,60.65708227,167.33374161
21.01467030,8.26351264,6.20475395,-2.41716686,-0.56694768,1.61844237

>  <Name>
2o3x_lig

>  <RI>
2.78316e+07

>  <Rbt.Current_Directory>
/home/itssahil/PROJECTS/Mol_Feturizer/New_Systems/rnas/2o3x

>  <Rbt.Executable>
rbdock ($Id: //depot/dev/client3/rdock/2013.1/src/exe/rbdock.cxx#4 $)

>  <Rbt.Library>
libRbt.so (2013.1, Build901 2013/11/27)

>  <Rbt.Parameter_File>
/export/apps/rDock/src/rDock_2013.1_src/data/scripts/dock_solv.prm

>  <Rbt.Receptor>
prm/pocket_docking_7.prm

>  <SCORE>
-13.8898

>  <SCORE.INTER>
-13.2348

>  <SCORE.INTER.CONST>
1

>  <SCORE.INTER.POLAR>
-1.13228

>  <SCORE.INTER.ROT>
6

>  <SCORE.INTER.SOLV>
20.2932

>  <SCORE.INTER.VDW>
-19.4133

>  <SCORE.INTER.norm>
-0.426929

>  <SCORE.INTRA>
-0.654991

>  <SCORE.INTRA.DIHEDRAL>
-1.11384

>  <SCORE.INTRA.DIHEDRAL.0>
9.37739

>  <SCORE.INTRA.POLAR>
0

>  <SCORE.INTRA.POLAR.0>
0

>  <SCORE.INTRA.REPUL>
0

>  <SCORE.INTRA.REPUL.0>
0

>  <SCORE.INTRA.SOLV>
-2.21047

>  <SCORE.INTRA.SOLV.lig_0>
-82.9274

>  <SCORE.INTRA.VDW>
1.00717

>  <SCORE.INTRA.VDW.0>
-3.84922

>  <SCORE.INTRA.norm>
-0.0211287

>  <SCORE.RESTR>
0

>  <SCORE.RESTR.CAVITY>
0

>  <SCORE.RESTR.norm>
0

>  <SCORE.SYSTEM>
0

>  <SCORE.SYSTEM.CONST>
0

>  <SCORE.SYSTEM.DIHEDRAL>
0

>  <SCORE.SYSTEM.SOLV>
0

>  <SCORE.SYSTEM.norm>
0

>  <SCORE.heavy>
31

>  <SCORE.norm>
-0.448058

>  <RMSD>
5.311

$$$$
2o3x_lig
 OpenBabel11021811463D
libRbt.so/2013.1/901 2013/11/27
 31 33  0  0  0  0  0  0  0  0999 V2000
   19.6212    9.2950    5.9991 C   0  0  2  0  0  0  0  0  0  0  0  0
   18.7403   10.1699    6.7161 O   0  0  0  0  0  0  0  0  0  0  0  0
   18.3633   10.8962   10.9147 C   0  0  2  0  0  0  0  0  0  0  0  0
   18.1814   10.7286   12.3735 N   0  0  0  0  0  0  0  0  0  0  0  0
   20.6968    7.7601    9.2174 C   0  0  1  0  0  0  0  0  0  0  0  0
   20.0882   10.0234    4.6992 C   0  0  2  0  0  0  0  0  0  0  0  0
   20.5532   11.4078    4.9698 N   0  0  0  0  0  0  0  0  0  0  0  0
   17.0627   10.5500   10.1159 C   0  0  0  0  0  0  0  0  0  0  0  0
   21.2584    6.5548    8.3940 C   0  0  2  0  0  0  0  0  0  0  0  0
   20.2861    5.8099    7.6103 O   0  0  0  0  0  0  0  0  0  0  0  0
   18.9605   10.0958    3.6523 C   0  0  1  0  0  0  0  0  0  0  0  0
   19.4178   10.7090    2.4737 O   0  0  0  0  0  0  0  0  0  0  0  0
   17.3466   10.7870    8.5877 C   0  0  2  0  0  0  0  0  0  0  0  0
   16.1423   10.4956    7.7534 N   0  0  0  0  0  0  0  0  0  0  0  0
   21.9190    5.7989    9.5346 C   0  0  2  0  0  0  0  0  0  0  0  0
   20.9290    5.0368   10.3072 O   0  0  0  0  0  0  0  0  0  0  0  0
   18.4429    8.6976    3.3593 C   0  0  2  0  0  0  0  0  0  0  0  0
   17.4398    8.7581    2.3970 O   0  0  0  0  0  0  0  0  0  0  0  0
   18.5135    9.8802    8.1028 C   0  0  2  0  0  0  0  0  0  0  0  0
   22.5597    6.8851   10.3906 C   0  0  2  0  0  0  0  0  0  0  0  0
   21.5337    7.8738   10.3749 O   0  0  0  0  0  0  0  0  0  0  0  0
   17.8979    8.0499    4.6636 C   0  0  2  0  0  0  0  0  0  0  0  0
   18.9435    8.0072    5.6585 O   0  0  0  0  0  0  0  0  0  0  0  0
   19.8168   10.0854    8.9002 C   0  0  2  0  0  0  0  0  0  0  0  0
   20.7038    8.9907    8.4775 O   0  0  0  0  0  0  0  0  0  0  0  0
   23.8976    7.4692    9.8229 C   0  0  0  0  0  0  0  0  0  0  0  0
   23.6740    8.0460    8.5395 N   0  0  0  0  0  0  0  0  0  0  0  0
   17.3843    6.6463    4.4411 C   0  0  0  0  0  0  0  0  0  0  0  0
   18.3861    5.8025    4.0028 O   0  0  0  0  0  0  0  0  0  0  0  0
   19.5272    9.9954   10.4635 C   0  0  1  0  0  0  0  0  0  0  0  0
   20.6707   10.3979   11.2327 O   0  0  0  0  0  0  0  0  0  0  0  0
  1  2  1  6  0  0  0
  1  6  1  0  0  0  0
  1 23  1  0  0  0  0
  3  4  1  1  0  0  0
  3  8  1  0  0  0  0
  3 30  1  0  0  0  0
  5  9  1  0  0  0  0
  5 21  1  0  0  0  0
  5 25  1  6  0  0  0
  6  7  1  1  0  0  0
  6 11  1  0  0  0  0
  8 13  1  0  0  0  0
  9 10  1  1  0  0  0
  9 15  1  0  0  0  0
 11 12  1  6  0  0  0
 11 17  1  0  0  0  0
 13 14  1  6  0  0  0
 13 19  1  0  0  0  0
 15 16  1  1  0  0  0
 15 20  1  0  0  0  0
 17 18  1  6  0  0  0
 17 22  1  0  0  0  0
 19  2  1  6  0  0  0
 19 24  1  0  0  0  0
 20 21  1  0  0  0  0
 20 26  1  6  0  0  0
 22 23  1  0  0  0  0
 22 28  1  6  0  0  0
 24 25  1  6  0  0  0
 24 30  1  0  0  0  0
 26 27  1  0  0  0  0
 28 29  1  0  0  0  0
 30 31  1  1  0  0  0
M  END
>  <CHROM.1>
-161.83235282,159.17680004,-169.85283010,59.83060195,61.75600113,-91.41446919
19.64656980,8.73230352,7.52218960,-2.14608589,-0.84279896,1.23063098

>  <Name>
2o3x_lig

>  <RI>
3.34184e+07

>  <Rbt.Current_Directory>
/home/itssahil/PROJECTS/Mol_Feturizer/New_Systems/rnas/2o3x

>  <Rbt.Executable>
rbdock ($Id: //depot/dev/client3/rdock/2013.1/src/exe/rbdock.cxx#4 $)

>  <Rbt.Library>
libRbt.so (2013.1, Build901 2013/11/27)

>  <Rbt.Parameter_File>
/export/apps/rDock/src/rDock_2013.1_src/data/scripts/dock_solv.prm

>  <Rbt.Receptor>
prm/pocket_docking_6.prm

>  <SCORE>
-11.3594

>  <SCORE.INTER>
-13.306

>  <SCORE.INTER.CONST>
1

>  <SCORE.INTER.POLAR>
-1.70225

>  <SCORE.INTER.ROT>
6

>  <SCORE.INTER.SOLV>
22.9875

>  <SCORE.INTER.VDW>
-18.459

>  <SCORE.INTER.norm>
-0.429227

>  <SCORE.INTRA>
1.94666

>  <SCORE.INTRA.DIHEDRAL>
-1.38881

>  <SCORE.INTRA.DIHEDRAL.0>
9.37739

>  <SCORE.INTRA.POLAR>
0

>  <SCORE.INTRA.POLAR.0>
0

>  <SCORE.INTRA.REPUL>
0

>  <SCORE.INTRA.REPUL.0>
0

>  <SCORE.INTRA.SOLV>
1.39462

>  <SCORE.INTRA.SOLV.lig_0>
-82.9274

>  <SCORE.INTRA.VDW>
1.94376

>  <SCORE.INTRA.VDW.0>
-3.84922

>  <SCORE.INTRA.norm>
0.0627955

>  <SCORE.RESTR>
0

>  <SCORE.RESTR.CAVITY>
0

>  <SCORE.RESTR.norm>
0

>  <SCORE.SYSTEM>
0

>  <SCORE.SYSTEM.CONST>
0

>  <SCORE.SYSTEM.DIHEDRAL>
0

>  <SCORE.SYSTEM.SOLV>
0

>  <SCORE.SYSTEM.norm>
0

>  <SCORE.heavy>
31

>  <SCORE.norm>
-0.366431

>  <RMSD>
5.313

$$$$
2o3x_lig
 OpenBabel11021811463D
libRbt.so/2013.1/901 2013/11/27
 31 33  0  0  0  0  0  0  0  0999 V2000
   16.7122    8.5339    6.2662 C   0  0  2  0  0  0  0  0  0  0  0  0
   17.0614    7.9101    7.5089 O   0  0  0  0  0  0  0  0  0  0  0  0
   18.2009   11.4907    9.5530 C   0  0  2  0  0  0  0  0  0  0  0  0
   18.5691   12.4743   10.5954 N   0  0  0  0  0  0  0  0  0  0  0  0
   20.9987    7.9830    9.1537 C   0  0  1  0  0  0  0  0  0  0  0  0
   16.3533    7.4153    5.2374 C   0  0  2  0  0  0  0  0  0  0  0  0
   15.4098    6.4172    5.8026 N   0  0  0  0  0  0  0  0  0  0  0  0
   16.7168   11.0137    9.6921 C   0  0  0  0  0  0  0  0  0  0  0  0
   21.6146    6.5897    9.5081 C   0  0  2  0  0  0  0  0  0  0  0  0
   21.6380    6.2435   10.9202 O   0  0  0  0  0  0  0  0  0  0  0  0
   17.6083    6.6642    4.7541 C   0  0  1  0  0  0  0  0  0  0  0  0
   17.2673    5.6981    3.7925 O   0  0  0  0  0  0  0  0  0  0  0  0
   16.4150   10.0003    8.5285 C   0  0  2  0  0  0  0  0  0  0  0  0
   15.0051    9.5096    8.5789 N   0  0  0  0  0  0  0  0  0  0  0  0
   22.9677    6.7722    8.8412 C   0  0  2  0  0  0  0  0  0  0  0  0
   23.8655    7.5785    9.6789 O   0  0  0  0  0  0  0  0  0  0  0  0
   18.6099    7.6540    4.1832 C   0  0  2  0  0  0  0  0  0  0  0  0
   19.7348    6.9755    3.7250 O   0  0  0  0  0  0  0  0  0  0  0  0
   17.3674    8.7735    8.6132 C   0  0  2  0  0  0  0  0  0  0  0  0
   22.6538    7.4880    7.5327 C   0  0  2  0  0  0  0  0  0  0  0  0
   21.6775    8.4279    7.9729 O   0  0  0  0  0  0  0  0  0  0  0  0
   19.0126    8.6883    5.2720 C   0  0  2  0  0  0  0  0  0  0  0  0
   17.8353    9.3742    5.7498 O   0  0  0  0  0  0  0  0  0  0  0  0
   18.8600    9.1571    8.5795 C   0  0  2  0  0  0  0  0  0  0  0  0
   19.5833    7.9220    8.9190 O   0  0  0  0  0  0  0  0  0  0  0  0
   22.0692    6.5730    6.4038 C   0  0  0  0  0  0  0  0  0  0  0  0
   22.1077    7.2539    5.1530 N   0  0  0  0  0  0  0  0  0  0  0  0
   19.9955    9.7149    4.7588 C   0  0  0  0  0  0  0  0  0  0  0  0
   20.3707   10.5993    5.7513 O   0  0  0  0  0  0  0  0  0  0  0  0
   19.1623   10.2928    9.6540 C   0  0  1  0  0  0  0  0  0  0  0  0
   20.4869   10.8240    9.4971 O   0  0  0  0  0  0  0  0  0  0  0  0
  1  2  1  1  0  0  0
  1  6  1  0  0  0  0
  1 23  1  0  0  0  0
  3  4  1  1  0  0  0
  3  8  1  0  0  0  0
  3 30  1  0  0  0  0
  5  9  1  0  0  0  0
  5 21  1  0  0  0  0
  5 25  1  6  0  0  0
  6  7  1  1  0  0  0
  6 11  1  0  0  0  0
  8 13  1  0  0  0  0
  9 10  1  1  0  0  0
  9 15  1  0  0  0  0
 11 12  1  6  0  0  0
 11 17  1  0  0  0  0
 13 14  1  1  0  0  0
 13 19  1  0  0  0  0
 15 16  1  1  0  0  0
 15 20  1  0  0  0  0
 17 18  1  1  0  0  0
 17 22  1  0  0  0  0
 19  2  1  6  0  0  0
 19 24  1  0  0  0  0
 20 21  1  0  0  0  0
 20 26  1  6  0  0  0
 22 23  1  0  0  0  0
 22 28  1  6  0  0  0
 24 25  1  1  0  0  0
 24 30  1  0  0  0  0
 26 27  1  0  0  0  0
 28 29  1  0  0  0  0
 30 31  1  6  0  0  0
M  END
>  <CHROM.1>
-177.21552143,179.76501465,36.93319955,-166.42173448,-178.19419662,-171.51923601
19.26240360,8.44053156,7.41779798,2.60908235,0.35007892,-2.13422512

>  <Name>
2o3x_lig

>  <RI>
3.34184e+07

>  <Rbt.Current_Directory>
/home/itssahil/PROJECTS/Mol_Feturizer/New_Systems/rnas/2o3x

>  <Rbt.Executable>
rbdock ($Id: //depot/dev/client3/rdock/2013.1/src/exe/rbdock.cxx#4 $)

>  <Rbt.Library>
libRbt.so (2013.1, Build901 2013/11/27)

>  <Rbt.Parameter_File>
/export/apps/rDock/src/rDock_2013.1_src/data/scripts/dock_solv.prm

>  <Rbt.Receptor>
prm/pocket_docking_6.prm

>  <SCORE>
-11.4097

>  <SCORE.INTER>
-10.6513

>  <SCORE.INTER.CONST>
1

>  <SCORE.INTER.POLAR>
-1.54234

>  <SCORE.INTER.ROT>
6

>  <SCORE.INTER.SOLV>
11.6289

>  <SCORE.INTER.VDW>
-13.436

>  <SCORE.INTER.norm>
-0.343589

>  <SCORE.INTRA>
-0.758476

>  <SCORE.INTRA.DIHEDRAL>
-5.91526

>  <SCORE.INTRA.DIHEDRAL.0>
9.37739

>  <SCORE.INTRA.POLAR>
0

>  <SCORE.INTRA.POLAR.0>
0

>  <SCORE.INTRA.REPUL>
0

>  <SCORE.INTRA.REPUL.0>
0

>  <SCORE.INTRA.SOLV>
2.65939

>  <SCORE.INTRA.SOLV.lig_0>
-82.9274

>  <SCORE.INTRA.VDW>
0.869459

>  <SCORE.INTRA.VDW.0>
-3.84922

>  <SCORE.INTRA.norm>
-0.024467

>  <SCORE.RESTR>
0

>  <SCORE.RESTR.CAVITY>
0

>  <SCORE.RESTR.norm>
0

>  <SCORE.SYSTEM>
0

>  <SCORE.SYSTEM.CONST>
0

>  <SCORE.SYSTEM.DIHEDRAL>
0

>  <SCORE.SYSTEM.SOLV>
0

>  <SCORE.SYSTEM.norm>
0

>  <SCORE.heavy>
31

>  <SCORE.norm>
-0.368056

>  <RMSD>
5.334

$$$$
2o3x_lig
 OpenBabel11021811463D
libRbt.so/2013.1/901 2013/11/27
 31 33  0  0  0  0  0  0  0  0999 V2000
   20.5388    9.2766    5.5561 C   0  0  2  0  0  0  0  0  0  0  0  0
   19.8437    9.9845    6.5911 O   0  0  0  0  0  0  0  0  0  0  0  0
   19.5229    9.0486   10.7527 C   0  0  2  0  0  0  0  0  0  0  0  0
   19.2394    8.3720   12.0378 N   0  0  0  0  0  0  0  0  0  0  0  0
   22.4180    6.9093    8.0243 C   0  0  1  0  0  0  0  0  0  0  0  0
   20.6207   10.1985    4.2984 C   0  0  2  0  0  0  0  0  0  0  0  0
   21.0870   11.5672    4.6374 N   0  0  0  0  0  0  0  0  0  0  0  0
   18.2122    9.4367    9.9906 C   0  0  0  0  0  0  0  0  0  0  0  0
   22.6341    5.6221    7.1627 C   0  0  2  0  0  0  0  0  0  0  0  0
   21.9294    4.4308    7.6083 O   0  0  0  0  0  0  0  0  0  0  0  0
   19.2562   10.3209    3.5941 C   0  0  1  0  0  0  0  0  0  0  0  0
   19.3650   11.1126    2.4384 O   0  0  0  0  0  0  0  0  0  0  0  0
   18.6163   10.1725    8.6610 C   0  0  2  0  0  0  0  0  0  0  0  0
   17.4151   10.5951    7.8800 N   0  0  0  0  0  0  0  0  0  0  0  0
   24.1512    5.5662    7.2288 C   0  0  2  0  0  0  0  0  0  0  0  0
   24.6042    4.9998    8.5062 O   0  0  0  0  0  0  0  0  0  0  0  0
   18.7337    8.9375    3.2451 C   0  0  2  0  0  0  0  0  0  0  0  0
   17.5121    9.0466    2.5883 O   0  0  0  0  0  0  0  0  0  0  0  0
   19.4845    9.2430    7.7657 C   0  0  2  0  0  0  0  0  0  0  0  0
   24.5921    7.0185    7.0896 C   0  0  2  0  0  0  0  0  0  0  0  0
   23.6288    7.6677    7.9148 O   0  0  0  0  0  0  0  0  0  0  0  0
   18.5746    8.0891    4.5384 C   0  0  2  0  0  0  0  0  0  0  0  0
   19.8452    7.9965    5.2181 O   0  0  0  0  0  0  0  0  0  0  0  0
   20.7564    8.7318    8.4711 C   0  0  2  0  0  0  0  0  0  0  0  0
   21.2996    7.6938    7.5816 O   0  0  0  0  0  0  0  0  0  0  0  0
   24.5413    7.5866    5.6308 C   0  0  0  0  0  0  0  0  0  0  0  0
   25.3195    6.7701    4.7604 N   0  0  0  0  0  0  0  0  0  0  0  0
   18.0747    6.6915    4.2551 C   0  0  0  0  0  0  0  0  0  0  0  0
   17.9341    5.9574    5.4166 O   0  0  0  0  0  0  0  0  0  0  0  0
   20.3886    8.1119    9.8910 C   0  0  1  0  0  0  0  0  0  0  0  0
   21.5669    7.8293   10.6609 O   0  0  0  0  0  0  0  0  0  0  0  0
  1  2  1  1  0  0  0
  1  6  1  0  0  0  0
  1 23  1  0  0  0  0
  3  4  1  1  0  0  0
  3  8  1  0  0  0  0
  3 30  1  0  0  0  0
  5  9  1  0  0  0  0
  5 21  1  0  0  0  0
  5 25  1  6  0  0  0
  6  7  1  1  0  0  0
  6 11  1  0  0  0  0
  8 13  1  0  0  0  0
  9 10  1  1  0  0  0
  9 15  1  0  0  0  0
 11 12  1  6  0  0  0
 11 17  1  0  0  0  0
 13 14  1  6  0  0  0
 13 19  1  0  0  0  0
 15 16  1  1  0  0  0
 15 20  1  0  0  0  0
 17 18  1  1  0  0  0
 17 22  1  0  0  0  0
 19  2  1  6  0  0  0
 19 24  1  0  0  0  0
 20 21  1  0  0  0  0
 20 26  1  6  0  0  0
 22 23  1  0  0  0  0
 22 28  1  6  0  0  0
 24 25  1  6  0  0  0
 24 30  1  0  0  0  0
 26 27  1  0  0  0  0
 28 29  1  0  0  0  0
 30 31  1  1  0  0  0
M  END
>  <CHROM.1>
170.93964447,164.59219891,-173.94868831,-55.94732248,-179.70212349,-173.26156755
20.70143471,8.19552884,6.75622364,-2.41097978,-0.54993688,1.66381071

>  <Name>
2o3x_lig

>  <RI>
0

>  <Rbt.Current_Directory>
/home/itssahil/PROJECTS/Mol_Feturizer/New_Systems/rnas/2o3x

>  <Rbt.Executable>
rbdock ($Id: //depot/dev/client3/rdock/2013.1/src/exe/rbdock.cxx#4 $)

>  <Rbt.Library>
libRbt.so (2013.1, Build901 2013/11/27)

>  <Rbt.Parameter_File>
/export/apps/rDock/src/rDock_2013.1_src/data/scripts/dock_solv.prm

>  <Rbt.Receptor>
prm/pocket_docking_4.prm

>  <SCORE>
-13.3214

>  <SCORE.INTER>
-10.168

>  <SCORE.INTER.CONST>
1

>  <SCORE.INTER.POLAR>
-0.973651

>  <SCORE.INTER.ROT>
6

>  <SCORE.INTER.SOLV>
18.1775

>  <SCORE.INTER.VDW>
-17.1924

>  <SCORE.INTER.norm>
-0.328001

>  <SCORE.INTRA>
-3.15332

>  <SCORE.INTRA.DIHEDRAL>
-7.24182

>  <SCORE.INTRA.DIHEDRAL.0>
9.37739

>  <SCORE.INTRA.POLAR>
0

>  <SCORE.INTRA.POLAR.0>
0

>  <SCORE.INTRA.REPUL>
0

>  <SCORE.INTRA.REPUL.0>
0

>  <SCORE.INTRA.SOLV>
-2.76767

>  <SCORE.INTRA.SOLV.lig_0>
-82.9274

>  <SCORE.INTRA.VDW>
1.85143

>  <SCORE.INTRA.VDW.0>
-3.84922

>  <SCORE.INTRA.norm>
-0.10172

>  <SCORE.RESTR>
0

>  <SCORE.RESTR.CAVITY>
0

>  <SCORE.RESTR.norm>
0

>  <SCORE.SYSTEM>
0

>  <SCORE.SYSTEM.CONST>
0

>  <SCORE.SYSTEM.DIHEDRAL>
0

>  <SCORE.SYSTEM.SOLV>
0

>  <SCORE.SYSTEM.norm>
0

>  <SCORE.heavy>
31

>  <SCORE.norm>
-0.429721

>  <RMSD>
5.344

$$$$
2o3x_lig
 OpenBabel11021811463D
libRbt.so/2013.1/901 2013/11/27
 31 33  0  0  0  0  0  0  0  0999 V2000
   21.6785    8.7990    8.2221 C   0  0  2  0  0  0  0  0  0  0  0  0
   20.9724    7.6810    8.7761 O   0  0  0  0  0  0  0  0  0  0  0  0
   22.3010    8.2387   12.8037 C   0  0  2  0  0  0  0  0  0  0  0  0
   22.6445    8.0270   14.2273 N   0  0  0  0  0  0  0  0  0  0  0  0
   22.8856    4.8123   10.2200 C   0  0  1  0  0  0  0  0  0  0  0  0
   20.8573    9.3504    7.0137 C   0  0  2  0  0  0  0  0  0  0  0  0
   19.4220    9.5327    7.3493 N   0  0  0  0  0  0  0  0  0  0  0  0
   20.7590    8.1512   12.5512 C   0  0  0  0  0  0  0  0  0  0  0  0
   21.4336    4.3610    9.8538 C   0  0  2  0  0  0  0  0  0  0  0  0
   20.3914    4.7424   10.7933 O   0  0  0  0  0  0  0  0  0  0  0  0
   20.9460    8.4154    5.7928 C   0  0  1  0  0  0  0  0  0  0  0  0
   20.2426    8.9560    4.7032 O   0  0  0  0  0  0  0  0  0  0  0  0
   20.4949    8.4183   11.0244 C   0  0  2  0  0  0  0  0  0  0  0  0
   19.0371    8.3710   10.7024 N   0  0  0  0  0  0  0  0  0  0  0  0
   21.6960    2.8709    9.7140 C   0  0  2  0  0  0  0  0  0  0  0  0
   21.7554    2.2189   11.0290 O   0  0  0  0  0  0  0  0  0  0  0  0
   22.4030    8.1878    5.4264 C   0  0  2  0  0  0  0  0  0  0  0  0
   22.4851    7.3620    4.3097 O   0  0  0  0  0  0  0  0  0  0  0  0
   21.2274    7.3600   10.1510 C   0  0  2  0  0  0  0  0  0  0  0  0
   23.0412    2.7862    9.0023 C   0  0  2  0  0  0  0  0  0  0  0  0
   23.7600    3.8184    9.6718 O   0  0  0  0  0  0  0  0  0  0  0  0
   23.1572    7.5467    6.6255 C   0  0  2  0  0  0  0  0  0  0  0  0
   23.0514    8.4056    7.7813 O   0  0  0  0  0  0  0  0  0  0  0  0
   22.7473    7.3083   10.4031 C   0  0  2  0  0  0  0  0  0  0  0  0
   23.2150    6.1073    9.6940 O   0  0  0  0  0  0  0  0  0  0  0  0
   22.9905    3.0596    7.4608 C   0  0  0  0  0  0  0  0  0  0  0  0
   23.1241    4.4552    7.2068 N   0  0  0  0  0  0  0  0  0  0  0  0
   24.6203    7.3123    6.3294 C   0  0  0  0  0  0  0  0  0  0  0  0
   25.2303    6.5821    7.3308 O   0  0  0  0  0  0  0  0  0  0  0  0
   23.0442    7.1852   11.9627 C   0  0  1  0  0  0  0  0  0  0  0  0
   24.4414    7.3552   12.2456 O   0  0  0  0  0  0  0  0  0  0  0  0
  1  2  1  6  0  0  0
  1  6  1  0  0  0  0
  1 23  1  0  0  0  0
  3  4  1  1  0  0  0
  3  8  1  0  0  0  0
  3 30  1  0  0  0  0
  5  9  1  0  0  0  0
  5 21  1  0  0  0  0
  5 25  1  6  0  0  0
  6  7  1  1  0  0  0
  6 11  1  0  0  0  0
  8 13  1  0  0  0  0
  9 10  1  1  0  0  0
  9 15  1  0  0  0  0
 11 12  1  6  0  0  0
 11 17  1  0  0  0  0
 13 14  1  1  0  0  0
 13 19  1  0  0  0  0
 15 16  1  1  0  0  0
 15 20  1  0  0  0  0
 17 18  1  6  0  0  0
 17 22  1  0  0  0  0
 19  2  1  6  0  0  0
 19 24  1  0  0  0  0
 20 21  1  0  0  0  0
 20 26  1  6  0  0  0
 22 23  1  0  0  0  0
 22 28  1  6  0  0  0
 24 25  1  6  0  0  0
 24 30  1  0  0  0  0
 26 27  1  0  0  0  0
 28 29  1  0  0  0  0
 30 31  1  6  0  0  0
M  END
>  <CHROM.1>
-155.80356836,80.33288533,74.97466193,87.77727629,-171.86712245,-71.78513850
22.15440042,6.68122217,9.02222726,1.75437941,1.18882218,-1.31955872

>  <Name>
2o3x_lig

>  <RI>
224

>  <Rbt.Current_Directory>
/home/itssahil/PROJECTS/Mol_Feturizer/New_Systems/rnas/2o3x

>  <Rbt.Executable>
rbdock ($Id: //depot/dev/client3/rdock/2013.1/src/exe/rbdock.cxx#4 $)

>  <Rbt.Library>
libRbt.so (2013.1, Build901 2013/11/27)

>  <Rbt.Parameter_File>
/export/apps/rDock/src/rDock_2013.1_src/data/scripts/dock_solv.prm

>  <Rbt.Receptor>
prm/blind_docking_100.prm

>  <SCORE>
3.18469

>  <SCORE.INTER>
-4.25974

>  <SCORE.INTER.CONST>
1

>  <SCORE.INTER.POLAR>
-0.140993

>  <SCORE.INTER.ROT>
6

>  <SCORE.INTER.SOLV>
13.2281

>  <SCORE.INTER.VDW>
-14.3792

>  <SCORE.INTER.norm>
-0.137411

>  <SCORE.INTRA>
3.53153

>  <SCORE.INTRA.DIHEDRAL>
-0.692545

>  <SCORE.INTRA.DIHEDRAL.0>
9.37739

>  <SCORE.INTRA.POLAR>
0

>  <SCORE.INTRA.POLAR.0>
0

>  <SCORE.INTRA.REPUL>
0

>  <SCORE.INTRA.REPUL.0>
0

>  <SCORE.INTRA.SOLV>
6.1536

>  <SCORE.INTRA.SOLV.lig_0>
-82.9274

>  <SCORE.INTRA.VDW>
0.801007

>  <SCORE.INTRA.VDW.0>
-3.84922

>  <SCORE.INTRA.norm>
0.11392

>  <SCORE.RESTR>
3.9129

>  <SCORE.RESTR.CAVITY>
3.9129

>  <SCORE.RESTR.norm>
0.126223

>  <SCORE.SYSTEM>
0

>  <SCORE.SYSTEM.CONST>
0

>  <SCORE.SYSTEM.DIHEDRAL>
0

>  <SCORE.SYSTEM.SOLV>
0

>  <SCORE.SYSTEM.norm>
0

>  <SCORE.heavy>
31

>  <SCORE.norm>
0.102732

>  <RMSD>
5.345

$$$$
2o3x_lig
 OpenBabel11021811463D
libRbt.so/2013.1/901 2013/11/27
 31 33  0  0  0  0  0  0  0  0999 V2000
   20.7578    9.4895    5.2280 C   0  0  2  0  0  0  0  0  0  0  0  0
   20.0751   10.0536    6.3556 O   0  0  0  0  0  0  0  0  0  0  0  0
   19.8894    8.6980   10.4084 C   0  0  2  0  0  0  0  0  0  0  0  0
   19.6764    7.8810   11.6236 N   0  0  0  0  0  0  0  0  0  0  0  0
   23.0830    7.4021    7.2585 C   0  0  1  0  0  0  0  0  0  0  0  0
   20.6708   10.5021    4.0425 C   0  0  2  0  0  0  0  0  0  0  0  0
   21.0356   11.8809    4.4566 N   0  0  0  0  0  0  0  0  0  0  0  0
   18.5421    9.0601    9.6993 C   0  0  0  0  0  0  0  0  0  0  0  0
   23.3016    5.8650    7.0699 C   0  0  2  0  0  0  0  0  0  0  0  0
   23.1869    5.0526    8.2704 O   0  0  0  0  0  0  0  0  0  0  0  0
   19.2557   10.5458    3.4355 C   0  0  1  0  0  0  0  0  0  0  0  0
   19.2140   11.4244    2.3398 O   0  0  0  0  0  0  0  0  0  0  0  0
   18.8703    9.9490    8.4445 C   0  0  2  0  0  0  0  0  0  0  0  0
   17.6294   10.3553    7.7191 N   0  0  0  0  0  0  0  0  0  0  0  0
   24.6768    5.9166    6.4256 C   0  0  2  0  0  0  0  0  0  0  0  0
   25.7256    6.1200    7.4337 O   0  0  0  0  0  0  0  0  0  0  0  0
   18.8356    9.1477    3.0138 C   0  0  2  0  0  0  0  0  0  0  0  0
   17.5670    9.1882    2.4442 O   0  0  0  0  0  0  0  0  0  0  0  0
   19.7896    9.1774    7.4552 C   0  0  2  0  0  0  0  0  0  0  0  0
   24.6044    7.1001    5.4678 C   0  0  2  0  0  0  0  0  0  0  0  0
   23.8933    8.0427    6.2655 O   0  0  0  0  0  0  0  0  0  0  0  0
   18.8419    8.1983    4.2451 C   0  0  2  0  0  0  0  0  0  0  0  0
   20.1593    8.1773    4.8358 O   0  0  0  0  0  0  0  0  0  0  0  0
   21.1063    8.6957    8.0960 C   0  0  2  0  0  0  0  0  0  0  0  0
   21.7094    7.7916    7.1047 O   0  0  0  0  0  0  0  0  0  0  0  0
   23.8389    6.8205    4.1302 C   0  0  0  0  0  0  0  0  0  0  0  0
   24.4581    5.7470    3.4273 N   0  0  0  0  0  0  0  0  0  0  0  0
   18.4500    6.7837    3.8864 C   0  0  0  0  0  0  0  0  0  0  0  0
   18.4434    5.9616    4.9963 O   0  0  0  0  0  0  0  0  0  0  0  0
   20.8072    7.9157    9.4518 C   0  0  1  0  0  0  0  0  0  0  0  0
   22.0150    7.6478   10.1801 O   0  0  0  0  0  0  0  0  0  0  0  0
  1  2  1  1  0  0  0
  1  6  1  0  0  0  0
  1 23  1  0  0  0  0
  3  4  1  1  0  0  0
  3  8  1  0  0  0  0
  3 30  1  0  0  0  0
  5  9  1  0  0  0  0
  5 21  1  0  0  0  0
  5 25  1  6  0  0  0
  6  7  1  1  0  0  0
  6 11  1  0  0  0  0
  8 13  1  0  0  0  0
  9 10  1  1  0  0  0
  9 15  1  0  0  0  0
 11 12  1  6  0  0  0
 11 17  1  0  0  0  0
 13 14  1  6  0  0  0
 13 19  1  0  0  0  0
 15 16  1  1  0  0  0
 15 20  1  0  0  0  0
 17 18  1  1  0  0  0
 17 22  1  0  0  0  0
 19  2  1  6  0  0  0
 19 24  1  0  0  0  0
 20 21  1  0  0  0  0
 20 26  1  6  0  0  0
 22 23  1  0  0  0  0
 22 28  1  6  0  0  0
 24 25  1  6  0  0  0
 24 30  1  0  0  0  0
 26 27  1  0  0  0  0
 28 29  1  0  0  0  0
 30 31  1  1  0  0  0
M  END
>  <CHROM.1>
167.08697353,133.46842782,-171.59475763,-58.87163276,-179.14413743,166.21171799
20.97948498,8.25594289,6.28043098,-2.46267131,-0.54450782,1.67359305

>  <Name>
2o3x_lig

>  <RI>
0

>  <Rbt.Current_Directory>
/home/itssahil/PROJECTS/Mol_Feturizer/New_Systems/rnas/2o3x

>  <Rbt.Executable>
rbdock ($Id: //depot/dev/client3/rdock/2013.1/src/exe/rbdock.cxx#4 $)

>  <Rbt.Library>
libRbt.so (2013.1, Build901 2013/11/27)

>  <Rbt.Parameter_File>
/export/apps/rDock/src/rDock_2013.1_src/data/scripts/dock_solv.prm

>  <Rbt.Receptor>
prm/pocket_docking_4.prm

>  <SCORE>
-13.5929

>  <SCORE.INTER>
-12.8193

>  <SCORE.INTER.CONST>
1

>  <SCORE.INTER.POLAR>
-1.13484

>  <SCORE.INTER.ROT>
6

>  <SCORE.INTER.SOLV>
19.6098

>  <SCORE.INTER.VDW>
-18.9

>  <SCORE.INTER.norm>
-0.413526

>  <SCORE.INTRA>
-0.773551

>  <SCORE.INTRA.DIHEDRAL>
-0.835245

>  <SCORE.INTRA.DIHEDRAL.0>
9.37739

>  <SCORE.INTRA.POLAR>
0

>  <SCORE.INTRA.POLAR.0>
0

>  <SCORE.INTRA.REPUL>
0

>  <SCORE.INTRA.REPUL.0>
0

>  <SCORE.INTRA.SOLV>
-2.5016

>  <SCORE.INTRA.SOLV.lig_0>
-82.9274

>  <SCORE.INTRA.VDW>
0.894871

>  <SCORE.INTRA.VDW.0>
-3.84922

>  <SCORE.INTRA.norm>
-0.0249533

>  <SCORE.RESTR>
0

>  <SCORE.RESTR.CAVITY>
0

>  <SCORE.RESTR.norm>
0

>  <SCORE.SYSTEM>
0

>  <SCORE.SYSTEM.CONST>
0

>  <SCORE.SYSTEM.DIHEDRAL>
0

>  <SCORE.SYSTEM.SOLV>
0

>  <SCORE.SYSTEM.norm>
0

>  <SCORE.heavy>
31

>  <SCORE.norm>
-0.438479

>  <RMSD>
5.346

$$$$
2o3x_lig
 OpenBabel11021811463D
libRbt.so/2013.1/901 2013/11/27
 31 33  0  0  0  0  0  0  0  0999 V2000
   20.7233    9.3961    5.2278 C   0  0  2  0  0  0  0  0  0  0  0  0
   20.0489    9.9558    6.3624 O   0  0  0  0  0  0  0  0  0  0  0  0
   20.1001    8.5960   10.4179 C   0  0  2  0  0  0  0  0  0  0  0  0
   19.9449    7.7833   11.6446 N   0  0  0  0  0  0  0  0  0  0  0  0
   23.0519    7.3071    6.9747 C   0  0  1  0  0  0  0  0  0  0  0  0
   20.6324   10.4158    4.0486 C   0  0  2  0  0  0  0  0  0  0  0  0
   21.0039   11.7911    4.4683 N   0  0  0  0  0  0  0  0  0  0  0  0
   18.7196    9.0048    9.8043 C   0  0  0  0  0  0  0  0  0  0  0  0
   23.3297    5.8908    6.3723 C   0  0  2  0  0  0  0  0  0  0  0  0
   23.3269    4.7847    7.3161 O   0  0  0  0  0  0  0  0  0  0  0  0
   19.2140   10.4671    3.4501 C   0  0  1  0  0  0  0  0  0  0  0  0
   19.1686   11.3521    2.3596 O   0  0  0  0  0  0  0  0  0  0  0  0
   18.9894    9.8856    8.5301 C   0  0  2  0  0  0  0  0  0  0  0  0
   17.7153   10.3350    7.8929 N   0  0  0  0  0  0  0  0  0  0  0  0
   24.6588    6.1948    5.7014 C   0  0  2  0  0  0  0  0  0  0  0  0
   25.7570    6.1884    6.6769 O   0  0  0  0  0  0  0  0  0  0  0  0
   18.7873    9.0728    3.0229 C   0  0  2  0  0  0  0  0  0  0  0  0
   17.5154    9.1202    2.4609 O   0  0  0  0  0  0  0  0  0  0  0  0
   19.8114    9.0866    7.4789 C   0  0  2  0  0  0  0  0  0  0  0  0
   24.4727    7.5825    5.0991 C   0  0  2  0  0  0  0  0  0  0  0  0
   23.7689    8.2356    6.1520 O   0  0  0  0  0  0  0  0  0  0  0  0
   18.7978    8.1163    4.2487 C   0  0  2  0  0  0  0  0  0  0  0  0
   20.1185    8.0879    4.8316 O   0  0  0  0  0  0  0  0  0  0  0  0
   21.1526    8.5596    8.0264 C   0  0  2  0  0  0  0  0  0  0  0  0
   21.6548    7.6387    6.9952 O   0  0  0  0  0  0  0  0  0  0  0  0
   23.6402    7.6200    3.7728 C   0  0  0  0  0  0  0  0  0  0  0  0
   23.6116    8.9451    3.2504 N   0  0  0  0  0  0  0  0  0  0  0  0
   18.3996    6.7049    3.8842 C   0  0  0  0  0  0  0  0  0  0  0  0
   18.3699    5.8830    4.9940 O   0  0  0  0  0  0  0  0  0  0  0  0
   20.9225    7.7863    9.3993 C   0  0  1  0  0  0  0  0  0  0  0  0
   22.1684    7.4763   10.0418 O   0  0  0  0  0  0  0  0  0  0  0  0
  1  2  1  1  0  0  0
  1  6  1  0  0  0  0
  1 23  1  0  0  0  0
  3  4  1  1  0  0  0
  3  8  1  0  0  0  0
  3 30  1  0  0  0  0
  5  9  1  0  0  0  0
  5 21  1  0  0  0  0
  5 25  1  6  0  0  0
  6  7  1  1  0  0  0
  6 11  1  0  0  0  0
  8 13  1  0  0  0  0
  9 10  1  1  0  0  0
  9 15  1  0  0  0  0
 11 12  1  6  0  0  0
 11 17  1  0  0  0  0
 13 14  1  6  0  0  0
 13 19  1  0  0  0  0
 15 16  1  1  0  0  0
 15 20  1  0  0  0  0
 17 18  1  1  0  0  0
 17 22  1  0  0  0  0
 19  2  1  6  0  0  0
 19 24  1  0  0  0  0
 20 21  1  0  0  0  0
 20 26  1  6  0  0  0
 22 23  1  0  0  0  0
 22 28  1  6  0  0  0
 24 25  1  6  0  0  0
 24 30  1  0  0  0  0
 26 27  1  0  0  0  0
 28 29  1  0  0  0  0
 30 31  1  1  0  0  0
M  END
>  <CHROM.1>
169.33953241,151.69650028,-176.14800805,-175.83159976,-177.88614122,160.11419360
20.96175836,8.33820724,6.13887022,-2.27839947,-0.46754113,1.73537590

>  <Name>
2o3x_lig

>  <RI>
0

>  <Rbt.Current_Directory>
/home/itssahil/PROJECTS/Mol_Feturizer/New_Systems/rnas/2o3x

>  <Rbt.Executable>
rbdock ($Id: //depot/dev/client3/rdock/2013.1/src/exe/rbdock.cxx#4 $)

>  <Rbt.Library>
libRbt.so (2013.1, Build901 2013/11/27)

>  <Rbt.Parameter_File>
/export/apps/rDock/src/rDock_2013.1_src/data/scripts/dock_solv.prm

>  <Rbt.Receptor>
prm/pocket_docking_3.prm

>  <SCORE>
-13.3253

>  <SCORE.INTER>
-11.8679

>  <SCORE.INTER.CONST>
1

>  <SCORE.INTER.POLAR>
-1.02895

>  <SCORE.INTER.ROT>
6

>  <SCORE.INTER.SOLV>
21.7489

>  <SCORE.INTER.VDW>
-19.3317

>  <SCORE.INTER.norm>
-0.382834

>  <SCORE.INTRA>
-1.45741

>  <SCORE.INTRA.DIHEDRAL>
-3.4544

>  <SCORE.INTRA.DIHEDRAL.0>
9.37739

>  <SCORE.INTRA.POLAR>
0

>  <SCORE.INTRA.POLAR.0>
0

>  <SCORE.INTRA.REPUL>
0.0229037

>  <SCORE.INTRA.REPUL.0>
0

>  <SCORE.INTRA.SOLV>
-0.880543

>  <SCORE.INTRA.SOLV.lig_0>
-82.9274

>  <SCORE.INTRA.VDW>
0.595548

>  <SCORE.INTRA.VDW.0>
-3.84922

>  <SCORE.INTRA.norm>
-0.0470131

>  <SCORE.RESTR>
0

>  <SCORE.RESTR.CAVITY>
0

>  <SCORE.RESTR.norm>
0

>  <SCORE.SYSTEM>
0

>  <SCORE.SYSTEM.CONST>
0

>  <SCORE.SYSTEM.DIHEDRAL>
0

>  <SCORE.SYSTEM.SOLV>
0

>  <SCORE.SYSTEM.norm>
0

>  <SCORE.heavy>
31

>  <SCORE.norm>
-0.429848

>  <RMSD>
5.350

$$$$
2o3x_lig
 OpenBabel11021811463D
libRbt.so/2013.1/901 2013/11/27
 31 33  0  0  0  0  0  0  0  0999 V2000
   20.4914    9.2506    5.5780 C   0  0  2  0  0  0  0  0  0  0  0  0
   19.8208    9.9842    6.6113 O   0  0  0  0  0  0  0  0  0  0  0  0
   19.5119    9.1168   10.7886 C   0  0  2  0  0  0  0  0  0  0  0  0
   19.2290    8.4629   12.0855 N   0  0  0  0  0  0  0  0  0  0  0  0
   22.4068    6.9432    8.0604 C   0  0  1  0  0  0  0  0  0  0  0  0
   20.5779   10.1555    4.3083 C   0  0  2  0  0  0  0  0  0  0  0  0
   21.0739   11.5190    4.6258 N   0  0  0  0  0  0  0  0  0  0  0  0
   18.2009    9.5036   10.0264 C   0  0  0  0  0  0  0  0  0  0  0  0
   22.6365    5.6526    7.2073 C   0  0  2  0  0  0  0  0  0  0  0  0
   21.9676    4.4501    7.6774 O   0  0  0  0  0  0  0  0  0  0  0  0
   19.2087   10.2957    3.6165 C   0  0  1  0  0  0  0  0  0  0  0  0
   19.3207   11.0712    2.4501 O   0  0  0  0  0  0  0  0  0  0  0  0
   18.6047   10.2149    8.6835 C   0  0  2  0  0  0  0  0  0  0  0  0
   17.4034   10.6350    7.9014 N   0  0  0  0  0  0  0  0  0  0  0  0
   24.1554    5.6321    7.2456 C   0  0  2  0  0  0  0  0  0  0  0  0
   24.6448    5.0889    8.5196 O   0  0  0  0  0  0  0  0  0  0  0  0
   18.6562    8.9185    3.2898 C   0  0  2  0  0  0  0  0  0  0  0  0
   17.4301    9.0433    2.6441 O   0  0  0  0  0  0  0  0  0  0  0  0
   19.4612    9.2643    7.7991 C   0  0  2  0  0  0  0  0  0  0  0  0
   24.5601    7.0926    7.0843 C   0  0  2  0  0  0  0  0  0  0  0  0
   23.5975    7.7278    7.9211 O   0  0  0  0  0  0  0  0  0  0  0  0
   18.4944    8.0890    4.5949 C   0  0  2  0  0  0  0  0  0  0  0  0
   19.7699    7.9801    5.2627 O   0  0  0  0  0  0  0  0  0  0  0  0
   20.7320    8.7538    8.5066 C   0  0  2  0  0  0  0  0  0  0  0  0
   21.2627    7.6974    7.6312 O   0  0  0  0  0  0  0  0  0  0  0  0
   24.4693    7.6448    5.6213 C   0  0  0  0  0  0  0  0  0  0  0  0
   25.2408    6.8310    4.7424 N   0  0  0  0  0  0  0  0  0  0  0  0
   17.9649    6.6980    4.3338 C   0  0  0  0  0  0  0  0  0  0  0  0
   17.7648    6.0018    5.5099 O   0  0  0  0  0  0  0  0  0  0  0  0
   20.3659    8.1595    9.9379 C   0  0  1  0  0  0  0  0  0  0  0  0
   21.5455    7.8794   10.7068 O   0  0  0  0  0  0  0  0  0  0  0  0
  1  2  1  1  0  0  0
  1  6  1  0  0  0  0
  1 23  1  0  0  0  0
  3  4  1  1  0  0  0
  3  8  1  0  0  0  0
  3 30  1  0  0  0  0
  5  9  1  0  0  0  0
  5 21  1  0  0  0  0
  5 25  1  6  0  0  0
  6  7  1  1  0  0  0
  6 11  1  0  0  0  0
  8 13  1  0  0  0  0
  9 10  1  1  0  0  0
  9 15  1  0  0  0  0
 11 12  1  6  0  0  0
 11 17  1  0  0  0  0
 13 14  1  6  0  0  0
 13 19  1  0  0  0  0
 15 16  1  1  0  0  0
 15 20  1  0  0  0  0
 17 18  1  1  0  0  0
 17 22  1  0  0  0  0
 19  2  1  6  0  0  0
 19 24  1  0  0  0  0
 20 21  1  0  0  0  0
 20 26  1  6  0  0  0
 22 23  1  0  0  0  0
 22 28  1  6  0  0  0
 24 25  1  6  0  0  0
 24 30  1  0  0  0  0
 26 27  1  0  0  0  0
 28 29  1  0  0  0  0
 30 31  1  1  0  0  0
M  END
>  <CHROM.1>
171.00995083,166.06192881,-173.24370488,-55.45983623,-176.96279882,-175.48916421
20.66440698,8.22040129,6.78819638,-2.41920223,-0.53653820,1.65133473

>  <Name>
2o3x_lig

>  <RI>
0

>  <Rbt.Current_Directory>
/home/itssahil/PROJECTS/Mol_Feturizer/New_Systems/rnas/2o3x

>  <Rbt.Executable>
rbdock ($Id: //depot/dev/client3/rdock/2013.1/src/exe/rbdock.cxx#4 $)

>  <Rbt.Library>
libRbt.so (2013.1, Build901 2013/11/27)

>  <Rbt.Parameter_File>
/export/apps/rDock/src/rDock_2013.1_src/data/scripts/dock_solv.prm

>  <Rbt.Receptor>
prm/pocket_docking_4.prm

>  <SCORE>
-13.3193

>  <SCORE.INTER>
-9.9524

>  <SCORE.INTER.CONST>
1

>  <SCORE.INTER.POLAR>
-0.972921

>  <SCORE.INTER.ROT>
6

>  <SCORE.INTER.SOLV>
18.3247

>  <SCORE.INTER.VDW>
-17.1001

>  <SCORE.INTER.norm>
-0.321045

>  <SCORE.INTRA>
-3.36692

>  <SCORE.INTRA.DIHEDRAL>
-7.47065

>  <SCORE.INTRA.DIHEDRAL.0>
9.37739

>  <SCORE.INTRA.POLAR>
0

>  <SCORE.INTRA.POLAR.0>
0

>  <SCORE.INTRA.REPUL>
0

>  <SCORE.INTRA.REPUL.0>
0

>  <SCORE.INTRA.SOLV>
-2.75063

>  <SCORE.INTRA.SOLV.lig_0>
-82.9274

>  <SCORE.INTRA.VDW>
1.74372

>  <SCORE.INTRA.VDW.0>
-3.84922

>  <SCORE.INTRA.norm>
-0.10861

>  <SCORE.RESTR>
0

>  <SCORE.RESTR.CAVITY>
0

>  <SCORE.RESTR.norm>
0

>  <SCORE.SYSTEM>
0

>  <SCORE.SYSTEM.CONST>
0

>  <SCORE.SYSTEM.DIHEDRAL>
0

>  <SCORE.SYSTEM.SOLV>
0

>  <SCORE.SYSTEM.norm>
0

>  <SCORE.heavy>
31

>  <SCORE.norm>
-0.429655

>  <RMSD>
5.353

$$$$
2o3x_lig
 OpenBabel11021811463D
libRbt.so/2013.1/901 2013/11/27
 31 33  0  0  0  0  0  0  0  0999 V2000
   20.7772    9.4716    5.2245 C   0  0  2  0  0  0  0  0  0  0  0  0
   20.0963   10.0228    6.3594 O   0  0  0  0  0  0  0  0  0  0  0  0
   19.9668    8.6503   10.4088 C   0  0  2  0  0  0  0  0  0  0  0  0
   19.7754    7.8266   11.6230 N   0  0  0  0  0  0  0  0  0  0  0  0
   23.1393    7.3915    7.2298 C   0  0  1  0  0  0  0  0  0  0  0  0
   20.6740   10.4904    4.0456 C   0  0  2  0  0  0  0  0  0  0  0  0
   21.0289   11.8700    4.4658 N   0  0  0  0  0  0  0  0  0  0  0  0
   18.6083    8.9996    9.7146 C   0  0  0  0  0  0  0  0  0  0  0  0
   23.3669    5.8609    7.0029 C   0  0  2  0  0  0  0  0  0  0  0  0
   23.2551    5.0179    8.1824 O   0  0  0  0  0  0  0  0  0  0  0  0
   19.2550   10.5249    3.4473 C   0  0  1  0  0  0  0  0  0  0  0  0
   19.1989   11.4096    2.3571 O   0  0  0  0  0  0  0  0  0  0  0  0
   18.9138    9.8968    8.4599 C   0  0  2  0  0  0  0  0  0  0  0  0
   17.6611   10.2915    7.7485 N   0  0  0  0  0  0  0  0  0  0  0  0
   24.7428    5.9366    6.3624 C   0  0  2  0  0  0  0  0  0  0  0  0
   25.7889    6.1205    7.3771 O   0  0  0  0  0  0  0  0  0  0  0  0
   18.8450    9.1256    3.0197 C   0  0  2  0  0  0  0  0  0  0  0  0
   17.5727    9.1579    2.4579 O   0  0  0  0  0  0  0  0  0  0  0  0
   19.8318    9.1394    7.4586 C   0  0  2  0  0  0  0  0  0  0  0  0
   24.6650    7.1434    5.4346 C   0  0  2  0  0  0  0  0  0  0  0  0
   23.9474    8.0615    6.2546 O   0  0  0  0  0  0  0  0  0  0  0  0
   18.8672    8.1690    4.2453 C   0  0  2  0  0  0  0  0  0  0  0  0
   20.1882    8.1564    4.8280 O   0  0  0  0  0  0  0  0  0  0  0  0
   21.1603    8.6705    8.0844 C   0  0  2  0  0  0  0  0  0  0  0  0
   21.7637    7.7770    7.0836 O   0  0  0  0  0  0  0  0  0  0  0  0
   23.9032    6.8933    4.0891 C   0  0  0  0  0  0  0  0  0  0  0  0
   24.5033    5.8127    3.3806 N   0  0  0  0  0  0  0  0  0  0  0  0
   18.4860    6.7531    3.8804 C   0  0  0  0  0  0  0  0  0  0  0  0
   18.4803    5.9273    4.9877 O   0  0  0  0  0  0  0  0  0  0  0  0
   20.8838    7.8822    9.4401 C   0  0  1  0  0  0  0  0  0  0  0  0
   22.1019    7.6254   10.1552 O   0  0  0  0  0  0  0  0  0  0  0  0
  1  2  1  1  0  0  0
  1  6  1  0  0  0  0
  1 23  1  0  0  0  0
  3  4  1  1  0  0  0
  3  8  1  0  0  0  0
  3 30  1  0  0  0  0
  5  9  1  0  0  0  0
  5 21  1  0  0  0  0
  5 25  1  6  0  0  0
  6  7  1  1  0  0  0
  6 11  1  0  0  0  0
  8 13  1  0  0  0  0
  9 10  1  1  0  0  0
  9 15  1  0  0  0  0
 11 12  1  6  0  0  0
 11 17  1  0  0  0  0
 13 14  1  6  0  0  0
 13 19  1  0  0  0  0
 15 16  1  1  0  0  0
 15 20  1  0  0  0  0
 17 18  1  1  0  0  0
 17 22  1  0  0  0  0
 19  2  1  6  0  0  0
 19 24  1  0  0  0  0
 20 21  1  0  0  0  0
 20 26  1  6  0  0  0
 22 23  1  0  0  0  0
 22 28  1  6  0  0  0
 24 25  1  6  0  0  0
 24 30  1  0  0  0  0
 26 27  1  0  0  0  0
 28 29  1  0  0  0  0
 30 31  1  1  0  0  0
M  END
>  <CHROM.1>
167.42401823,134.47972574,-171.76202758,-56.99529327,-178.53681968,166.85367599
21.02256193,8.23929247,6.26720744,-2.47110244,-0.53382966,1.67429233

>  <Name>
2o3x_lig

>  <RI>
0

>  <Rbt.Current_Directory>
/home/itssahil/PROJECTS/Mol_Feturizer/New_Systems/rnas/2o3x

>  <Rbt.Executable>
rbdock ($Id: //depot/dev/client3/rdock/2013.1/src/exe/rbdock.cxx#4 $)

>  <Rbt.Library>
libRbt.so (2013.1, Build901 2013/11/27)

>  <Rbt.Parameter_File>
/export/apps/rDock/src/rDock_2013.1_src/data/scripts/dock_solv.prm

>  <Rbt.Receptor>
prm/pocket_docking_3.prm

>  <SCORE>
-13.5939

>  <SCORE.INTER>
-12.7506

>  <SCORE.INTER.CONST>
1

>  <SCORE.INTER.POLAR>
-1.1124

>  <SCORE.INTER.ROT>
6

>  <SCORE.INTER.SOLV>
19.667

>  <SCORE.INTER.VDW>
-18.9481

>  <SCORE.INTER.norm>
-0.411309

>  <SCORE.INTRA>
-0.843297

>  <SCORE.INTRA.DIHEDRAL>
-1.0649

>  <SCORE.INTRA.DIHEDRAL.0>
9.37739

>  <SCORE.INTRA.POLAR>
0

>  <SCORE.INTRA.POLAR.0>
0

>  <SCORE.INTRA.REPUL>
0

>  <SCORE.INTRA.REPUL.0>
0

>  <SCORE.INTRA.SOLV>
-2.47637

>  <SCORE.INTRA.SOLV.lig_0>
-82.9274

>  <SCORE.INTRA.VDW>
0.927339

>  <SCORE.INTRA.VDW.0>
-3.84922

>  <SCORE.INTRA.norm>
-0.0272031

>  <SCORE.RESTR>
0

>  <SCORE.RESTR.CAVITY>
0

>  <SCORE.RESTR.norm>
0

>  <SCORE.SYSTEM>
0

>  <SCORE.SYSTEM.CONST>
0

>  <SCORE.SYSTEM.DIHEDRAL>
0

>  <SCORE.SYSTEM.SOLV>
0

>  <SCORE.SYSTEM.norm>
0

>  <SCORE.heavy>
31

>  <SCORE.norm>
-0.438512

>  <RMSD>
5.355

$$$$
2o3x_lig
 OpenBabel11021811463D
libRbt.so/2013.1/901 2013/11/27
 31 33  0  0  0  0  0  0  0  0999 V2000
   20.5331    9.3119    5.5651 C   0  0  2  0  0  0  0  0  0  0  0  0
   19.9172   10.0295    6.6426 O   0  0  0  0  0  0  0  0  0  0  0  0
   19.5714    9.0304   10.7875 C   0  0  2  0  0  0  0  0  0  0  0  0
   19.2738    8.3375   12.0606 N   0  0  0  0  0  0  0  0  0  0  0  0
   22.4294    6.8810    8.0334 C   0  0  1  0  0  0  0  0  0  0  0  0
   20.5143   10.2196    4.2946 C   0  0  2  0  0  0  0  0  0  0  0  0
   21.0003   11.5934    4.5813 N   0  0  0  0  0  0  0  0  0  0  0  0
   18.2692    9.4533   10.0294 C   0  0  0  0  0  0  0  0  0  0  0  0
   22.6531    5.6305    7.1211 C   0  0  2  0  0  0  0  0  0  0  0  0
   21.9234    4.4297    7.4952 O   0  0  0  0  0  0  0  0  0  0  0  0
   19.0991   10.3300    3.6963 C   0  0  1  0  0  0  0  0  0  0  0  0
   19.1155   11.1088    2.5269 O   0  0  0  0  0  0  0  0  0  0  0  0
   18.6886   10.2040    8.7130 C   0  0  2  0  0  0  0  0  0  0  0  0
   17.4965   10.6598    7.9368 N   0  0  0  0  0  0  0  0  0  0  0  0
   24.1672    5.5526    7.2233 C   0  0  2  0  0  0  0  0  0  0  0  0
   24.5803    4.9246    8.4853 O   0  0  0  0  0  0  0  0  0  0  0  0
   18.5565    8.9412    3.4041 C   0  0  2  0  0  0  0  0  0  0  0  0
   17.2874    9.0392    2.8423 O   0  0  0  0  0  0  0  0  0  0  0  0
   19.5430    9.2749    7.8041 C   0  0  2  0  0  0  0  0  0  0  0  0
   24.6282    7.0040    7.1601 C   0  0  2  0  0  0  0  0  0  0  0  0
   23.6512    7.6281    7.9887 O   0  0  0  0  0  0  0  0  0  0  0  0
   18.5008    8.1071    4.7152 C   0  0  2  0  0  0  0  0  0  0  0  0
   19.8203    8.0260    5.2958 O   0  0  0  0  0  0  0  0  0  0  0  0
   20.8044    8.7305    8.5033 C   0  0  2  0  0  0  0  0  0  0  0  0
   21.3320    7.6983    7.5978 O   0  0  0  0  0  0  0  0  0  0  0  0
   24.6218    7.6367    5.7272 C   0  0  0  0  0  0  0  0  0  0  0  0
   25.4683    6.8892    4.8586 N   0  0  0  0  0  0  0  0  0  0  0  0
   17.9858    6.7050    4.4869 C   0  0  0  0  0  0  0  0  0  0  0  0
   16.6164    6.6901    4.3067 O   0  0  0  0  0  0  0  0  0  0  0  0
   20.4231    8.0935    9.9120 C   0  0  1  0  0  0  0  0  0  0  0  0
   21.5948    7.7783   10.6794 O   0  0  0  0  0  0  0  0  0  0  0  0
  1  2  1  1  0  0  0
  1  6  1  0  0  0  0
  1 23  1  0  0  0  0
  3  4  1  1  0  0  0
  3  8  1  0  0  0  0
  3 30  1  0  0  0  0
  5  9  1  0  0  0  0
  5 21  1  0  0  0  0
  5 25  1  6  0  0  0
  6  7  1  1  0  0  0
  6 11  1  0  0  0  0
  8 13  1  0  0  0  0
  9 10  1  1  0  0  0
  9 15  1  0  0  0  0
 11 12  1  6  0  0  0
 11 17  1  0  0  0  0
 13 14  1  6  0  0  0
 13 19  1  0  0  0  0
 15 16  1  1  0  0  0
 15 20  1  0  0  0  0
 17 18  1  1  0  0  0
 17 22  1  0  0  0  0
 19  2  1  6  0  0  0
 19 24  1  0  0  0  0
 20 21  1  0  0  0  0
 20 26  1  6  0  0  0
 22 23  1  0  0  0  0
 22 28  1  6  0  0  0
 24 25  1  6  0  0  0
 24 30  1  0  0  0  0
 26 27  1  0  0  0  0
 28 29  1  0  0  0  0
 30 31  1  1  0  0  0
M  END
>  <CHROM.1>
165.48756272,166.43765460,-170.44014428,-58.95276800,-75.89412503,-172.79730244
20.64203667,8.22859915,6.76702468,-2.48294219,-0.51271379,1.62835997

>  <Name>
2o3x_lig

>  <RI>
0

>  <Rbt.Current_Directory>
/home/itssahil/PROJECTS/Mol_Feturizer/New_Systems/rnas/2o3x

>  <Rbt.Executable>
rbdock ($Id: //depot/dev/client3/rdock/2013.1/src/exe/rbdock.cxx#4 $)

>  <Rbt.Library>
libRbt.so (2013.1, Build901 2013/11/27)

>  <Rbt.Parameter_File>
/export/apps/rDock/src/rDock_2013.1_src/data/scripts/dock_solv.prm

>  <Rbt.Receptor>
prm/pocket_docking_3.prm

>  <SCORE>
-12.9229

>  <SCORE.INTER>
-10.4386

>  <SCORE.INTER.CONST>
1

>  <SCORE.INTER.POLAR>
-1.04881

>  <SCORE.INTER.ROT>
6

>  <SCORE.INTER.SOLV>
18.8394

>  <SCORE.INTER.VDW>
-17.3429

>  <SCORE.INTER.norm>
-0.33673

>  <SCORE.INTRA>
-2.48421

>  <SCORE.INTRA.DIHEDRAL>
-5.79228

>  <SCORE.INTRA.DIHEDRAL.0>
9.37739

>  <SCORE.INTRA.POLAR>
0

>  <SCORE.INTRA.POLAR.0>
0

>  <SCORE.INTRA.REPUL>
0

>  <SCORE.INTRA.REPUL.0>
0

>  <SCORE.INTRA.SOLV>
-2.47756

>  <SCORE.INTRA.SOLV.lig_0>
-82.9274

>  <SCORE.INTRA.VDW>
1.65071

>  <SCORE.INTRA.VDW.0>
-3.84922

>  <SCORE.INTRA.norm>
-0.0801359

>  <SCORE.RESTR>
0

>  <SCORE.RESTR.CAVITY>
0

>  <SCORE.RESTR.norm>
0

>  <SCORE.SYSTEM>
0

>  <SCORE.SYSTEM.CONST>
0

>  <SCORE.SYSTEM.DIHEDRAL>
0

>  <SCORE.SYSTEM.SOLV>
0

>  <SCORE.SYSTEM.norm>
0

>  <SCORE.heavy>
31

>  <SCORE.norm>
-0.416866

>  <RMSD>
5.360

$$$$
2o3x_lig
 OpenBabel11021811463D
libRbt.so/2013.1/901 2013/11/27
 31 33  0  0  0  0  0  0  0  0999 V2000
   20.4842    9.2258    5.5903 C   0  0  2  0  0  0  0  0  0  0  0  0
   19.8870    9.9700    6.6604 O   0  0  0  0  0  0  0  0  0  0  0  0
   19.6285    9.0466   10.8291 C   0  0  2  0  0  0  0  0  0  0  0  0
   19.3491    8.3816   12.1210 N   0  0  0  0  0  0  0  0  0  0  0  0
   22.3600    6.7842    8.0407 C   0  0  1  0  0  0  0  0  0  0  0  0
   20.4915   10.1218    4.3114 C   0  0  2  0  0  0  0  0  0  0  0  0
   21.0144   11.4845    4.5860 N   0  0  0  0  0  0  0  0  0  0  0  0
   18.3165    9.4867   10.0981 C   0  0  0  0  0  0  0  0  0  0  0  0
   22.5818    5.5575    7.0962 C   0  0  2  0  0  0  0  0  0  0  0  0
   21.8380    4.3534    7.4298 O   0  0  0  0  0  0  0  0  0  0  0  0
   19.0805   10.2651    3.7103 C   0  0  1  0  0  0  0  0  0  0  0  0
   19.1193   11.0322    2.5337 O   0  0  0  0  0  0  0  0  0  0  0  0
   18.7177   10.2061    8.7587 C   0  0  2  0  0  0  0  0  0  0  0  0
   17.5160   10.6763    8.0063 N   0  0  0  0  0  0  0  0  0  0  0  0
   24.0940    5.4633    7.2106 C   0  0  2  0  0  0  0  0  0  0  0  0
   24.4894    4.7969    8.4585 O   0  0  0  0  0  0  0  0  0  0  0  0
   18.5005    8.8889    3.4303 C   0  0  2  0  0  0  0  0  0  0  0  0
   17.2352    9.0162    2.8660 O   0  0  0  0  0  0  0  0  0  0  0  0
   19.5268    9.2431    7.8437 C   0  0  2  0  0  0  0  0  0  0  0  0
   24.5682    6.9118    7.1921 C   0  0  2  0  0  0  0  0  0  0  0  0
   23.5886    7.5213    8.0284 O   0  0  0  0  0  0  0  0  0  0  0  0
   18.4208    8.0689    4.7490 C   0  0  2  0  0  0  0  0  0  0  0  0
   19.7370    7.9574    5.3321 O   0  0  0  0  0  0  0  0  0  0  0  0
   20.7937    8.6816    8.5190 C   0  0  2  0  0  0  0  0  0  0  0  0
   21.2740    7.6230    7.6176 O   0  0  0  0  0  0  0  0  0  0  0  0
   24.5813    7.5839    5.7774 C   0  0  0  0  0  0  0  0  0  0  0  0
   25.4330    6.8556    4.8976 N   0  0  0  0  0  0  0  0  0  0  0  0
   17.8680    6.6793    4.5332 C   0  0  0  0  0  0  0  0  0  0  0  0
   16.5006    6.7012    4.3390 O   0  0  0  0  0  0  0  0  0  0  0  0
   20.4356    8.0765    9.9477 C   0  0  1  0  0  0  0  0  0  0  0  0
   21.6198    7.7472   10.6896 O   0  0  0  0  0  0  0  0  0  0  0  0
  1  2  1  1  0  0  0
  1  6  1  0  0  0  0
  1 23  1  0  0  0  0
  3  4  1  1  0  0  0
  3  8  1  0  0  0  0
  3 30  1  0  0  0  0
  5  9  1  0  0  0  0
  5 21  1  0  0  0  0
  5 25  1  6  0  0  0
  6  7  1  1  0  0  0
  6 11  1  0  0  0  0
  8 13  1  0  0  0  0
  9 10  1  1  0  0  0
  9 15  1  0  0  0  0
 11 12  1  6  0  0  0
 11 17  1  0  0  0  0
 13 14  1  6  0  0  0
 13 19  1  0  0  0  0
 15 16  1  1  0  0  0
 15 20  1  0  0  0  0
 17 18  1  1  0  0  0
 17 22  1  0  0  0  0
 19  2  1  6  0  0  0
 19 24  1  0  0  0  0
 20 21  1  0  0  0  0
 20 26  1  6  0  0  0
 22 23  1  0  0  0  0
 22 28  1  6  0  0  0
 24 25  1  6  0  0  0
 24 30  1  0  0  0  0
 26 27  1  0  0  0  0
 28 29  1  0  0  0  0
 30 31  1  1  0  0  0
M  END
>  <CHROM.1>
167.25526588,169.65363777,-171.73375893,-59.13282338,-75.33864305,-172.51698123
20.60820331,8.17876353,6.78998109,-2.49091558,-0.52742710,1.60313359

>  <Name>
2o3x_lig

>  <RI>
0

>  <Rbt.Current_Directory>
/home/itssahil/PROJECTS/Mol_Feturizer/New_Systems/rnas/2o3x

>  <Rbt.Executable>
rbdock ($Id: //depot/dev/client3/rdock/2013.1/src/exe/rbdock.cxx#4 $)

>  <Rbt.Library>
libRbt.so (2013.1, Build901 2013/11/27)

>  <Rbt.Parameter_File>
/export/apps/rDock/src/rDock_2013.1_src/data/scripts/dock_solv.prm

>  <Rbt.Receptor>
prm/pocket_docking_5.prm

>  <SCORE>
-13.1106

>  <SCORE.INTER>
-10.3202

>  <SCORE.INTER.CONST>
1

>  <SCORE.INTER.POLAR>
-0.999025

>  <SCORE.INTER.ROT>
6

>  <SCORE.INTER.SOLV>
18.0543

>  <SCORE.INTER.VDW>
-17.1682

>  <SCORE.INTER.norm>
-0.332911

>  <SCORE.INTRA>
-2.79033

>  <SCORE.INTRA.DIHEDRAL>
-6.50867

>  <SCORE.INTRA.DIHEDRAL.0>
9.37739

>  <SCORE.INTRA.POLAR>
0

>  <SCORE.INTRA.POLAR.0>
0

>  <SCORE.INTRA.REPUL>
0

>  <SCORE.INTRA.REPUL.0>
0

>  <SCORE.INTRA.SOLV>
-2.52434

>  <SCORE.INTRA.SOLV.lig_0>
-82.9274

>  <SCORE.INTRA.VDW>
1.72617

>  <SCORE.INTRA.VDW.0>
-3.84922

>  <SCORE.INTRA.norm>
-0.0900107

>  <SCORE.RESTR>
0

>  <SCORE.RESTR.CAVITY>
0

>  <SCORE.RESTR.norm>
0

>  <SCORE.SYSTEM>
0

>  <SCORE.SYSTEM.CONST>
0

>  <SCORE.SYSTEM.DIHEDRAL>
0

>  <SCORE.SYSTEM.SOLV>
0

>  <SCORE.SYSTEM.norm>
0

>  <SCORE.heavy>
31

>  <SCORE.norm>
-0.422922

>  <RMSD>
5.360

$$$$
2o3x_lig
 OpenBabel11021811463D
libRbt.so/2013.1/901 2013/11/27
 31 33  0  0  0  0  0  0  0  0999 V2000
   19.7977    9.0581   10.3020 C   0  0  2  0  0  0  0  0  0  0  0  0
   19.8486    7.7103   10.7881 O   0  0  0  0  0  0  0  0  0  0  0  0
   23.7441    8.0534   12.5217 C   0  0  2  0  0  0  0  0  0  0  0  0
   25.0361    7.7578   13.1797 N   0  0  0  0  0  0  0  0  0  0  0  0
   22.1528    4.9102    9.9881 C   0  0  1  0  0  0  0  0  0  0  0  0
   18.3160    9.3968    9.9439 C   0  0  2  0  0  0  0  0  0  0  0  0
   17.3766    9.0138   11.0287 N   0  0  0  0  0  0  0  0  0  0  0  0
   22.5312    7.8531   13.4902 C   0  0  0  0  0  0  0  0  0  0  0  0
   20.8785    4.3890   10.7303 C   0  0  2  0  0  0  0  0  0  0  0  0
   20.8442    4.6063   12.1676 O   0  0  0  0  0  0  0  0  0  0  0  0
   17.8672    8.6869    8.6525 C   0  0  1  0  0  0  0  0  0  0  0  0
   16.5494    9.0459    8.3227 O   0  0  0  0  0  0  0  0  0  0  0  0
   21.2149    8.2189   12.7118 C   0  0  2  0  0  0  0  0  0  0  0  0
   20.0060    8.0714   13.5767 N   0  0  0  0  0  0  0  0  0  0  0  0
   20.9358    2.9409   10.2735 C   0  0  2  0  0  0  0  0  0  0  0  0
   21.9179    2.1783   11.0557 O   0  0  0  0  0  0  0  0  0  0  0  0
   18.8152    9.0389    7.5184 C   0  0  2  0  0  0  0  0  0  0  0  0
   18.3987    8.4172    6.3455 O   0  0  0  0  0  0  0  0  0  0  0  0
   21.0452    7.3024   11.4666 C   0  0  2  0  0  0  0  0  0  0  0  0
   21.3484    3.0198    8.8084 C   0  0  2  0  0  0  0  0  0  0  0  0
   22.3447    4.0367    8.8687 O   0  0  0  0  0  0  0  0  0  0  0  0
   20.2608    8.5938    7.8784 C   0  0  2  0  0  0  0  0  0  0  0  0
   20.6750    9.2337    9.1047 O   0  0  0  0  0  0  0  0  0  0  0  0
   22.2427    7.3626   10.4978 C   0  0  2  0  0  0  0  0  0  0  0  0
   22.0195    6.2681    9.5406 O   0  0  0  0  0  0  0  0  0  0  0  0
   20.2027    3.4276    7.8212 C   0  0  0  0  0  0  0  0  0  0  0  0
   19.1389    2.4823    7.8890 N   0  0  0  0  0  0  0  0  0  0  0  0
   21.2573    8.9344    6.7947 C   0  0  0  0  0  0  0  0  0  0  0  0
   22.4863    8.3507    7.0333 O   0  0  0  0  0  0  0  0  0  0  0  0
   23.6057    7.1400   11.2905 C   0  0  1  0  0  0  0  0  0  0  0  0
   24.7454    7.4072   10.4594 O   0  0  0  0  0  0  0  0  0  0  0  0
  1  2  1  6  0  0  0
  1  6  1  0  0  0  0
  1 23  1  0  0  0  0
  3  4  1  1  0  0  0
  3  8  1  0  0  0  0
  3 30  1  0  0  0  0
  5  9  1  0  0  0  0
  5 21  1  0  0  0  0
  5 25  1  6  0  0  0
  6  7  1  1  0  0  0
  6 11  1  0  0  0  0
  8 13  1  0  0  0  0
  9 10  1  1  0  0  0
  9 15  1  0  0  0  0
 11 12  1  6  0  0  0
 11 17  1  0  0  0  0
 13 14  1  1  0  0  0
 13 19  1  0  0  0  0
 15 16  1  1  0  0  0
 15 20  1  0  0  0  0
 17 18  1  6  0  0  0
 17 22  1  0  0  0  0
 19  2  1  6  0  0  0
 19 24  1  0  0  0  0
 20 21  1  0  0  0  0
 20 26  1  6  0  0  0
 22 23  1  0  0  0  0
 22 28  1  6  0  0  0
 24 25  1  6  0  0  0
 24 30  1  0  0  0  0
 26 27  1  0  0  0  0
 28 29  1  0  0  0  0
 30 31  1  6  0  0  0
M  END
>  <CHROM.1>
-165.54587544,81.01467350,60.55157066,-59.92190847,-170.53719605,-70.00573591
20.89522150,6.85709073,9.96713724,-2.68269126,0.78900949,-2.80205750

>  <Name>
2o3x_lig

>  <RI>
0

>  <Rbt.Current_Directory>
/home/itssahil/PROJECTS/Mol_Feturizer/New_Systems/rnas/2o3x

>  <Rbt.Executable>
rbdock ($Id: //depot/dev/client3/rdock/2013.1/src/exe/rbdock.cxx#4 $)

>  <Rbt.Library>
libRbt.so (2013.1, Build901 2013/11/27)

>  <Rbt.Parameter_File>
/export/apps/rDock/src/rDock_2013.1_src/data/scripts/dock_solv.prm

>  <Rbt.Receptor>
prm/pocket_docking_8.prm

>  <SCORE>
-10.1692

>  <SCORE.INTER>
-8.98735

>  <SCORE.INTER.CONST>
1

>  <SCORE.INTER.POLAR>
-0.520785

>  <SCORE.INTER.ROT>
6

>  <SCORE.INTER.SOLV>
15.9003

>  <SCORE.INTER.VDW>
-17.1557

>  <SCORE.INTER.norm>
-0.289915

>  <SCORE.INTRA>
-1.18189

>  <SCORE.INTRA.DIHEDRAL>
-5.44273

>  <SCORE.INTRA.DIHEDRAL.0>
9.37739

>  <SCORE.INTRA.POLAR>
0

>  <SCORE.INTRA.POLAR.0>
0

>  <SCORE.INTRA.REPUL>
0

>  <SCORE.INTRA.REPUL.0>
0

>  <SCORE.INTRA.SOLV>
-0.0216338

>  <SCORE.INTRA.SOLV.lig_0>
-82.9274

>  <SCORE.INTRA.VDW>
1.5503

>  <SCORE.INTRA.VDW.0>
-3.84922

>  <SCORE.INTRA.norm>
-0.0381254

>  <SCORE.RESTR>
0

>  <SCORE.RESTR.CAVITY>
0

>  <SCORE.RESTR.norm>
0

>  <SCORE.SYSTEM>
0

>  <SCORE.SYSTEM.CONST>
0

>  <SCORE.SYSTEM.DIHEDRAL>
0

>  <SCORE.SYSTEM.SOLV>
0

>  <SCORE.SYSTEM.norm>
0

>  <SCORE.heavy>
31

>  <SCORE.norm>
-0.32804

>  <RMSD>
5.372

$$$$
2o3x_lig
 OpenBabel11021811463D
libRbt.so/2013.1/901 2013/11/27
 31 33  0  0  0  0  0  0  0  0999 V2000
   21.9392    8.6978    8.1084 C   0  0  2  0  0  0  0  0  0  0  0  0
   21.1578    7.6213    8.6433 O   0  0  0  0  0  0  0  0  0  0  0  0
   22.3338    8.1609   12.7206 C   0  0  2  0  0  0  0  0  0  0  0  0
   22.6102    7.9471   14.1584 N   0  0  0  0  0  0  0  0  0  0  0  0
   22.9518    4.7012   10.2059 C   0  0  1  0  0  0  0  0  0  0  0  0
   21.2847    9.1635    6.7694 C   0  0  2  0  0  0  0  0  0  0  0  0
   19.8200    9.3689    6.9044 N   0  0  0  0  0  0  0  0  0  0  0  0
   20.8017    8.1216   12.4038 C   0  0  0  0  0  0  0  0  0  0  0  0
   21.4280    4.3819   10.0566 C   0  0  2  0  0  0  0  0  0  0  0  0
   20.5754    4.8154   11.1519 O   0  0  0  0  0  0  0  0  0  0  0  0
   21.5206    8.1454    5.6377 C   0  0  1  0  0  0  0  0  0  0  0  0
   20.9675    8.6086    4.4319 O   0  0  0  0  0  0  0  0  0  0  0  0
   20.6107    8.3876   10.8659 C   0  0  2  0  0  0  0  0  0  0  0  0
   19.1668    8.3853   10.4830 N   0  0  0  0  0  0  0  0  0  0  0  0
   21.5380    2.8809    9.8477 C   0  0  2  0  0  0  0  0  0  0  0  0
   21.7386    2.1828   11.1244 O   0  0  0  0  0  0  0  0  0  0  0  0
   23.0104    7.8926    5.4782 C   0  0  2  0  0  0  0  0  0  0  0  0
   23.2273    6.9907    4.4412 O   0  0  0  0  0  0  0  0  0  0  0  0
   21.3444    7.3009   10.0293 C   0  0  2  0  0  0  0  0  0  0  0  0
   22.7484    2.7108    8.9372 C   0  0  2  0  0  0  0  0  0  0  0  0
   23.6454    3.6582    9.5101 O   0  0  0  0  0  0  0  0  0  0  0  0
   23.5989    7.3368    6.8057 C   0  0  2  0  0  0  0  0  0  0  0  0
   23.3537    8.2744    7.8760 O   0  0  0  0  0  0  0  0  0  0  0  0
   22.8499    7.2017   10.3454 C   0  0  2  0  0  0  0  0  0  0  0  0
   23.3077    5.9819    9.6625 O   0  0  0  0  0  0  0  0  0  0  0  0
   22.4899    3.0387    7.4276 C   0  0  0  0  0  0  0  0  0  0  0  0
   22.1907    4.4230    7.2718 N   0  0  0  0  0  0  0  0  0  0  0  0
   25.0857    7.0820    6.7170 C   0  0  0  0  0  0  0  0  0  0  0  0
   25.5247    6.2739    7.7476 O   0  0  0  0  0  0  0  0  0  0  0  0
   23.0770    7.0788   11.9168 C   0  0  1  0  0  0  0  0  0  0  0  0
   24.4659    7.2054   12.2574 O   0  0  0  0  0  0  0  0  0  0  0  0
  1  2  1  6  0  0  0
  1  6  1  0  0  0  0
  1 23  1  0  0  0  0
  3  4  1  1  0  0  0
  3  8  1  0  0  0  0
  3 30  1  0  0  0  0
  5  9  1  0  0  0  0
  5 21  1  0  0  0  0
  5 25  1  6  0  0  0
  6  7  1  1  0  0  0
  6 11  1  0  0  0  0
  8 13  1  0  0  0  0
  9 10  1  1  0  0  0
  9 15  1  0  0  0  0
 11 12  1  6  0  0  0
 11 17  1  0  0  0  0
 13 14  1  1  0  0  0
 13 19  1  0  0  0  0
 15 16  1  1  0  0  0
 15 20  1  0  0  0  0
 17 18  1  6  0  0  0
 17 22  1  0  0  0  0
 19  2  1  6  0  0  0
 19 24  1  0  0  0  0
 20 21  1  0  0  0  0
 20 26  1  6  0  0  0
 22 23  1  0  0  0  0
 22 28  1  6  0  0  0
 24 25  1  6  0  0  0
 24 30  1  0  0  0  0
 26 27  1  0  0  0  0
 28 29  1  0  0  0  0
 30 31  1  6  0  0  0
M  END
>  <CHROM.1>
-162.59606753,69.79517087,76.00956307,65.40384919,-163.97144748,-73.83953022
22.29719701,6.55794037,9.01163907,1.47726846,1.26721816,-1.12227785

>  <Name>
2o3x_lig

>  <RI>
224

>  <Rbt.Current_Directory>
/home/itssahil/PROJECTS/Mol_Feturizer/New_Systems/rnas/2o3x

>  <Rbt.Executable>
rbdock ($Id: //depot/dev/client3/rdock/2013.1/src/exe/rbdock.cxx#4 $)

>  <Rbt.Library>
libRbt.so (2013.1, Build901 2013/11/27)

>  <Rbt.Parameter_File>
/export/apps/rDock/src/rDock_2013.1_src/data/scripts/dock_solv.prm

>  <Rbt.Receptor>
prm/blind_docking_100.prm

>  <SCORE>
3.36039

>  <SCORE.INTER>
-2.46844

>  <SCORE.INTER.CONST>
1

>  <SCORE.INTER.POLAR>
-0.155983

>  <SCORE.INTER.ROT>
6

>  <SCORE.INTER.SOLV>
13.5677

>  <SCORE.INTER.VDW>
-13.2483

>  <SCORE.INTER.norm>
-0.0796271

>  <SCORE.INTRA>
2.13223

>  <SCORE.INTRA.DIHEDRAL>
-4.28687

>  <SCORE.INTRA.DIHEDRAL.0>
9.37739

>  <SCORE.INTRA.POLAR>
0

>  <SCORE.INTRA.POLAR.0>
0

>  <SCORE.INTRA.REPUL>
0.00182458

>  <SCORE.INTRA.REPUL.0>
0

>  <SCORE.INTRA.SOLV>
6.33347

>  <SCORE.INTRA.SOLV.lig_0>
-82.9274

>  <SCORE.INTRA.VDW>
1.09981

>  <SCORE.INTRA.VDW.0>
-3.84922

>  <SCORE.INTRA.norm>
0.0687816

>  <SCORE.RESTR>
3.6966

>  <SCORE.RESTR.CAVITY>
3.6966

>  <SCORE.RESTR.norm>
0.119245

>  <SCORE.SYSTEM>
0

>  <SCORE.SYSTEM.CONST>
0

>  <SCORE.SYSTEM.DIHEDRAL>
0

>  <SCORE.SYSTEM.SOLV>
0

>  <SCORE.SYSTEM.norm>
0

>  <SCORE.heavy>
31

>  <SCORE.norm>
0.1084

>  <RMSD>
5.377

$$$$
2o3x_lig
 OpenBabel11021811463D
libRbt.so/2013.1/901 2013/11/27
 31 33  0  0  0  0  0  0  0  0999 V2000
   20.9186    8.7574    5.2013 C   0  0  2  0  0  0  0  0  0  0  0  0
   20.4084    9.1207    6.4910 O   0  0  0  0  0  0  0  0  0  0  0  0
   21.1149    7.5907   10.4226 C   0  0  2  0  0  0  0  0  0  0  0  0
   21.2994    6.6935   11.5847 N   0  0  0  0  0  0  0  0  0  0  0  0
   24.1162    7.1435    7.0400 C   0  0  1  0  0  0  0  0  0  0  0  0
   20.6751    9.9488    4.2218 C   0  0  2  0  0  0  0  0  0  0  0  0
   21.1091   11.2462    4.8000 N   0  0  0  0  0  0  0  0  0  0  0  0
   19.6467    7.5585    9.8817 C   0  0  0  0  0  0  0  0  0  0  0  0
   24.3987    5.6311    7.3212 C   0  0  2  0  0  0  0  0  0  0  0  0
   24.4163    5.2352    8.7202 O   0  0  0  0  0  0  0  0  0  0  0  0
   19.1888   10.0725    3.8363 C   0  0  1  0  0  0  0  0  0  0  0  0
   19.0015   11.1177    2.9161 O   0  0  0  0  0  0  0  0  0  0  0  0
   19.5454    8.5609    8.6745 C   0  0  2  0  0  0  0  0  0  0  0  0
   18.1629    8.6038    8.1104 N   0  0  0  0  0  0  0  0  0  0  0  0
   25.7172    5.5121    6.5753 C   0  0  2  0  0  0  0  0  0  0  0  0
   26.8268    6.0488    7.3742 O   0  0  0  0  0  0  0  0  0  0  0  0
   18.6989    8.7568    3.2553 C   0  0  2  0  0  0  0  0  0  0  0  0
   17.3628    8.8730    2.8851 O   0  0  0  0  0  0  0  0  0  0  0  0
   20.5280    8.1503    7.5410 C   0  0  2  0  0  0  0  0  0  0  0  0
   25.5124    6.3318    5.3067 C   0  0  2  0  0  0  0  0  0  0  0  0
   24.8156    7.4593    5.8300 O   0  0  0  0  0  0  0  0  0  0  0  0
   18.8697    7.6191    4.3014 C   0  0  2  0  0  0  0  0  0  0  0  0
   20.2572    7.5191    4.6884 O   0  0  0  0  0  0  0  0  0  0  0  0
   21.9946    8.0625    8.0078 C   0  0  2  0  0  0  0  0  0  0  0  0
   22.7167    7.4300    6.8931 O   0  0  0  0  0  0  0  0  0  0  0  0
   24.6640    5.6264    4.1950 C   0  0  0  0  0  0  0  0  0  0  0  0
   24.2234    6.5825    3.2351 N   0  0  0  0  0  0  0  0  0  0  0  0
   18.4165    6.2771    3.7751 C   0  0  0  0  0  0  0  0  0  0  0  0
   18.5636    5.2837    4.7235 O   0  0  0  0  0  0  0  0  0  0  0  0
   22.1032    7.1680    9.3207 C   0  0  1  0  0  0  0  0  0  0  0  0
   23.4136    7.2467    9.9019 O   0  0  0  0  0  0  0  0  0  0  0  0
  1  2  1  1  0  0  0
  1  6  1  0  0  0  0
  1 23  1  0  0  0  0
  3  4  1  1  0  0  0
  3  8  1  0  0  0  0
  3 30  1  0  0  0  0
  5  9  1  0  0  0  0
  5 21  1  0  0  0  0
  5 25  1  6  0  0  0
  6  7  1  1  0  0  0
  6 11  1  0  0  0  0
  8 13  1  0  0  0  0
  9 10  1  1  0  0  0
  9 15  1  0  0  0  0
 11 12  1  6  0  0  0
 11 17  1  0  0  0  0
 13 14  1  6  0  0  0
 13 19  1  0  0  0  0
 15 16  1  1  0  0  0
 15 20  1  0  0  0  0
 17 18  1  1  0  0  0
 17 22  1  0  0  0  0
 19  2  1  6  0  0  0
 19 24  1  0  0  0  0
 20 21  1  0  0  0  0
 20 26  1  6  0  0  0
 22 23  1  0  0  0  0
 22 28  1  6  0  0  0
 24 25  1  6  0  0  0
 24 30  1  0  0  0  0
 26 27  1  0  0  0  0
 28 29  1  0  0  0  0
 30 31  1  1  0  0  0
M  END
>  <CHROM.1>
179.62028810,102.89056839,-162.64046260,163.94792127,-179.38504889,-177.03984810
21.57670531,7.64209281,6.33702138,-2.53952089,-0.37402535,1.68506892

>  <Name>
2o3x_lig

>  <RI>
0

>  <Rbt.Current_Directory>
/home/itssahil/PROJECTS/Mol_Feturizer/New_Systems/rnas/2o3x

>  <Rbt.Executable>
rbdock ($Id: //depot/dev/client3/rdock/2013.1/src/exe/rbdock.cxx#4 $)

>  <Rbt.Library>
libRbt.so (2013.1, Build901 2013/11/27)

>  <Rbt.Parameter_File>
/export/apps/rDock/src/rDock_2013.1_src/data/scripts/dock_solv.prm

>  <Rbt.Receptor>
prm/pocket_docking_5.prm

>  <SCORE>
-11.0404

>  <SCORE.INTER>
-10.99

>  <SCORE.INTER.CONST>
1

>  <SCORE.INTER.POLAR>
-1.13548

>  <SCORE.INTER.ROT>
6

>  <SCORE.INTER.SOLV>
17.4668

>  <SCORE.INTER.VDW>
-16.964

>  <SCORE.INTER.norm>
-0.354515

>  <SCORE.INTRA>
-0.0504276

>  <SCORE.INTRA.DIHEDRAL>
-1.06968

>  <SCORE.INTRA.DIHEDRAL.0>
9.37739

>  <SCORE.INTRA.POLAR>
0

>  <SCORE.INTRA.POLAR.0>
0

>  <SCORE.INTRA.REPUL>
0

>  <SCORE.INTRA.REPUL.0>
0

>  <SCORE.INTRA.SOLV>
-1.58643

>  <SCORE.INTRA.SOLV.lig_0>
-82.9274

>  <SCORE.INTRA.VDW>
1.27762

>  <SCORE.INTRA.VDW.0>
-3.84922

>  <SCORE.INTRA.norm>
-0.0016267

>  <SCORE.RESTR>
0

>  <SCORE.RESTR.CAVITY>
0

>  <SCORE.RESTR.norm>
0

>  <SCORE.SYSTEM>
0

>  <SCORE.SYSTEM.CONST>
0

>  <SCORE.SYSTEM.DIHEDRAL>
0

>  <SCORE.SYSTEM.SOLV>
0

>  <SCORE.SYSTEM.norm>
0

>  <SCORE.heavy>
31

>  <SCORE.norm>
-0.356142

>  <RMSD>
5.383

$$$$
2o3x_lig
 OpenBabel11021811463D
libRbt.so/2013.1/901 2013/11/27
 31 33  0  0  0  0  0  0  0  0999 V2000
   22.8059    5.6154    7.4572 C   0  0  2  0  0  0  0  0  0  0  0  0
   22.7305    6.9660    7.9324 O   0  0  0  0  0  0  0  0  0  0  0  0
   20.4020    6.0430   11.4000 C   0  0  2  0  0  0  0  0  0  0  0  0
   19.6142    6.1425   12.6485 N   0  0  0  0  0  0  0  0  0  0  0  0
   18.7032    7.9961    7.5798 C   0  0  1  0  0  0  0  0  0  0  0  0
   23.8111    5.5688    6.2631 C   0  0  2  0  0  0  0  0  0  0  0  0
   25.0840    6.2671    6.5758 N   0  0  0  0  0  0  0  0  0  0  0  0
   21.8982    6.4485   11.6144 C   0  0  0  0  0  0  0  0  0  0  0  0
   17.9518    9.3538    7.7753 C   0  0  2  0  0  0  0  0  0  0  0  0
   17.2231    9.5051    9.0245 O   0  0  0  0  0  0  0  0  0  0  0  0
   23.2160    6.2087    4.9945 C   0  0  1  0  0  0  0  0  0  0  0  0
   24.1172    6.1100    3.9210 O   0  0  0  0  0  0  0  0  0  0  0  0
   22.6539    6.2814   10.2457 C   0  0  2  0  0  0  0  0  0  0  0  0
   24.1005    6.6324   10.3703 N   0  0  0  0  0  0  0  0  0  0  0  0
   17.1113    9.3234    6.5097 C   0  0  2  0  0  0  0  0  0  0  0  0
   15.9411    8.4507    6.6731 O   0  0  0  0  0  0  0  0  0  0  0  0
   21.8996    5.5331    4.6490 C   0  0  2  0  0  0  0  0  0  0  0  0
   21.3715    6.0938    3.4904 O   0  0  0  0  0  0  0  0  0  0  0  0
   22.0176    7.1917    9.1569 C   0  0  2  0  0  0  0  0  0  0  0  0
   18.0520    8.7794    5.4409 C   0  0  2  0  0  0  0  0  0  0  0  0
   18.7103    7.7464    6.1689 O   0  0  0  0  0  0  0  0  0  0  0  0
   20.8975    5.6908    5.8274 C   0  0  2  0  0  0  0  0  0  0  0  0
   21.4635    5.1190    7.0263 O   0  0  0  0  0  0  0  0  0  0  0  0
   20.5141    6.9270    8.9436 C   0  0  2  0  0  0  0  0  0  0  0  0
   20.0470    8.0263    8.0850 O   0  0  0  0  0  0  0  0  0  0  0  0
   19.0910    9.8131    4.8883 C   0  0  0  0  0  0  0  0  0  0  0  0
   20.0273   10.1572    5.9055 N   0  0  0  0  0  0  0  0  0  0  0  0
   19.5711    5.0213    5.5518 C   0  0  0  0  0  0  0  0  0  0  0  0
   18.9627    5.5436    4.4271 O   0  0  0  0  0  0  0  0  0  0  0  0
   19.7470    6.9456   10.3389 C   0  0  1  0  0  0  0  0  0  0  0  0
   18.3934    6.4879   10.1995 O   0  0  0  0  0  0  0  0  0  0  0  0
  1  2  1  6  0  0  0
  1  6  1  0  0  0  0
  1 23  1  0  0  0  0
  3  4  1  1  0  0  0
  3  8  1  0  0  0  0
  3 30  1  0  0  0  0
  5  9  1  0  0  0  0
  5 21  1  0  0  0  0
  5 25  1  6  0  0  0
  6  7  1  1  0  0  0
  6 11  1  0  0  0  0
  8 13  1  0  0  0  0
  9 10  1  1  0  0  0
  9 15  1  0  0  0  0
 11 12  1  6  0  0  0
 11 17  1  0  0  0  0
 13 14  1  1  0  0  0
 13 19  1  0  0  0  0
 15 16  1  1  0  0  0
 15 20  1  0  0  0  0
 17 18  1  6  0  0  0
 17 22  1  0  0  0  0
 19  2  1  6  0  0  0
 19 24  1  0  0  0  0
 20 21  1  0  0  0  0
 20 26  1  1  0  0  0
 22 23  1  0  0  0  0
 22 28  1  6  0  0  0
 24 25  1  6  0  0  0
 24 30  1  0  0  0  0
 26 27  1  0  0  0  0
 28 29  1  0  0  0  0
 30 31  1  6  0  0  0
M  END
>  <CHROM.1>
-170.72909381,132.08781435,55.60041231,67.50513479,-59.54833329,173.45421509
20.55001732,7.03290801,7.41497760,-0.28083419,-0.44721817,1.60219935

>  <Name>
2o3x_lig

>  <RI>
0

>  <Rbt.Current_Directory>
/home/itssahil/PROJECTS/Mol_Feturizer/New_Systems/rnas/2o3x

>  <Rbt.Executable>
rbdock ($Id: //depot/dev/client3/rdock/2013.1/src/exe/rbdock.cxx#4 $)

>  <Rbt.Library>
libRbt.so (2013.1, Build901 2013/11/27)

>  <Rbt.Parameter_File>
/export/apps/rDock/src/rDock_2013.1_src/data/scripts/dock_solv.prm

>  <Rbt.Receptor>
prm/pocket_docking_3.prm

>  <SCORE>
-0.288203

>  <SCORE.INTER>
-1.33965

>  <SCORE.INTER.CONST>
1

>  <SCORE.INTER.POLAR>
-0.869176

>  <SCORE.INTER.ROT>
6

>  <SCORE.INTER.SOLV>
10.3895

>  <SCORE.INTER.VDW>
-9.059

>  <SCORE.INTER.norm>
-0.0432147

>  <SCORE.INTRA>
1.02301

>  <SCORE.INTRA.DIHEDRAL>
-1.81016

>  <SCORE.INTRA.DIHEDRAL.0>
9.37739

>  <SCORE.INTRA.POLAR>
0

>  <SCORE.INTRA.POLAR.0>
0

>  <SCORE.INTRA.REPUL>
0

>  <SCORE.INTRA.REPUL.0>
0

>  <SCORE.INTRA.SOLV>
2.91086

>  <SCORE.INTRA.SOLV.lig_0>
-82.9274

>  <SCORE.INTRA.VDW>
0.472657

>  <SCORE.INTRA.VDW.0>
-3.84922

>  <SCORE.INTRA.norm>
0.0330004

>  <SCORE.RESTR>
0.0284395

>  <SCORE.RESTR.CAVITY>
0.0284395

>  <SCORE.RESTR.norm>
0.000917405

>  <SCORE.SYSTEM>
0

>  <SCORE.SYSTEM.CONST>
0

>  <SCORE.SYSTEM.DIHEDRAL>
0

>  <SCORE.SYSTEM.SOLV>
0

>  <SCORE.SYSTEM.norm>
0

>  <SCORE.heavy>
31

>  <SCORE.norm>
-0.00929686

>  <RMSD>
5.390

$$$$
2o3x_lig
 OpenBabel11021811463D
libRbt.so/2013.1/901 2013/11/27
 31 33  0  0  0  0  0  0  0  0999 V2000
   19.7652    9.4233    9.4787 C   0  0  2  0  0  0  0  0  0  0  0  0
   19.5875    8.0800    9.9471 O   0  0  0  0  0  0  0  0  0  0  0  0
   23.2414    7.9415   12.1669 C   0  0  2  0  0  0  0  0  0  0  0  0
   24.3878    7.4916   12.9872 N   0  0  0  0  0  0  0  0  0  0  0  0
   21.5207    4.9907    9.4688 C   0  0  1  0  0  0  0  0  0  0  0  0
   18.3561   10.0480    9.2280 C   0  0  2  0  0  0  0  0  0  0  0  0
   17.4349    9.8276   10.3719 N   0  0  0  0  0  0  0  0  0  0  0  0
   21.8993    7.9245   12.9719 C   0  0  0  0  0  0  0  0  0  0  0  0
   21.1080    3.9965    8.3341 C   0  0  2  0  0  0  0  0  0  0  0  0
   19.6795    3.8391    8.1127 O   0  0  0  0  0  0  0  0  0  0  0  0
   17.6940    9.4670    7.9643 C   0  0  1  0  0  0  0  0  0  0  0  0
   16.4512   10.0795    7.7306 O   0  0  0  0  0  0  0  0  0  0  0  0
   20.7538    8.4446   12.0287 C   0  0  2  0  0  0  0  0  0  0  0  0
   19.4359    8.4772   12.7312 N   0  0  0  0  0  0  0  0  0  0  0  0
   21.8462    2.7684    8.8396 C   0  0  2  0  0  0  0  0  0  0  0  0
   21.1028    2.1140    9.9244 O   0  0  0  0  0  0  0  0  0  0  0  0
   18.6143    9.6564    6.7703 C   0  0  2  0  0  0  0  0  0  0  0  0
   18.0086    9.1530    5.6234 O   0  0  0  0  0  0  0  0  0  0  0  0
   20.6224    7.5320   10.7760 C   0  0  2  0  0  0  0  0  0  0  0  0
   23.1814    3.3061    9.3408 C   0  0  2  0  0  0  0  0  0  0  0  0
   22.7569    4.4967    9.9986 O   0  0  0  0  0  0  0  0  0  0  0  0
   19.9677    8.9343    7.0244 C   0  0  2  0  0  0  0  0  0  0  0  0
   20.5782    9.4547    8.2249 O   0  0  0  0  0  0  0  0  0  0  0  0
   21.9305    7.4122    9.9694 C   0  0  2  0  0  0  0  0  0  0  0  0
   21.6861    6.3366    8.9961 O   0  0  0  0  0  0  0  0  0  0  0  0
   24.2226    3.6372    8.2184 C   0  0  0  0  0  0  0  0  0  0  0  0
   24.7153    2.4331    7.6375 N   0  0  0  0  0  0  0  0  0  0  0  0
   20.9368    9.1020    5.8771 C   0  0  0  0  0  0  0  0  0  0  0  0
   21.1263   10.4337    5.5631 O   0  0  0  0  0  0  0  0  0  0  0  0
   23.1394    7.0281   10.9321 C   0  0  1  0  0  0  0  0  0  0  0  0
   24.4010    7.1241   10.2537 O   0  0  0  0  0  0  0  0  0  0  0  0
  1  2  1  6  0  0  0
  1  6  1  0  0  0  0
  1 23  1  0  0  0  0
  3  4  1  1  0  0  0
  3  8  1  0  0  0  0
  3 30  1  0  0  0  0
  5  9  1  0  0  0  0
  5 21  1  0  0  0  0
  5 25  1  6  0  0  0
  6  7  1  1  0  0  0
  6 11  1  0  0  0  0
  8 13  1  0  0  0  0
  9 10  1  1  0  0  0
  9 15  1  0  0  0  0
 11 12  1  6  0  0  0
 11 17  1  0  0  0  0
 13 14  1  1  0  0  0
 13 19  1  0  0  0  0
 15 16  1  1  0  0  0
 15 20  1  0  0  0  0
 17 18  1  6  0  0  0
 17 22  1  0  0  0  0
 19  2  1  6  0  0  0
 19 24  1  0  0  0  0
 20 21  1  0  0  0  0
 20 26  1  6  0  0  0
 22 23  1  0  0  0  0
 22 28  1  6  0  0  0
 24 25  1  6  0  0  0
 24 30  1  0  0  0  0
 26 27  1  0  0  0  0
 28 29  1  0  0  0  0
 30 31  1  6  0  0  0
M  END
>  <CHROM.1>
-153.03631387,173.43668137,59.11462018,-71.23944321,53.90956712,-67.34653410
20.95735351,7.12415348,9.23046727,-2.85980361,0.89216709,-2.23252648

>  <Name>
2o3x_lig

>  <RI>
0

>  <Rbt.Current_Directory>
/home/itssahil/PROJECTS/Mol_Feturizer/New_Systems/rnas/2o3x

>  <Rbt.Executable>
rbdock ($Id: //depot/dev/client3/rdock/2013.1/src/exe/rbdock.cxx#4 $)

>  <Rbt.Library>
libRbt.so (2013.1, Build901 2013/11/27)

>  <Rbt.Parameter_File>
/export/apps/rDock/src/rDock_2013.1_src/data/scripts/dock_solv.prm

>  <Rbt.Receptor>
prm/pocket_docking_5.prm

>  <SCORE>
-14.2777

>  <SCORE.INTER>
-13.7103

>  <SCORE.INTER.CONST>
1

>  <SCORE.INTER.POLAR>
-1.32992

>  <SCORE.INTER.ROT>
6

>  <SCORE.INTER.SOLV>
16.6882

>  <SCORE.INTER.VDW>
-17.8699

>  <SCORE.INTER.norm>
-0.442269

>  <SCORE.INTRA>
-0.567328

>  <SCORE.INTRA.DIHEDRAL>
-5.11319

>  <SCORE.INTRA.DIHEDRAL.0>
9.37739

>  <SCORE.INTRA.POLAR>
0

>  <SCORE.INTRA.POLAR.0>
0

>  <SCORE.INTRA.REPUL>
0

>  <SCORE.INTRA.REPUL.0>
0

>  <SCORE.INTRA.SOLV>
-0.175928

>  <SCORE.INTRA.SOLV.lig_0>
-82.9274

>  <SCORE.INTRA.VDW>
2.07723

>  <SCORE.INTRA.VDW.0>
-3.84922

>  <SCORE.INTRA.norm>
-0.0183009

>  <SCORE.RESTR>
0

>  <SCORE.RESTR.CAVITY>
0

>  <SCORE.RESTR.norm>
0

>  <SCORE.SYSTEM>
0

>  <SCORE.SYSTEM.CONST>
0

>  <SCORE.SYSTEM.DIHEDRAL>
0

>  <SCORE.SYSTEM.SOLV>
0

>  <SCORE.SYSTEM.norm>
0

>  <SCORE.heavy>
31

>  <SCORE.norm>
-0.46057

>  <RMSD>
5.410

$$$$
2o3x_lig
 OpenBabel11021811463D
libRbt.so/2013.1/901 2013/11/27
 31 33  0  0  0  0  0  0  0  0999 V2000
   20.6602    5.5906    4.1853 C   0  0  2  0  0  0  0  0  0  0  0  0
   20.6406    4.7277    5.3300 O   0  0  0  0  0  0  0  0  0  0  0  0
   18.6977    4.9453    9.1348 C   0  0  2  0  0  0  0  0  0  0  0  0
   18.1624    5.4194   10.4302 N   0  0  0  0  0  0  0  0  0  0  0  0
   19.1169    7.7623    5.7073 C   0  0  1  0  0  0  0  0  0  0  0  0
   21.1390    4.7615    2.9517 C   0  0  2  0  0  0  0  0  0  0  0  0
   20.4192    3.4678    2.8337 N   0  0  0  0  0  0  0  0  0  0  0  0
   20.2626    4.9267    9.1162 C   0  0  0  0  0  0  0  0  0  0  0  0
   18.5549    8.8721    4.7593 C   0  0  2  0  0  0  0  0  0  0  0  0
   19.1321    8.9236    3.4257 O   0  0  0  0  0  0  0  0  0  0  0  0
   22.6485    4.4624    3.0196 C   0  0  1  0  0  0  0  0  0  0  0  0
   23.0660    3.7605    1.8762 O   0  0  0  0  0  0  0  0  0  0  0  0
   20.7312    4.3829    7.7173 C   0  0  2  0  0  0  0  0  0  0  0  0
   22.2205    4.3156    7.6247 N   0  0  0  0  0  0  0  0  0  0  0  0
   18.8185   10.0749    5.6496 C   0  0  2  0  0  0  0  0  0  0  0  0
   20.2276   10.4842    5.5819 O   0  0  0  0  0  0  0  0  0  0  0  0
   23.4228    5.7623    3.1591 C   0  0  2  0  0  0  0  0  0  0  0  0
   24.7879    5.4964    3.1975 O   0  0  0  0  0  0  0  0  0  0  0  0
   20.2068    5.2971    6.5734 C   0  0  2  0  0  0  0  0  0  0  0  0
   18.4561    9.5980    7.0512 C   0  0  2  0  0  0  0  0  0  0  0  0
   19.0137    8.2868    7.0367 O   0  0  0  0  0  0  0  0  0  0  0  0
   22.9833    6.5049    4.4526 C   0  0  2  0  0  0  0  0  0  0  0  0
   21.5630    6.7610    4.4071 O   0  0  0  0  0  0  0  0  0  0  0  0
   18.6731    5.4518    6.5714 C   0  0  2  0  0  0  0  0  0  0  0  0
   18.3951    6.5251    5.6047 O   0  0  0  0  0  0  0  0  0  0  0  0
   16.9200    9.5411    7.3522 C   0  0  0  0  0  0  0  0  0  0  0  0
   16.7019    9.2556    8.7309 N   0  0  0  0  0  0  0  0  0  0  0  0
   23.7060    7.8188    4.6388 C   0  0  0  0  0  0  0  0  0  0  0  0
   23.4955    8.6698    3.5713 O   0  0  0  0  0  0  0  0  0  0  0  0
   18.1577    5.8610    8.0215 C   0  0  1  0  0  0  0  0  0  0  0  0
   16.7260    5.7983    8.1063 O   0  0  0  0  0  0  0  0  0  0  0  0
  1  2  1  1  0  0  0
  1  6  1  0  0  0  0
  1 23  1  0  0  0  0
  3  4  1  1  0  0  0
  3  8  1  0  0  0  0
  3 30  1  0  0  0  0
  5  9  1  0  0  0  0
  5 21  1  0  0  0  0
  5 25  1  1  0  0  0
  6  7  1  1  0  0  0
  6 11  1  0  0  0  0
  8 13  1  0  0  0  0
  9 10  1  6  0  0  0
  9 15  1  0  0  0  0
 11 12  1  6  0  0  0
 11 17  1  0  0  0  0
 13 14  1  1  0  0  0
 13 19  1  0  0  0  0
 15 16  1  1  0  0  0
 15 20  1  0  0  0  0
 17 18  1  1  0  0  0
 17 22  1  0  0  0  0
 19  2  1  6  0  0  0
 19 24  1  0  0  0  0
 20 21  1  0  0  0  0
 20 26  1  6  0  0  0
 22 23  1  0  0  0  0
 22 28  1  6  0  0  0
 24 25  1  6  0  0  0
 24 30  1  0  0  0  0
 26 27  1  0  0  0  0
 28 29  1  0  0  0  0
 30 31  1  6  0  0  0
M  END
>  <CHROM.1>
-179.12936918,-170.99980921,-160.30882139,-172.37784775,58.70831040,-50.05050032
20.27197988,6.58773890,5.69754051,-0.01729623,-0.79562771,2.69049541

>  <Name>
2o3x_lig

>  <RI>
3.34184e+07

>  <Rbt.Current_Directory>
/home/itssahil/PROJECTS/Mol_Feturizer/New_Systems/rnas/2o3x

>  <Rbt.Executable>
rbdock ($Id: //depot/dev/client3/rdock/2013.1/src/exe/rbdock.cxx#4 $)

>  <Rbt.Library>
libRbt.so (2013.1, Build901 2013/11/27)

>  <Rbt.Parameter_File>
/export/apps/rDock/src/rDock_2013.1_src/data/scripts/dock_solv.prm

>  <Rbt.Receptor>
prm/pocket_docking_6.prm

>  <SCORE>
-8.92956

>  <SCORE.INTER>
-6.36233

>  <SCORE.INTER.CONST>
1

>  <SCORE.INTER.POLAR>
-0.894427

>  <SCORE.INTER.ROT>
6

>  <SCORE.INTER.SOLV>
4.43835

>  <SCORE.INTER.VDW>
-10.3396

>  <SCORE.INTER.norm>
-0.205237

>  <SCORE.INTRA>
-2.56722

>  <SCORE.INTRA.DIHEDRAL>
-6.40454

>  <SCORE.INTRA.DIHEDRAL.0>
9.37739

>  <SCORE.INTRA.POLAR>
0

>  <SCORE.INTRA.POLAR.0>
0

>  <SCORE.INTRA.REPUL>
0

>  <SCORE.INTRA.REPUL.0>
0

>  <SCORE.INTRA.SOLV>
-0.548164

>  <SCORE.INTRA.SOLV.lig_0>
-82.9274

>  <SCORE.INTRA.VDW>
0.90913

>  <SCORE.INTRA.VDW.0>
-3.84922

>  <SCORE.INTRA.norm>
-0.0828136

>  <SCORE.RESTR>
0

>  <SCORE.RESTR.CAVITY>
0

>  <SCORE.RESTR.norm>
0

>  <SCORE.SYSTEM>
0

>  <SCORE.SYSTEM.CONST>
0

>  <SCORE.SYSTEM.DIHEDRAL>
0

>  <SCORE.SYSTEM.SOLV>
0

>  <SCORE.SYSTEM.norm>
0

>  <SCORE.heavy>
31

>  <SCORE.norm>
-0.28805

>  <RMSD>
5.410

$$$$
2o3x_lig
 OpenBabel11021811463D
libRbt.so/2013.1/901 2013/11/27
 31 33  0  0  0  0  0  0  0  0999 V2000
   19.7113    9.0092    6.1445 C   0  0  2  0  0  0  0  0  0  0  0  0
   18.9982    9.9582    6.9486 O   0  0  0  0  0  0  0  0  0  0  0  0
   18.7741   10.2105   11.2129 C   0  0  2  0  0  0  0  0  0  0  0  0
   18.5266    9.9143   12.6413 N   0  0  0  0  0  0  0  0  0  0  0  0
   21.8526    7.6539    8.8209 C   0  0  1  0  0  0  0  0  0  0  0  0
   20.1544    9.7164    4.8247 C   0  0  2  0  0  0  0  0  0  0  0  0
   20.7973   11.0302    5.0825 N   0  0  0  0  0  0  0  0  0  0  0  0
   17.4428   10.3597   10.4037 C   0  0  0  0  0  0  0  0  0  0  0  0
   22.1295    6.1431    8.5262 C   0  0  2  0  0  0  0  0  0  0  0  0
   21.8566    5.2205    9.6165 O   0  0  0  0  0  0  0  0  0  0  0  0
   18.9627    9.9472    3.8763 C   0  0  1  0  0  0  0  0  0  0  0  0
   19.3925   10.5377    2.6759 O   0  0  0  0  0  0  0  0  0  0  0  0
   17.8091   10.7015    8.9132 C   0  0  2  0  0  0  0  0  0  0  0  0
   16.5864   10.8796    8.0739 N   0  0  0  0  0  0  0  0  0  0  0  0
   23.5832    6.2656    8.1011 C   0  0  2  0  0  0  0  0  0  0  0  0
   24.4674    6.3810    9.2684 O   0  0  0  0  0  0  0  0  0  0  0  0
   18.2642    8.6264    3.6002 C   0  0  2  0  0  0  0  0  0  0  0  0
   17.2013    8.8287    2.7255 O   0  0  0  0  0  0  0  0  0  0  0  0
   18.6738    9.5684    8.2907 C   0  0  2  0  0  0  0  0  0  0  0  0
   23.6273    7.5334    7.2562 C   0  0  2  0  0  0  0  0  0  0  0  0
   22.7864    8.3913    8.0226 O   0  0  0  0  0  0  0  0  0  0  0  0
   17.7536    8.0081    4.9324 C   0  0  2  0  0  0  0  0  0  0  0  0
   18.8633    7.8176    5.8364 O   0  0  0  0  0  0  0  0  0  0  0  0
   19.9670    9.2848    9.0803 C   0  0  2  0  0  0  0  0  0  0  0  0
   20.5086    8.0459    8.5010 O   0  0  0  0  0  0  0  0  0  0  0  0
   23.0735    7.3752    5.7997 C   0  0  0  0  0  0  0  0  0  0  0  0
   23.2524    8.5881    5.0738 N   0  0  0  0  0  0  0  0  0  0  0  0
   17.0641    6.6794    4.7263 C   0  0  0  0  0  0  0  0  0  0  0  0
   16.6148    6.1499    5.9202 O   0  0  0  0  0  0  0  0  0  0  0  0
   19.6370    9.0797   10.6246 C   0  0  1  0  0  0  0  0  0  0  0  0
   20.8345    9.0328   11.4151 O   0  0  0  0  0  0  0  0  0  0  0  0
  1  2  1  1  0  0  0
  1  6  1  0  0  0  0
  1 23  1  0  0  0  0
  3  4  1  1  0  0  0
  3  8  1  0  0  0  0
  3 30  1  0  0  0  0
  5  9  1  0  0  0  0
  5 21  1  0  0  0  0
  5 25  1  6  0  0  0
  6  7  1  1  0  0  0
  6 11  1  0  0  0  0
  8 13  1  0  0  0  0
  9 10  1  1  0  0  0
  9 15  1  0  0  0  0
 11 12  1  6  0  0  0
 11 17  1  0  0  0  0
 13 14  1  6  0  0  0
 13 19  1  0  0  0  0
 15 16  1  1  0  0  0
 15 20  1  0  0  0  0
 17 18  1  6  0  0  0
 17 22  1  0  0  0  0
 19  2  1  6  0  0  0
 19 24  1  0  0  0  0
 20 21  1  0  0  0  0
 20 26  1  6  0  0  0
 22 23  1  0  0  0  0
 22 28  1  6  0  0  0
 24 25  1  6  0  0  0
 24 30  1  0  0  0  0
 26 27  1  0  0  0  0
 28 29  1  0  0  0  0
 30 31  1  1  0  0  0
M  END
>  <CHROM.1>
-171.03587623,161.65566947,-175.37220540,-175.77784724,-179.80619465,167.14104481
19.97825277,8.58216297,7.30631120,-2.15960746,-0.45407538,1.48567020

>  <Name>
2o3x_lig

>  <RI>
3.34184e+07

>  <Rbt.Current_Directory>
/home/itssahil/PROJECTS/Mol_Feturizer/New_Systems/rnas/2o3x

>  <Rbt.Executable>
rbdock ($Id: //depot/dev/client3/rdock/2013.1/src/exe/rbdock.cxx#4 $)

>  <Rbt.Library>
libRbt.so (2013.1, Build901 2013/11/27)

>  <Rbt.Parameter_File>
/export/apps/rDock/src/rDock_2013.1_src/data/scripts/dock_solv.prm

>  <Rbt.Receptor>
prm/pocket_docking_6.prm

>  <SCORE>
-11.0112

>  <SCORE.INTER>
-8.34675

>  <SCORE.INTER.CONST>
1

>  <SCORE.INTER.POLAR>
-1.0063

>  <SCORE.INTER.ROT>
6

>  <SCORE.INTER.SOLV>
20.0937

>  <SCORE.INTER.VDW>
-16.508

>  <SCORE.INTER.norm>
-0.26925

>  <SCORE.INTRA>
-2.6644

>  <SCORE.INTRA.DIHEDRAL>
-6.3292

>  <SCORE.INTRA.DIHEDRAL.0>
9.37739

>  <SCORE.INTRA.POLAR>
0

>  <SCORE.INTRA.POLAR.0>
0

>  <SCORE.INTRA.REPUL>
0

>  <SCORE.INTRA.REPUL.0>
0

>  <SCORE.INTRA.SOLV>
-0.495848

>  <SCORE.INTRA.SOLV.lig_0>
-82.9274

>  <SCORE.INTRA.VDW>
0.748121

>  <SCORE.INTRA.VDW.0>
-3.84922

>  <SCORE.INTRA.norm>
-0.0859484

>  <SCORE.RESTR>
0

>  <SCORE.RESTR.CAVITY>
0

>  <SCORE.RESTR.norm>
0

>  <SCORE.SYSTEM>
0

>  <SCORE.SYSTEM.CONST>
0

>  <SCORE.SYSTEM.DIHEDRAL>
0

>  <SCORE.SYSTEM.SOLV>
0

>  <SCORE.SYSTEM.norm>
0

>  <SCORE.heavy>
31

>  <SCORE.norm>
-0.355198

>  <RMSD>
5.441

$$$$
2o3x_lig
 OpenBabel11021811463D
libRbt.so/2013.1/901 2013/11/27
 31 33  0  0  0  0  0  0  0  0999 V2000
   19.5215    8.9808    6.3784 C   0  0  2  0  0  0  0  0  0  0  0  0
   18.9136   10.0556    7.1069 O   0  0  0  0  0  0  0  0  0  0  0  0
   17.3657   10.7708   11.0300 C   0  0  2  0  0  0  0  0  0  0  0  0
   16.8464   10.5968   12.4046 N   0  0  0  0  0  0  0  0  0  0  0  0
   20.2751    7.8403    9.4535 C   0  0  1  0  0  0  0  0  0  0  0  0
   20.1660    9.5668    5.0824 C   0  0  2  0  0  0  0  0  0  0  0  0
   20.9908   10.7697    5.3624 N   0  0  0  0  0  0  0  0  0  0  0  0
   16.3848   10.1978    9.9535 C   0  0  0  0  0  0  0  0  0  0  0  0
   21.5833    6.9877    9.3662 C   0  0  2  0  0  0  0  0  0  0  0  0
   21.9969    6.5895    8.0303 O   0  0  0  0  0  0  0  0  0  0  0  0
   19.0981    9.9531    4.0416 C   0  0  1  0  0  0  0  0  0  0  0  0
   19.7023   10.4297    2.8660 O   0  0  0  0  0  0  0  0  0  0  0  0
   17.0081   10.4564    8.5333 C   0  0  2  0  0  0  0  0  0  0  0  0
   16.1193    9.9531    7.4433 N   0  0  0  0  0  0  0  0  0  0  0  0
   21.1751    5.8634   10.3034 C   0  0  2  0  0  0  0  0  0  0  0  0
   20.2948    4.9030    9.6249 O   0  0  0  0  0  0  0  0  0  0  0  0
   18.2187    8.7514    3.7394 C   0  0  2  0  0  0  0  0  0  0  0  0
   17.2678    9.0916    2.7825 O   0  0  0  0  0  0  0  0  0  0  0  0
   18.3894    9.7526    8.4076 C   0  0  2  0  0  0  0  0  0  0  0  0
   20.4430    6.5638   11.4421 C   0  0  2  0  0  0  0  0  0  0  0  0
   19.6762    7.5198   10.7151 O   0  0  0  0  0  0  0  0  0  0  0  0
   17.5211    8.2643    5.0408 C   0  0  2  0  0  0  0  0  0  0  0  0
   18.5180    7.9293    6.0303 O   0  0  0  0  0  0  0  0  0  0  0  0
   19.3957   10.1871    9.4916 C   0  0  2  0  0  0  0  0  0  0  0  0
   20.5243    9.2519    9.3671 O   0  0  0  0  0  0  0  0  0  0  0  0
   21.3708    7.2772   12.4830 C   0  0  0  0  0  0  0  0  0  0  0  0
   21.9753    8.4249   11.8939 N   0  0  0  0  0  0  0  0  0  0  0  0
   16.6443    7.0556    4.8091 C   0  0  0  0  0  0  0  0  0  0  0  0
   15.9714    6.6887    5.9582 O   0  0  0  0  0  0  0  0  0  0  0  0
   18.7346   10.0730   10.9358 C   0  0  1  0  0  0  0  0  0  0  0  0
   19.5642   10.6744   11.9413 O   0  0  0  0  0  0  0  0  0  0  0  0
  1  2  1  6  0  0  0
  1  6  1  0  0  0  0
  1 23  1  0  0  0  0
  3  4  1  1  0  0  0
  3  8  1  0  0  0  0
  3 30  1  0  0  0  0
  5  9  1  0  0  0  0
  5 21  1  0  0  0  0
  5 25  1  1  0  0  0
  6  7  1  1  0  0  0
  6 11  1  0  0  0  0
  8 13  1  0  0  0  0
  9 10  1  6  0  0  0
  9 15  1  0  0  0  0
 11 12  1  6  0  0  0
 11 17  1  0  0  0  0
 13 14  1  6  0  0  0
 13 19  1  0  0  0  0
 15 16  1  6  0  0  0
 15 20  1  0  0  0  0
 17 18  1  6  0  0  0
 17 22  1  0  0  0  0
 19  2  1  6  0  0  0
 19 24  1  0  0  0  0
 20 21  1  0  0  0  0
 20 26  1  1  0  0  0
 22 23  1  0  0  0  0
 22 28  1  6  0  0  0
 24 25  1  1  0  0  0
 24 30  1  0  0  0  0
 26 27  1  0  0  0  0
 28 29  1  0  0  0  0
 30 31  1  1  0  0  0
M  END
>  <CHROM.1>
-173.35049913,-177.42170291,-136.86201820,70.29356467,-176.32963129,-55.65837502
19.08887436,8.73217103,8.09992843,-1.93203399,-0.73444887,1.44251440

>  <Name>
2o3x_lig

>  <RI>
0

>  <Rbt.Current_Directory>
/home/itssahil/PROJECTS/Mol_Feturizer/New_Systems/rnas/2o3x

>  <Rbt.Executable>
rbdock ($Id: //depot/dev/client3/rdock/2013.1/src/exe/rbdock.cxx#4 $)

>  <Rbt.Library>
libRbt.so (2013.1, Build901 2013/11/27)

>  <Rbt.Parameter_File>
/export/apps/rDock/src/rDock_2013.1_src/data/scripts/dock_solv.prm

>  <Rbt.Receptor>
prm/pocket_docking_4.prm

>  <SCORE>
-12.8577

>  <SCORE.INTER>
-14.2035

>  <SCORE.INTER.CONST>
1

>  <SCORE.INTER.POLAR>
-1.88913

>  <SCORE.INTER.ROT>
6

>  <SCORE.INTER.SOLV>
16.0289

>  <SCORE.INTER.VDW>
-16.1149

>  <SCORE.INTER.norm>
-0.458178

>  <SCORE.INTRA>
1.34581

>  <SCORE.INTRA.DIHEDRAL>
-2.65322

>  <SCORE.INTRA.DIHEDRAL.0>
9.37739

>  <SCORE.INTRA.POLAR>
0

>  <SCORE.INTRA.POLAR.0>
0

>  <SCORE.INTRA.REPUL>
0

>  <SCORE.INTRA.REPUL.0>
0

>  <SCORE.INTRA.SOLV>
4.35093

>  <SCORE.INTRA.SOLV.lig_0>
-82.9274

>  <SCORE.INTRA.VDW>
0.496956

>  <SCORE.INTRA.VDW.0>
-3.84922

>  <SCORE.INTRA.norm>
0.0434132

>  <SCORE.RESTR>
0

>  <SCORE.RESTR.CAVITY>
0

>  <SCORE.RESTR.norm>
0

>  <SCORE.SYSTEM>
0

>  <SCORE.SYSTEM.CONST>
0

>  <SCORE.SYSTEM.DIHEDRAL>
0

>  <SCORE.SYSTEM.SOLV>
0

>  <SCORE.SYSTEM.norm>
0

>  <SCORE.heavy>
31

>  <SCORE.norm>
-0.414765

>  <RMSD>
5.447

$$$$
2o3x_lig
 OpenBabel11021811463D
libRbt.so/2013.1/901 2013/11/27
 31 33  0  0  0  0  0  0  0  0999 V2000
   19.8346    9.3074    6.0061 C   0  0  2  0  0  0  0  0  0  0  0  0
   18.9586   10.1106    6.8081 O   0  0  0  0  0  0  0  0  0  0  0  0
   18.8360   10.0680   11.0837 C   0  0  2  0  0  0  0  0  0  0  0  0
   18.6142    9.6776   12.4936 N   0  0  0  0  0  0  0  0  0  0  0  0
   21.7617    7.5600    8.5277 C   0  0  1  0  0  0  0  0  0  0  0  0
   20.1548   10.0888    4.6927 C   0  0  2  0  0  0  0  0  0  0  0  0
   20.5526   11.4944    4.9609 N   0  0  0  0  0  0  0  0  0  0  0  0
   17.4906   10.3009   10.3190 C   0  0  0  0  0  0  0  0  0  0  0  0
   22.0238    6.1259    7.9614 C   0  0  2  0  0  0  0  0  0  0  0  0
   21.6347    5.0199    8.8215 O   0  0  0  0  0  0  0  0  0  0  0  0
   18.9481   10.1096    3.7355 C   0  0  1  0  0  0  0  0  0  0  0  0
   19.2751   10.7732    2.5410 O   0  0  0  0  0  0  0  0  0  0  0  0
   17.8308   10.7387    8.8476 C   0  0  2  0  0  0  0  0  0  0  0  0
   16.5938   11.0004    8.0522 N   0  0  0  0  0  0  0  0  0  0  0  0
   23.5113    6.2677    7.6853 C   0  0  2  0  0  0  0  0  0  0  0  0
   24.2948    6.1148    8.9183 O   0  0  0  0  0  0  0  0  0  0  0  0
   18.4970    8.6873    3.4487 C   0  0  2  0  0  0  0  0  0  0  0  0
   17.4215    8.7025    2.5662 O   0  0  0  0  0  0  0  0  0  0  0  0
   18.6559    9.6344    8.1272 C   0  0  2  0  0  0  0  0  0  0  0  0
   23.6604    7.6735    7.1155 C   0  0  2  0  0  0  0  0  0  0  0  0
   22.7793    8.3994    7.9682 O   0  0  0  0  0  0  0  0  0  0  0  0
   18.0944    7.9813    4.7743 C   0  0  2  0  0  0  0  0  0  0  0  0
   19.2137    7.9859    5.6865 O   0  0  0  0  0  0  0  0  0  0  0  0
   19.9599    9.2697    8.8639 C   0  0  2  0  0  0  0  0  0  0  0  0
   20.4607    8.0635    8.1870 O   0  0  0  0  0  0  0  0  0  0  0  0
   23.2297    7.8274    5.6174 C   0  0  0  0  0  0  0  0  0  0  0  0
   24.0437    7.0041    4.7872 N   0  0  0  0  0  0  0  0  0  0  0  0
   17.6531    6.5525    4.5574 C   0  0  0  0  0  0  0  0  0  0  0  0
   17.2855    5.9489    5.7442 O   0  0  0  0  0  0  0  0  0  0  0  0
   19.6602    8.9637   10.3977 C   0  0  1  0  0  0  0  0  0  0  0  0
   20.8739    8.8369   11.1540 O   0  0  0  0  0  0  0  0  0  0  0  0
  1  2  1  1  0  0  0
  1  6  1  0  0  0  0
  1 23  1  0  0  0  0
  3  4  1  1  0  0  0
  3  8  1  0  0  0  0
  3 30  1  0  0  0  0
  5  9  1  0  0  0  0
  5 21  1  0  0  0  0
  5 25  1  6  0  0  0
  6  7  1  1  0  0  0
  6 11  1  0  0  0  0
  8 13  1  0  0  0  0
  9 10  1  1  0  0  0
  9 15  1  0  0  0  0
 11 12  1  6  0  0  0
 11 17  1  0  0  0  0
 13 14  1  6  0  0  0
 13 19  1  0  0  0  0
 15 16  1  1  0  0  0
 15 20  1  0  0  0  0
 17 18  1  6  0  0  0
 17 22  1  0  0  0  0
 19  2  1  6  0  0  0
 19 24  1  0  0  0  0
 20 21  1  0  0  0  0
 20 26  1  6  0  0  0
 22 23  1  0  0  0  0
 22 28  1  6  0  0  0
 24 25  1  6  0  0  0
 24 30  1  0  0  0  0
 26 27  1  0  0  0  0
 28 29  1  0  0  0  0
 30 31  1  1  0  0  0
M  END
>  <CHROM.1>
-173.48272294,167.74247361,173.77406532,-61.69470116,-179.30434920,172.17829780
20.06405667,8.55803891,7.09511775,2.11466942,0.54800927,-1.64690348

>  <Name>
2o3x_lig

>  <RI>
0

>  <Rbt.Current_Directory>
/home/itssahil/PROJECTS/Mol_Feturizer/New_Systems/rnas/2o3x

>  <Rbt.Executable>
rbdock ($Id: //depot/dev/client3/rdock/2013.1/src/exe/rbdock.cxx#4 $)

>  <Rbt.Library>
libRbt.so (2013.1, Build901 2013/11/27)

>  <Rbt.Parameter_File>
/export/apps/rDock/src/rDock_2013.1_src/data/scripts/dock_solv.prm

>  <Rbt.Receptor>
prm/pocket_docking_4.prm

>  <SCORE>
-12.2921

>  <SCORE.INTER>
-8.88429

>  <SCORE.INTER.CONST>
1

>  <SCORE.INTER.POLAR>
-0.997404

>  <SCORE.INTER.ROT>
6

>  <SCORE.INTER.SOLV>
20.0663

>  <SCORE.INTER.VDW>
-16.887

>  <SCORE.INTER.norm>
-0.28659

>  <SCORE.INTRA>
-3.40777

>  <SCORE.INTRA.DIHEDRAL>
-7.76982

>  <SCORE.INTRA.DIHEDRAL.0>
9.37739

>  <SCORE.INTRA.POLAR>
0

>  <SCORE.INTRA.POLAR.0>
0

>  <SCORE.INTRA.REPUL>
0

>  <SCORE.INTRA.REPUL.0>
0

>  <SCORE.INTRA.SOLV>
-2.9851

>  <SCORE.INTRA.SOLV.lig_0>
-82.9274

>  <SCORE.INTRA.VDW>
1.96969

>  <SCORE.INTRA.VDW.0>
-3.84922

>  <SCORE.INTRA.norm>
-0.109928

>  <SCORE.RESTR>
0

>  <SCORE.RESTR.CAVITY>
0

>  <SCORE.RESTR.norm>
0

>  <SCORE.SYSTEM>
0

>  <SCORE.SYSTEM.CONST>
0

>  <SCORE.SYSTEM.DIHEDRAL>
0

>  <SCORE.SYSTEM.SOLV>
0

>  <SCORE.SYSTEM.norm>
0

>  <SCORE.heavy>
31

>  <SCORE.norm>
-0.396518

>  <RMSD>
5.448

$$$$
2o3x_lig
 OpenBabel11021811463D
libRbt.so/2013.1/901 2013/11/27
 31 33  0  0  0  0  0  0  0  0999 V2000
   18.2950    8.3671    3.6404 C   0  0  2  0  0  0  0  0  0  0  0  0
   19.3549    7.4528    3.3306 O   0  0  0  0  0  0  0  0  0  0  0  0
   18.6987    4.9164    6.7121 C   0  0  2  0  0  0  0  0  0  0  0  0
   18.8123    3.8446    7.7259 N   0  0  0  0  0  0  0  0  0  0  0  0
   22.4124    6.4080    4.9370 C   0  0  1  0  0  0  0  0  0  0  0  0
   18.4391    9.6189    2.7181 C   0  0  2  0  0  0  0  0  0  0  0  0
   18.6398    9.2450    1.2948 N   0  0  0  0  0  0  0  0  0  0  0  0
   18.3367    4.3525    5.2978 C   0  0  0  0  0  0  0  0  0  0  0  0
   23.7336    7.1068    4.4761 C   0  0  2  0  0  0  0  0  0  0  0  0
   23.8100    7.4605    3.0678 O   0  0  0  0  0  0  0  0  0  0  0  0
   19.6209   10.5083    3.1482 C   0  0  1  0  0  0  0  0  0  0  0  0
   19.7000   11.6528    2.3370 O   0  0  0  0  0  0  0  0  0  0  0  0
   18.2095    5.5638    4.3033 C   0  0  2  0  0  0  0  0  0  0  0  0
   17.8453    5.1096    2.9278 N   0  0  0  0  0  0  0  0  0  0  0  0
   24.7176    6.0530    4.9559 C   0  0  2  0  0  0  0  0  0  0  0  0
   24.7812    4.9235    4.0190 O   0  0  0  0  0  0  0  0  0  0  0  0
   19.4631   10.8996    4.6079 C   0  0  2  0  0  0  0  0  0  0  0  0
   20.5175   11.7219    4.9924 O   0  0  0  0  0  0  0  0  0  0  0  0
   19.5505    6.3479    4.2248 C   0  0  2  0  0  0  0  0  0  0  0  0
   24.1716    5.6097    6.3081 C   0  0  2  0  0  0  0  0  0  0  0  0
   22.7770    5.5468    6.0224 O   0  0  0  0  0  0  0  0  0  0  0  0
   19.4239    9.6248    5.4972 C   0  0  2  0  0  0  0  0  0  0  0  0
   18.3356    8.7734    5.0782 O   0  0  0  0  0  0  0  0  0  0  0  0
   20.0367    6.8626    5.5941 C   0  0  2  0  0  0  0  0  0  0  0  0
   21.4077    7.3423    5.3610 O   0  0  0  0  0  0  0  0  0  0  0  0
   24.4488    6.6009    7.4888 C   0  0  0  0  0  0  0  0  0  0  0  0
   23.9773    6.0468    8.7138 N   0  0  0  0  0  0  0  0  0  0  0  0
   19.2487    9.9476    6.9630 C   0  0  0  0  0  0  0  0  0  0  0  0
   17.9565   10.3466    7.2441 O   0  0  0  0  0  0  0  0  0  0  0  0
   20.0341    5.6802    6.6607 C   0  0  1  0  0  0  0  0  0  0  0  0
   20.2694    6.1717    7.9890 O   0  0  0  0  0  0  0  0  0  0  0  0
  1  2  1  1  0  0  0
  1  6  1  0  0  0  0
  1 23  1  0  0  0  0
  3  4  1  1  0  0  0
  3  8  1  0  0  0  0
  3 30  1  0  0  0  0
  5  9  1  0  0  0  0
  5 21  1  0  0  0  0
  5 25  1  1  0  0  0
  6  7  1  6  0  0  0
  6 11  1  0  0  0  0
  8 13  1  0  0  0  0
  9 10  1  6  0  0  0
  9 15  1  0  0  0  0
 11 12  1  6  0  0  0
 11 17  1  0  0  0  0
 13 14  1  6  0  0  0
 13 19  1  0  0  0  0
 15 16  1  6  0  0  0
 15 20  1  0  0  0  0
 17 18  1  1  0  0  0
 17 22  1  0  0  0  0
 19  2  1  6  0  0  0
 19 24  1  0  0  0  0
 20 21  1  0  0  0  0
 20 26  1  1  0  0  0
 22 23  1  0  0  0  0
 22 28  1  1  0  0  0
 24 25  1  6  0  0  0
 24 30  1  0  0  0  0
 26 27  1  0  0  0  0
 28 29  1  0  0  0  0
 30 31  1  1  0  0  0
M  END
>  <CHROM.1>
169.06608900,169.20233547,56.74084808,-176.06735673,73.95804136,-62.71788965
20.56667607,7.45593723,5.08655452,2.29287307,0.01375892,-0.51132763

>  <Name>
2o3x_lig

>  <RI>
0

>  <Rbt.Current_Directory>
/home/itssahil/PROJECTS/Mol_Feturizer/New_Systems/rnas/2o3x

>  <Rbt.Executable>
rbdock ($Id: //depot/dev/client3/rdock/2013.1/src/exe/rbdock.cxx#4 $)

>  <Rbt.Library>
libRbt.so (2013.1, Build901 2013/11/27)

>  <Rbt.Parameter_File>
/export/apps/rDock/src/rDock_2013.1_src/data/scripts/dock_solv.prm

>  <Rbt.Receptor>
prm/pocket_docking_4.prm

>  <SCORE>
-9.4518

>  <SCORE.INTER>
-8.52987

>  <SCORE.INTER.CONST>
1

>  <SCORE.INTER.POLAR>
-0.894427

>  <SCORE.INTER.ROT>
6

>  <SCORE.INTER.SOLV>
19.6186

>  <SCORE.INTER.VDW>
-16.8447

>  <SCORE.INTER.norm>
-0.275157

>  <SCORE.INTRA>
-0.969425

>  <SCORE.INTRA.DIHEDRAL>
-7.24811

>  <SCORE.INTRA.DIHEDRAL.0>
9.37739

>  <SCORE.INTRA.POLAR>
0

>  <SCORE.INTRA.POLAR.0>
0

>  <SCORE.INTRA.REPUL>
0

>  <SCORE.INTRA.REPUL.0>
0

>  <SCORE.INTRA.SOLV>
-1.43406

>  <SCORE.INTRA.SOLV.lig_0>
-82.9274

>  <SCORE.INTRA.VDW>
3.37166

>  <SCORE.INTRA.VDW.0>
-3.84922

>  <SCORE.INTRA.norm>
-0.0312718

>  <SCORE.RESTR>
0.0475005

>  <SCORE.RESTR.CAVITY>
0.0475005

>  <SCORE.RESTR.norm>
0.00153227

>  <SCORE.SYSTEM>
0

>  <SCORE.SYSTEM.CONST>
0

>  <SCORE.SYSTEM.DIHEDRAL>
0

>  <SCORE.SYSTEM.SOLV>
0

>  <SCORE.SYSTEM.norm>
0

>  <SCORE.heavy>
31

>  <SCORE.norm>
-0.304897

>  <RMSD>
5.468

$$$$
2o3x_lig
 OpenBabel11021811463D
libRbt.so/2013.1/901 2013/11/27
 31 33  0  0  0  0  0  0  0  0999 V2000
   21.1263    8.6024    5.2738 C   0  0  2  0  0  0  0  0  0  0  0  0
   20.6902    8.9520    6.5940 O   0  0  0  0  0  0  0  0  0  0  0  0
   21.6262    7.3902   10.4648 C   0  0  2  0  0  0  0  0  0  0  0  0
   21.8809    6.4835   11.6061 N   0  0  0  0  0  0  0  0  0  0  0  0
   24.4355    7.0019    6.9088 C   0  0  1  0  0  0  0  0  0  0  0  0
   20.8212    9.8012    4.3208 C   0  0  2  0  0  0  0  0  0  0  0  0
   21.2825   11.0954    4.8845 N   0  0  0  0  0  0  0  0  0  0  0  0
   20.1299    7.3548   10.0077 C   0  0  0  0  0  0  0  0  0  0  0  0
   24.7541    5.4914    7.1600 C   0  0  2  0  0  0  0  0  0  0  0  0
   24.8613    5.0854    8.5522 O   0  0  0  0  0  0  0  0  0  0  0  0
   19.3145    9.9211    4.0233 C   0  0  1  0  0  0  0  0  0  0  0  0
   19.0696   10.9734    3.1249 O   0  0  0  0  0  0  0  0  0  0  0  0
   19.9552    8.3675    8.8176 C   0  0  2  0  0  0  0  0  0  0  0  0
   18.5428    8.4079    8.3332 N   0  0  0  0  0  0  0  0  0  0  0  0
   26.0267    5.3958    6.3351 C   0  0  2  0  0  0  0  0  0  0  0  0
   27.1754    5.9415    7.0701 O   0  0  0  0  0  0  0  0  0  0  0  0
   18.7973    8.6082    3.4599 C   0  0  2  0  0  0  0  0  0  0  0  0
   17.4415    8.7214    3.1689 O   0  0  0  0  0  0  0  0  0  0  0  0
   20.8741    7.9727    7.6264 C   0  0  2  0  0  0  0  0  0  0  0  0
   25.7350    6.2220    5.0880 C   0  0  2  0  0  0  0  0  0  0  0  0
   25.0565    7.3361    5.6615 O   0  0  0  0  0  0  0  0  0  0  0  0
   19.0333    7.4623    4.4840 C   0  0  2  0  0  0  0  0  0  0  0  0
   20.4414    7.3655    4.7889 O   0  0  0  0  0  0  0  0  0  0  0  0
   22.3652    7.8888    8.0085 C   0  0  2  0  0  0  0  0  0  0  0  0
   23.0261    7.2706    6.8489 O   0  0  0  0  0  0  0  0  0  0  0  0
   24.8304    5.5134    4.0236 C   0  0  0  0  0  0  0  0  0  0  0  0
   24.2363    6.4817    3.1638 N   0  0  0  0  0  0  0  0  0  0  0  0
   18.5560    6.1228    3.9728 C   0  0  0  0  0  0  0  0  0  0  0  0
   18.7037    5.1337    4.9257 O   0  0  0  0  0  0  0  0  0  0  0  0
   22.5526    6.9831    9.3047 C   0  0  1  0  0  0  0  0  0  0  0  0
   23.8934    7.0637    9.8115 O   0  0  0  0  0  0  0  0  0  0  0  0
  1  2  1  1  0  0  0
  1  6  1  0  0  0  0
  1 23  1  0  0  0  0
  3  4  1  1  0  0  0
  3  8  1  0  0  0  0
  3 30  1  0  0  0  0
  5  9  1  0  0  0  0
  5 21  1  0  0  0  0
  5 25  1  6  0  0  0
  6  7  1  1  0  0  0
  6 11  1  0  0  0  0
  8 13  1  0  0  0  0
  9 10  1  1  0  0  0
  9 15  1  0  0  0  0
 11 12  1  6  0  0  0
 11 17  1  0  0  0  0
 13 14  1  6  0  0  0
 13 19  1  0  0  0  0
 15 16  1  1  0  0  0
 15 20  1  0  0  0  0
 17 18  1  1  0  0  0
 17 22  1  0  0  0  0
 19  2  1  6  0  0  0
 19 24  1  0  0  0  0
 20 21  1  0  0  0  0
 20 26  1  6  0  0  0
 22 23  1  0  0  0  0
 22 28  1  6  0  0  0
 24 25  1  6  0  0  0
 24 30  1  0  0  0  0
 26 27  1  0  0  0  0
 28 29  1  0  0  0  0
 30 31  1  1  0  0  0
M  END
>  <CHROM.1>
179.58903289,103.08174627,-162.53835037,159.40885545,-176.51920071,-177.61347396
21.85125979,7.48705047,6.36191423,-2.60078508,-0.36930777,1.67466422

>  <Name>
2o3x_lig

>  <RI>
0

>  <Rbt.Current_Directory>
/home/itssahil/PROJECTS/Mol_Feturizer/New_Systems/rnas/2o3x

>  <Rbt.Executable>
rbdock ($Id: //depot/dev/client3/rdock/2013.1/src/exe/rbdock.cxx#4 $)

>  <Rbt.Library>
libRbt.so (2013.1, Build901 2013/11/27)

>  <Rbt.Parameter_File>
/export/apps/rDock/src/rDock_2013.1_src/data/scripts/dock_solv.prm

>  <Rbt.Receptor>
prm/pocket_docking_4.prm

>  <SCORE>
-11.1998

>  <SCORE.INTER>
-11.5592

>  <SCORE.INTER.CONST>
1

>  <SCORE.INTER.POLAR>
-1.32754

>  <SCORE.INTER.ROT>
6

>  <SCORE.INTER.SOLV>
17.6552

>  <SCORE.INTER.VDW>
-16.7661

>  <SCORE.INTER.norm>
-0.372879

>  <SCORE.INTRA>
0.359421

>  <SCORE.INTRA.DIHEDRAL>
-0.50173

>  <SCORE.INTRA.DIHEDRAL.0>
9.37739

>  <SCORE.INTRA.POLAR>
0

>  <SCORE.INTRA.POLAR.0>
0

>  <SCORE.INTRA.REPUL>
0

>  <SCORE.INTRA.REPUL.0>
0

>  <SCORE.INTRA.SOLV>
-1.28465

>  <SCORE.INTRA.SOLV.lig_0>
-82.9274

>  <SCORE.INTRA.VDW>
1.25261

>  <SCORE.INTRA.VDW.0>
-3.84922

>  <SCORE.INTRA.norm>
0.0115942

>  <SCORE.RESTR>
0

>  <SCORE.RESTR.CAVITY>
0

>  <SCORE.RESTR.norm>
0

>  <SCORE.SYSTEM>
0

>  <SCORE.SYSTEM.CONST>
0

>  <SCORE.SYSTEM.DIHEDRAL>
0

>  <SCORE.SYSTEM.SOLV>
0

>  <SCORE.SYSTEM.norm>
0

>  <SCORE.heavy>
31

>  <SCORE.norm>
-0.361284

>  <RMSD>
5.472

$$$$
2o3x_lig
 OpenBabel11021811463D
libRbt.so/2013.1/901 2013/11/27
 31 33  0  0  0  0  0  0  0  0999 V2000
   17.4916    7.3297    7.1125 C   0  0  2  0  0  0  0  0  0  0  0  0
   18.2621    6.1819    6.7325 O   0  0  0  0  0  0  0  0  0  0  0  0
   19.3213    2.5685    8.7620 C   0  0  2  0  0  0  0  0  0  0  0  0
   19.7691    1.5895    9.7773 N   0  0  0  0  0  0  0  0  0  0  0  0
   15.4453    5.7649    8.5098 C   0  0  1  0  0  0  0  0  0  0  0  0
   17.0591    8.0839    5.8154 C   0  0  2  0  0  0  0  0  0  0  0  0
   16.4829    7.1658    4.8001 N   0  0  0  0  0  0  0  0  0  0  0  0
   20.4818    3.5131    8.3035 C   0  0  0  0  0  0  0  0  0  0  0  0
   14.4800    4.5358    8.4499 C   0  0  2  0  0  0  0  0  0  0  0  0
   14.5359    3.7399    7.2343 O   0  0  0  0  0  0  0  0  0  0  0  0
   18.2436    8.8265    5.1685 C   0  0  1  0  0  0  0  0  0  0  0  0
   17.8209    9.5385    4.0332 O   0  0  0  0  0  0  0  0  0  0  0  0
   19.9168    4.4904    7.2090 C   0  0  2  0  0  0  0  0  0  0  0  0
   20.9727    5.4178    6.7027 N   0  0  0  0  0  0  0  0  0  0  0  0
   13.1749    5.2692    8.7103 C   0  0  2  0  0  0  0  0  0  0  0  0
   12.6893    5.9325    7.4930 O   0  0  0  0  0  0  0  0  0  0  0  0
   18.8746    9.7661    6.1823 C   0  0  2  0  0  0  0  0  0  0  0  0
   19.9304   10.4549    5.5936 O   0  0  0  0  0  0  0  0  0  0  0  0
   18.7498    5.3406    7.7874 C   0  0  2  0  0  0  0  0  0  0  0  0
   13.5207    6.2911    9.7870 C   0  0  2  0  0  0  0  0  0  0  0  0
   14.7891    6.7452    9.3230 O   0  0  0  0  0  0  0  0  0  0  0  0
   19.3789    8.9583    7.4115 C   0  0  2  0  0  0  0  0  0  0  0  0
   18.2774    8.2365    8.0036 O   0  0  0  0  0  0  0  0  0  0  0  0
   17.5965    4.4881    8.3525 C   0  0  2  0  0  0  0  0  0  0  0  0
   16.7285    5.4379    9.0655 O   0  0  0  0  0  0  0  0  0  0  0  0
   13.6396    5.7083   11.2360 C   0  0  0  0  0  0  0  0  0  0  0  0
   14.7662    4.8405   11.3235 N   0  0  0  0  0  0  0  0  0  0  0  0
   20.0018    9.8415    8.4676 C   0  0  0  0  0  0  0  0  0  0  0  0
   20.6346    9.0968    9.4437 O   0  0  0  0  0  0  0  0  0  0  0  0
   18.1628    3.3895    9.3565 C   0  0  1  0  0  0  0  0  0  0  0  0
   17.1473    2.4449    9.7274 O   0  0  0  0  0  0  0  0  0  0  0  0
  1  2  1  6  0  0  0
  1  6  1  0  0  0  0
  1 23  1  0  0  0  0
  3  4  1  1  0  0  0
  3  8  1  0  0  0  0
  3 30  1  0  0  0  0
  5  9  1  0  0  0  0
  5 21  1  0  0  0  0
  5 25  1  1  0  0  0
  6  7  1  6  0  0  0
  6 11  1  0  0  0  0
  8 13  1  0  0  0  0
  9 10  1  6  0  0  0
  9 15  1  0  0  0  0
 11 12  1  6  0  0  0
 11 17  1  0  0  0  0
 13 14  1  1  0  0  0
 13 19  1  0  0  0  0
 15 16  1  6  0  0  0
 15 20  1  0  0  0  0
 17 18  1  6  0  0  0
 17 22  1  0  0  0  0
 19  2  1  6  0  0  0
 19 24  1  0  0  0  0
 20 21  1  0  0  0  0
 20 26  1  1  0  0  0
 22 23  1  0  0  0  0
 22 28  1  1  0  0  0
 24 25  1  1  0  0  0
 24 30  1  0  0  0  0
 26 27  1  0  0  0  0
 28 29  1  0  0  0  0
 30 31  1  6  0  0  0
M  END
>  <CHROM.1>
-179.49895266,64.21221861,-160.92865778,67.18010316,-170.20028701,108.91121120
17.35703565,6.19157393,7.92501863,0.94556901,0.13661080,-0.47921659

>  <Name>
2o3x_lig

>  <RI>
2.78316e+07

>  <Rbt.Current_Directory>
/home/itssahil/PROJECTS/Mol_Feturizer/New_Systems/rnas/2o3x

>  <Rbt.Executable>
rbdock ($Id: //depot/dev/client3/rdock/2013.1/src/exe/rbdock.cxx#4 $)

>  <Rbt.Library>
libRbt.so (2013.1, Build901 2013/11/27)

>  <Rbt.Parameter_File>
/export/apps/rDock/src/rDock_2013.1_src/data/scripts/dock_solv.prm

>  <Rbt.Receptor>
prm/pocket_docking_7.prm

>  <SCORE>
-5.59579

>  <SCORE.INTER>
-7.04488

>  <SCORE.INTER.CONST>
1

>  <SCORE.INTER.POLAR>
-1.40365

>  <SCORE.INTER.ROT>
6

>  <SCORE.INTER.SOLV>
11.2723

>  <SCORE.INTER.VDW>
-11.3752

>  <SCORE.INTER.norm>
-0.227254

>  <SCORE.INTRA>
1.44909

>  <SCORE.INTRA.DIHEDRAL>
-0.364986

>  <SCORE.INTRA.DIHEDRAL.0>
9.37739

>  <SCORE.INTRA.POLAR>
0

>  <SCORE.INTRA.POLAR.0>
0

>  <SCORE.INTRA.REPUL>
0

>  <SCORE.INTRA.REPUL.0>
0

>  <SCORE.INTRA.SOLV>
1.77142

>  <SCORE.INTRA.SOLV.lig_0>
-82.9274

>  <SCORE.INTRA.VDW>
0.745873

>  <SCORE.INTRA.VDW.0>
-3.84922

>  <SCORE.INTRA.norm>
0.0467448

>  <SCORE.RESTR>
0

>  <SCORE.RESTR.CAVITY>
0

>  <SCORE.RESTR.norm>
0

>  <SCORE.SYSTEM>
0

>  <SCORE.SYSTEM.CONST>
0

>  <SCORE.SYSTEM.DIHEDRAL>
0

>  <SCORE.SYSTEM.SOLV>
0

>  <SCORE.SYSTEM.norm>
0

>  <SCORE.heavy>
31

>  <SCORE.norm>
-0.18051

>  <RMSD>
5.488

$$$$
2o3x_lig
 OpenBabel11021811463D
libRbt.so/2013.1/901 2013/11/27
 31 33  0  0  0  0  0  0  0  0999 V2000
   19.4794    9.0548    6.5553 C   0  0  2  0  0  0  0  0  0  0  0  0
   18.9316   10.1868    7.2436 O   0  0  0  0  0  0  0  0  0  0  0  0
   17.7965   11.1771   11.2472 C   0  0  2  0  0  0  0  0  0  0  0  0
   17.3708   11.1000   12.6623 N   0  0  0  0  0  0  0  0  0  0  0  0
   20.2701    7.9043    9.7825 C   0  0  1  0  0  0  0  0  0  0  0  0
   20.1126    9.5512    5.2170 C   0  0  2  0  0  0  0  0  0  0  0  0
   20.9895   10.7330    5.4175 N   0  0  0  0  0  0  0  0  0  0  0  0
   16.6718   10.7026   10.2678 C   0  0  0  0  0  0  0  0  0  0  0  0
   21.2986    6.8478    9.2607 C   0  0  2  0  0  0  0  0  0  0  0  0
   21.0254    6.2867    7.9473 O   0  0  0  0  0  0  0  0  0  0  0  0
   19.0341    9.9281    4.1837 C   0  0  1  0  0  0  0  0  0  0  0  0
   19.6259   10.3228    2.9720 O   0  0  0  0  0  0  0  0  0  0  0  0
   17.2068   10.8499    8.7966 C   0  0  2  0  0  0  0  0  0  0  0  0
   16.1807   10.4331    7.7944 N   0  0  0  0  0  0  0  0  0  0  0  0
   21.2301    5.8794   10.4296 C   0  0  2  0  0  0  0  0  0  0  0  0
   20.0394    5.0242   10.3386 O   0  0  0  0  0  0  0  0  0  0  0  0
   18.1023    8.7485    3.9622 C   0  0  2  0  0  0  0  0  0  0  0  0
   17.1409    9.0788    3.0123 O   0  0  0  0  0  0  0  0  0  0  0  0
   18.4798    9.9805    8.5897 C   0  0  2  0  0  0  0  0  0  0  0  0
   21.1659    6.7741   11.6620 C   0  0  2  0  0  0  0  0  0  0  0  0
   20.2662    7.7824   11.2101 O   0  0  0  0  0  0  0  0  0  0  0  0
   17.4199    8.3531    5.3023 C   0  0  2  0  0  0  0  0  0  0  0  0
   18.4281    8.0277    6.2834 O   0  0  0  0  0  0  0  0  0  0  0  0
   19.6136   10.3147    9.5792 C   0  0  2  0  0  0  0  0  0  0  0  0
   20.6089    9.2464    9.4002 O   0  0  0  0  0  0  0  0  0  0  0  0
   22.5333    7.4065   12.0903 C   0  0  0  0  0  0  0  0  0  0  0  0
   22.4066    8.0285   13.3658 N   0  0  0  0  0  0  0  0  0  0  0  0
   16.4922    7.1699    5.1515 C   0  0  0  0  0  0  0  0  0  0  0  0
   17.1717    6.0416    4.7356 O   0  0  0  0  0  0  0  0  0  0  0  0
   19.0603   10.3159   11.0724 C   0  0  1  0  0  0  0  0  0  0  0  0
   20.0331   10.8354   11.9917 O   0  0  0  0  0  0  0  0  0  0  0  0
  1  2  1  6  0  0  0
  1  6  1  0  0  0  0
  1 23  1  0  0  0  0
  3  4  1  1  0  0  0
  3  8  1  0  0  0  0
  3 30  1  0  0  0  0
  5  9  1  0  0  0  0
  5 21  1  0  0  0  0
  5 25  1  1  0  0  0
  6  7  1  1  0  0  0
  6 11  1  0  0  0  0
  8 13  1  0  0  0  0
  9 10  1  6  0  0  0
  9 15  1  0  0  0  0
 11 12  1  6  0  0  0
 11 17  1  0  0  0  0
 13 14  1  6  0  0  0
 13 19  1  0  0  0  0
 15 16  1  6  0  0  0
 15 20  1  0  0  0  0
 17 18  1  6  0  0  0
 17 22  1  0  0  0  0
 19  2  1  6  0  0  0
 19 24  1  0  0  0  0
 20 21  1  0  0  0  0
 20 26  1  6  0  0  0
 22 23  1  0  0  0  0
 22 28  1  6  0  0  0
 24 25  1  1  0  0  0
 24 30  1  0  0  0  0
 26 27  1  0  0  0  0
 28 29  1  0  0  0  0
 30 31  1  1  0  0  0
M  END
>  <CHROM.1>
-170.85704072,167.92373236,-143.30680796,-170.12717010,61.62967266,-66.74979052
19.23373332,8.81190471,8.27293106,-2.10293026,-0.91882006,1.21035757

>  <Name>
2o3x_lig

>  <RI>
3.34184e+07

>  <Rbt.Current_Directory>
/home/itssahil/PROJECTS/Mol_Feturizer/New_Systems/rnas/2o3x

>  <Rbt.Executable>
rbdock ($Id: //depot/dev/client3/rdock/2013.1/src/exe/rbdock.cxx#4 $)

>  <Rbt.Library>
libRbt.so (2013.1, Build901 2013/11/27)

>  <Rbt.Parameter_File>
/export/apps/rDock/src/rDock_2013.1_src/data/scripts/dock_solv.prm

>  <Rbt.Receptor>
prm/pocket_docking_6.prm

>  <SCORE>
-15.4916

>  <SCORE.INTER>
-14.1717

>  <SCORE.INTER.CONST>
1

>  <SCORE.INTER.POLAR>
-1.52261

>  <SCORE.INTER.ROT>
6

>  <SCORE.INTER.SOLV>
17.0202

>  <SCORE.INTER.VDW>
-17.6458

>  <SCORE.INTER.norm>
-0.45715

>  <SCORE.INTRA>
-1.31989

>  <SCORE.INTRA.DIHEDRAL>
-2.77717

>  <SCORE.INTRA.DIHEDRAL.0>
9.37739

>  <SCORE.INTRA.POLAR>
0

>  <SCORE.INTRA.POLAR.0>
0

>  <SCORE.INTRA.REPUL>
0

>  <SCORE.INTRA.REPUL.0>
0

>  <SCORE.INTRA.SOLV>
-0.695856

>  <SCORE.INTRA.SOLV.lig_0>
-82.9274

>  <SCORE.INTRA.VDW>
0.416619

>  <SCORE.INTRA.VDW.0>
-3.84922

>  <SCORE.INTRA.norm>
-0.0425772

>  <SCORE.RESTR>
0

>  <SCORE.RESTR.CAVITY>
0

>  <SCORE.RESTR.norm>
0

>  <SCORE.SYSTEM>
0

>  <SCORE.SYSTEM.CONST>
0

>  <SCORE.SYSTEM.DIHEDRAL>
0

>  <SCORE.SYSTEM.SOLV>
0

>  <SCORE.SYSTEM.norm>
0

>  <SCORE.heavy>
31

>  <SCORE.norm>
-0.499728

>  <RMSD>
5.516

$$$$
2o3x_lig
 OpenBabel11021811463D
libRbt.so/2013.1/901 2013/11/27
 31 33  0  0  0  0  0  0  0  0999 V2000
   19.4495    9.0051    6.5395 C   0  0  2  0  0  0  0  0  0  0  0  0
   18.9192   10.1410    7.2353 O   0  0  0  0  0  0  0  0  0  0  0  0
   17.9134   11.1562   11.2672 C   0  0  2  0  0  0  0  0  0  0  0  0
   17.5307   11.0881   12.6949 N   0  0  0  0  0  0  0  0  0  0  0  0
   20.3074    7.8552    9.7115 C   0  0  1  0  0  0  0  0  0  0  0  0
   20.0744    9.4983    5.1961 C   0  0  2  0  0  0  0  0  0  0  0  0
   20.9644   10.6713    5.3904 N   0  0  0  0  0  0  0  0  0  0  0  0
   16.7563   10.6848   10.3247 C   0  0  0  0  0  0  0  0  0  0  0  0
   21.3334    6.7982    9.1860 C   0  0  2  0  0  0  0  0  0  0  0  0
   21.0652    6.2509    7.8658 O   0  0  0  0  0  0  0  0  0  0  0  0
   18.9896    9.8874    4.1741 C   0  0  1  0  0  0  0  0  0  0  0  0
   19.5734   10.2790    2.9575 O   0  0  0  0  0  0  0  0  0  0  0  0
   17.2470   10.8222    8.8372 C   0  0  2  0  0  0  0  0  0  0  0  0
   16.1880   10.4077    7.8687 N   0  0  0  0  0  0  0  0  0  0  0  0
   21.2527    5.8192   10.3453 C   0  0  2  0  0  0  0  0  0  0  0  0
   20.0580    4.9712   10.2391 O   0  0  0  0  0  0  0  0  0  0  0  0
   18.0444    8.7173    3.9594 C   0  0  2  0  0  0  0  0  0  0  0  0
   17.0772    9.0586    3.0194 O   0  0  0  0  0  0  0  0  0  0  0  0
   18.5075    9.9435    8.5955 C   0  0  2  0  0  0  0  0  0  0  0  0
   21.1857    6.7026   11.5856 C   0  0  2  0  0  0  0  0  0  0  0  0
   20.2941    7.7199   11.1379 O   0  0  0  0  0  0  0  0  0  0  0  0
   17.3714    8.3256    5.3052 C   0  0  2  0  0  0  0  0  0  0  0  0
   18.3858    7.9887    6.2759 O   0  0  0  0  0  0  0  0  0  0  0  0
   19.6731   10.2746    9.5484 C   0  0  2  0  0  0  0  0  0  0  0  0
   20.6555    9.1990    9.3440 O   0  0  0  0  0  0  0  0  0  0  0  0
   22.5539    7.3236   12.0281 C   0  0  0  0  0  0  0  0  0  0  0  0
   22.4226    7.9345   13.3085 N   0  0  0  0  0  0  0  0  0  0  0  0
   16.4310    7.1516    5.1612 C   0  0  0  0  0  0  0  0  0  0  0  0
   15.7713    6.8813    6.3442 O   0  0  0  0  0  0  0  0  0  0  0  0
   19.1657   10.2860   11.0578 C   0  0  1  0  0  0  0  0  0  0  0  0
   20.1695   10.8030   11.9445 O   0  0  0  0  0  0  0  0  0  0  0  0
  1  2  1  6  0  0  0
  1  6  1  0  0  0  0
  1 23  1  0  0  0  0
  3  4  1  1  0  0  0
  3  8  1  0  0  0  0
  3 30  1  0  0  0  0
  5  9  1  0  0  0  0
  5 21  1  0  0  0  0
  5 25  1  1  0  0  0
  6  7  1  1  0  0  0
  6 11  1  0  0  0  0
  8 13  1  0  0  0  0
  9 10  1  6  0  0  0
  9 15  1  0  0  0  0
 11 12  1  6  0  0  0
 11 17  1  0  0  0  0
 13 14  1  6  0  0  0
 13 19  1  0  0  0  0
 15 16  1  6  0  0  0
 15 20  1  0  0  0  0
 17 18  1  6  0  0  0
 17 22  1  0  0  0  0
 19  2  1  6  0  0  0
 19 24  1  0  0  0  0
 20 21  1  0  0  0  0
 20 26  1  6  0  0  0
 22 23  1  0  0  0  0
 22 28  1  6  0  0  0
 24 25  1  1  0  0  0
 24 30  1  0  0  0  0
 26 27  1  0  0  0  0
 28 29  1  0  0  0  0
 30 31  1  1  0  0  0
M  END
>  <CHROM.1>
-169.44039284,168.95793655,-143.84880601,-170.13851079,-175.63775441,-65.19831452
19.20009908,8.80129816,8.30862681,-2.12132045,-0.85393150,1.25065169

>  <Name>
2o3x_lig

>  <RI>
3.34184e+07

>  <Rbt.Current_Directory>
/home/itssahil/PROJECTS/Mol_Feturizer/New_Systems/rnas/2o3x

>  <Rbt.Executable>
rbdock ($Id: //depot/dev/client3/rdock/2013.1/src/exe/rbdock.cxx#4 $)

>  <Rbt.Library>
libRbt.so (2013.1, Build901 2013/11/27)

>  <Rbt.Parameter_File>
/export/apps/rDock/src/rDock_2013.1_src/data/scripts/dock_solv.prm

>  <Rbt.Receptor>
prm/pocket_docking_6.prm

>  <SCORE>
-15.5324

>  <SCORE.INTER>
-14.1312

>  <SCORE.INTER.CONST>
1

>  <SCORE.INTER.POLAR>
-1.50651

>  <SCORE.INTER.ROT>
6

>  <SCORE.INTER.SOLV>
16.591

>  <SCORE.INTER.VDW>
-17.5294

>  <SCORE.INTER.norm>
-0.455846

>  <SCORE.INTRA>
-1.40116

>  <SCORE.INTRA.DIHEDRAL>
-2.88192

>  <SCORE.INTRA.DIHEDRAL.0>
9.37739

>  <SCORE.INTRA.POLAR>
0

>  <SCORE.INTRA.POLAR.0>
0

>  <SCORE.INTRA.REPUL>
0

>  <SCORE.INTRA.REPUL.0>
0

>  <SCORE.INTRA.SOLV>
-0.709031

>  <SCORE.INTRA.SOLV.lig_0>
-82.9274

>  <SCORE.INTRA.VDW>
0.394315

>  <SCORE.INTRA.VDW.0>
-3.84922

>  <SCORE.INTRA.norm>
-0.0451988

>  <SCORE.RESTR>
0

>  <SCORE.RESTR.CAVITY>
0

>  <SCORE.RESTR.norm>
0

>  <SCORE.SYSTEM>
0

>  <SCORE.SYSTEM.CONST>
0

>  <SCORE.SYSTEM.DIHEDRAL>
0

>  <SCORE.SYSTEM.SOLV>
0

>  <SCORE.SYSTEM.norm>
0

>  <SCORE.heavy>
31

>  <SCORE.norm>
-0.501045

>  <RMSD>
5.538

$$$$
2o3x_lig
 OpenBabel11021811463D
libRbt.so/2013.1/901 2013/11/27
 31 33  0  0  0  0  0  0  0  0999 V2000
   16.5728    8.5524    6.2995 C   0  0  2  0  0  0  0  0  0  0  0  0
   17.0046    7.9674    7.5352 O   0  0  0  0  0  0  0  0  0  0  0  0
   16.8115   11.5975    9.7897 C   0  0  2  0  0  0  0  0  0  0  0  0
   16.8841   12.5992   10.8763 N   0  0  0  0  0  0  0  0  0  0  0  0
   19.7497    8.3528    9.8465 C   0  0  1  0  0  0  0  0  0  0  0  0
   16.2505    7.4007    5.2955 C   0  0  2  0  0  0  0  0  0  0  0  0
   15.3934    6.3515    5.9040 N   0  0  0  0  0  0  0  0  0  0  0  0
   15.7175   10.5120   10.0623 C   0  0  0  0  0  0  0  0  0  0  0  0
   19.3465    6.8420    9.8173 C   0  0  2  0  0  0  0  0  0  0  0  0
   17.9886    6.5362   10.2382 O   0  0  0  0  0  0  0  0  0  0  0  0
   17.5334    6.7252    4.7751 C   0  0  1  0  0  0  0  0  0  0  0  0
   17.2215    5.7276    3.8361 O   0  0  0  0  0  0  0  0  0  0  0  0
   15.6974    9.5176    8.8444 C   0  0  2  0  0  0  0  0  0  0  0  0
   14.6612    8.4561    9.0188 N   0  0  0  0  0  0  0  0  0  0  0  0
   20.4586    6.3012   10.7003 C   0  0  2  0  0  0  0  0  0  0  0  0
   20.1656    6.5330   12.1210 O   0  0  0  0  0  0  0  0  0  0  0  0
   18.4487    7.7697    4.1588 C   0  0  2  0  0  0  0  0  0  0  0  0
   19.5980    7.1587    3.6674 O   0  0  0  0  0  0  0  0  0  0  0  0
   17.0833    8.8314    8.6779 C   0  0  2  0  0  0  0  0  0  0  0  0
   21.6989    7.0735   10.2664 C   0  0  2  0  0  0  0  0  0  0  0  0
   21.1564    8.3827   10.1170 O   0  0  0  0  0  0  0  0  0  0  0  0
   18.8222    8.8409    5.2221 C   0  0  2  0  0  0  0  0  0  0  0  0
   17.6208    9.4562    5.7348 O   0  0  0  0  0  0  0  0  0  0  0  0
   18.2415    9.8326    8.4982 C   0  0  2  0  0  0  0  0  0  0  0  0
   19.4677    9.0278    8.6108 O   0  0  0  0  0  0  0  0  0  0  0  0
   22.3433    6.5868    8.9243 C   0  0  0  0  0  0  0  0  0  0  0  0
   21.4595    6.8422    7.8363 N   0  0  0  0  0  0  0  0  0  0  0  0
   19.7187    9.9217    4.6638 C   0  0  0  0  0  0  0  0  0  0  0  0
   20.0660   10.8437    5.6319 O   0  0  0  0  0  0  0  0  0  0  0  0
   18.1956   10.9405    9.6411 C   0  0  1  0  0  0  0  0  0  0  0  0
   19.1215   12.0054    9.3767 O   0  0  0  0  0  0  0  0  0  0  0  0
  1  2  1  1  0  0  0
  1  6  1  0  0  0  0
  1 23  1  0  0  0  0
  3  4  1  1  0  0  0
  3  8  1  0  0  0  0
  3 30  1  0  0  0  0
  5  9  1  0  0  0  0
  5 21  1  0  0  0  0
  5 25  1  6  0  0  0
  6  7  1  1  0  0  0
  6 11  1  0  0  0  0
  8 13  1  0  0  0  0
  9 10  1  1  0  0  0
  9 15  1  0  0  0  0
 11 12  1  6  0  0  0
 11 17  1  0  0  0  0
 13 14  1  1  0  0  0
 13 19  1  0  0  0  0
 15 16  1  1  0  0  0
 15 20  1  0  0  0  0
 17 18  1  1  0  0  0
 17 22  1  0  0  0  0
 19  2  1  6  0  0  0
 19 24  1  0  0  0  0
 20 21  1  0  0  0  0
 20 26  1  6  0  0  0
 22 23  1  0  0  0  0
 22 28  1  6  0  0  0
 24 25  1  1  0  0  0
 24 30  1  0  0  0  0
 26 27  1  0  0  0  0
 28 29  1  0  0  0  0
 30 31  1  6  0  0  0
M  END
>  <CHROM.1>
-167.31681636,98.82974081,54.33813180,66.38335772,-178.47015858,-62.78001873
18.43379326,8.49441450,7.92218585,1.88502468,0.64219020,-1.97991532

>  <Name>
2o3x_lig

>  <RI>
0

>  <Rbt.Current_Directory>
/home/itssahil/PROJECTS/Mol_Feturizer/New_Systems/rnas/2o3x

>  <Rbt.Executable>
rbdock ($Id: //depot/dev/client3/rdock/2013.1/src/exe/rbdock.cxx#4 $)

>  <Rbt.Library>
libRbt.so (2013.1, Build901 2013/11/27)

>  <Rbt.Parameter_File>
/export/apps/rDock/src/rDock_2013.1_src/data/scripts/dock_solv.prm

>  <Rbt.Receptor>
prm/pocket_docking_5.prm

>  <SCORE>
-14.5492

>  <SCORE.INTER>
-15.7022

>  <SCORE.INTER.CONST>
1

>  <SCORE.INTER.POLAR>
-2.46679

>  <SCORE.INTER.ROT>
6

>  <SCORE.INTER.SOLV>
8.52867

>  <SCORE.INTER.VDW>
-12.6884

>  <SCORE.INTER.norm>
-0.506522

>  <SCORE.INTRA>
1.15296

>  <SCORE.INTRA.DIHEDRAL>
-2.90749

>  <SCORE.INTRA.DIHEDRAL.0>
9.37739

>  <SCORE.INTRA.POLAR>
0

>  <SCORE.INTRA.POLAR.0>
0

>  <SCORE.INTRA.REPUL>
0

>  <SCORE.INTRA.REPUL.0>
0

>  <SCORE.INTRA.SOLV>
2.8332

>  <SCORE.INTRA.SOLV.lig_0>
-82.9274

>  <SCORE.INTRA.VDW>
1.1901

>  <SCORE.INTRA.VDW.0>
-3.84922

>  <SCORE.INTRA.norm>
0.0371922

>  <SCORE.RESTR>
0

>  <SCORE.RESTR.CAVITY>
0

>  <SCORE.RESTR.norm>
0

>  <SCORE.SYSTEM>
0

>  <SCORE.SYSTEM.CONST>
0

>  <SCORE.SYSTEM.DIHEDRAL>
0

>  <SCORE.SYSTEM.SOLV>
0

>  <SCORE.SYSTEM.norm>
0

>  <SCORE.heavy>
31

>  <SCORE.norm>
-0.469329

>  <RMSD>
5.542

$$$$
2o3x_lig
 OpenBabel11021811463D
libRbt.so/2013.1/901 2013/11/27
 31 33  0  0  0  0  0  0  0  0999 V2000
   19.4748    9.0332    6.5599 C   0  0  2  0  0  0  0  0  0  0  0  0
   18.9347   10.1726    7.2422 O   0  0  0  0  0  0  0  0  0  0  0  0
   17.7444   11.1906   11.2227 C   0  0  2  0  0  0  0  0  0  0  0  0
   17.3063   11.1230   12.6345 N   0  0  0  0  0  0  0  0  0  0  0  0
   20.2743    7.9363    9.7869 C   0  0  1  0  0  0  0  0  0  0  0  0
   20.1049    9.5171    5.2156 C   0  0  2  0  0  0  0  0  0  0  0  0
   20.9876   10.6965    5.4040 N   0  0  0  0  0  0  0  0  0  0  0  0
   16.6374   10.6858   10.2383 C   0  0  0  0  0  0  0  0  0  0  0  0
   21.3260    6.8966    9.2778 C   0  0  2  0  0  0  0  0  0  0  0  0
   21.0885    6.3459    7.9531 O   0  0  0  0  0  0  0  0  0  0  0  0
   19.0239    9.8911    4.1839 C   0  0  1  0  0  0  0  0  0  0  0  0
   19.6126   10.2745    2.9670 O   0  0  0  0  0  0  0  0  0  0  0  0
   17.1841   10.8248    8.7706 C   0  0  2  0  0  0  0  0  0  0  0  0
   16.1748   10.3790    7.7637 N   0  0  0  0  0  0  0  0  0  0  0  0
   21.2424    5.9156   10.4352 C   0  0  2  0  0  0  0  0  0  0  0  0
   20.0637    5.0482   10.3090 O   0  0  0  0  0  0  0  0  0  0  0  0
   18.0861    8.7141    3.9747 C   0  0  2  0  0  0  0  0  0  0  0  0
   17.1224    9.0417    3.0261 O   0  0  0  0  0  0  0  0  0  0  0  0
   18.4734    9.9745    8.5862 C   0  0  2  0  0  0  0  0  0  0  0  0
   21.1405    6.7968   11.6746 C   0  0  2  0  0  0  0  0  0  0  0  0
   20.2398    7.7998   11.2128 O   0  0  0  0  0  0  0  0  0  0  0  0
   17.4073    8.3314    5.3202 C   0  0  2  0  0  0  0  0  0  0  0  0
   18.4180    8.0088    6.2997 O   0  0  0  0  0  0  0  0  0  0  0  0
   19.5917   10.3393    9.5825 C   0  0  2  0  0  0  0  0  0  0  0  0
   20.6064    9.2859    9.4257 O   0  0  0  0  0  0  0  0  0  0  0  0
   22.4909    7.4399   12.1398 C   0  0  0  0  0  0  0  0  0  0  0  0
   22.3341    8.0297   13.4272 N   0  0  0  0  0  0  0  0  0  0  0  0
   16.4739    7.1512    5.1817 C   0  0  0  0  0  0  0  0  0  0  0  0
   15.3768    7.4604    4.4015 O   0  0  0  0  0  0  0  0  0  0  0  0
   19.0240   10.3488   11.0702 C   0  0  1  0  0  0  0  0  0  0  0  0
   19.9790   10.8953   11.9925 O   0  0  0  0  0  0  0  0  0  0  0  0
  1  2  1  6  0  0  0
  1  6  1  0  0  0  0
  1 23  1  0  0  0  0
  3  4  1  1  0  0  0
  3  8  1  0  0  0  0
  3 30  1  0  0  0  0
  5  9  1  0  0  0  0
  5 21  1  0  0  0  0
  5 25  1  1  0  0  0
  6  7  1  1  0  0  0
  6 11  1  0  0  0  0
  8 13  1  0  0  0  0
  9 10  1  6  0  0  0
  9 15  1  0  0  0  0
 11 12  1  6  0  0  0
 11 17  1  0  0  0  0
 13 14  1  6  0  0  0
 13 19  1  0  0  0  0
 15 16  1  6  0  0  0
 15 20  1  0  0  0  0
 17 18  1  6  0  0  0
 17 22  1  0  0  0  0
 19  2  1  6  0  0  0
 19 24  1  0  0  0  0
 20 21  1  0  0  0  0
 20 26  1  6  0  0  0
 22 23  1  0  0  0  0
 22 28  1  6  0  0  0
 24 25  1  1  0  0  0
 24 30  1  0  0  0  0
 26 27  1  0  0  0  0
 28 29  1  0  0  0  0
 30 31  1  1  0  0  0
M  END
>  <CHROM.1>
-171.54695025,167.42200980,-141.66602190,-169.24855441,-66.84730567,-65.08367053
19.15454237,8.86513379,8.26371242,-2.09882782,-0.81303122,1.26362049

>  <Name>
2o3x_lig

>  <RI>
3.34184e+07

>  <Rbt.Current_Directory>
/home/itssahil/PROJECTS/Mol_Feturizer/New_Systems/rnas/2o3x

>  <Rbt.Executable>
rbdock ($Id: //depot/dev/client3/rdock/2013.1/src/exe/rbdock.cxx#4 $)

>  <Rbt.Library>
libRbt.so (2013.1, Build901 2013/11/27)

>  <Rbt.Parameter_File>
/export/apps/rDock/src/rDock_2013.1_src/data/scripts/dock_solv.prm

>  <Rbt.Receptor>
prm/pocket_docking_6.prm

>  <SCORE>
-15.7785

>  <SCORE.INTER>
-14.6833

>  <SCORE.INTER.CONST>
1

>  <SCORE.INTER.POLAR>
-1.52656

>  <SCORE.INTER.ROT>
6

>  <SCORE.INTER.SOLV>
17.9645

>  <SCORE.INTER.VDW>
-18.2885

>  <SCORE.INTER.norm>
-0.473655

>  <SCORE.INTRA>
-1.09515

>  <SCORE.INTRA.DIHEDRAL>
-2.3803

>  <SCORE.INTRA.DIHEDRAL.0>
9.37739

>  <SCORE.INTRA.POLAR>
0

>  <SCORE.INTRA.POLAR.0>
0

>  <SCORE.INTRA.REPUL>
0

>  <SCORE.INTRA.REPUL.0>
0

>  <SCORE.INTRA.SOLV>
-0.662293

>  <SCORE.INTRA.SOLV.lig_0>
-82.9274

>  <SCORE.INTRA.VDW>
0.426152

>  <SCORE.INTRA.VDW.0>
-3.84922

>  <SCORE.INTRA.norm>
-0.0353273

>  <SCORE.RESTR>
0

>  <SCORE.RESTR.CAVITY>
0

>  <SCORE.RESTR.norm>
0

>  <SCORE.SYSTEM>
0

>  <SCORE.SYSTEM.CONST>
0

>  <SCORE.SYSTEM.DIHEDRAL>
0

>  <SCORE.SYSTEM.SOLV>
0

>  <SCORE.SYSTEM.norm>
0

>  <SCORE.heavy>
31

>  <SCORE.norm>
-0.508983

>  <RMSD>
5.544

$$$$
2o3x_lig
 OpenBabel11021811463D
libRbt.so/2013.1/901 2013/11/27
 31 33  0  0  0  0  0  0  0  0999 V2000
   19.4987    9.0395    6.6486 C   0  0  2  0  0  0  0  0  0  0  0  0
   18.9681   10.1956    7.3098 O   0  0  0  0  0  0  0  0  0  0  0  0
   18.0603   11.3164   11.3369 C   0  0  2  0  0  0  0  0  0  0  0  0
   17.6862   11.2881   12.7682 N   0  0  0  0  0  0  0  0  0  0  0  0
   20.2561    7.8661    9.8506 C   0  0  1  0  0  0  0  0  0  0  0  0
   20.0853    9.4853    5.2718 C   0  0  2  0  0  0  0  0  0  0  0  0
   20.9623   10.6774    5.3969 N   0  0  0  0  0  0  0  0  0  0  0  0
   16.8687   10.9059   10.4091 C   0  0  0  0  0  0  0  0  0  0  0  0
   21.2050    6.7348    9.3351 C   0  0  2  0  0  0  0  0  0  0  0  0
   20.8609    6.1509    8.0486 O   0  0  0  0  0  0  0  0  0  0  0  0
   18.9716    9.8173    4.2606 C   0  0  1  0  0  0  0  0  0  0  0  0
   19.5215   10.1664    3.0156 O   0  0  0  0  0  0  0  0  0  0  0  0
   17.3542   10.9960    8.9163 C   0  0  2  0  0  0  0  0  0  0  0  0
   16.2637   10.6361    7.9611 N   0  0  0  0  0  0  0  0  0  0  0  0
   21.1145    5.8085   10.5362 C   0  0  2  0  0  0  0  0  0  0  0  0
   19.8735    5.0231   10.5058 O   0  0  0  0  0  0  0  0  0  0  0  0
   18.0390    8.6265    4.1162 C   0  0  2  0  0  0  0  0  0  0  0  0
   17.0454    8.9157    3.1862 O   0  0  0  0  0  0  0  0  0  0  0  0
   18.5566   10.0393    8.6753 C   0  0  2  0  0  0  0  0  0  0  0  0
   21.1391    6.7427   11.7402 C   0  0  2  0  0  0  0  0  0  0  0  0
   20.2871    7.7884   11.2810 O   0  0  0  0  0  0  0  0  0  0  0  0
   17.4029    8.2814    5.4924 C   0  0  2  0  0  0  0  0  0  0  0  0
   18.4442    7.9986    6.4518 O   0  0  0  0  0  0  0  0  0  0  0  0
   19.7483   10.3092    9.6152 C   0  0  2  0  0  0  0  0  0  0  0  0
   20.6614    9.1733    9.4160 O   0  0  0  0  0  0  0  0  0  0  0  0
   22.5533    7.3055   12.1100 C   0  0  0  0  0  0  0  0  0  0  0  0
   22.4907    8.0132   13.3449 N   0  0  0  0  0  0  0  0  0  0  0  0
   16.4766    7.0898    5.4186 C   0  0  0  0  0  0  0  0  0  0  0  0
   15.8852    6.8300    6.6396 O   0  0  0  0  0  0  0  0  0  0  0  0
   19.2553   10.3688   11.1282 C   0  0  1  0  0  0  0  0  0  0  0  0
   20.2962   10.8336   12.0009 O   0  0  0  0  0  0  0  0  0  0  0  0
  1  2  1  6  0  0  0
  1  6  1  0  0  0  0
  1 23  1  0  0  0  0
  3  4  1  1  0  0  0
  3  8  1  0  0  0  0
  3 30  1  0  0  0  0
  5  9  1  0  0  0  0
  5 21  1  0  0  0  0
  5 25  1  1  0  0  0
  6  7  1  1  0  0  0
  6 11  1  0  0  0  0
  8 13  1  0  0  0  0
  9 10  1  6  0  0  0
  9 15  1  0  0  0  0
 11 12  1  6  0  0  0
 11 17  1  0  0  0  0
 13 14  1  6  0  0  0
 13 19  1  0  0  0  0
 15 16  1  6  0  0  0
 15 20  1  0  0  0  0
 17 18  1  6  0  0  0
 17 22  1  0  0  0  0
 19  2  1  6  0  0  0
 19 24  1  0  0  0  0
 20 21  1  0  0  0  0
 20 26  1  6  0  0  0
 22 23  1  0  0  0  0
 22 28  1  6  0  0  0
 24 25  1  1  0  0  0
 24 30  1  0  0  0  0
 26 27  1  0  0  0  0
 28 29  1  0  0  0  0
 30 31  1  1  0  0  0
M  END
>  <CHROM.1>
-171.10434255,169.28266667,-147.55986640,-172.16058242,-177.81368648,-67.64494628
19.21508963,8.82430454,8.43069663,-2.17658387,-0.93229972,1.16399293

>  <Name>
2o3x_lig

>  <RI>
0

>  <Rbt.Current_Directory>
/home/itssahil/PROJECTS/Mol_Feturizer/New_Systems/rnas/2o3x

>  <Rbt.Executable>
rbdock ($Id: //depot/dev/client3/rdock/2013.1/src/exe/rbdock.cxx#4 $)

>  <Rbt.Library>
libRbt.so (2013.1, Build901 2013/11/27)

>  <Rbt.Parameter_File>
/export/apps/rDock/src/rDock_2013.1_src/data/scripts/dock_solv.prm

>  <Rbt.Receptor>
prm/pocket_docking_8.prm

>  <SCORE>
-15.4416

>  <SCORE.INTER>
-13.5725

>  <SCORE.INTER.CONST>
1

>  <SCORE.INTER.POLAR>
-1.53513

>  <SCORE.INTER.ROT>
6

>  <SCORE.INTER.SOLV>
16.8685

>  <SCORE.INTER.VDW>
-17.154

>  <SCORE.INTER.norm>
-0.437821

>  <SCORE.INTRA>
-1.86909

>  <SCORE.INTRA.DIHEDRAL>
-3.75553

>  <SCORE.INTRA.DIHEDRAL.0>
9.37739

>  <SCORE.INTRA.POLAR>
0

>  <SCORE.INTRA.POLAR.0>
0

>  <SCORE.INTRA.REPUL>
0

>  <SCORE.INTRA.REPUL.0>
0

>  <SCORE.INTRA.SOLV>
-0.955645

>  <SCORE.INTRA.SOLV.lig_0>
-82.9274

>  <SCORE.INTRA.VDW>
0.4865

>  <SCORE.INTRA.VDW.0>
-3.84922

>  <SCORE.INTRA.norm>
-0.0602931

>  <SCORE.RESTR>
0

>  <SCORE.RESTR.CAVITY>
0

>  <SCORE.RESTR.norm>
0

>  <SCORE.SYSTEM>
0

>  <SCORE.SYSTEM.CONST>
0

>  <SCORE.SYSTEM.DIHEDRAL>
0

>  <SCORE.SYSTEM.SOLV>
0

>  <SCORE.SYSTEM.norm>
0

>  <SCORE.heavy>
31

>  <SCORE.norm>
-0.498115

>  <RMSD>
5.559

$$$$
2o3x_lig
 OpenBabel11021811463D
libRbt.so/2013.1/901 2013/11/27
 31 33  0  0  0  0  0  0  0  0999 V2000
   16.5868    8.5583    6.2985 C   0  0  2  0  0  0  0  0  0  0  0  0
   16.9724    7.9645    7.5452 O   0  0  0  0  0  0  0  0  0  0  0  0
   16.7725   11.5949    9.7986 C   0  0  2  0  0  0  0  0  0  0  0  0
   16.8407   12.5965   10.8857 N   0  0  0  0  0  0  0  0  0  0  0  0
   19.7928    8.4854    9.9176 C   0  0  1  0  0  0  0  0  0  0  0  0
   16.3186    7.4143    5.2701 C   0  0  2  0  0  0  0  0  0  0  0  0
   15.4474    6.3504    5.8314 N   0  0  0  0  0  0  0  0  0  0  0  0
   15.6752   10.5113   10.0648 C   0  0  0  0  0  0  0  0  0  0  0  0
   19.0720    7.1342   10.2353 C   0  0  2  0  0  0  0  0  0  0  0  0
   17.7879    7.2396   10.9093 O   0  0  0  0  0  0  0  0  0  0  0  0
   17.6289    6.7569    4.7972 C   0  0  1  0  0  0  0  0  0  0  0  0
   17.3669    5.7663    3.8358 O   0  0  0  0  0  0  0  0  0  0  0  0
   15.6604    9.5170    8.8468 C   0  0  2  0  0  0  0  0  0  0  0  0
   14.6213    8.4572    9.0152 N   0  0  0  0  0  0  0  0  0  0  0  0
   20.1888    6.4701   11.0231 C   0  0  2  0  0  0  0  0  0  0  0  0
   20.2340    6.9728   12.4025 O   0  0  0  0  0  0  0  0  0  0  0  0
   18.5586    7.8167    4.2306 C   0  0  2  0  0  0  0  0  0  0  0  0
   19.7337    7.2222    3.7817 O   0  0  0  0  0  0  0  0  0  0  0  0
   17.0459    8.8283    8.6883 C   0  0  2  0  0  0  0  0  0  0  0  0
   21.4597    6.8386   10.2666 C   0  0  2  0  0  0  0  0  0  0  0  0
   21.1973    8.2049    9.9586 O   0  0  0  0  0  0  0  0  0  0  0  0
   18.8763    8.8802    5.3195 C   0  0  2  0  0  0  0  0  0  0  0  0
   17.6483    9.4782    5.7876 O   0  0  0  0  0  0  0  0  0  0  0  0
   18.2070    9.8276    8.5154 C   0  0  2  0  0  0  0  0  0  0  0  0
   19.4311    9.0206    8.6351 O   0  0  0  0  0  0  0  0  0  0  0  0
   21.7103    6.0162    8.9574 C   0  0  0  0  0  0  0  0  0  0  0  0
   22.9597    6.3842    8.3800 N   0  0  0  0  0  0  0  0  0  0  0  0
   19.7843    9.9755    4.8104 C   0  0  0  0  0  0  0  0  0  0  0  0
   19.1852   10.7035    3.8010 O   0  0  0  0  0  0  0  0  0  0  0  0
   18.1563   10.9356    9.6580 C   0  0  1  0  0  0  0  0  0  0  0  0
   19.0857   11.9988    9.3990 O   0  0  0  0  0  0  0  0  0  0  0  0
  1  2  1  1  0  0  0
  1  6  1  0  0  0  0
  1 23  1  0  0  0  0
  3  4  1  1  0  0  0
  3  8  1  0  0  0  0
  3 30  1  0  0  0  0
  5  9  1  0  0  0  0
  5 21  1  0  0  0  0
  5 25  1  6  0  0  0
  6  7  1  1  0  0  0
  6 11  1  0  0  0  0
  8 13  1  0  0  0  0
  9 10  1  1  0  0  0
  9 15  1  0  0  0  0
 11 12  1  6  0  0  0
 11 17  1  0  0  0  0
 13 14  1  1  0  0  0
 13 19  1  0  0  0  0
 15 16  1  1  0  0  0
 15 20  1  0  0  0  0
 17 18  1  1  0  0  0
 17 22  1  0  0  0  0
 19  2  1  6  0  0  0
 19 24  1  0  0  0  0
 20 21  1  0  0  0  0
 20 26  1  6  0  0  0
 22 23  1  0  0  0  0
 22 28  1  6  0  0  0
 24 25  1  1  0  0  0
 24 30  1  0  0  0  0
 26 27  1  0  0  0  0
 28 29  1  0  0  0  0
 30 31  1  6  0  0  0
M  END
>  <CHROM.1>
-169.73690343,84.18564858,56.12729244,-176.42180633,63.70853322,-70.62610901
18.41591863,8.51135486,7.94413764,1.84286253,0.65296205,-1.86464772

>  <Name>
2o3x_lig

>  <RI>
0

>  <Rbt.Current_Directory>
/home/itssahil/PROJECTS/Mol_Feturizer/New_Systems/rnas/2o3x

>  <Rbt.Executable>
rbdock ($Id: //depot/dev/client3/rdock/2013.1/src/exe/rbdock.cxx#4 $)

>  <Rbt.Library>
libRbt.so (2013.1, Build901 2013/11/27)

>  <Rbt.Parameter_File>
/export/apps/rDock/src/rDock_2013.1_src/data/scripts/dock_solv.prm

>  <Rbt.Receptor>
prm/pocket_docking_5.prm

>  <SCORE>
-12.4709

>  <SCORE.INTER>
-11.1256

>  <SCORE.INTER.CONST>
1

>  <SCORE.INTER.POLAR>
-1.4898

>  <SCORE.INTER.ROT>
6

>  <SCORE.INTER.SOLV>
8.37926

>  <SCORE.INTER.VDW>
-12.8441

>  <SCORE.INTER.norm>
-0.358889

>  <SCORE.INTRA>
-1.34533

>  <SCORE.INTRA.DIHEDRAL>
-5.46789

>  <SCORE.INTRA.DIHEDRAL.0>
9.37739

>  <SCORE.INTRA.POLAR>
0

>  <SCORE.INTRA.POLAR.0>
0

>  <SCORE.INTRA.REPUL>
0

>  <SCORE.INTRA.REPUL.0>
0

>  <SCORE.INTRA.SOLV>
-0.618886

>  <SCORE.INTRA.SOLV.lig_0>
-82.9274

>  <SCORE.INTRA.VDW>
1.69805

>  <SCORE.INTRA.VDW.0>
-3.84922

>  <SCORE.INTRA.norm>
-0.0433979

>  <SCORE.RESTR>
0

>  <SCORE.RESTR.CAVITY>
0

>  <SCORE.RESTR.norm>
0

>  <SCORE.SYSTEM>
0

>  <SCORE.SYSTEM.CONST>
0

>  <SCORE.SYSTEM.DIHEDRAL>
0

>  <SCORE.SYSTEM.SOLV>
0

>  <SCORE.SYSTEM.norm>
0

>  <SCORE.heavy>
31

>  <SCORE.norm>
-0.402287

>  <RMSD>
5.579

$$$$
2o3x_lig
 OpenBabel11021811463D
libRbt.so/2013.1/901 2013/11/27
 31 33  0  0  0  0  0  0  0  0999 V2000
   20.9343    8.1052    6.0894 C   0  0  2  0  0  0  0  0  0  0  0  0
   20.5113    8.6418    7.3498 O   0  0  0  0  0  0  0  0  0  0  0  0
   21.4571    7.5761   11.3831 C   0  0  2  0  0  0  0  0  0  0  0  0
   21.6904    6.8219   12.6346 N   0  0  0  0  0  0  0  0  0  0  0  0
   24.1874    6.8404    7.6633 C   0  0  1  0  0  0  0  0  0  0  0  0
   20.6769    9.1793    4.9855 C   0  0  2  0  0  0  0  0  0  0  0  0
   21.1880   10.5176    5.3772 N   0  0  0  0  0  0  0  0  0  0  0  0
   19.9501    7.5638   10.9610 C   0  0  0  0  0  0  0  0  0  0  0  0
   24.7131    5.4459    7.1888 C   0  0  2  0  0  0  0  0  0  0  0  0
   25.0237    4.4903    8.2398 O   0  0  0  0  0  0  0  0  0  0  0  0
   19.1763    9.3172    4.6661 C   0  0  1  0  0  0  0  0  0  0  0  0
   18.9733   10.2510    3.6360 O   0  0  0  0  0  0  0  0  0  0  0  0
   19.8012    8.4117    9.6452 C   0  0  2  0  0  0  0  0  0  0  0  0
   18.3814    8.4658    9.1841 N   0  0  0  0  0  0  0  0  0  0  0  0
   25.8875    5.9271    6.3533 C   0  0  2  0  0  0  0  0  0  0  0  0
   27.0365    6.2673    7.2029 O   0  0  0  0  0  0  0  0  0  0  0  0
   18.6086    7.9626    4.2770 C   0  0  2  0  0  0  0  0  0  0  0  0
   17.2584    8.0888    3.9658 O   0  0  0  0  0  0  0  0  0  0  0  0
   20.6673    7.8050    8.5047 C   0  0  2  0  0  0  0  0  0  0  0  0
   25.3601    7.1607    5.6299 C   0  0  2  0  0  0  0  0  0  0  0  0
   24.6199    7.7842    6.6757 O   0  0  0  0  0  0  0  0  0  0  0  0
   18.7990    6.9529    5.4440 C   0  0  2  0  0  0  0  0  0  0  0  0
   20.2019    6.8427    5.7672 O   0  0  0  0  0  0  0  0  0  0  0  0
   22.1607    7.6892    8.8692 C   0  0  2  0  0  0  0  0  0  0  0  0
   22.7580    6.8806    7.7953 O   0  0  0  0  0  0  0  0  0  0  0  0
   24.4349    6.8606    4.4022 C   0  0  0  0  0  0  0  0  0  0  0  0
   23.8489    8.0681    3.9244 N   0  0  0  0  0  0  0  0  0  0  0  0
   18.2700    5.5773    5.1103 C   0  0  0  0  0  0  0  0  0  0  0  0
   16.9035    5.5936    4.9097 O   0  0  0  0  0  0  0  0  0  0  0  0
   22.3308    6.9610   10.2751 C   0  0  1  0  0  0  0  0  0  0  0  0
   23.6862    7.0338   10.7427 O   0  0  0  0  0  0  0  0  0  0  0  0
  1  2  1  1  0  0  0
  1  6  1  0  0  0  0
  1 23  1  0  0  0  0
  3  4  1  1  0  0  0
  3  8  1  0  0  0  0
  3 30  1  0  0  0  0
  5  9  1  0  0  0  0
  5 21  1  0  0  0  0
  5 25  1  6  0  0  0
  6  7  1  1  0  0  0
  6 11  1  0  0  0  0
  8 13  1  0  0  0  0
  9 10  1  1  0  0  0
  9 15  1  0  0  0  0
 11 12  1  6  0  0  0
 11 17  1  0  0  0  0
 13 14  1  6  0  0  0
 13 19  1  0  0  0  0
 15 16  1  1  0  0  0
 15 20  1  0  0  0  0
 17 18  1  1  0  0  0
 17 22  1  0  0  0  0
 19  2  1  6  0  0  0
 19 24  1  0  0  0  0
 20 21  1  0  0  0  0
 20 26  1  6  0  0  0
 22 23  1  0  0  0  0
 22 28  1  6  0  0  0
 24 25  1  6  0  0  0
 24 30  1  0  0  0  0
 26 27  1  0  0  0  0
 28 29  1  0  0  0  0
 30 31  1  1  0  0  0
M  END
>  <CHROM.1>
-179.85937435,144.98039896,-164.46407780,171.66155145,-63.86500766,165.74195962
21.59572445,7.43994187,7.03544305,-2.60559741,-0.20589361,1.66607781

>  <Name>
2o3x_lig

>  <RI>
0

>  <Rbt.Current_Directory>
/home/itssahil/PROJECTS/Mol_Feturizer/New_Systems/rnas/2o3x

>  <Rbt.Executable>
rbdock ($Id: //depot/dev/client3/rdock/2013.1/src/exe/rbdock.cxx#4 $)

>  <Rbt.Library>
libRbt.so (2013.1, Build901 2013/11/27)

>  <Rbt.Parameter_File>
/export/apps/rDock/src/rDock_2013.1_src/data/scripts/dock_solv.prm

>  <Rbt.Receptor>
prm/pocket_docking_4.prm

>  <SCORE>
-10.7129

>  <SCORE.INTER>
-9.97573

>  <SCORE.INTER.CONST>
1

>  <SCORE.INTER.POLAR>
-1.22734

>  <SCORE.INTER.ROT>
6

>  <SCORE.INTER.SOLV>
15.4835

>  <SCORE.INTER.VDW>
-15.3205

>  <SCORE.INTER.norm>
-0.321798

>  <SCORE.INTRA>
-0.749945

>  <SCORE.INTRA.DIHEDRAL>
-2.29252

>  <SCORE.INTRA.DIHEDRAL.0>
9.37739

>  <SCORE.INTRA.POLAR>
0

>  <SCORE.INTRA.POLAR.0>
0

>  <SCORE.INTRA.REPUL>
0

>  <SCORE.INTRA.REPUL.0>
0

>  <SCORE.INTRA.SOLV>
-0.310684

>  <SCORE.INTRA.SOLV.lig_0>
-82.9274

>  <SCORE.INTRA.VDW>
0.551657

>  <SCORE.INTRA.VDW.0>
-3.84922

>  <SCORE.INTRA.norm>
-0.0241918

>  <SCORE.RESTR>
0.0128073

>  <SCORE.RESTR.CAVITY>
0.0128073

>  <SCORE.RESTR.norm>
0.000413138

>  <SCORE.SYSTEM>
0

>  <SCORE.SYSTEM.CONST>
0

>  <SCORE.SYSTEM.DIHEDRAL>
0

>  <SCORE.SYSTEM.SOLV>
0

>  <SCORE.SYSTEM.norm>
0

>  <SCORE.heavy>
31

>  <SCORE.norm>
-0.345576

>  <RMSD>
5.585

$$$$
2o3x_lig
 OpenBabel11021811463D
libRbt.so/2013.1/901 2013/11/27
 31 33  0  0  0  0  0  0  0  0999 V2000
   19.7225    7.2016    5.2494 C   0  0  2  0  0  0  0  0  0  0  0  0
   19.9231    7.9201    6.4738 O   0  0  0  0  0  0  0  0  0  0  0  0
   22.1257    6.9768   10.0173 C   0  0  2  0  0  0  0  0  0  0  0  0
   22.6728    6.2889   11.2076 N   0  0  0  0  0  0  0  0  0  0  0  0
   21.1431    4.4471    6.6176 C   0  0  1  0  0  0  0  0  0  0  0  0
   19.4045    8.2321    4.1201 C   0  0  2  0  0  0  0  0  0  0  0  0
   20.3639    9.3658    4.1109 N   0  0  0  0  0  0  0  0  0  0  0  0
   20.6011    7.2954   10.1708 C   0  0  0  0  0  0  0  0  0  0  0  0
   20.9415    3.6016    5.3174 C   0  0  2  0  0  0  0  0  0  0  0  0
   19.6934    3.8179    4.6033 O   0  0  0  0  0  0  0  0  0  0  0  0
   17.9842    8.8111    4.2630 C   0  0  1  0  0  0  0  0  0  0  0  0
   17.7021    9.6962    3.2088 O   0  0  0  0  0  0  0  0  0  0  0  0
   20.1235    8.0484    8.8758 C   0  0  2  0  0  0  0  0  0  0  0  0
   18.6754    8.4071    8.9513 N   0  0  0  0  0  0  0  0  0  0  0  0
   21.1364    2.2210    5.9213 C   0  0  2  0  0  0  0  0  0  0  0  0
   19.9216    1.7702    6.6131 O   0  0  0  0  0  0  0  0  0  0  0  0
   16.9705    7.6798    4.2947 C   0  0  2  0  0  0  0  0  0  0  0  0
   15.6849    8.2012    4.4006 O   0  0  0  0  0  0  0  0  0  0  0  0
   20.3472    7.1633    7.6165 C   0  0  2  0  0  0  0  0  0  0  0  0
   22.2901    2.3939    6.9023 C   0  0  2  0  0  0  0  0  0  0  0  0
   21.9529    3.6480    7.4887 O   0  0  0  0  0  0  0  0  0  0  0  0
   17.2676    6.7351    5.4934 C   0  0  2  0  0  0  0  0  0  0  0  0
   18.6091    6.2131    5.3797 O   0  0  0  0  0  0  0  0  0  0  0  0
   21.8125    6.7197    7.4359 C   0  0  2  0  0  0  0  0  0  0  0  0
   21.7804    5.7094    6.3672 O   0  0  0  0  0  0  0  0  0  0  0  0
   23.7108    2.4560    6.2458 C   0  0  0  0  0  0  0  0  0  0  0  0
   24.7112    2.1560    7.2148 N   0  0  0  0  0  0  0  0  0  0  0  0
   16.3021    5.5751    5.5685 C   0  0  0  0  0  0  0  0  0  0  0  0
   16.5341    4.7926    6.6828 O   0  0  0  0  0  0  0  0  0  0  0  0
   22.3672    6.0843    8.7866 C   0  0  1  0  0  0  0  0  0  0  0  0
   23.7843    5.8644    8.7193 O   0  0  0  0  0  0  0  0  0  0  0  0
  1  2  1  1  0  0  0
  1  6  1  0  0  0  0
  1 23  1  0  0  0  0
  3  4  1  1  0  0  0
  3  8  1  0  0  0  0
  3 30  1  0  0  0  0
  5  9  1  0  0  0  0
  5 21  1  0  0  0  0
  5 25  1  6  0  0  0
  6  7  1  1  0  0  0
  6 11  1  0  0  0  0
  8 13  1  0  0  0  0
  9 10  1  1  0  0  0
  9 15  1  0  0  0  0
 11 12  1  6  0  0  0
 11 17  1  0  0  0  0
 13 14  1  1  0  0  0
 13 19  1  0  0  0  0
 15 16  1  1  0  0  0
 15 20  1  0  0  0  0
 17 18  1  1  0  0  0
 17 22  1  0  0  0  0
 19  2  1  6  0  0  0
 19 24  1  0  0  0  0
 20 21  1  0  0  0  0
 20 26  1  6  0  0  0
 22 23  1  0  0  0  0
 22 28  1  6  0  0  0
 24 25  1  6  0  0  0
 24 30  1  0  0  0  0
 26 27  1  0  0  0  0
 28 29  1  0  0  0  0
 30 31  1  6  0  0  0
M  END
>  <CHROM.1>
-174.52083855,168.62191041,-164.84735472,-160.04718260,-176.48047048,-67.92318146
20.17099891,5.96786118,6.56702839,2.84850914,-0.73747443,0.49794753

>  <Name>
2o3x_lig

>  <RI>
0

>  <Rbt.Current_Directory>
/home/itssahil/PROJECTS/Mol_Feturizer/New_Systems/rnas/2o3x

>  <Rbt.Executable>
rbdock ($Id: //depot/dev/client3/rdock/2013.1/src/exe/rbdock.cxx#4 $)

>  <Rbt.Library>
libRbt.so (2013.1, Build901 2013/11/27)

>  <Rbt.Parameter_File>
/export/apps/rDock/src/rDock_2013.1_src/data/scripts/dock_solv.prm

>  <Rbt.Receptor>
prm/pocket_docking_8.prm

>  <SCORE>
-5.75532

>  <SCORE.INTER>
-2.52739

>  <SCORE.INTER.CONST>
1

>  <SCORE.INTER.POLAR>
-0.823104

>  <SCORE.INTER.ROT>
6

>  <SCORE.INTER.SOLV>
11.2138

>  <SCORE.INTER.VDW>
-10.2792

>  <SCORE.INTER.norm>
-0.0815286

>  <SCORE.INTRA>
-3.22794

>  <SCORE.INTRA.DIHEDRAL>
-5.79235

>  <SCORE.INTRA.DIHEDRAL.0>
9.37739

>  <SCORE.INTRA.POLAR>
0

>  <SCORE.INTRA.POLAR.0>
0

>  <SCORE.INTRA.REPUL>
0

>  <SCORE.INTRA.REPUL.0>
0

>  <SCORE.INTRA.SOLV>
-2.08108

>  <SCORE.INTRA.SOLV.lig_0>
-82.9274

>  <SCORE.INTRA.VDW>
0.708775

>  <SCORE.INTRA.VDW.0>
-3.84922

>  <SCORE.INTRA.norm>
-0.104127

>  <SCORE.RESTR>
0

>  <SCORE.RESTR.CAVITY>
0

>  <SCORE.RESTR.norm>
0

>  <SCORE.SYSTEM>
0

>  <SCORE.SYSTEM.CONST>
0

>  <SCORE.SYSTEM.DIHEDRAL>
0

>  <SCORE.SYSTEM.SOLV>
0

>  <SCORE.SYSTEM.norm>
0

>  <SCORE.heavy>
31

>  <SCORE.norm>
-0.185656

>  <RMSD>
5.597

$$$$
2o3x_lig
 OpenBabel11021811463D
libRbt.so/2013.1/901 2013/11/27
 31 33  0  0  0  0  0  0  0  0999 V2000
   16.5551    8.7061    6.4256 C   0  0  2  0  0  0  0  0  0  0  0  0
   16.9989    8.1493    7.6700 O   0  0  0  0  0  0  0  0  0  0  0  0
   16.8099   11.8265    9.8473 C   0  0  2  0  0  0  0  0  0  0  0  0
   16.8892   12.8520   10.9111 N   0  0  0  0  0  0  0  0  0  0  0  0
   19.8639    8.7555    9.9831 C   0  0  1  0  0  0  0  0  0  0  0  0
   16.1845    7.5320    5.4650 C   0  0  2  0  0  0  0  0  0  0  0  0
   15.3158    6.5233    6.1235 N   0  0  0  0  0  0  0  0  0  0  0  0
   15.7259   10.7408   10.1562 C   0  0  0  0  0  0  0  0  0  0  0  0
   19.0477    7.4980   10.4289 C   0  0  2  0  0  0  0  0  0  0  0  0
   17.8254    7.7615   11.1711 O   0  0  0  0  0  0  0  0  0  0  0  0
   17.4398    6.8098    4.9402 C   0  0  1  0  0  0  0  0  0  0  0  0
   17.0847    5.7915    4.0395 O   0  0  0  0  0  0  0  0  0  0  0  0
   15.6976    9.7201    8.9605 C   0  0  2  0  0  0  0  0  0  0  0  0
   14.6699    8.6565    9.1701 N   0  0  0  0  0  0  0  0  0  0  0  0
   20.1501    6.7791   11.1885 C   0  0  2  0  0  0  0  0  0  0  0  0
   20.3309    7.3542   12.5280 O   0  0  0  0  0  0  0  0  0  0  0  0
   18.3664    7.8122    4.2729 C   0  0  2  0  0  0  0  0  0  0  0  0
   19.4903    7.1586    3.7777 O   0  0  0  0  0  0  0  0  0  0  0  0
   17.0855    9.0384    8.7927 C   0  0  2  0  0  0  0  0  0  0  0  0
   21.3962    6.9833   10.3348 C   0  0  2  0  0  0  0  0  0  0  0  0
   21.2373    8.3480    9.9571 O   0  0  0  0  0  0  0  0  0  0  0  0
   18.7875    8.9064    5.2941 C   0  0  2  0  0  0  0  0  0  0  0  0
   17.6120    9.5663    5.8116 O   0  0  0  0  0  0  0  0  0  0  0  0
   18.2356   10.0422    8.5777 C   0  0  2  0  0  0  0  0  0  0  0  0
   19.4678    9.2472    8.6934 O   0  0  0  0  0  0  0  0  0  0  0  0
   21.4854    6.0668    9.0677 C   0  0  0  0  0  0  0  0  0  0  0  0
   22.7219    6.2829    8.3937 N   0  0  0  0  0  0  0  0  0  0  0  0
   19.6972    9.9473    4.6840 C   0  0  0  0  0  0  0  0  0  0  0  0
   20.0575   10.9102    5.6064 O   0  0  0  0  0  0  0  0  0  0  0  0
   18.1962   11.1744    9.6967 C   0  0  1  0  0  0  0  0  0  0  0  0
   19.1126   12.2386    9.3985 O   0  0  0  0  0  0  0  0  0  0  0  0
  1  2  1  1  0  0  0
  1  6  1  0  0  0  0
  1 23  1  0  0  0  0
  3  4  1  1  0  0  0
  3  8  1  0  0  0  0
  3 30  1  0  0  0  0
  5  9  1  0  0  0  0
  5 21  1  0  0  0  0
  5 25  1  6  0  0  0
  6  7  1  1  0  0  0
  6 11  1  0  0  0  0
  8 13  1  0  0  0  0
  9 10  1  1  0  0  0
  9 15  1  0  0  0  0
 11 12  1  6  0  0  0
 11 17  1  0  0  0  0
 13 14  1  1  0  0  0
 13 19  1  0  0  0  0
 15 16  1  1  0  0  0
 15 20  1  0  0  0  0
 17 18  1  1  0  0  0
 17 22  1  0  0  0  0
 19  2  1  6  0  0  0
 19 24  1  0  0  0  0
 20 21  1  0  0  0  0
 20 26  1  6  0  0  0
 22 23  1  0  0  0  0
 22 28  1  6  0  0  0
 24 25  1  1  0  0  0
 24 30  1  0  0  0  0
 26 27  1  0  0  0  0
 28 29  1  0  0  0  0
 30 31  1  6  0  0  0
M  END
>  <CHROM.1>
-165.59043084,77.90325882,54.61675311,-176.43089977,179.90374683,-71.32136365
18.40479020,8.68179257,8.09605893,1.84627961,0.63615006,-1.97847490

>  <Name>
2o3x_lig

>  <RI>
3.34184e+07

>  <Rbt.Current_Directory>
/home/itssahil/PROJECTS/Mol_Feturizer/New_Systems/rnas/2o3x

>  <Rbt.Executable>
rbdock ($Id: //depot/dev/client3/rdock/2013.1/src/exe/rbdock.cxx#4 $)

>  <Rbt.Library>
libRbt.so (2013.1, Build901 2013/11/27)

>  <Rbt.Parameter_File>
/export/apps/rDock/src/rDock_2013.1_src/data/scripts/dock_solv.prm

>  <Rbt.Receptor>
prm/pocket_docking_6.prm

>  <SCORE>
-16.751

>  <SCORE.INTER>
-15.2713

>  <SCORE.INTER.CONST>
1

>  <SCORE.INTER.POLAR>
-2.43233

>  <SCORE.INTER.ROT>
6

>  <SCORE.INTER.SOLV>
8.76709

>  <SCORE.INTER.VDW>
-12.5954

>  <SCORE.INTER.norm>
-0.492622

>  <SCORE.INTRA>
-1.47973

>  <SCORE.INTRA.DIHEDRAL>
-5.96127

>  <SCORE.INTRA.DIHEDRAL.0>
9.37739

>  <SCORE.INTRA.POLAR>
0

>  <SCORE.INTRA.POLAR.0>
0

>  <SCORE.INTRA.REPUL>
0

>  <SCORE.INTRA.REPUL.0>
0

>  <SCORE.INTRA.SOLV>
-0.29432

>  <SCORE.INTRA.SOLV.lig_0>
-82.9274

>  <SCORE.INTRA.VDW>
1.64807

>  <SCORE.INTRA.VDW.0>
-3.84922

>  <SCORE.INTRA.norm>
-0.0477332

>  <SCORE.RESTR>
0

>  <SCORE.RESTR.CAVITY>
0

>  <SCORE.RESTR.norm>
0

>  <SCORE.SYSTEM>
0

>  <SCORE.SYSTEM.CONST>
0

>  <SCORE.SYSTEM.DIHEDRAL>
0

>  <SCORE.SYSTEM.SOLV>
0

>  <SCORE.SYSTEM.norm>
0

>  <SCORE.heavy>
31

>  <SCORE.norm>
-0.540355

>  <RMSD>
5.611

$$$$
2o3x_lig
 OpenBabel11021811463D
libRbt.so/2013.1/901 2013/11/27
 31 33  0  0  0  0  0  0  0  0999 V2000
   19.1663   10.0857    5.1868 C   0  0  2  0  0  0  0  0  0  0  0  0
   18.6159    9.0509    4.3611 O   0  0  0  0  0  0  0  0  0  0  0  0
   15.5522    6.1923    5.2214 C   0  0  2  0  0  0  0  0  0  0  0  0
   14.7550    5.1072    5.8350 N   0  0  0  0  0  0  0  0  0  0  0  0
   16.2878    9.7921    7.8492 C   0  0  1  0  0  0  0  0  0  0  0  0
   20.1685   10.9202    4.3281 C   0  0  2  0  0  0  0  0  0  0  0  0
   19.5909   11.3115    3.0170 N   0  0  0  0  0  0  0  0  0  0  0  0
   16.8892    5.6630    4.6035 C   0  0  0  0  0  0  0  0  0  0  0  0
   16.2720    8.9521    9.1684 C   0  0  2  0  0  0  0  0  0  0  0  0
   15.3315    7.8438    9.2074 O   0  0  0  0  0  0  0  0  0  0  0  0
   21.4719   10.1436    4.0617 C   0  0  1  0  0  0  0  0  0  0  0  0
   22.3774   10.9320    3.3317 O   0  0  0  0  0  0  0  0  0  0  0  0
   17.6455    6.8787    3.9535 C   0  0  2  0  0  0  0  0  0  0  0  0
   18.9300    6.4524    3.3215 N   0  0  0  0  0  0  0  0  0  0  0  0
   16.0117   10.0854   10.1467 C   0  0  2  0  0  0  0  0  0  0  0  0
   14.5907   10.4572   10.1590 O   0  0  0  0  0  0  0  0  0  0  0  0
   22.0876    9.7081    5.3808 C   0  0  2  0  0  0  0  0  0  0  0  0
   23.2770    9.0263    5.1438 O   0  0  0  0  0  0  0  0  0  0  0  0
   17.9588    7.9619    5.0249 C   0  0  2  0  0  0  0  0  0  0  0  0
   16.8716   11.2351    9.6350 C   0  0  2  0  0  0  0  0  0  0  0  0
   16.6542   11.1235    8.2312 O   0  0  0  0  0  0  0  0  0  0  0  0
   21.0923    8.7990    6.1558 C   0  0  2  0  0  0  0  0  0  0  0  0
   19.8575    9.5125    6.3817 O   0  0  0  0  0  0  0  0  0  0  0  0
   16.7034    8.4761    5.7569 C   0  0  2  0  0  0  0  0  0  0  0  0
   17.2132    9.2827    6.8765 O   0  0  0  0  0  0  0  0  0  0  0  0
   18.3975   11.1169    9.9682 C   0  0  0  0  0  0  0  0  0  0  0  0
   19.0762   12.3090    9.5834 N   0  0  0  0  0  0  0  0  0  0  0  0
   21.6406    8.3469    7.4893 C   0  0  0  0  0  0  0  0  0  0  0  0
   21.4341    9.2960    8.4714 O   0  0  0  0  0  0  0  0  0  0  0  0
   15.8408    7.2525    6.2994 C   0  0  1  0  0  0  0  0  0  0  0  0
   14.5635    7.6878    6.7896 O   0  0  0  0  0  0  0  0  0  0  0  0
  1  2  1  6  0  0  0
  1  6  1  0  0  0  0
  1 23  1  0  0  0  0
  3  4  1  1  0  0  0
  3  8  1  0  0  0  0
  3 30  1  0  0  0  0
  5  9  1  0  0  0  0
  5 21  1  0  0  0  0
  5 25  1  6  0  0  0
  6  7  1  6  0  0  0
  6 11  1  0  0  0  0
  8 13  1  0  0  0  0
  9 10  1  6  0  0  0
  9 15  1  0  0  0  0
 11 12  1  1  0  0  0
 11 17  1  0  0  0  0
 13 14  1  1  0  0  0
 13 19  1  0  0  0  0
 15 16  1  6  0  0  0
 15 20  1  0  0  0  0
 17 18  1  6  0  0  0
 17 22  1  0  0  0  0
 19  2  1  6  0  0  0
 19 24  1  0  0  0  0
 20 21  1  0  0  0  0
 20 26  1  6  0  0  0
 22 23  1  0  0  0  0
 22 28  1  1  0  0  0
 24 25  1  1  0  0  0
 24 30  1  0  0  0  0
 26 27  1  0  0  0  0
 28 29  1  0  0  0  0
 30 31  1  6  0  0  0
M  END
>  <CHROM.1>
163.66105892,101.13058094,-171.51524888,-173.27652248,83.83449295,-173.29706095
18.28009538,9.08157638,6.50653984,-0.37504211,0.46417778,0.93471902

>  <Name>
2o3x_lig

>  <RI>
3.34184e+07

>  <Rbt.Current_Directory>
/home/itssahil/PROJECTS/Mol_Feturizer/New_Systems/rnas/2o3x

>  <Rbt.Executable>
rbdock ($Id: //depot/dev/client3/rdock/2013.1/src/exe/rbdock.cxx#4 $)

>  <Rbt.Library>
libRbt.so (2013.1, Build901 2013/11/27)

>  <Rbt.Parameter_File>
/export/apps/rDock/src/rDock_2013.1_src/data/scripts/dock_solv.prm

>  <Rbt.Receptor>
prm/pocket_docking_6.prm

>  <SCORE>
-12.2249

>  <SCORE.INTER>
-13.231

>  <SCORE.INTER.CONST>
1

>  <SCORE.INTER.POLAR>
-1.09187

>  <SCORE.INTER.ROT>
6

>  <SCORE.INTER.SOLV>
20.0646

>  <SCORE.INTER.VDW>
-19.4693

>  <SCORE.INTER.norm>
-0.426806

>  <SCORE.INTRA>
1.00607

>  <SCORE.INTRA.DIHEDRAL>
0.124188

>  <SCORE.INTRA.DIHEDRAL.0>
9.37739

>  <SCORE.INTRA.POLAR>
0

>  <SCORE.INTRA.POLAR.0>
0

>  <SCORE.INTRA.REPUL>
0.0246264

>  <SCORE.INTRA.REPUL.0>
0

>  <SCORE.INTRA.SOLV>
-1.82056

>  <SCORE.INTRA.SOLV.lig_0>
-82.9274

>  <SCORE.INTRA.VDW>
1.73112

>  <SCORE.INTRA.VDW.0>
-3.84922

>  <SCORE.INTRA.norm>
0.0324538

>  <SCORE.RESTR>
0

>  <SCORE.RESTR.CAVITY>
0

>  <SCORE.RESTR.norm>
0

>  <SCORE.SYSTEM>
0

>  <SCORE.SYSTEM.CONST>
0

>  <SCORE.SYSTEM.DIHEDRAL>
0

>  <SCORE.SYSTEM.SOLV>
0

>  <SCORE.SYSTEM.norm>
0

>  <SCORE.heavy>
31

>  <SCORE.norm>
-0.394352

>  <RMSD>
5.613

$$$$
2o3x_lig
 OpenBabel11021811463D
libRbt.so/2013.1/901 2013/11/27
 31 33  0  0  0  0  0  0  0  0999 V2000
   16.9483    8.9302    6.5098 C   0  0  2  0  0  0  0  0  0  0  0  0
   17.6362    8.4418    7.6690 O   0  0  0  0  0  0  0  0  0  0  0  0
   17.1992   12.0350    9.9485 C   0  0  2  0  0  0  0  0  0  0  0  0
   17.2511   13.0474   11.0263 N   0  0  0  0  0  0  0  0  0  0  0  0
   20.2702    8.7268    7.5962 C   0  0  1  0  0  0  0  0  0  0  0  0
   16.4479    7.7047    5.6813 C   0  0  2  0  0  0  0  0  0  0  0  0
   15.7543    6.7019    6.5293 N   0  0  0  0  0  0  0  0  0  0  0  0
   16.2932   10.8168   10.3286 C   0  0  0  0  0  0  0  0  0  0  0  0
   21.7553    8.6443    7.1129 C   0  0  2  0  0  0  0  0  0  0  0  0
   22.0729    9.3804    5.8997 O   0  0  0  0  0  0  0  0  0  0  0  0
   17.6086    6.9959    4.9580 C   0  0  1  0  0  0  0  0  0  0  0  0
   17.1288    5.9291    4.1796 O   0  0  0  0  0  0  0  0  0  0  0  0
   16.2785    9.8173    9.1148 C   0  0  2  0  0  0  0  0  0  0  0  0
   15.4160    8.6296    9.3915 N   0  0  0  0  0  0  0  0  0  0  0  0
   21.8746    7.1318    7.0285 C   0  0  2  0  0  0  0  0  0  0  0  0
   21.2607    6.6210    5.7956 O   0  0  0  0  0  0  0  0  0  0  0  0
   18.3576    7.9937    4.0908 C   0  0  2  0  0  0  0  0  0  0  0  0
   19.3924    7.3510    3.4187 O   0  0  0  0  0  0  0  0  0  0  0  0
   17.7181    9.3191    8.8013 C   0  0  2  0  0  0  0  0  0  0  0  0
   21.1327    6.6221    8.2585 C   0  0  2  0  0  0  0  0  0  0  0  0
   20.0001    7.4868    8.2614 O   0  0  0  0  0  0  0  0  0  0  0  0
   18.9219    9.1436    4.9724 C   0  0  2  0  0  0  0  0  0  0  0  0
   17.8404    9.7920    5.6759 O   0  0  0  0  0  0  0  0  0  0  0  0
   18.7084   10.4631    8.5064 C   0  0  2  0  0  0  0  0  0  0  0  0
   20.0354    9.8287    8.4866 O   0  0  0  0  0  0  0  0  0  0  0  0
   21.9242    6.7452    9.6045 C   0  0  0  0  0  0  0  0  0  0  0  0
   21.1548    6.2061   10.6756 N   0  0  0  0  0  0  0  0  0  0  0  0
   19.6637   10.1818    4.1630 C   0  0  0  0  0  0  0  0  0  0  0  0
   20.1867   11.1748    4.9682 O   0  0  0  0  0  0  0  0  0  0  0  0
   18.6351   11.5656    9.6531 C   0  0  1  0  0  0  0  0  0  0  0  0
   19.3791   12.7412    9.2985 O   0  0  0  0  0  0  0  0  0  0  0  0
  1  2  1  1  0  0  0
  1  6  1  0  0  0  0
  1 23  1  0  0  0  0
  3  4  1  1  0  0  0
  3  8  1  0  0  0  0
  3 30  1  0  0  0  0
  5  9  1  0  0  0  0
  5 21  1  0  0  0  0
  5 25  1  1  0  0  0
  6  7  1  1  0  0  0
  6 11  1  0  0  0  0
  8 13  1  0  0  0  0
  9 10  1  6  0  0  0
  9 15  1  0  0  0  0
 11 12  1  6  0  0  0
 11 17  1  0  0  0  0
 13 14  1  1  0  0  0
 13 19  1  0  0  0  0
 15 16  1  6  0  0  0
 15 20  1  0  0  0  0
 17 18  1  1  0  0  0
 17 22  1  0  0  0  0
 19  2  1  6  0  0  0
 19 24  1  0  0  0  0
 20 21  1  0  0  0  0
 20 26  1  1  0  0  0
 22 23  1  0  0  0  0
 22 28  1  6  0  0  0
 24 25  1  1  0  0  0
 24 30  1  0  0  0  0
 26 27  1  0  0  0  0
 28 29  1  0  0  0  0
 30 31  1  6  0  0  0
M  END
>  <CHROM.1>
-156.27190817,149.65833299,51.44428232,-178.32683397,-178.40552581,55.83665371
18.88046514,8.90634433,7.29922117,1.90431122,-0.32403207,0.99686821

>  <Name>
2o3x_lig

>  <RI>
0

>  <Rbt.Current_Directory>
/home/itssahil/PROJECTS/Mol_Feturizer/New_Systems/rnas/2o3x

>  <Rbt.Executable>
rbdock ($Id: //depot/dev/client3/rdock/2013.1/src/exe/rbdock.cxx#4 $)

>  <Rbt.Library>
libRbt.so (2013.1, Build901 2013/11/27)

>  <Rbt.Parameter_File>
/export/apps/rDock/src/rDock_2013.1_src/data/scripts/dock_solv.prm

>  <Rbt.Receptor>
prm/pocket_docking_8.prm

>  <SCORE>
-13.6925

>  <SCORE.INTER>
-14.5133

>  <SCORE.INTER.CONST>
1

>  <SCORE.INTER.POLAR>
-1.84572

>  <SCORE.INTER.ROT>
6

>  <SCORE.INTER.SOLV>
8.65892

>  <SCORE.INTER.VDW>
-14.0094

>  <SCORE.INTER.norm>
-0.46817

>  <SCORE.INTRA>
0.820744

>  <SCORE.INTRA.DIHEDRAL>
-2.65074

>  <SCORE.INTRA.DIHEDRAL.0>
9.37739

>  <SCORE.INTRA.POLAR>
0

>  <SCORE.INTRA.POLAR.0>
0

>  <SCORE.INTRA.REPUL>
0.126957

>  <SCORE.INTRA.REPUL.0>
0

>  <SCORE.INTRA.SOLV>
1.39168

>  <SCORE.INTRA.SOLV.lig_0>
-82.9274

>  <SCORE.INTRA.VDW>
0.815488

>  <SCORE.INTRA.VDW.0>
-3.84922

>  <SCORE.INTRA.norm>
0.0264756

>  <SCORE.RESTR>
0

>  <SCORE.RESTR.CAVITY>
0

>  <SCORE.RESTR.norm>
0

>  <SCORE.SYSTEM>
0

>  <SCORE.SYSTEM.CONST>
0

>  <SCORE.SYSTEM.DIHEDRAL>
0

>  <SCORE.SYSTEM.SOLV>
0

>  <SCORE.SYSTEM.norm>
0

>  <SCORE.heavy>
31

>  <SCORE.norm>
-0.441694

>  <RMSD>
5.631

$$$$
2o3x_lig
 OpenBabel11021811463D
libRbt.so/2013.1/901 2013/11/27
 31 33  0  0  0  0  0  0  0  0999 V2000
   19.4457    8.9806    6.4903 C   0  0  2  0  0  0  0  0  0  0  0  0
   18.8449   10.0704    7.2021 O   0  0  0  0  0  0  0  0  0  0  0  0
   16.7630   10.7733   10.8723 C   0  0  2  0  0  0  0  0  0  0  0  0
   16.1146   10.6035   12.1914 N   0  0  0  0  0  0  0  0  0  0  0  0
   20.2579    8.3208   10.2505 C   0  0  1  0  0  0  0  0  0  0  0  0
   20.1131    9.5457    5.1965 C   0  0  2  0  0  0  0  0  0  0  0  0
   20.9515   10.7394    5.4752 N   0  0  0  0  0  0  0  0  0  0  0  0
   16.0037   10.0047    9.7401 C   0  0  0  0  0  0  0  0  0  0  0  0
   19.8365    7.2171    9.2256 C   0  0  2  0  0  0  0  0  0  0  0  0
   18.4123    6.9361    9.1408 O   0  0  0  0  0  0  0  0  0  0  0  0
   19.0626    9.9374    4.1402 C   0  0  1  0  0  0  0  0  0  0  0  0
   19.6867   10.3949    2.9674 O   0  0  0  0  0  0  0  0  0  0  0  0
   16.7480   10.2705    8.3808 C   0  0  2  0  0  0  0  0  0  0  0  0
   16.0712    9.5834    7.2401 N   0  0  0  0  0  0  0  0  0  0  0  0
   20.7113    6.0890    9.7463 C   0  0  2  0  0  0  0  0  0  0  0  0
   20.1149    5.4623   10.9334 O   0  0  0  0  0  0  0  0  0  0  0  0
   18.1698    8.7455    3.8387 C   0  0  2  0  0  0  0  0  0  0  0  0
   17.2347    9.0902    2.8679 O   0  0  0  0  0  0  0  0  0  0  0  0
   18.2181    9.7683    8.4568 C   0  0  2  0  0  0  0  0  0  0  0  0
   22.0346    6.7619   10.0918 C   0  0  2  0  0  0  0  0  0  0  0  0
   21.5694    7.9623   10.7025 O   0  0  0  0  0  0  0  0  0  0  0  0
   17.4507    8.2800    5.1363 C   0  0  2  0  0  0  0  0  0  0  0  0
   18.4315    7.9401    6.1400 O   0  0  0  0  0  0  0  0  0  0  0  0
   19.0206   10.4041    9.6092 C   0  0  2  0  0  0  0  0  0  0  0  0
   20.2737    9.6367    9.6757 O   0  0  0  0  0  0  0  0  0  0  0  0
   22.9502    7.0868    8.8632 C   0  0  0  0  0  0  0  0  0  0  0  0
   23.2759    5.8882    8.1651 N   0  0  0  0  0  0  0  0  0  0  0  0
   16.5597    7.0817    4.9054 C   0  0  0  0  0  0  0  0  0  0  0  0
   15.8284    6.7676    6.0343 O   0  0  0  0  0  0  0  0  0  0  0  0
   18.2163   10.2769   10.9777 C   0  0  1  0  0  0  0  0  0  0  0  0
   18.8314   11.0477   12.0211 O   0  0  0  0  0  0  0  0  0  0  0  0
  1  2  1  6  0  0  0
  1  6  1  0  0  0  0
  1 23  1  0  0  0  0
  3  4  1  1  0  0  0
  3  8  1  0  0  0  0
  3 30  1  0  0  0  0
  5  9  1  0  0  0  0
  5 21  1  0  0  0  0
  5 25  1  6  0  0  0
  6  7  1  1  0  0  0
  6 11  1  0  0  0  0
  8 13  1  0  0  0  0
  9 10  1  1  0  0  0
  9 15  1  0  0  0  0
 11 12  1  6  0  0  0
 11 17  1  0  0  0  0
 13 14  1  6  0  0  0
 13 19  1  0  0  0  0
 15 16  1  1  0  0  0
 15 20  1  0  0  0  0
 17 18  1  6  0  0  0
 17 22  1  0  0  0  0
 19  2  1  6  0  0  0
 19 24  1  0  0  0  0
 20 21  1  0  0  0  0
 20 26  1  6  0  0  0
 22 23  1  0  0  0  0
 22 28  1  6  0  0  0
 24 25  1  1  0  0  0
 24 30  1  0  0  0  0
 26 27  1  0  0  0  0
 28 29  1  0  0  0  0
 30 31  1  1  0  0  0
M  END
>  <CHROM.1>
-177.64524777,84.33447986,-124.41372494,-59.78725583,-173.90997845,-75.42972865
18.93915954,8.74681751,7.94655643,-1.88337493,-0.55245278,1.50913522

>  <Name>
2o3x_lig

>  <RI>
0

>  <Rbt.Current_Directory>
/home/itssahil/PROJECTS/Mol_Feturizer/New_Systems/rnas/2o3x

>  <Rbt.Executable>
rbdock ($Id: //depot/dev/client3/rdock/2013.1/src/exe/rbdock.cxx#4 $)

>  <Rbt.Library>
libRbt.so (2013.1, Build901 2013/11/27)

>  <Rbt.Parameter_File>
/export/apps/rDock/src/rDock_2013.1_src/data/scripts/dock_solv.prm

>  <Rbt.Receptor>
prm/pocket_docking_4.prm

>  <SCORE>
-13.9144

>  <SCORE.INTER>
-15.6322

>  <SCORE.INTER.CONST>
1

>  <SCORE.INTER.POLAR>
-2.14865

>  <SCORE.INTER.ROT>
6

>  <SCORE.INTER.SOLV>
12.8619

>  <SCORE.INTER.VDW>
-15.1466

>  <SCORE.INTER.norm>
-0.504266

>  <SCORE.INTRA>
1.71435

>  <SCORE.INTRA.DIHEDRAL>
1.63749

>  <SCORE.INTRA.DIHEDRAL.0>
9.37739

>  <SCORE.INTRA.POLAR>
0

>  <SCORE.INTRA.POLAR.0>
0

>  <SCORE.INTRA.REPUL>
0

>  <SCORE.INTRA.REPUL.0>
0

>  <SCORE.INTRA.SOLV>
2.15104

>  <SCORE.INTRA.SOLV.lig_0>
-82.9274

>  <SCORE.INTRA.VDW>
-0.179916

>  <SCORE.INTRA.VDW.0>
-3.84922

>  <SCORE.INTRA.norm>
0.0553016

>  <SCORE.RESTR>
0.00345172

>  <SCORE.RESTR.CAVITY>
0.00345172

>  <SCORE.RESTR.norm>
0.000111346

>  <SCORE.SYSTEM>
0

>  <SCORE.SYSTEM.CONST>
0

>  <SCORE.SYSTEM.DIHEDRAL>
0

>  <SCORE.SYSTEM.SOLV>
0

>  <SCORE.SYSTEM.norm>
0

>  <SCORE.heavy>
31

>  <SCORE.norm>
-0.448853

>  <RMSD>
5.656

$$$$
2o3x_lig
 OpenBabel11021811463D
libRbt.so/2013.1/901 2013/11/27
 31 33  0  0  0  0  0  0  0  0999 V2000
   16.2042    9.3297    7.4835 C   0  0  2  0  0  0  0  0  0  0  0  0
   16.7057    8.5580    8.5829 O   0  0  0  0  0  0  0  0  0  0  0  0
   18.5292   11.8466   10.6222 C   0  0  2  0  0  0  0  0  0  0  0  0
   19.2219   12.6886   11.6225 N   0  0  0  0  0  0  0  0  0  0  0  0
   19.8765    7.7415   10.4221 C   0  0  1  0  0  0  0  0  0  0  0  0
   15.3423    8.3942    6.5778 C   0  0  2  0  0  0  0  0  0  0  0  0
   14.3700    7.5939    7.3652 N   0  0  0  0  0  0  0  0  0  0  0  0
   17.1309   11.3601   11.1296 C   0  0  0  0  0  0  0  0  0  0  0  0
   19.9658    6.1854   10.2924 C   0  0  2  0  0  0  0  0  0  0  0  0
   18.7340    5.4533   10.5395 O   0  0  0  0  0  0  0  0  0  0  0  0
   16.2198    7.4184    5.7712 C   0  0  1  0  0  0  0  0  0  0  0  0
   15.4275    6.6224    4.9268 O   0  0  0  0  0  0  0  0  0  0  0  0
   16.4655   10.5036    9.9912 C   0  0  2  0  0  0  0  0  0  0  0  0
   15.1119   10.0146   10.3913 N   0  0  0  0  0  0  0  0  0  0  0  0
   21.0954    5.9476   11.2806 C   0  0  2  0  0  0  0  0  0  0  0  0
   20.6030    5.9799   12.6641 O   0  0  0  0  0  0  0  0  0  0  0  0
   17.2431    8.1981    4.9627 C   0  0  2  0  0  0  0  0  0  0  0  0
   18.0220    7.3202    4.2155 O   0  0  0  0  0  0  0  0  0  0  0  0
   17.3520    9.2732    9.6456 C   0  0  2  0  0  0  0  0  0  0  0  0
   22.0729    7.0883   11.0231 C   0  0  2  0  0  0  0  0  0  0  0  0
   21.1699    8.1781   10.8571 O   0  0  0  0  0  0  0  0  0  0  0  0
   18.1420    9.0378    5.9139 C   0  0  2  0  0  0  0  0  0  0  0  0
   17.3206    9.9332    6.6939 O   0  0  0  0  0  0  0  0  0  0  0  0
   18.7852    9.6537    9.2243 C   0  0  2  0  0  0  0  0  0  0  0  0
   19.5259    8.3834    9.1863 O   0  0  0  0  0  0  0  0  0  0  0  0
   22.9686    6.9151    9.7499 C   0  0  0  0  0  0  0  0  0  0  0  0
   24.1599    7.6854    9.8812 N   0  0  0  0  0  0  0  0  0  0  0  0
   19.1713    9.8533    5.1663 C   0  0  0  0  0  0  0  0  0  0  0  0
   19.9581   10.5916    6.0287 O   0  0  0  0  0  0  0  0  0  0  0  0
   19.4302   10.6428   10.2928 C   0  0  1  0  0  0  0  0  0  0  0  0
   20.6729   11.1857    9.8215 O   0  0  0  0  0  0  0  0  0  0  0  0
  1  2  1  1  0  0  0
  1  6  1  0  0  0  0
  1 23  1  0  0  0  0
  3  4  1  1  0  0  0
  3  8  1  0  0  0  0
  3 30  1  0  0  0  0
  5  9  1  0  0  0  0
  5 21  1  0  0  0  0
  5 25  1  6  0  0  0
  6  7  1  1  0  0  0
  6 11  1  0  0  0  0
  8 13  1  0  0  0  0
  9 10  1  1  0  0  0
  9 15  1  0  0  0  0
 11 12  1  6  0  0  0
 11 17  1  0  0  0  0
 13 14  1  1  0  0  0
 13 19  1  0  0  0  0
 15 16  1  1  0  0  0
 15 20  1  0  0  0  0
 17 18  1  1  0  0  0
 17 22  1  0  0  0  0
 19  2  1  6  0  0  0
 19 24  1  0  0  0  0
 20 21  1  0  0  0  0
 20 26  1  6  0  0  0
 22 23  1  0  0  0  0
 22 28  1  6  0  0  0
 24 25  1  1  0  0  0
 24 30  1  0  0  0  0
 26 27  1  0  0  0  0
 28 29  1  0  0  0  0
 30 31  1  6  0  0  0
M  END
>  <CHROM.1>
-170.61936874,150.58904428,45.62961252,-156.42500313,179.96357100,-73.02614169
18.63074975,8.67571660,8.76392932,2.66520435,0.65531141,-2.31724161

>  <Name>
2o3x_lig

>  <RI>
2.78316e+07

>  <Rbt.Current_Directory>
/home/itssahil/PROJECTS/Mol_Feturizer/New_Systems/rnas/2o3x

>  <Rbt.Executable>
rbdock ($Id: //depot/dev/client3/rdock/2013.1/src/exe/rbdock.cxx#4 $)

>  <Rbt.Library>
libRbt.so (2013.1, Build901 2013/11/27)

>  <Rbt.Parameter_File>
/export/apps/rDock/src/rDock_2013.1_src/data/scripts/dock_solv.prm

>  <Rbt.Receptor>
prm/pocket_docking_7.prm

>  <SCORE>
-14.0833

>  <SCORE.INTER>
-14.1677

>  <SCORE.INTER.CONST>
1

>  <SCORE.INTER.POLAR>
-2.04252

>  <SCORE.INTER.ROT>
6

>  <SCORE.INTER.SOLV>
14.5584

>  <SCORE.INTER.VDW>
-15.0895

>  <SCORE.INTER.norm>
-0.457023

>  <SCORE.INTRA>
0.084359

>  <SCORE.INTRA.DIHEDRAL>
-1.87025

>  <SCORE.INTRA.DIHEDRAL.0>
9.37739

>  <SCORE.INTRA.POLAR>
0

>  <SCORE.INTRA.POLAR.0>
0

>  <SCORE.INTRA.REPUL>
0

>  <SCORE.INTRA.REPUL.0>
0

>  <SCORE.INTRA.SOLV>
-1.73867

>  <SCORE.INTRA.SOLV.lig_0>
-82.9274

>  <SCORE.INTRA.VDW>
1.88881

>  <SCORE.INTRA.VDW.0>
-3.84922

>  <SCORE.INTRA.norm>
0.00272126

>  <SCORE.RESTR>
0

>  <SCORE.RESTR.CAVITY>
0

>  <SCORE.RESTR.norm>
0

>  <SCORE.SYSTEM>
0

>  <SCORE.SYSTEM.CONST>
0

>  <SCORE.SYSTEM.DIHEDRAL>
0

>  <SCORE.SYSTEM.SOLV>
0

>  <SCORE.SYSTEM.norm>
0

>  <SCORE.heavy>
31

>  <SCORE.norm>
-0.454301

>  <RMSD>
5.659

$$$$
2o3x_lig
 OpenBabel11021811463D
libRbt.so/2013.1/901 2013/11/27
 31 33  0  0  0  0  0  0  0  0999 V2000
   21.1620    7.8947    6.2667 C   0  0  2  0  0  0  0  0  0  0  0  0
   20.7364    8.4421    7.5216 O   0  0  0  0  0  0  0  0  0  0  0  0
   21.9487    7.5619   11.5283 C   0  0  2  0  0  0  0  0  0  0  0  0
   22.2748    6.8644   12.7919 N   0  0  0  0  0  0  0  0  0  0  0  0
   24.4630    6.7558    7.6607 C   0  0  1  0  0  0  0  0  0  0  0  0
   20.7765    8.8994    5.1351 C   0  0  2  0  0  0  0  0  0  0  0  0
   21.1831   10.2905    5.4596 N   0  0  0  0  0  0  0  0  0  0  0  0
   20.4196    7.5006   11.2001 C   0  0  0  0  0  0  0  0  0  0  0  0
   24.9938    5.3883    7.1182 C   0  0  2  0  0  0  0  0  0  0  0  0
   25.4096    4.4222    8.1223 O   0  0  0  0  0  0  0  0  0  0  0  0
   19.2598    8.8969    4.8658 C   0  0  1  0  0  0  0  0  0  0  0  0
   18.9430    9.7694    3.8109 O   0  0  0  0  0  0  0  0  0  0  0  0
   20.1717    8.2908    9.8635 C   0  0  2  0  0  0  0  0  0  0  0  0
   18.7258    8.2961    9.4884 N   0  0  0  0  0  0  0  0  0  0  0  0
   26.0885    5.9228    6.2100 C   0  0  2  0  0  0  0  0  0  0  0  0
   27.2863    6.2821    6.9806 O   0  0  0  0  0  0  0  0  0  0  0  0
   18.7984    7.4849    4.5464 C   0  0  2  0  0  0  0  0  0  0  0  0
   17.4328    7.4839    4.2802 O   0  0  0  0  0  0  0  0  0  0  0  0
   20.9815    7.6565    8.6969 C   0  0  2  0  0  0  0  0  0  0  0  0
   25.4725    7.1533    5.5547 C   0  0  2  0  0  0  0  0  0  0  0  0
   24.7931    7.7322    6.6654 O   0  0  0  0  0  0  0  0  0  0  0  0
   19.1137    6.5411    5.7411 C   0  0  2  0  0  0  0  0  0  0  0  0
   20.5309    6.5631    6.0168 O   0  0  0  0  0  0  0  0  0  0  0  0
   22.4964    7.5872    8.9735 C   0  0  2  0  0  0  0  0  0  0  0  0
   23.0468    6.7483    7.8978 O   0  0  0  0  0  0  0  0  0  0  0  0
   24.4686    6.8487    4.3915 C   0  0  0  0  0  0  0  0  0  0  0  0
   23.8774    8.0585    3.9260 N   0  0  0  0  0  0  0  0  0  0  0  0
   18.6945    5.1137    5.4765 C   0  0  0  0  0  0  0  0  0  0  0  0
   19.3395    4.5915    4.3723 O   0  0  0  0  0  0  0  0  0  0  0  0
   22.7682    6.9207   10.3939 C   0  0  1  0  0  0  0  0  0  0  0  0
   24.1472    7.0410   10.7745 O   0  0  0  0  0  0  0  0  0  0  0  0
  1  2  1  1  0  0  0
  1  6  1  0  0  0  0
  1 23  1  0  0  0  0
  3  4  1  1  0  0  0
  3  8  1  0  0  0  0
  3 30  1  0  0  0  0
  5  9  1  0  0  0  0
  5 21  1  0  0  0  0
  5 25  1  6  0  0  0
  6  7  1  1  0  0  0
  6 11  1  0  0  0  0
  8 13  1  0  0  0  0
  9 10  1  1  0  0  0
  9 15  1  0  0  0  0
 11 12  1  6  0  0  0
 11 17  1  0  0  0  0
 13 14  1  6  0  0  0
 13 19  1  0  0  0  0
 15 16  1  1  0  0  0
 15 20  1  0  0  0  0
 17 18  1  1  0  0  0
 17 22  1  0  0  0  0
 19  2  1  6  0  0  0
 19 24  1  0  0  0  0
 20 21  1  0  0  0  0
 20 26  1  6  0  0  0
 22 23  1  0  0  0  0
 22 28  1  6  0  0  0
 24 25  1  6  0  0  0
 24 30  1  0  0  0  0
 26 27  1  0  0  0  0
 28 29  1  0  0  0  0
 30 31  1  1  0  0  0
M  END
>  <CHROM.1>
179.09072749,149.05784079,-167.79668646,175.43066863,59.91302906,164.36379332
21.93646894,7.23916929,7.12416275,-2.56250073,-0.22092537,1.56915540

>  <Name>
2o3x_lig

>  <RI>
0

>  <Rbt.Current_Directory>
/home/itssahil/PROJECTS/Mol_Feturizer/New_Systems/rnas/2o3x

>  <Rbt.Executable>
rbdock ($Id: //depot/dev/client3/rdock/2013.1/src/exe/rbdock.cxx#4 $)

>  <Rbt.Library>
libRbt.so (2013.1, Build901 2013/11/27)

>  <Rbt.Parameter_File>
/export/apps/rDock/src/rDock_2013.1_src/data/scripts/dock_solv.prm

>  <Rbt.Receptor>
prm/pocket_docking_4.prm

>  <SCORE>
-10.9713

>  <SCORE.INTER>
-9.46322

>  <SCORE.INTER.CONST>
1

>  <SCORE.INTER.POLAR>
-1.34962

>  <SCORE.INTER.ROT>
6

>  <SCORE.INTER.SOLV>
15.9203

>  <SCORE.INTER.VDW>
-14.7168

>  <SCORE.INTER.norm>
-0.305265

>  <SCORE.INTRA>
-1.51763

>  <SCORE.INTRA.DIHEDRAL>
-3.49729

>  <SCORE.INTRA.DIHEDRAL.0>
9.37739

>  <SCORE.INTRA.POLAR>
0

>  <SCORE.INTRA.POLAR.0>
0

>  <SCORE.INTRA.REPUL>
0

>  <SCORE.INTRA.REPUL.0>
0

>  <SCORE.INTRA.SOLV>
-0.340643

>  <SCORE.INTRA.SOLV.lig_0>
-82.9274

>  <SCORE.INTRA.VDW>
0.401335

>  <SCORE.INTRA.VDW.0>
-3.84922

>  <SCORE.INTRA.norm>
-0.0489558

>  <SCORE.RESTR>
0.00950816

>  <SCORE.RESTR.CAVITY>
0.00950816

>  <SCORE.RESTR.norm>
0.000306715

>  <SCORE.SYSTEM>
0

>  <SCORE.SYSTEM.CONST>
0

>  <SCORE.SYSTEM.DIHEDRAL>
0

>  <SCORE.SYSTEM.SOLV>
0

>  <SCORE.SYSTEM.norm>
0

>  <SCORE.heavy>
31

>  <SCORE.norm>
-0.353914

>  <RMSD>
5.669

$$$$
2o3x_lig
 OpenBabel11021811463D
libRbt.so/2013.1/901 2013/11/27
 31 33  0  0  0  0  0  0  0  0999 V2000
   19.3275    9.0447    6.6105 C   0  0  2  0  0  0  0  0  0  0  0  0
   18.7938   10.2126    7.2481 O   0  0  0  0  0  0  0  0  0  0  0  0
   17.4575   11.3836   11.1393 C   0  0  2  0  0  0  0  0  0  0  0  0
   16.9912   11.3707   12.5435 N   0  0  0  0  0  0  0  0  0  0  0  0
   20.1729    8.1833    9.8683 C   0  0  1  0  0  0  0  0  0  0  0  0
   20.0179    9.4820    5.2799 C   0  0  2  0  0  0  0  0  0  0  0  0
   20.9244   10.6422    5.4750 N   0  0  0  0  0  0  0  0  0  0  0  0
   16.4029   10.7634   10.1633 C   0  0  0  0  0  0  0  0  0  0  0  0
   21.3694    7.2169    9.5844 C   0  0  2  0  0  0  0  0  0  0  0  0
   21.4003    6.6117    8.2626 O   0  0  0  0  0  0  0  0  0  0  0  0
   18.9849    9.8607    4.2018 C   0  0  1  0  0  0  0  0  0  0  0  0
   19.6267   10.2014    2.9992 O   0  0  0  0  0  0  0  0  0  0  0  0
   16.9751   10.8504    8.7013 C   0  0  2  0  0  0  0  0  0  0  0  0
   16.0153   10.2933    7.7015 N   0  0  0  0  0  0  0  0  0  0  0  0
   21.1645    6.2656   10.7514 C   0  0  2  0  0  0  0  0  0  0  0  0
   20.0915    5.3036   10.4673 O   0  0  0  0  0  0  0  0  0  0  0  0
   18.0242    8.7038    3.9838 C   0  0  2  0  0  0  0  0  0  0  0  0
   17.1042    9.0349    2.9940 O   0  0  0  0  0  0  0  0  0  0  0  0
   18.3129   10.0646    8.5917 C   0  0  2  0  0  0  0  0  0  0  0  0
   20.7901    7.1707   11.9192 C   0  0  2  0  0  0  0  0  0  0  0  0
   19.9085    8.0850   11.2731 O   0  0  0  0  0  0  0  0  0  0  0  0
   17.2878    8.3689    5.3117 C   0  0  2  0  0  0  0  0  0  0  0  0
   18.2538    8.0423    6.3339 O   0  0  0  0  0  0  0  0  0  0  0  0
   19.3862   10.5465    9.5877 C   0  0  2  0  0  0  0  0  0  0  0  0
   20.4603    9.5443    9.5118 O   0  0  0  0  0  0  0  0  0  0  0  0
   21.9912    7.9326   12.5751 C   0  0  0  0  0  0  0  0  0  0  0  0
   22.9258    7.0016   13.1135 N   0  0  0  0  0  0  0  0  0  0  0  0
   16.3289    7.2104    5.1646 C   0  0  0  0  0  0  0  0  0  0  0  0
   15.6447    6.9652    6.3392 O   0  0  0  0  0  0  0  0  0  0  0  0
   18.7845   10.6074   11.0608 C   0  0  1  0  0  0  0  0  0  0  0  0
   19.6865   11.2572   11.9693 O   0  0  0  0  0  0  0  0  0  0  0  0
  1  2  1  6  0  0  0
  1  6  1  0  0  0  0
  1 23  1  0  0  0  0
  3  4  1  1  0  0  0
  3  8  1  0  0  0  0
  3 30  1  0  0  0  0
  5  9  1  0  0  0  0
  5 21  1  0  0  0  0
  5 25  1  1  0  0  0
  6  7  1  1  0  0  0
  6 11  1  0  0  0  0
  8 13  1  0  0  0  0
  9 10  1  6  0  0  0
  9 15  1  0  0  0  0
 11 12  1  6  0  0  0
 11 17  1  0  0  0  0
 13 14  1  6  0  0  0
 13 19  1  0  0  0  0
 15 16  1  6  0  0  0
 15 20  1  0  0  0  0
 17 18  1  6  0  0  0
 17 22  1  0  0  0  0
 19  2  1  6  0  0  0
 19 24  1  0  0  0  0
 20 21  1  0  0  0  0
 20 26  1  6  0  0  0
 22 23  1  0  0  0  0
 22 28  1  6  0  0  0
 24 25  1  1  0  0  0
 24 30  1  0  0  0  0
 26 27  1  0  0  0  0
 28 29  1  0  0  0  0
 30 31  1  1  0  0  0
M  END
>  <CHROM.1>
-169.89235358,173.64227624,-137.49273531,-61.65889186,-177.48108358,-61.45984973
19.05073788,8.94980401,8.38290115,-2.05700693,-0.75809591,1.32356172

>  <Name>
2o3x_lig

>  <RI>
0

>  <Rbt.Current_Directory>
/home/itssahil/PROJECTS/Mol_Feturizer/New_Systems/rnas/2o3x

>  <Rbt.Executable>
rbdock ($Id: //depot/dev/client3/rdock/2013.1/src/exe/rbdock.cxx#4 $)

>  <Rbt.Library>
libRbt.so (2013.1, Build901 2013/11/27)

>  <Rbt.Parameter_File>
/export/apps/rDock/src/rDock_2013.1_src/data/scripts/dock_solv.prm

>  <Rbt.Receptor>
prm/pocket_docking_5.prm

>  <SCORE>
-15.3398

>  <SCORE.INTER>
-14.4647

>  <SCORE.INTER.CONST>
1

>  <SCORE.INTER.POLAR>
-1.54405

>  <SCORE.INTER.ROT>
6

>  <SCORE.INTER.SOLV>
18.0099

>  <SCORE.INTER.VDW>
-18.0996

>  <SCORE.INTER.norm>
-0.466602

>  <SCORE.INTRA>
-0.875131

>  <SCORE.INTRA.DIHEDRAL>
-2.73633

>  <SCORE.INTRA.DIHEDRAL.0>
9.37739

>  <SCORE.INTRA.POLAR>
0

>  <SCORE.INTRA.POLAR.0>
0

>  <SCORE.INTRA.REPUL>
0

>  <SCORE.INTRA.REPUL.0>
0

>  <SCORE.INTRA.SOLV>
-0.0732674

>  <SCORE.INTRA.SOLV.lig_0>
-82.9274

>  <SCORE.INTRA.VDW>
0.529668

>  <SCORE.INTRA.VDW.0>
-3.84922

>  <SCORE.INTRA.norm>
-0.02823

>  <SCORE.RESTR>
0

>  <SCORE.RESTR.CAVITY>
0

>  <SCORE.RESTR.norm>
0

>  <SCORE.SYSTEM>
0

>  <SCORE.SYSTEM.CONST>
0

>  <SCORE.SYSTEM.DIHEDRAL>
0

>  <SCORE.SYSTEM.SOLV>
0

>  <SCORE.SYSTEM.norm>
0

>  <SCORE.heavy>
31

>  <SCORE.norm>
-0.494832

>  <RMSD>
5.674

$$$$
2o3x_lig
 OpenBabel11021811463D
libRbt.so/2013.1/901 2013/11/27
 31 33  0  0  0  0  0  0  0  0999 V2000
   21.3183    7.0527    7.7023 C   0  0  2  0  0  0  0  0  0  0  0  0
   21.5948    7.6619    8.9703 O   0  0  0  0  0  0  0  0  0  0  0  0
   21.0983    5.9903   12.8763 C   0  0  2  0  0  0  0  0  0  0  0  0
   20.5226    5.4014   14.1057 N   0  0  0  0  0  0  0  0  0  0  0  0
   19.9242    3.7142    9.4141 C   0  0  1  0  0  0  0  0  0  0  0  0
   22.6720    6.8347    6.9550 C   0  0  2  0  0  0  0  0  0  0  0  0
   23.6942    6.1971    7.8235 N   0  0  0  0  0  0  0  0  0  0  0  0
   20.6164    7.4616   12.6473 C   0  0  0  0  0  0  0  0  0  0  0  0
   19.1850    3.1701    8.1477 C   0  0  2  0  0  0  0  0  0  0  0  0
   17.8112    3.6130    7.9720 O   0  0  0  0  0  0  0  0  0  0  0  0
   23.2523    8.1624    6.4320 C   0  0  1  0  0  0  0  0  0  0  0  0
   24.4424    7.9361    5.7202 O   0  0  0  0  0  0  0  0  0  0  0  0
   21.3025    8.0060   11.3415 C   0  0  2  0  0  0  0  0  0  0  0  0
   20.9074    9.4190   11.0612 N   0  0  0  0  0  0  0  0  0  0  0  0
   19.3822    1.6847    8.4000 C   0  0  2  0  0  0  0  0  0  0  0  0
   18.4211    1.1848    9.3920 O   0  0  0  0  0  0  0  0  0  0  0  0
   22.2282    8.8574    5.5507 C   0  0  2  0  0  0  0  0  0  0  0  0
   22.7585   10.0458    5.0585 O   0  0  0  0  0  0  0  0  0  0  0  0
   20.9117    7.1323   10.1154 C   0  0  2  0  0  0  0  0  0  0  0  0
   20.8105    1.5733    8.9205 C   0  0  2  0  0  0  0  0  0  0  0  0
   20.8632    2.6998    9.7915 O   0  0  0  0  0  0  0  0  0  0  0  0
   20.9346    9.1427    6.3649 C   0  0  2  0  0  0  0  0  0  0  0  0
   20.4032    7.9040    6.8826 O   0  0  0  0  0  0  0  0  0  0  0  0
   21.2641    5.6420   10.2920 C   0  0  2  0  0  0  0  0  0  0  0  0
   20.6054    4.9547    9.1705 O   0  0  0  0  0  0  0  0  0  0  0  0
   21.9227    1.6726    7.8221 C   0  0  0  0  0  0  0  0  0  0  0  0
   23.1406    2.1345    8.3994 N   0  0  0  0  0  0  0  0  0  0  0  0
   19.8669    9.8180    5.5359 C   0  0  0  0  0  0  0  0  0  0  0  0
   20.0486   11.1866    5.4911 O   0  0  0  0  0  0  0  0  0  0  0  0
   20.7037    5.1033   11.6818 C   0  0  1  0  0  0  0  0  0  0  0  0
   21.2012    3.7886   11.9736 O   0  0  0  0  0  0  0  0  0  0  0  0
  1  2  1  1  0  0  0
  1  6  1  0  0  0  0
  1 23  1  0  0  0  0
  3  4  1  1  0  0  0
  3  8  1  0  0  0  0
  3 30  1  0  0  0  0
  5  9  1  0  0  0  0
  5 21  1  0  0  0  0
  5 25  1  6  0  0  0
  6  7  1  1  0  0  0
  6 11  1  0  0  0  0
  8 13  1  0  0  0  0
  9 10  1  1  0  0  0
  9 15  1  0  0  0  0
 11 12  1  6  0  0  0
 11 17  1  0  0  0  0
 13 14  1  6  0  0  0
 13 19  1  0  0  0  0
 15 16  1  1  0  0  0
 15 20  1  0  0  0  0
 17 18  1  1  0  0  0
 17 22  1  0  0  0  0
 19  2  1  6  0  0  0
 19 24  1  0  0  0  0
 20 21  1  0  0  0  0
 20 26  1  6  0  0  0
 22 23  1  0  0  0  0
 22 28  1  6  0  0  0
 24 25  1  6  0  0  0
 24 30  1  0  0  0  0
 26 27  1  0  0  0  0
 28 29  1  0  0  0  0
 30 31  1  1  0  0  0
M  END
>  <CHROM.1>
-135.21026321,175.52958950,-176.45455031,154.84416195,-84.30301066,-137.20701023
21.07868806,5.98161616,8.73838309,-0.13707176,-1.36692444,-2.26777227

>  <Name>
2o3x_lig

>  <RI>
0

>  <Rbt.Current_Directory>
/home/itssahil/PROJECTS/Mol_Feturizer/New_Systems/rnas/2o3x

>  <Rbt.Executable>
rbdock ($Id: //depot/dev/client3/rdock/2013.1/src/exe/rbdock.cxx#4 $)

>  <Rbt.Library>
libRbt.so (2013.1, Build901 2013/11/27)

>  <Rbt.Parameter_File>
/export/apps/rDock/src/rDock_2013.1_src/data/scripts/dock_solv.prm

>  <Rbt.Receptor>
prm/blind_docking_40.prm

>  <SCORE>
17.3329

>  <SCORE.INTER>
1.9156

>  <SCORE.INTER.CONST>
1

>  <SCORE.INTER.POLAR>
-1.20159

>  <SCORE.INTER.ROT>
6

>  <SCORE.INTER.SOLV>
24.6519

>  <SCORE.INTER.VDW>
-10.5349

>  <SCORE.INTER.norm>
0.0617937

>  <SCORE.INTRA>
6.82785

>  <SCORE.INTRA.DIHEDRAL>
6.68519

>  <SCORE.INTRA.DIHEDRAL.0>
9.37739

>  <SCORE.INTRA.POLAR>
0

>  <SCORE.INTRA.POLAR.0>
0

>  <SCORE.INTRA.REPUL>
0

>  <SCORE.INTRA.REPUL.0>
0

>  <SCORE.INTRA.SOLV>
-0.361028

>  <SCORE.INTRA.SOLV.lig_0>
-82.9274

>  <SCORE.INTRA.VDW>
3.66577

>  <SCORE.INTRA.VDW.0>
-3.84922

>  <SCORE.INTRA.norm>
0.220253

>  <SCORE.RESTR>
8.58943

>  <SCORE.RESTR.CAVITY>
8.58943

>  <SCORE.RESTR.norm>
0.277078

>  <SCORE.SYSTEM>
0

>  <SCORE.SYSTEM.CONST>
0

>  <SCORE.SYSTEM.DIHEDRAL>
0

>  <SCORE.SYSTEM.SOLV>
0

>  <SCORE.SYSTEM.norm>
0

>  <SCORE.heavy>
31

>  <SCORE.norm>
0.559125

>  <RMSD>
5.683

$$$$
2o3x_lig
 OpenBabel11021811463D
libRbt.so/2013.1/901 2013/11/27
 31 33  0  0  0  0  0  0  0  0999 V2000
   21.2117    7.2583    8.4236 C   0  0  2  0  0  0  0  0  0  0  0  0
   21.9358    7.8732    9.4975 O   0  0  0  0  0  0  0  0  0  0  0  0
   19.6949    6.0016   12.6237 C   0  0  2  0  0  0  0  0  0  0  0  0
   19.1868    5.5747   13.9463 N   0  0  0  0  0  0  0  0  0  0  0  0
   19.3278   10.4415   11.5760 C   0  0  1  0  0  0  0  0  0  0  0  0
   21.8759    7.6825    7.0755 C   0  0  2  0  0  0  0  0  0  0  0  0
   23.3515    7.5170    7.1024 N   0  0  0  0  0  0  0  0  0  0  0  0
   21.1449    5.4784   12.3536 C   0  0  0  0  0  0  0  0  0  0  0  0
   19.3399   10.9701   13.0479 C   0  0  2  0  0  0  0  0  0  0  0  0
   18.6367   10.1537   14.0243 O   0  0  0  0  0  0  0  0  0  0  0  0
   21.5674    9.1511    6.7277 C   0  0  1  0  0  0  0  0  0  0  0  0
   22.1317    9.4951    5.4878 O   0  0  0  0  0  0  0  0  0  0  0  0
   21.5808    5.9560   10.9204 C   0  0  2  0  0  0  0  0  0  0  0  0
   22.9540    5.4792   10.5763 N   0  0  0  0  0  0  0  0  0  0  0  0
   18.7614   12.3513   12.7896 C   0  0  2  0  0  0  0  0  0  0  0  0
   17.3017   12.2929   12.6367 O   0  0  0  0  0  0  0  0  0  0  0  0
   20.0637    9.3679    6.7073 C   0  0  2  0  0  0  0  0  0  0  0  0
   19.7820   10.6882    6.3708 O   0  0  0  0  0  0  0  0  0  0  0  0
   21.5620    7.5089   10.8339 C   0  0  2  0  0  0  0  0  0  0  0  0
   19.4272   12.8072   11.4965 C   0  0  2  0  0  0  0  0  0  0  0  0
   19.3836   11.6020   10.7375 O   0  0  0  0  0  0  0  0  0  0  0  0
   19.4601    9.0276    8.0993 C   0  0  2  0  0  0  0  0  0  0  0  0
   19.7723    7.6605    8.4432 O   0  0  0  0  0  0  0  0  0  0  0  0
   20.1904    8.1219   11.1792 C   0  0  2  0  0  0  0  0  0  0  0  0
   20.4315    9.5688   11.2892 O   0  0  0  0  0  0  0  0  0  0  0  0
   20.9034   13.3064   11.6549 C   0  0  0  0  0  0  0  0  0  0  0  0
   20.9410   14.4701   12.4759 N   0  0  0  0  0  0  0  0  0  0  0  0
   17.9600    9.2056    8.1381 C   0  0  0  0  0  0  0  0  0  0  0  0
   17.3286    8.3962    7.2139 O   0  0  0  0  0  0  0  0  0  0  0  0
   19.6579    7.5392   12.5622 C   0  0  1  0  0  0  0  0  0  0  0  0
   18.2945    7.9201   12.8016 O   0  0  0  0  0  0  0  0  0  0  0  0
  1  2  1  1  0  0  0
  1  6  1  0  0  0  0
  1 23  1  0  0  0  0
  3  4  1  1  0  0  0
  3  8  1  0  0  0  0
  3 30  1  0  0  0  0
  5  9  1  0  0  0  0
  5 21  1  0  0  0  0
  5 25  1  1  0  0  0
  6  7  1  1  0  0  0
  6 11  1  0  0  0  0
  8 13  1  0  0  0  0
  9 10  1  1  0  0  0
  9 15  1  0  0  0  0
 11 12  1  6  0  0  0
 11 17  1  0  0  0  0
 13 14  1  1  0  0  0
 13 19  1  0  0  0  0
 15 16  1  6  0  0  0
 15 20  1  0  0  0  0
 17 18  1  1  0  0  0
 17 22  1  0  0  0  0
 19  2  1  6  0  0  0
 19 24  1  0  0  0  0
 20 21  1  0  0  0  0
 20 26  1  1  0  0  0
 22 23  1  0  0  0  0
 22 28  1  6  0  0  0
 24 25  1  1  0  0  0
 24 30  1  0  0  0  0
 26 27  1  0  0  0  0
 28 29  1  0  0  0  0
 30 31  1  6  0  0  0
M  END
>  <CHROM.1>
-174.27088070,105.52391956,52.29202114,-63.67312469,59.66881126,178.54026017
20.13317836,9.08908375,10.26451048,-0.22498056,-1.22424179,2.31580404

>  <Name>
2o3x_lig

>  <RI>
2.78316e+07

>  <Rbt.Current_Directory>
/home/itssahil/PROJECTS/Mol_Feturizer/New_Systems/rnas/2o3x

>  <Rbt.Executable>
rbdock ($Id: //depot/dev/client3/rdock/2013.1/src/exe/rbdock.cxx#4 $)

>  <Rbt.Library>
libRbt.so (2013.1, Build901 2013/11/27)

>  <Rbt.Parameter_File>
/export/apps/rDock/src/rDock_2013.1_src/data/scripts/dock_solv.prm

>  <Rbt.Receptor>
prm/pocket_docking_7.prm

>  <SCORE>
-11.3696

>  <SCORE.INTER>
-11.0308

>  <SCORE.INTER.CONST>
1

>  <SCORE.INTER.POLAR>
-1.65378

>  <SCORE.INTER.ROT>
6

>  <SCORE.INTER.SOLV>
19.2153

>  <SCORE.INTER.VDW>
-15.8463

>  <SCORE.INTER.norm>
-0.355831

>  <SCORE.INTRA>
-0.33888

>  <SCORE.INTRA.DIHEDRAL>
-2.48195

>  <SCORE.INTRA.DIHEDRAL.0>
9.37739

>  <SCORE.INTRA.POLAR>
0

>  <SCORE.INTRA.POLAR.0>
0

>  <SCORE.INTRA.REPUL>
0

>  <SCORE.INTRA.REPUL.0>
0

>  <SCORE.INTRA.SOLV>
-0.701781

>  <SCORE.INTRA.SOLV.lig_0>
-82.9274

>  <SCORE.INTRA.VDW>
1.25298

>  <SCORE.INTRA.VDW.0>
-3.84922

>  <SCORE.INTRA.norm>
-0.0109316

>  <SCORE.RESTR>
0

>  <SCORE.RESTR.CAVITY>
0

>  <SCORE.RESTR.norm>
0

>  <SCORE.SYSTEM>
0

>  <SCORE.SYSTEM.CONST>
0

>  <SCORE.SYSTEM.DIHEDRAL>
0

>  <SCORE.SYSTEM.SOLV>
0

>  <SCORE.SYSTEM.norm>
0

>  <SCORE.heavy>
31

>  <SCORE.norm>
-0.366762

>  <RMSD>
5.687

$$$$
2o3x_lig
 OpenBabel11021811463D
libRbt.so/2013.1/901 2013/11/27
 31 33  0  0  0  0  0  0  0  0999 V2000
   19.2940    9.0591    6.6148 C   0  0  2  0  0  0  0  0  0  0  0  0
   18.7383   10.2278    7.2319 O   0  0  0  0  0  0  0  0  0  0  0  0
   17.4406   11.4412   11.1231 C   0  0  2  0  0  0  0  0  0  0  0  0
   16.9811   11.4434   12.5297 N   0  0  0  0  0  0  0  0  0  0  0  0
   20.1062    8.1974    9.8872 C   0  0  1  0  0  0  0  0  0  0  0  0
   19.9956    9.4894    5.2877 C   0  0  2  0  0  0  0  0  0  0  0  0
   20.8855   10.6627    5.4802 N   0  0  0  0  0  0  0  0  0  0  0  0
   16.3712   10.8329   10.1558 C   0  0  0  0  0  0  0  0  0  0  0  0
   21.2946    7.2131    9.6322 C   0  0  2  0  0  0  0  0  0  0  0  0
   21.3206    6.5691    8.3287 O   0  0  0  0  0  0  0  0  0  0  0  0
   18.9715    9.8427    4.1925 C   0  0  1  0  0  0  0  0  0  0  0  0
   19.6242   10.1772    2.9940 O   0  0  0  0  0  0  0  0  0  0  0  0
   16.9374   10.9028    8.6905 C   0  0  2  0  0  0  0  0  0  0  0  0
   15.9638   10.3559    7.6985 N   0  0  0  0  0  0  0  0  0  0  0  0
   21.0817    6.2982   10.8266 C   0  0  2  0  0  0  0  0  0  0  0  0
   20.0006    5.3373   10.5703 O   0  0  0  0  0  0  0  0  0  0  0  0
   18.0277    8.6717    3.9765 C   0  0  2  0  0  0  0  0  0  0  0  0
   17.1161    8.9799    2.9716 O   0  0  0  0  0  0  0  0  0  0  0  0
   18.2618   10.0948    8.5786 C   0  0  2  0  0  0  0  0  0  0  0  0
   20.7147    7.2403   11.9671 C   0  0  2  0  0  0  0  0  0  0  0  0
   19.8409    8.1425   11.2942 O   0  0  0  0  0  0  0  0  0  0  0  0
   17.2789    8.3434    5.2990 C   0  0  2  0  0  0  0  0  0  0  0  0
   18.2360    8.0406    6.3369 O   0  0  0  0  0  0  0  0  0  0  0  0
   19.3477   10.5647    9.5667 C   0  0  2  0  0  0  0  0  0  0  0  0
   20.4051    9.5449    9.4910 O   0  0  0  0  0  0  0  0  0  0  0  0
   21.9221    8.0110   12.6009 C   0  0  0  0  0  0  0  0  0  0  0  0
   22.8440    7.0889   13.1750 N   0  0  0  0  0  0  0  0  0  0  0  0
   16.3360    7.1716    5.1539 C   0  0  0  0  0  0  0  0  0  0  0  0
   15.6424    6.9300    6.3237 O   0  0  0  0  0  0  0  0  0  0  0  0
   18.7544   10.6433   11.0424 C   0  0  1  0  0  0  0  0  0  0  0  0
   19.6714   11.2832   11.9429 O   0  0  0  0  0  0  0  0  0  0  0  0
  1  2  1  6  0  0  0
  1  6  1  0  0  0  0
  1 23  1  0  0  0  0
  3  4  1  1  0  0  0
  3  8  1  0  0  0  0
  3 30  1  0  0  0  0
  5  9  1  0  0  0  0
  5 21  1  0  0  0  0
  5 25  1  1  0  0  0
  6  7  1  1  0  0  0
  6 11  1  0  0  0  0
  8 13  1  0  0  0  0
  9 10  1  6  0  0  0
  9 15  1  0  0  0  0
 11 12  1  6  0  0  0
 11 17  1  0  0  0  0
 13 14  1  6  0  0  0
 13 19  1  0  0  0  0
 15 16  1  6  0  0  0
 15 20  1  0  0  0  0
 17 18  1  6  0  0  0
 17 22  1  0  0  0  0
 19  2  1  6  0  0  0
 19 24  1  0  0  0  0
 20 21  1  0  0  0  0
 20 26  1  6  0  0  0
 22 23  1  0  0  0  0
 22 28  1  6  0  0  0
 24 25  1  1  0  0  0
 24 30  1  0  0  0  0
 26 27  1  0  0  0  0
 28 29  1  0  0  0  0
 30 31  1  1  0  0  0
M  END
>  <CHROM.1>
-168.93517139,175.04749307,-139.66916326,-62.06877052,-177.61039201,-62.95419727
19.01212755,8.96755414,8.39063448,-2.05265268,-0.77892777,1.30869069

>  <Name>
2o3x_lig

>  <RI>
0

>  <Rbt.Current_Directory>
/home/itssahil/PROJECTS/Mol_Feturizer/New_Systems/rnas/2o3x

>  <Rbt.Executable>
rbdock ($Id: //depot/dev/client3/rdock/2013.1/src/exe/rbdock.cxx#4 $)

>  <Rbt.Library>
libRbt.so (2013.1, Build901 2013/11/27)

>  <Rbt.Parameter_File>
/export/apps/rDock/src/rDock_2013.1_src/data/scripts/dock_solv.prm

>  <Rbt.Receptor>
prm/pocket_docking_8.prm

>  <SCORE>
-15.3943

>  <SCORE.INTER>
-14.376

>  <SCORE.INTER.CONST>
1

>  <SCORE.INTER.POLAR>
-1.5428

>  <SCORE.INTER.ROT>
6

>  <SCORE.INTER.SOLV>
17.9323

>  <SCORE.INTER.VDW>
-18.0188

>  <SCORE.INTER.norm>
-0.463743

>  <SCORE.INTRA>
-1.01829

>  <SCORE.INTRA.DIHEDRAL>
-3.01695

>  <SCORE.INTRA.DIHEDRAL.0>
9.37739

>  <SCORE.INTRA.POLAR>
0

>  <SCORE.INTRA.POLAR.0>
0

>  <SCORE.INTRA.REPUL>
0

>  <SCORE.INTRA.REPUL.0>
0

>  <SCORE.INTRA.SOLV>
-0.277709

>  <SCORE.INTRA.SOLV.lig_0>
-82.9274

>  <SCORE.INTRA.VDW>
0.629045

>  <SCORE.INTRA.VDW.0>
-3.84922

>  <SCORE.INTRA.norm>
-0.032848

>  <SCORE.RESTR>
0

>  <SCORE.RESTR.CAVITY>
0

>  <SCORE.RESTR.norm>
0

>  <SCORE.SYSTEM>
0

>  <SCORE.SYSTEM.CONST>
0

>  <SCORE.SYSTEM.DIHEDRAL>
0

>  <SCORE.SYSTEM.SOLV>
0

>  <SCORE.SYSTEM.norm>
0

>  <SCORE.heavy>
31

>  <SCORE.norm>
-0.496591

>  <RMSD>
5.687

$$$$
2o3x_lig
 OpenBabel11021811463D
libRbt.so/2013.1/901 2013/11/27
 31 33  0  0  0  0  0  0  0  0999 V2000
   19.0566    8.6636    6.6963 C   0  0  2  0  0  0  0  0  0  0  0  0
   18.5276    9.8025    7.3880 O   0  0  0  0  0  0  0  0  0  0  0  0
   17.2182   10.4877   11.4022 C   0  0  2  0  0  0  0  0  0  0  0  0
   16.5922   10.3438   12.7352 N   0  0  0  0  0  0  0  0  0  0  0  0
   20.3161    7.3848   10.4283 C   0  0  1  0  0  0  0  0  0  0  0  0
   19.8223    9.1671    5.4319 C   0  0  2  0  0  0  0  0  0  0  0  0
   20.7521   10.2814    5.7478 N   0  0  0  0  0  0  0  0  0  0  0  0
   16.1531   10.5951   10.2605 C   0  0  0  0  0  0  0  0  0  0  0  0
   20.6411    5.8939   10.0852 C   0  0  2  0  0  0  0  0  0  0  0  0
   19.7104    4.9033   10.6018 O   0  0  0  0  0  0  0  0  0  0  0  0
   18.8534    9.6512    4.3365 C   0  0  1  0  0  0  0  0  0  0  0  0
   19.5617   10.0514    3.1909 O   0  0  0  0  0  0  0  0  0  0  0  0
   16.9122   10.7745    8.8953 C   0  0  2  0  0  0  0  0  0  0  0  0
   15.9613   10.9045    7.7507 N   0  0  0  0  0  0  0  0  0  0  0  0
   22.0525    5.8426   10.6459 C   0  0  2  0  0  0  0  0  0  0  0  0
   22.0358    5.6864   12.1063 O   0  0  0  0  0  0  0  0  0  0  0  0
   17.8707    8.5436    3.9957 C   0  0  2  0  0  0  0  0  0  0  0  0
   17.0091    8.9705    2.9901 O   0  0  0  0  0  0  0  0  0  0  0  0
   17.8447    9.5591    8.6261 C   0  0  2  0  0  0  0  0  0  0  0  0
   22.6692    7.1783   10.2475 C   0  0  2  0  0  0  0  0  0  0  0  0
   21.5782    8.0593   10.5005 O   0  0  0  0  0  0  0  0  0  0  0  0
   17.0623    8.1438    5.2623 C   0  0  2  0  0  0  0  0  0  0  0  0
   17.9684    7.7177    6.3026 O   0  0  0  0  0  0  0  0  0  0  0  0
   18.8708    9.3172    9.7508 C   0  0  2  0  0  0  0  0  0  0  0  0
   19.4746    8.0107    9.4473 O   0  0  0  0  0  0  0  0  0  0  0  0
   23.1217    7.2761    8.7511 C   0  0  0  0  0  0  0  0  0  0  0  0
   22.0282    6.9760    7.8886 N   0  0  0  0  0  0  0  0  0  0  0  0
   16.0779    7.0297    4.9920 C   0  0  0  0  0  0  0  0  0  0  0  0
   15.3603    6.7002    6.1253 O   0  0  0  0  0  0  0  0  0  0  0  0
   18.1402    9.2780   11.1652 C   0  0  1  0  0  0  0  0  0  0  0  0
   19.0869    9.2745   12.2446 O   0  0  0  0  0  0  0  0  0  0  0  0
  1  2  1  6  0  0  0
  1  6  1  0  0  0  0
  1 23  1  0  0  0  0
  3  4  1  1  0  0  0
  3  8  1  0  0  0  0
  3 30  1  0  0  0  0
  5  9  1  0  0  0  0
  5 21  1  0  0  0  0
  5 25  1  6  0  0  0
  6  7  1  1  0  0  0
  6 11  1  0  0  0  0
  8 13  1  0  0  0  0
  9 10  1  1  0  0  0
  9 15  1  0  0  0  0
 11 12  1  6  0  0  0
 11 17  1  0  0  0  0
 13 14  1  6  0  0  0
 13 19  1  0  0  0  0
 15 16  1  1  0  0  0
 15 20  1  0  0  0  0
 17 18  1  6  0  0  0
 17 22  1  0  0  0  0
 19  2  1  6  0  0  0
 19 24  1  0  0  0  0
 20 21  1  0  0  0  0
 20 26  1  6  0  0  0
 22 23  1  0  0  0  0
 22 28  1  6  0  0  0
 24 25  1  6  0  0  0
 24 30  1  0  0  0  0
 26 27  1  0  0  0  0
 28 29  1  0  0  0  0
 30 31  1  1  0  0  0
M  END
>  <CHROM.1>
-176.73334654,168.32943174,-158.23325472,55.56952350,-179.33532873,-169.64544155
18.97703863,8.43882399,8.24713136,-2.08810560,-0.55595942,1.53415783

>  <Name>
2o3x_lig

>  <RI>
2.78316e+07

>  <Rbt.Current_Directory>
/home/itssahil/PROJECTS/Mol_Feturizer/New_Systems/rnas/2o3x

>  <Rbt.Executable>
rbdock ($Id: //depot/dev/client3/rdock/2013.1/src/exe/rbdock.cxx#4 $)

>  <Rbt.Library>
libRbt.so (2013.1, Build901 2013/11/27)

>  <Rbt.Parameter_File>
/export/apps/rDock/src/rDock_2013.1_src/data/scripts/dock_solv.prm

>  <Rbt.Receptor>
prm/pocket_docking_7.prm

>  <SCORE>
-11.2405

>  <SCORE.INTER>
-10.3327

>  <SCORE.INTER.CONST>
1

>  <SCORE.INTER.POLAR>
-1.37268

>  <SCORE.INTER.ROT>
6

>  <SCORE.INTER.SOLV>
15.8458

>  <SCORE.INTER.VDW>
-15.1948

>  <SCORE.INTER.norm>
-0.333313

>  <SCORE.INTRA>
-0.907774

>  <SCORE.INTRA.DIHEDRAL>
-5.82555

>  <SCORE.INTRA.DIHEDRAL.0>
9.37739

>  <SCORE.INTRA.POLAR>
0

>  <SCORE.INTRA.POLAR.0>
0

>  <SCORE.INTRA.REPUL>
0

>  <SCORE.INTRA.REPUL.0>
0

>  <SCORE.INTRA.SOLV>
1.79949

>  <SCORE.INTRA.SOLV.lig_0>
-82.9274

>  <SCORE.INTRA.VDW>
1.10525

>  <SCORE.INTRA.VDW.0>
-3.84922

>  <SCORE.INTRA.norm>
-0.029283

>  <SCORE.RESTR>
0

>  <SCORE.RESTR.CAVITY>
0

>  <SCORE.RESTR.norm>
0

>  <SCORE.SYSTEM>
0

>  <SCORE.SYSTEM.CONST>
0

>  <SCORE.SYSTEM.DIHEDRAL>
0

>  <SCORE.SYSTEM.SOLV>
0

>  <SCORE.SYSTEM.norm>
0

>  <SCORE.heavy>
31

>  <SCORE.norm>
-0.362596

>  <RMSD>
5.696

$$$$
2o3x_lig
 OpenBabel11021811463D
libRbt.so/2013.1/901 2013/11/27
 31 33  0  0  0  0  0  0  0  0999 V2000
   21.0981    7.5513   10.2625 C   0  0  2  0  0  0  0  0  0  0  0  0
   20.8234    6.4706    9.3614 O   0  0  0  0  0  0  0  0  0  0  0  0
   23.6387    7.6983    6.3840 C   0  0  2  0  0  0  0  0  0  0  0  0
   24.4676    7.7769    5.1608 N   0  0  0  0  0  0  0  0  0  0  0  0
   19.1639    7.9933    5.7567 C   0  0  1  0  0  0  0  0  0  0  0  0
   20.3281    7.2890   11.5954 C   0  0  2  0  0  0  0  0  0  0  0  0
   20.5255    5.9033   12.0922 N   0  0  0  0  0  0  0  0  0  0  0  0
   24.0042    6.4565    7.2636 C   0  0  0  0  0  0  0  0  0  0  0  0
   18.4916    7.1442    4.6283 C   0  0  2  0  0  0  0  0  0  0  0  0
   19.3292    6.8302    3.4819 O   0  0  0  0  0  0  0  0  0  0  0  0
   18.8146    7.5257   11.4331 C   0  0  1  0  0  0  0  0  0  0  0  0
   18.1496    7.3335   12.6558 O   0  0  0  0  0  0  0  0  0  0  0  0
   23.0955    6.4784    8.5466 C   0  0  2  0  0  0  0  0  0  0  0  0
   23.3968    5.3299    9.4530 N   0  0  0  0  0  0  0  0  0  0  0  0
   17.2977    8.0446    4.3583 C   0  0  2  0  0  0  0  0  0  0  0  0
   17.6767    9.1866    3.5157 O   0  0  0  0  0  0  0  0  0  0  0  0
   18.5691    8.9303   10.9080 C   0  0  2  0  0  0  0  0  0  0  0  0
   17.2018    9.1545   10.7823 O   0  0  0  0  0  0  0  0  0  0  0  0
   21.5925    6.4136    8.1515 C   0  0  2  0  0  0  0  0  0  0  0  0
   16.8520    8.5103    5.7395 C   0  0  2  0  0  0  0  0  0  0  0  0
   18.1130    8.7635    6.3528 O   0  0  0  0  0  0  0  0  0  0  0  0
   19.2722    9.1127    9.5332 C   0  0  2  0  0  0  0  0  0  0  0  0
   20.6872    8.8624    9.6742 O   0  0  0  0  0  0  0  0  0  0  0  0
   21.1620    7.5505    7.2037 C   0  0  2  0  0  0  0  0  0  0  0  0
   19.8112    7.1842    6.7509 O   0  0  0  0  0  0  0  0  0  0  0  0
   16.0406    7.4531    6.5623 C   0  0  0  0  0  0  0  0  0  0  0  0
   15.5824    8.0293    7.7821 N   0  0  0  0  0  0  0  0  0  0  0  0
   19.0806   10.4999    8.9655 C   0  0  0  0  0  0  0  0  0  0  0  0
   17.7488   10.7660    8.7136 O   0  0  0  0  0  0  0  0  0  0  0  0
   22.1585    7.6436    5.9651 C   0  0  1  0  0  0  0  0  0  0  0  0
   21.9160    8.8238    5.1844 O   0  0  0  0  0  0  0  0  0  0  0  0
  1  2  1  6  0  0  0
  1  6  1  0  0  0  0
  1 23  1  0  0  0  0
  3  4  1  6  0  0  0
  3  8  1  0  0  0  0
  3 30  1  0  0  0  0
  5  9  1  0  0  0  0
  5 21  1  0  0  0  0
  5 25  1  1  0  0  0
  6  7  1  6  0  0  0
  6 11  1  0  0  0  0
  8 13  1  0  0  0  0
  9 10  1  6  0  0  0
  9 15  1  0  0  0  0
 11 12  1  1  0  0  0
 11 17  1  0  0  0  0
 13 14  1  1  0  0  0
 13 19  1  0  0  0  0
 15 16  1  6  0  0  0
 15 20  1  0  0  0  0
 17 18  1  6  0  0  0
 17 22  1  0  0  0  0
 19  2  1  1  0  0  0
 19 24  1  0  0  0  0
 20 21  1  0  0  0  0
 20 26  1  1  0  0  0
 22 23  1  0  0  0  0
 22 28  1  1  0  0  0
 24 25  1  6  0  0  0
 24 30  1  0  0  0  0
 26 27  1  0  0  0  0
 28 29  1  0  0  0  0
 30 31  1  1  0  0  0
M  END
>  <CHROM.1>
-170.86368940,134.39789687,52.65010015,-175.18280074,-62.79930140,-174.82767979
19.83346160,7.85625755,7.86714822,-1.48691463,0.29889169,-1.52303420

>  <Name>
2o3x_lig

>  <RI>
0

>  <Rbt.Current_Directory>
/home/itssahil/PROJECTS/Mol_Feturizer/New_Systems/rnas/2o3x

>  <Rbt.Executable>
rbdock ($Id: //depot/dev/client3/rdock/2013.1/src/exe/rbdock.cxx#4 $)

>  <Rbt.Library>
libRbt.so (2013.1, Build901 2013/11/27)

>  <Rbt.Parameter_File>
/export/apps/rDock/src/rDock_2013.1_src/data/scripts/dock_solv.prm

>  <Rbt.Receptor>
prm/pocket_docking_3.prm

>  <SCORE>
-4.85257

>  <SCORE.INTER>
-4.75553

>  <SCORE.INTER.CONST>
1

>  <SCORE.INTER.POLAR>
-0.748331

>  <SCORE.INTER.ROT>
6

>  <SCORE.INTER.SOLV>
10.3777

>  <SCORE.INTER.VDW>
-11.7352

>  <SCORE.INTER.norm>
-0.153404

>  <SCORE.INTRA>
-0.0970436

>  <SCORE.INTRA.DIHEDRAL>
-2.09259

>  <SCORE.INTRA.DIHEDRAL.0>
9.37739

>  <SCORE.INTRA.POLAR>
0

>  <SCORE.INTRA.POLAR.0>
0

>  <SCORE.INTRA.REPUL>
0

>  <SCORE.INTRA.REPUL.0>
0

>  <SCORE.INTRA.SOLV>
0.826224

>  <SCORE.INTRA.SOLV.lig_0>
-82.9274

>  <SCORE.INTRA.VDW>
0.536141

>  <SCORE.INTRA.VDW.0>
-3.84922

>  <SCORE.INTRA.norm>
-0.00313044

>  <SCORE.RESTR>
0

>  <SCORE.RESTR.CAVITY>
0

>  <SCORE.RESTR.norm>
0

>  <SCORE.SYSTEM>
0

>  <SCORE.SYSTEM.CONST>
0

>  <SCORE.SYSTEM.DIHEDRAL>
0

>  <SCORE.SYSTEM.SOLV>
0

>  <SCORE.SYSTEM.norm>
0

>  <SCORE.heavy>
31

>  <SCORE.norm>
-0.156535

>  <RMSD>
5.711

$$$$
2o3x_lig
 OpenBabel11021811463D
libRbt.so/2013.1/901 2013/11/27
 31 33  0  0  0  0  0  0  0  0999 V2000
   18.9322    8.8763    6.3323 C   0  0  2  0  0  0  0  0  0  0  0  0
   17.8371    9.6119    6.8936 O   0  0  0  0  0  0  0  0  0  0  0  0
   15.9214    9.5161   10.7171 C   0  0  2  0  0  0  0  0  0  0  0  0
   15.2751    9.0670   11.9701 N   0  0  0  0  0  0  0  0  0  0  0  0
   20.1498    8.1004   10.1552 C   0  0  1  0  0  0  0  0  0  0  0  0
   19.5826    9.7429    5.2077 C   0  0  2  0  0  0  0  0  0  0  0  0
   19.8378   11.1367    5.6525 N   0  0  0  0  0  0  0  0  0  0  0  0
   15.0496    9.1951    9.4576 C   0  0  0  0  0  0  0  0  0  0  0  0
   19.9849    6.6855   10.8008 C   0  0  2  0  0  0  0  0  0  0  0  0
   19.0415    6.5939   11.9035 O   0  0  0  0  0  0  0  0  0  0  0  0
   18.6958    9.7991    3.9494 C   0  0  1  0  0  0  0  0  0  0  0  0
   19.3234   10.5408    2.9344 O   0  0  0  0  0  0  0  0  0  0  0  0
   15.8032    9.7349    8.1875 C   0  0  2  0  0  0  0  0  0  0  0  0
   15.0240    9.4836    6.9381 N   0  0  0  0  0  0  0  0  0  0  0  0
   21.4428    6.4300   11.1443 C   0  0  2  0  0  0  0  0  0  0  0  0
   21.8287    7.1384   12.3719 O   0  0  0  0  0  0  0  0  0  0  0  0
   18.3955    8.3887    3.4707 C   0  0  2  0  0  0  0  0  0  0  0  0
   17.6136    8.4373    2.3209 O   0  0  0  0  0  0  0  0  0  0  0  0
   17.1936    9.0521    8.0473 C   0  0  2  0  0  0  0  0  0  0  0  0
   22.2158    6.9607    9.9427 C   0  0  2  0  0  0  0  0  0  0  0  0
   21.4992    8.1635    9.6775 O   0  0  0  0  0  0  0  0  0  0  0  0
   17.6601    7.5952    4.5875 C   0  0  2  0  0  0  0  0  0  0  0  0
   18.4748    7.5653    5.7793 O   0  0  0  0  0  0  0  0  0  0  0  0
   18.0906    9.2357    9.2875 C   0  0  2  0  0  0  0  0  0  0  0  0
   19.2305    8.3302    9.0763 O   0  0  0  0  0  0  0  0  0  0  0  0
   22.2070    6.0249    8.6867 C   0  0  0  0  0  0  0  0  0  0  0  0
   22.8127    4.7749    9.0036 N   0  0  0  0  0  0  0  0  0  0  0  0
   17.3495    6.1741    4.1782 C   0  0  0  0  0  0  0  0  0  0  0  0
   18.5021    5.4491    3.9463 O   0  0  0  0  0  0  0  0  0  0  0  0
   17.2964    8.8328   10.6075 C   0  0  1  0  0  0  0  0  0  0  0  0
   18.0242    9.1987   11.7897 O   0  0  0  0  0  0  0  0  0  0  0  0
  1  2  1  6  0  0  0
  1  6  1  0  0  0  0
  1 23  1  0  0  0  0
  3  4  1  1  0  0  0
  3  8  1  0  0  0  0
  3 30  1  0  0  0  0
  5  9  1  0  0  0  0
  5 21  1  0  0  0  0
  5 25  1  6  0  0  0
  6  7  1  1  0  0  0
  6 11  1  0  0  0  0
  8 13  1  0  0  0  0
  9 10  1  1  0  0  0
  9 15  1  0  0  0  0
 11 12  1  6  0  0  0
 11 17  1  0  0  0  0
 13 14  1  6  0  0  0
 13 19  1  0  0  0  0
 15 16  1  1  0  0  0
 15 20  1  0  0  0  0
 17 18  1  6  0  0  0
 17 22  1  0  0  0  0
 19  2  1  6  0  0  0
 19 24  1  0  0  0  0
 20 21  1  0  0  0  0
 20 26  1  6  0  0  0
 22 23  1  0  0  0  0
 22 28  1  6  0  0  0
 24 25  1  6  0  0  0
 24 30  1  0  0  0  0
 26 27  1  0  0  0  0
 28 29  1  0  0  0  0
 30 31  1  1  0  0  0
M  END
>  <CHROM.1>
-173.29516682,106.39907320,-161.76664483,-61.23044981,63.15722384,-170.06281031
18.73965860,8.23817912,7.88912013,-1.84269015,-0.48795674,1.61015473

>  <Name>
2o3x_lig

>  <RI>
0

>  <Rbt.Current_Directory>
/home/itssahil/PROJECTS/Mol_Feturizer/New_Systems/rnas/2o3x

>  <Rbt.Executable>
rbdock ($Id: //depot/dev/client3/rdock/2013.1/src/exe/rbdock.cxx#4 $)

>  <Rbt.Library>
libRbt.so (2013.1, Build901 2013/11/27)

>  <Rbt.Parameter_File>
/export/apps/rDock/src/rDock_2013.1_src/data/scripts/dock_solv.prm

>  <Rbt.Receptor>
prm/pocket_docking_3.prm

>  <SCORE>
-8.00961

>  <SCORE.INTER>
-8.45199

>  <SCORE.INTER.CONST>
1

>  <SCORE.INTER.POLAR>
-1.36391

>  <SCORE.INTER.ROT>
6

>  <SCORE.INTER.SOLV>
16.7851

>  <SCORE.INTER.VDW>
-14.2834

>  <SCORE.INTER.norm>
-0.272645

>  <SCORE.INTRA>
-0.0319255

>  <SCORE.INTRA.DIHEDRAL>
-0.641903

>  <SCORE.INTRA.DIHEDRAL.0>
9.37739

>  <SCORE.INTRA.POLAR>
0

>  <SCORE.INTRA.POLAR.0>
0

>  <SCORE.INTRA.REPUL>
0

>  <SCORE.INTRA.REPUL.0>
0

>  <SCORE.INTRA.SOLV>
-1.69039

>  <SCORE.INTRA.SOLV.lig_0>
-82.9274

>  <SCORE.INTRA.VDW>
1.13422

>  <SCORE.INTRA.VDW.0>
-3.84922

>  <SCORE.INTRA.norm>
-0.00102985

>  <SCORE.RESTR>
0.474303

>  <SCORE.RESTR.CAVITY>
0.474303

>  <SCORE.RESTR.norm>
0.0153001

>  <SCORE.SYSTEM>
0

>  <SCORE.SYSTEM.CONST>
0

>  <SCORE.SYSTEM.DIHEDRAL>
0

>  <SCORE.SYSTEM.SOLV>
0

>  <SCORE.SYSTEM.norm>
0

>  <SCORE.heavy>
31

>  <SCORE.norm>
-0.258375

>  <RMSD>
5.715

$$$$
2o3x_lig
 OpenBabel11021811463D
libRbt.so/2013.1/901 2013/11/27
 31 33  0  0  0  0  0  0  0  0999 V2000
   19.1648    9.0464    6.6783 C   0  0  2  0  0  0  0  0  0  0  0  0
   18.6683   10.2572    7.2638 O   0  0  0  0  0  0  0  0  0  0  0  0
   17.0663   11.6060   10.9938 C   0  0  2  0  0  0  0  0  0  0  0  0
   16.5332   11.6606   12.3730 N   0  0  0  0  0  0  0  0  0  0  0  0
   20.1273    8.6318   10.3548 C   0  0  1  0  0  0  0  0  0  0  0  0
   19.8903    9.4064    5.3432 C   0  0  2  0  0  0  0  0  0  0  0  0
   20.8386   10.5372    5.5090 N   0  0  0  0  0  0  0  0  0  0  0  0
   16.1051   10.8449   10.0211 C   0  0  0  0  0  0  0  0  0  0  0  0
   19.5816    7.4734    9.4568 C   0  0  2  0  0  0  0  0  0  0  0  0
   18.1355    7.3283    9.4124 O   0  0  0  0  0  0  0  0  0  0  0  0
   18.8880    9.7837    4.2360 C   0  0  1  0  0  0  0  0  0  0  0  0
   19.5594   10.0539    3.0316 O   0  0  0  0  0  0  0  0  0  0  0  0
   16.7416   10.8674    8.5835 C   0  0  2  0  0  0  0  0  0  0  0  0
   15.8718   10.1740    7.5865 N   0  0  0  0  0  0  0  0  0  0  0  0
   20.3504    6.3253   10.0889 C   0  0  2  0  0  0  0  0  0  0  0  0
   19.7163    5.8900   11.3403 O   0  0  0  0  0  0  0  0  0  0  0  0
   17.8859    8.6574    4.0463 C   0  0  2  0  0  0  0  0  0  0  0  0
   16.9934    8.9861    3.0309 O   0  0  0  0  0  0  0  0  0  0  0  0
   18.1328   10.1720    8.5921 C   0  0  2  0  0  0  0  0  0  0  0  0
   21.7392    6.8957   10.3512 C   0  0  2  0  0  0  0  0  0  0  0  0
   21.4050    8.1943   10.8334 O   0  0  0  0  0  0  0  0  0  0  0  0
   17.1185    8.4014    5.3742 C   0  0  2  0  0  0  0  0  0  0  0  0
   18.0567    8.0765    6.4227 O   0  0  0  0  0  0  0  0  0  0  0  0
   19.1210   10.7983    9.5960 C   0  0  2  0  0  0  0  0  0  0  0  0
   20.2623    9.8714    9.6427 O   0  0  0  0  0  0  0  0  0  0  0  0
   22.6606    6.9963    9.0885 C   0  0  0  0  0  0  0  0  0  0  0  0
   22.1323    7.9506    8.1720 N   0  0  0  0  0  0  0  0  0  0  0  0
   16.1171    7.2760    5.2555 C   0  0  0  0  0  0  0  0  0  0  0  0
   15.3812    7.1267    6.4148 O   0  0  0  0  0  0  0  0  0  0  0  0
   18.4446   10.9217   11.0323 C   0  0  1  0  0  0  0  0  0  0  0  0
   19.2551   11.6966   11.9288 O   0  0  0  0  0  0  0  0  0  0  0  0
  1  2  1  6  0  0  0
  1  6  1  0  0  0  0
  1 23  1  0  0  0  0
  3  4  1  1  0  0  0
  3  8  1  0  0  0  0
  3 30  1  0  0  0  0
  5  9  1  0  0  0  0
  5 21  1  0  0  0  0
  5 25  1  6  0  0  0
  6  7  1  1  0  0  0
  6 11  1  0  0  0  0
  8 13  1  0  0  0  0
  9 10  1  1  0  0  0
  9 15  1  0  0  0  0
 11 12  1  6  0  0  0
 11 17  1  0  0  0  0
 13 14  1  6  0  0  0
 13 19  1  0  0  0  0
 15 16  1  1  0  0  0
 15 20  1  0  0  0  0
 17 18  1  6  0  0  0
 17 22  1  0  0  0  0
 19  2  1  6  0  0  0
 19 24  1  0  0  0  0
 20 21  1  0  0  0  0
 20 26  1  6  0  0  0
 22 23  1  0  0  0  0
 22 28  1  6  0  0  0
 24 25  1  1  0  0  0
 24 30  1  0  0  0  0
 26 27  1  0  0  0  0
 28 29  1  0  0  0  0
 30 31  1  1  0  0  0
M  END
>  <CHROM.1>
-171.40186422,89.22774661,-130.17299852,66.28300447,-175.76259254,-75.18437836
18.76778368,9.07428333,8.11978050,-1.89197353,-0.60856868,1.35980013

>  <Name>
2o3x_lig

>  <RI>
2.78316e+07

>  <Rbt.Current_Directory>
/home/itssahil/PROJECTS/Mol_Feturizer/New_Systems/rnas/2o3x

>  <Rbt.Executable>
rbdock ($Id: //depot/dev/client3/rdock/2013.1/src/exe/rbdock.cxx#4 $)

>  <Rbt.Library>
libRbt.so (2013.1, Build901 2013/11/27)

>  <Rbt.Parameter_File>
/export/apps/rDock/src/rDock_2013.1_src/data/scripts/dock_solv.prm

>  <Rbt.Receptor>
prm/pocket_docking_7.prm

>  <SCORE>
-12.1142

>  <SCORE.INTER>
-15.7171

>  <SCORE.INTER.CONST>
1

>  <SCORE.INTER.POLAR>
-2.17693

>  <SCORE.INTER.ROT>
6

>  <SCORE.INTER.SOLV>
15.6177

>  <SCORE.INTER.VDW>
-16.0275

>  <SCORE.INTER.norm>
-0.507004

>  <SCORE.INTRA>
3.60295

>  <SCORE.INTRA.DIHEDRAL>
2.49468

>  <SCORE.INTRA.DIHEDRAL.0>
9.37739

>  <SCORE.INTRA.POLAR>
0

>  <SCORE.INTRA.POLAR.0>
0

>  <SCORE.INTRA.REPUL>
0

>  <SCORE.INTRA.REPUL.0>
0

>  <SCORE.INTRA.SOLV>
5.94992

>  <SCORE.INTRA.SOLV.lig_0>
-82.9274

>  <SCORE.INTRA.VDW>
-0.619354

>  <SCORE.INTRA.VDW.0>
-3.84922

>  <SCORE.INTRA.norm>
0.116224

>  <SCORE.RESTR>
0

>  <SCORE.RESTR.CAVITY>
0

>  <SCORE.RESTR.norm>
0

>  <SCORE.SYSTEM>
0

>  <SCORE.SYSTEM.CONST>
0

>  <SCORE.SYSTEM.DIHEDRAL>
0

>  <SCORE.SYSTEM.SOLV>
0

>  <SCORE.SYSTEM.norm>
0

>  <SCORE.heavy>
31

>  <SCORE.norm>
-0.39078

>  <RMSD>
5.719

$$$$
2o3x_lig
 OpenBabel11021811463D
libRbt.so/2013.1/901 2013/11/27
 31 33  0  0  0  0  0  0  0  0999 V2000
   19.0297    8.6191    6.8223 C   0  0  2  0  0  0  0  0  0  0  0  0
   18.5662    9.7976    7.4946 O   0  0  0  0  0  0  0  0  0  0  0  0
   17.1675   10.6496   11.4463 C   0  0  2  0  0  0  0  0  0  0  0  0
   16.5033   10.5657   12.7659 N   0  0  0  0  0  0  0  0  0  0  0  0
   20.2487    7.4630   10.6466 C   0  0  1  0  0  0  0  0  0  0  0  0
   19.8331    9.0578    5.5572 C   0  0  2  0  0  0  0  0  0  0  0  0
   20.8267   10.1178    5.8651 N   0  0  0  0  0  0  0  0  0  0  0  0
   16.1358   10.7417   10.2731 C   0  0  0  0  0  0  0  0  0  0  0  0
   20.4382    5.9235   10.4466 C   0  0  2  0  0  0  0  0  0  0  0  0
   19.4559    5.0705   11.0961 O   0  0  0  0  0  0  0  0  0  0  0  0
   18.9029    9.5845    4.4481 C   0  0  1  0  0  0  0  0  0  0  0  0
   19.6419    9.9250    3.3025 O   0  0  0  0  0  0  0  0  0  0  0  0
   16.9348   10.8569    8.9238 C   0  0  2  0  0  0  0  0  0  0  0  0
   16.0177   10.9689    7.7500 N   0  0  0  0  0  0  0  0  0  0  0  0
   21.8649    5.8101   10.9570 C   0  0  2  0  0  0  0  0  0  0  0  0
   21.9019    5.8015   12.4254 O   0  0  0  0  0  0  0  0  0  0  0  0
   17.8570    8.5339    4.1147 C   0  0  2  0  0  0  0  0  0  0  0  0
   17.0297    8.9983    3.0970 O   0  0  0  0  0  0  0  0  0  0  0  0
   17.8453    9.6123    8.7212 C   0  0  2  0  0  0  0  0  0  0  0  0
   22.5673    7.0432   10.4011 C   0  0  2  0  0  0  0  0  0  0  0  0
   21.5624    8.0333   10.6025 O   0  0  0  0  0  0  0  0  0  0  0  0
   17.0172    8.2015    5.3803 C   0  0  2  0  0  0  0  0  0  0  0  0
   17.8887    7.7356    6.4331 O   0  0  0  0  0  0  0  0  0  0  0  0
   18.8353    9.3862    9.8810 C   0  0  2  0  0  0  0  0  0  0  0  0
   19.4162    8.0567    9.6383 O   0  0  0  0  0  0  0  0  0  0  0  0
   22.9581    6.9537    8.8870 C   0  0  0  0  0  0  0  0  0  0  0  0
   23.7034    8.1063    8.5050 N   0  0  0  0  0  0  0  0  0  0  0  0
   15.9688    7.1456    5.1176 C   0  0  0  0  0  0  0  0  0  0  0  0
   16.5330    5.9757    4.6474 O   0  0  0  0  0  0  0  0  0  0  0  0
   18.0669    9.4120   11.2755 C   0  0  1  0  0  0  0  0  0  0  0  0
   18.9844    9.4243   12.3797 O   0  0  0  0  0  0  0  0  0  0  0  0
  1  2  1  6  0  0  0
  1  6  1  0  0  0  0
  1 23  1  0  0  0  0
  3  4  1  1  0  0  0
  3  8  1  0  0  0  0
  3 30  1  0  0  0  0
  5  9  1  0  0  0  0
  5 21  1  0  0  0  0
  5 25  1  6  0  0  0
  6  7  1  1  0  0  0
  6 11  1  0  0  0  0
  8 13  1  0  0  0  0
  9 10  1  1  0  0  0
  9 15  1  0  0  0  0
 11 12  1  6  0  0  0
 11 17  1  0  0  0  0
 13 14  1  6  0  0  0
 13 19  1  0  0  0  0
 15 16  1  1  0  0  0
 15 20  1  0  0  0  0
 17 18  1  6  0  0  0
 17 22  1  0  0  0  0
 19  2  1  6  0  0  0
 19 24  1  0  0  0  0
 20 21  1  0  0  0  0
 20 26  1  6  0  0  0
 22 23  1  0  0  0  0
 22 28  1  6  0  0  0
 24 25  1  6  0  0  0
 24 30  1  0  0  0  0
 26 27  1  0  0  0  0
 28 29  1  0  0  0  0
 30 31  1  1  0  0  0
M  END
>  <CHROM.1>
-177.57484131,162.97022971,-155.24869689,-175.14488499,57.84396370,-171.45437378
19.02533379,8.47168856,8.34880204,-2.05809411,-0.56860444,1.49544108

>  <Name>
2o3x_lig

>  <RI>
0

>  <Rbt.Current_Directory>
/home/itssahil/PROJECTS/Mol_Feturizer/New_Systems/rnas/2o3x

>  <Rbt.Executable>
rbdock ($Id: //depot/dev/client3/rdock/2013.1/src/exe/rbdock.cxx#4 $)

>  <Rbt.Library>
libRbt.so (2013.1, Build901 2013/11/27)

>  <Rbt.Parameter_File>
/export/apps/rDock/src/rDock_2013.1_src/data/scripts/dock_solv.prm

>  <Rbt.Receptor>
prm/pocket_docking_8.prm

>  <SCORE>
-11.6718

>  <SCORE.INTER>
-9.08689

>  <SCORE.INTER.CONST>
1

>  <SCORE.INTER.POLAR>
-1.50563

>  <SCORE.INTER.ROT>
6

>  <SCORE.INTER.SOLV>
20.2637

>  <SCORE.INTER.VDW>
-15.3937

>  <SCORE.INTER.norm>
-0.293125

>  <SCORE.INTRA>
-2.58489

>  <SCORE.INTRA.DIHEDRAL>
-4.79754

>  <SCORE.INTRA.DIHEDRAL.0>
9.37739

>  <SCORE.INTRA.POLAR>
0

>  <SCORE.INTRA.POLAR.0>
0

>  <SCORE.INTRA.REPUL>
0

>  <SCORE.INTRA.REPUL.0>
0

>  <SCORE.INTRA.SOLV>
-2.37709

>  <SCORE.INTRA.SOLV.lig_0>
-82.9274

>  <SCORE.INTRA.VDW>
1.00243

>  <SCORE.INTRA.VDW.0>
-3.84922

>  <SCORE.INTRA.norm>
-0.0833836

>  <SCORE.RESTR>
0

>  <SCORE.RESTR.CAVITY>
0

>  <SCORE.RESTR.norm>
0

>  <SCORE.SYSTEM>
0

>  <SCORE.SYSTEM.CONST>
0

>  <SCORE.SYSTEM.DIHEDRAL>
0

>  <SCORE.SYSTEM.SOLV>
0

>  <SCORE.SYSTEM.norm>
0

>  <SCORE.heavy>
31

>  <SCORE.norm>
-0.376509

>  <RMSD>
5.747

$$$$
2o3x_lig
 OpenBabel11021811463D
libRbt.so/2013.1/901 2013/11/27
 31 33  0  0  0  0  0  0  0  0999 V2000
   20.4936    8.5885    8.0873 C   0  0  2  0  0  0  0  0  0  0  0  0
   21.3874    7.6402    8.6852 O   0  0  0  0  0  0  0  0  0  0  0  0
   25.0506    6.2034    7.0076 C   0  0  2  0  0  0  0  0  0  0  0  0
   26.0516    5.5277    6.1527 N   0  0  0  0  0  0  0  0  0  0  0  0
   22.4158    9.6675    5.2807 C   0  0  1  0  0  0  0  0  0  0  0  0
   19.5362    9.1297    9.1959 C   0  0  2  0  0  0  0  0  0  0  0  0
   20.2724    9.5439   10.4175 N   0  0  0  0  0  0  0  0  0  0  0  0
   24.1563    5.1820    7.7861 C   0  0  0  0  0  0  0  0  0  0  0  0
   22.5728    9.4179    3.7448 C   0  0  2  0  0  0  0  0  0  0  0  0
   23.9035    9.0457    3.2920 O   0  0  0  0  0  0  0  0  0  0  0  0
   18.4885    8.0772    9.6050 C   0  0  1  0  0  0  0  0  0  0  0  0
   17.6078    8.6029   10.5654 O   0  0  0  0  0  0  0  0  0  0  0  0
   23.1514    5.9926    8.6836 C   0  0  2  0  0  0  0  0  0  0  0  0
   22.2695    5.0858    9.4780 N   0  0  0  0  0  0  0  0  0  0  0  0
   22.0474   10.7554    3.2506 C   0  0  2  0  0  0  0  0  0  0  0  0
   23.0732   11.8007    3.3636 O   0  0  0  0  0  0  0  0  0  0  0  0
   17.7229    7.6123    8.3777 C   0  0  2  0  0  0  0  0  0  0  0  0
   16.7603    6.6785    8.7480 O   0  0  0  0  0  0  0  0  0  0  0  0
   22.2528    6.9090    7.8050 C   0  0  2  0  0  0  0  0  0  0  0  0
   20.8599   11.0565    4.1574 C   0  0  2  0  0  0  0  0  0  0  0  0
   21.3806   10.6484    5.4194 O   0  0  0  0  0  0  0  0  0  0  0  0
   18.7046    6.9912    7.3443 C   0  0  2  0  0  0  0  0  0  0  0  0
   19.7068    7.9648    6.9801 O   0  0  0  0  0  0  0  0  0  0  0  0
   23.0558    7.8893    6.9271 C   0  0  2  0  0  0  0  0  0  0  0  0
   22.0712    8.4767    6.0055 O   0  0  0  0  0  0  0  0  0  0  0  0
   19.5524   10.2639    3.8175 C   0  0  0  0  0  0  0  0  0  0  0  0
   19.2388   10.4070    2.4351 N   0  0  0  0  0  0  0  0  0  0  0  0
   18.0041    6.5255    6.0890 C   0  0  0  0  0  0  0  0  0  0  0  0
   18.8896    6.3744    5.0397 O   0  0  0  0  0  0  0  0  0  0  0  0
   24.1815    7.1083    6.1157 C   0  0  1  0  0  0  0  0  0  0  0  0
   25.0820    8.0158    5.4624 O   0  0  0  0  0  0  0  0  0  0  0  0
  1  2  1  1  0  0  0
  1  6  1  0  0  0  0
  1 23  1  0  0  0  0
  3  4  1  6  0  0  0
  3  8  1  0  0  0  0
  3 30  1  0  0  0  0
  5  9  1  0  0  0  0
  5 21  1  0  0  0  0
  5 25  1  1  0  0  0
  6  7  1  1  0  0  0
  6 11  1  0  0  0  0
  8 13  1  0  0  0  0
  9 10  1  1  0  0  0
  9 15  1  0  0  0  0
 11 12  1  1  0  0  0
 11 17  1  0  0  0  0
 13 14  1  6  0  0  0
 13 19  1  0  0  0  0
 15 16  1  1  0  0  0
 15 20  1  0  0  0  0
 17 18  1  1  0  0  0
 17 22  1  0  0  0  0
 19  2  1  1  0  0  0
 19 24  1  0  0  0  0
 20 21  1  0  0  0  0
 20 26  1  6  0  0  0
 22 23  1  0  0  0  0
 22 28  1  6  0  0  0
 24 25  1  6  0  0  0
 24 30  1  0  0  0  0
 26 27  1  0  0  0  0
 28 29  1  0  0  0  0
 30 31  1  1  0  0  0
M  END
>  <CHROM.1>
173.08026034,111.55580159,178.00253941,-51.47003802,161.06323717,164.45918927
21.26904753,8.18088501,6.60462607,2.35957443,-0.29888893,2.21038943

>  <Name>
2o3x_lig

>  <RI>
3.41138e+07

>  <Rbt.Current_Directory>
/home/itssahil/PROJECTS/Mol_Feturizer/New_Systems/rnas/2o3x

>  <Rbt.Executable>
rbdock ($Id: //depot/dev/client3/rdock/2013.1/src/exe/rbdock.cxx#4 $)

>  <Rbt.Library>
libRbt.so (2013.1, Build901 2013/11/27)

>  <Rbt.Parameter_File>
/export/apps/rDock/src/rDock_2013.1_src/data/scripts/dock_solv.prm

>  <Rbt.Receptor>
prm/pocket_docking_2.prm

>  <SCORE>
-7.51817

>  <SCORE.INTER>
-9.6117

>  <SCORE.INTER.CONST>
1

>  <SCORE.INTER.POLAR>
-1.41714

>  <SCORE.INTER.ROT>
6

>  <SCORE.INTER.SOLV>
15.9818

>  <SCORE.INTER.VDW>
-14.6113

>  <SCORE.INTER.norm>
-0.310055

>  <SCORE.INTRA>
1.39482

>  <SCORE.INTRA.DIHEDRAL>
0.436646

>  <SCORE.INTRA.DIHEDRAL.0>
9.37739

>  <SCORE.INTRA.POLAR>
0

>  <SCORE.INTRA.POLAR.0>
0

>  <SCORE.INTRA.REPUL>
0.0681387

>  <SCORE.INTRA.REPUL.0>
0

>  <SCORE.INTRA.SOLV>
-1.93831

>  <SCORE.INTRA.SOLV.lig_0>
-82.9274

>  <SCORE.INTRA.VDW>
1.80495

>  <SCORE.INTRA.VDW.0>
-3.84922

>  <SCORE.INTRA.norm>
0.044994

>  <SCORE.RESTR>
0.698713

>  <SCORE.RESTR.CAVITY>
0.698713

>  <SCORE.RESTR.norm>
0.0225391

>  <SCORE.SYSTEM>
0

>  <SCORE.SYSTEM.CONST>
0

>  <SCORE.SYSTEM.DIHEDRAL>
0

>  <SCORE.SYSTEM.SOLV>
0

>  <SCORE.SYSTEM.norm>
0

>  <SCORE.heavy>
31

>  <SCORE.norm>
-0.242522

>  <RMSD>
5.757

$$$$
2o3x_lig
 OpenBabel11021811463D
libRbt.so/2013.1/901 2013/11/27
 31 33  0  0  0  0  0  0  0  0999 V2000
   19.5170    9.1397   10.5484 C   0  0  2  0  0  0  0  0  0  0  0  0
   19.6169    7.7849   11.0064 O   0  0  0  0  0  0  0  0  0  0  0  0
   23.7602    8.0143   12.0451 C   0  0  2  0  0  0  0  0  0  0  0  0
   25.1280    7.6894   12.5065 N   0  0  0  0  0  0  0  0  0  0  0  0
   21.5342    4.7991   10.1182 C   0  0  1  0  0  0  0  0  0  0  0  0
   18.0372    9.4100   10.1291 C   0  0  2  0  0  0  0  0  0  0  0  0
   17.0711    8.9525   11.1602 N   0  0  0  0  0  0  0  0  0  0  0  0
   22.7185    7.9660   13.2121 C   0  0  0  0  0  0  0  0  0  0  0  0
   20.8503    3.7194    9.2167 C   0  0  2  0  0  0  0  0  0  0  0  0
   19.4332    3.4957    9.4536 O   0  0  0  0  0  0  0  0  0  0  0  0
   17.6857    8.7097    8.8029 C   0  0  1  0  0  0  0  0  0  0  0  0
   16.3671    9.0081    8.4200 O   0  0  0  0  0  0  0  0  0  0  0  0
   21.3100    8.3531   12.6302 C   0  0  2  0  0  0  0  0  0  0  0  0
   20.2576    8.3492   13.6903 N   0  0  0  0  0  0  0  0  0  0  0  0
   21.7736    2.5543    9.5315 C   0  0  2  0  0  0  0  0  0  0  0  0
   21.4333    1.9443   10.8237 O   0  0  0  0  0  0  0  0  0  0  0  0
   18.6643    9.1380    7.7223 C   0  0  2  0  0  0  0  0  0  0  0  0
   18.3349    8.5245    6.5177 O   0  0  0  0  0  0  0  0  0  0  0  0
   20.8887    7.3559   11.5134 C   0  0  2  0  0  0  0  0  0  0  0  0
   23.1664    3.1720    9.5701 C   0  0  2  0  0  0  0  0  0  0  0  0
   22.8982    4.3861   10.2662 O   0  0  0  0  0  0  0  0  0  0  0  0
   20.1136    8.7596    8.1394 C   0  0  2  0  0  0  0  0  0  0  0  0
   20.4373    9.3898    9.3975 O   0  0  0  0  0  0  0  0  0  0  0  0
   21.9081    7.2656   10.3606 C   0  0  2  0  0  0  0  0  0  0  0  0
   21.4737    6.1169    9.5509 O   0  0  0  0  0  0  0  0  0  0  0  0
   23.7962    3.4681    8.1669 C   0  0  0  0  0  0  0  0  0  0  0  0
   24.3823    2.2839    7.6339 N   0  0  0  0  0  0  0  0  0  0  0  0
   21.1389    9.1777    7.1111 C   0  0  0  0  0  0  0  0  0  0  0  0
   22.3416    8.5250    7.2988 O   0  0  0  0  0  0  0  0  0  0  0  0
   23.3721    7.0192   10.9366 C   0  0  1  0  0  0  0  0  0  0  0  0
   24.3680    7.1492    9.9107 O   0  0  0  0  0  0  0  0  0  0  0  0
  1  2  1  6  0  0  0
  1  6  1  0  0  0  0
  1 23  1  0  0  0  0
  3  4  1  1  0  0  0
  3  8  1  0  0  0  0
  3 30  1  0  0  0  0
  5  9  1  0  0  0  0
  5 21  1  0  0  0  0
  5 25  1  6  0  0  0
  6  7  1  1  0  0  0
  6 11  1  0  0  0  0
  8 13  1  0  0  0  0
  9 10  1  1  0  0  0
  9 15  1  0  0  0  0
 11 12  1  6  0  0  0
 11 17  1  0  0  0  0
 13 14  1  1  0  0  0
 13 19  1  0  0  0  0
 15 16  1  1  0  0  0
 15 20  1  0  0  0  0
 17 18  1  6  0  0  0
 17 22  1  0  0  0  0
 19  2  1  6  0  0  0
 19 24  1  0  0  0  0
 20 21  1  0  0  0  0
 20 26  1  6  0  0  0
 22 23  1  0  0  0  0
 22 28  1  6  0  0  0
 24 25  1  6  0  0  0
 24 30  1  0  0  0  0
 26 27  1  0  0  0  0
 28 29  1  0  0  0  0
 30 31  1  6  0  0  0
M  END
>  <CHROM.1>
-176.51133076,171.71257578,54.21488399,-82.24008483,-163.17588762,-66.10861618
21.07684001,6.81358996,9.88082455,-2.52458773,0.64409219,-2.53994585

>  <Name>
2o3x_lig

>  <RI>
3.34184e+07

>  <Rbt.Current_Directory>
/home/itssahil/PROJECTS/Mol_Feturizer/New_Systems/rnas/2o3x

>  <Rbt.Executable>
rbdock ($Id: //depot/dev/client3/rdock/2013.1/src/exe/rbdock.cxx#4 $)

>  <Rbt.Library>
libRbt.so (2013.1, Build901 2013/11/27)

>  <Rbt.Parameter_File>
/export/apps/rDock/src/rDock_2013.1_src/data/scripts/dock_solv.prm

>  <Rbt.Receptor>
prm/pocket_docking_6.prm

>  <SCORE>
-13.7819

>  <SCORE.INTER>
-11.782

>  <SCORE.INTER.CONST>
1

>  <SCORE.INTER.POLAR>
-1.22742

>  <SCORE.INTER.ROT>
6

>  <SCORE.INTER.SOLV>
18.307

>  <SCORE.INTER.VDW>
-17.4656

>  <SCORE.INTER.norm>
-0.380065

>  <SCORE.INTRA>
-1.99992

>  <SCORE.INTRA.DIHEDRAL>
-5.92349

>  <SCORE.INTRA.DIHEDRAL.0>
9.37739

>  <SCORE.INTRA.POLAR>
0

>  <SCORE.INTRA.POLAR.0>
0

>  <SCORE.INTRA.REPUL>
0

>  <SCORE.INTRA.REPUL.0>
0

>  <SCORE.INTRA.SOLV>
-1.60442

>  <SCORE.INTRA.SOLV.lig_0>
-82.9274

>  <SCORE.INTRA.VDW>
1.76403

>  <SCORE.INTRA.VDW.0>
-3.84922

>  <SCORE.INTRA.norm>
-0.0645136

>  <SCORE.RESTR>
0

>  <SCORE.RESTR.CAVITY>
0

>  <SCORE.RESTR.norm>
0

>  <SCORE.SYSTEM>
0

>  <SCORE.SYSTEM.CONST>
0

>  <SCORE.SYSTEM.DIHEDRAL>
0

>  <SCORE.SYSTEM.SOLV>
0

>  <SCORE.SYSTEM.norm>
0

>  <SCORE.heavy>
31

>  <SCORE.norm>
-0.444579

>  <RMSD>
5.768

$$$$
2o3x_lig
 OpenBabel11021811463D
libRbt.so/2013.1/901 2013/11/27
 31 33  0  0  0  0  0  0  0  0999 V2000
   22.8890    6.1759    7.5519 C   0  0  2  0  0  0  0  0  0  0  0  0
   23.5061    6.6379    8.7607 O   0  0  0  0  0  0  0  0  0  0  0  0
   20.7700    5.1692   11.7027 C   0  0  2  0  0  0  0  0  0  0  0  0
   20.1813    4.6035   12.9367 N   0  0  0  0  0  0  0  0  0  0  0  0
   24.0894    7.7556   12.4696 C   0  0  1  0  0  0  0  0  0  0  0  0
   23.9198    6.3173    6.3875 C   0  0  2  0  0  0  0  0  0  0  0  0
   25.2486    5.7592    6.7459 N   0  0  0  0  0  0  0  0  0  0  0  0
   21.6439    4.1227   10.9343 C   0  0  0  0  0  0  0  0  0  0  0  0
   24.9903    8.9509   12.9231 C   0  0  2  0  0  0  0  0  0  0  0  0
   26.3355    8.9804   12.3718 O   0  0  0  0  0  0  0  0  0  0  0  0
   24.1159    7.7893    5.9781 C   0  0  1  0  0  0  0  0  0  0  0  0
   25.0077    7.8877    4.8968 O   0  0  0  0  0  0  0  0  0  0  0  0
   22.1966    4.8063    9.6306 C   0  0  2  0  0  0  0  0  0  0  0  0
   23.0300    3.8628    8.8265 N   0  0  0  0  0  0  0  0  0  0  0  0
   24.8869    8.7458   14.4251 C   0  0  2  0  0  0  0  0  0  0  0  0
   25.7822    7.6716   14.8748 O   0  0  0  0  0  0  0  0  0  0  0  0
   22.7737    8.4047    5.6197 C   0  0  2  0  0  0  0  0  0  0  0  0
   22.9512    9.7278    5.2275 O   0  0  0  0  0  0  0  0  0  0  0  0
   23.0638    6.0462    9.9907 C   0  0  2  0  0  0  0  0  0  0  0  0
   23.4277    8.3729   14.6590 C   0  0  2  0  0  0  0  0  0  0  0  0
   23.2008    7.4919   13.5623 O   0  0  0  0  0  0  0  0  0  0  0  0
   21.8135    8.3303    6.8404 C   0  0  2  0  0  0  0  0  0  0  0  0
   21.6500    6.9544    7.2468 O   0  0  0  0  0  0  0  0  0  0  0  0
   22.3096    7.0934   10.8337 C   0  0  2  0  0  0  0  0  0  0  0  0
   23.3398    8.0442   11.2792 O   0  0  0  0  0  0  0  0  0  0  0  0
   22.4246    9.5752   14.6175 C   0  0  0  0  0  0  0  0  0  0  0  0
   21.0886    9.0940   14.5021 N   0  0  0  0  0  0  0  0  0  0  0  0
   20.4512    8.9111    6.5405 C   0  0  0  0  0  0  0  0  0  0  0  0
   20.5190   10.2709    6.3076 O   0  0  0  0  0  0  0  0  0  0  0  0
   21.6151    6.3973   12.0862 C   0  0  1  0  0  0  0  0  0  0  0  0
   20.7292    7.3012   12.7641 O   0  0  0  0  0  0  0  0  0  0  0  0
  1  2  1  1  0  0  0
  1  6  1  0  0  0  0
  1 23  1  0  0  0  0
  3  4  1  1  0  0  0
  3  8  1  0  0  0  0
  3 30  1  0  0  0  0
  5  9  1  0  0  0  0
  5 21  1  0  0  0  0
  5 25  1  6  0  0  0
  6  7  1  1  0  0  0
  6 11  1  0  0  0  0
  8 13  1  0  0  0  0
  9 10  1  6  0  0  0
  9 15  1  0  0  0  0
 11 12  1  6  0  0  0
 11 17  1  0  0  0  0
 13 14  1  1  0  0  0
 13 19  1  0  0  0  0
 15 16  1  6  0  0  0
 15 20  1  0  0  0  0
 17 18  1  1  0  0  0
 17 22  1  0  0  0  0
 19  2  1  6  0  0  0
 19 24  1  0  0  0  0
 20 21  1  0  0  0  0
 20 26  1  6  0  0  0
 22 23  1  0  0  0  0
 22 28  1  6  0  0  0
 24 25  1  1  0  0  0
 24 30  1  0  0  0  0
 26 27  1  0  0  0  0
 28 29  1  0  0  0  0
 30 31  1  6  0  0  0
M  END
>  <CHROM.1>
-150.68264190,-171.58757799,11.67974714,165.14817824,-65.92549416,-85.49675403
22.91456446,7.37049731,10.09648923,1.63290481,-0.81200331,-1.52993201

>  <Name>
2o3x_lig

>  <RI>
0

>  <Rbt.Current_Directory>
/home/itssahil/PROJECTS/Mol_Feturizer/New_Systems/rnas/2o3x

>  <Rbt.Executable>
rbdock ($Id: //depot/dev/client3/rdock/2013.1/src/exe/rbdock.cxx#4 $)

>  <Rbt.Library>
libRbt.so (2013.1, Build901 2013/11/27)

>  <Rbt.Parameter_File>
/export/apps/rDock/src/rDock_2013.1_src/data/scripts/dock_solv.prm

>  <Rbt.Receptor>
prm/blind_docking_40.prm

>  <SCORE>
15.2861

>  <SCORE.INTER>
-3.13876

>  <SCORE.INTER.CONST>
1

>  <SCORE.INTER.POLAR>
-1.0868

>  <SCORE.INTER.ROT>
6

>  <SCORE.INTER.SOLV>
23.2627

>  <SCORE.INTER.VDW>
-13.8241

>  <SCORE.INTER.norm>
-0.10125

>  <SCORE.INTRA>
13.9116

>  <SCORE.INTRA.DIHEDRAL>
4.71448

>  <SCORE.INTRA.DIHEDRAL.0>
9.37739

>  <SCORE.INTRA.POLAR>
0

>  <SCORE.INTRA.POLAR.0>
0

>  <SCORE.INTRA.REPUL>
0

>  <SCORE.INTRA.REPUL.0>
0

>  <SCORE.INTRA.SOLV>
3.20284

>  <SCORE.INTRA.SOLV.lig_0>
-82.9274

>  <SCORE.INTRA.VDW>
9.95291

>  <SCORE.INTRA.VDW.0>
-3.84922

>  <SCORE.INTRA.norm>
0.44876

>  <SCORE.RESTR>
4.51325

>  <SCORE.RESTR.CAVITY>
4.51325

>  <SCORE.RESTR.norm>
0.145589

>  <SCORE.SYSTEM>
0

>  <SCORE.SYSTEM.CONST>
0

>  <SCORE.SYSTEM.DIHEDRAL>
0

>  <SCORE.SYSTEM.SOLV>
0

>  <SCORE.SYSTEM.norm>
0

>  <SCORE.heavy>
31

>  <SCORE.norm>
0.493099

>  <RMSD>
5.780

$$$$
2o3x_lig
 OpenBabel11021811463D
libRbt.so/2013.1/901 2013/11/27
 31 33  0  0  0  0  0  0  0  0999 V2000
   18.9488    8.6067    6.8340 C   0  0  2  0  0  0  0  0  0  0  0  0
   18.4250    9.7507    7.5214 O   0  0  0  0  0  0  0  0  0  0  0  0
   17.0323   10.4838   11.4989 C   0  0  2  0  0  0  0  0  0  0  0  0
   16.3899   10.3502   12.8252 N   0  0  0  0  0  0  0  0  0  0  0  0
   20.2444    7.4601   10.6379 C   0  0  1  0  0  0  0  0  0  0  0  0
   19.7400    9.1036    5.5828 C   0  0  2  0  0  0  0  0  0  0  0  0
   20.6801   10.2041    5.9160 N   0  0  0  0  0  0  0  0  0  0  0  0
   15.9827   10.5339   10.3391 C   0  0  0  0  0  0  0  0  0  0  0  0
   20.4555    5.9222   10.4464 C   0  0  2  0  0  0  0  0  0  0  0  0
   19.4932    5.0588   11.1119 O   0  0  0  0  0  0  0  0  0  0  0  0
   18.7943    9.6041    4.4746 C   0  0  1  0  0  0  0  0  0  0  0  0
   19.5250    9.9980    3.3409 O   0  0  0  0  0  0  0  0  0  0  0  0
   16.7577   10.7063    8.9819 C   0  0  2  0  0  0  0  0  0  0  0  0
   15.8215   10.7823    7.8204 N   0  0  0  0  0  0  0  0  0  0  0  0
   21.8890    5.8343   10.9426 C   0  0  2  0  0  0  0  0  0  0  0  0
   21.9414    5.8365   12.4105 O   0  0  0  0  0  0  0  0  0  0  0  0
   17.8018    8.5110    4.1157 C   0  0  2  0  0  0  0  0  0  0  0  0
   16.9612    8.9527    3.0988 O   0  0  0  0  0  0  0  0  0  0  0  0
   17.7302    9.5140    8.7541 C   0  0  2  0  0  0  0  0  0  0  0  0
   22.5665    7.0742   10.3710 C   0  0  2  0  0  0  0  0  0  0  0  0
   21.5487    8.0500   10.5762 O   0  0  0  0  0  0  0  0  0  0  0  0
   16.9692    8.1186    5.3688 C   0  0  2  0  0  0  0  0  0  0  0  0
   17.8538    7.6770    6.4211 O   0  0  0  0  0  0  0  0  0  0  0  0
   18.7451    9.3279    9.8994 C   0  0  2  0  0  0  0  0  0  0  0  0
   19.3925    8.0339    9.6344 O   0  0  0  0  0  0  0  0  0  0  0  0
   22.9428    6.9801    8.8535 C   0  0  0  0  0  0  0  0  0  0  0  0
   23.6690    8.1399    8.4566 N   0  0  0  0  0  0  0  0  0  0  0  0
   15.9738    7.0188    5.0804 C   0  0  0  0  0  0  0  0  0  0  0  0
   16.6023    5.8616    4.6635 O   0  0  0  0  0  0  0  0  0  0  0  0
   17.9937    9.2976   11.3031 C   0  0  1  0  0  0  0  0  0  0  0  0
   18.9229    9.3464   12.3965 O   0  0  0  0  0  0  0  0  0  0  0  0
  1  2  1  6  0  0  0
  1  6  1  0  0  0  0
  1 23  1  0  0  0  0
  3  4  1  1  0  0  0
  3  8  1  0  0  0  0
  3 30  1  0  0  0  0
  5  9  1  0  0  0  0
  5 21  1  0  0  0  0
  5 25  1  6  0  0  0
  6  7  1  1  0  0  0
  6 11  1  0  0  0  0
  8 13  1  0  0  0  0
  9 10  1  1  0  0  0
  9 15  1  0  0  0  0
 11 12  1  6  0  0  0
 11 17  1  0  0  0  0
 13 14  1  6  0  0  0
 13 19  1  0  0  0  0
 15 16  1  1  0  0  0
 15 20  1  0  0  0  0
 17 18  1  6  0  0  0
 17 22  1  0  0  0  0
 19  2  1  6  0  0  0
 19 24  1  0  0  0  0
 20 21  1  0  0  0  0
 20 26  1  6  0  0  0
 22 23  1  0  0  0  0
 22 28  1  6  0  0  0
 24 25  1  6  0  0  0
 24 30  1  0  0  0  0
 26 27  1  0  0  0  0
 28 29  1  0  0  0  0
 30 31  1  1  0  0  0
M  END
>  <CHROM.1>
-176.22500782,160.22687077,-155.61042040,-175.01133833,61.03667642,-170.09774005
18.96530754,8.42629351,8.36058396,-2.05220214,-0.53069529,1.51209554

>  <Name>
2o3x_lig

>  <RI>
0

>  <Rbt.Current_Directory>
/home/itssahil/PROJECTS/Mol_Feturizer/New_Systems/rnas/2o3x

>  <Rbt.Executable>
rbdock ($Id: //depot/dev/client3/rdock/2013.1/src/exe/rbdock.cxx#4 $)

>  <Rbt.Library>
libRbt.so (2013.1, Build901 2013/11/27)

>  <Rbt.Parameter_File>
/export/apps/rDock/src/rDock_2013.1_src/data/scripts/dock_solv.prm

>  <Rbt.Receptor>
prm/pocket_docking_5.prm

>  <SCORE>
-11.2968

>  <SCORE.INTER>
-8.96989

>  <SCORE.INTER.CONST>
1

>  <SCORE.INTER.POLAR>
-1.58024

>  <SCORE.INTER.ROT>
6

>  <SCORE.INTER.SOLV>
20.2353

>  <SCORE.INTER.VDW>
-15.0576

>  <SCORE.INTER.norm>
-0.289351

>  <SCORE.INTRA>
-2.32831

>  <SCORE.INTRA.DIHEDRAL>
-4.28627

>  <SCORE.INTRA.DIHEDRAL.0>
9.37739

>  <SCORE.INTRA.POLAR>
0

>  <SCORE.INTRA.POLAR.0>
0

>  <SCORE.INTRA.REPUL>
0

>  <SCORE.INTRA.REPUL.0>
0

>  <SCORE.INTRA.SOLV>
-2.41088

>  <SCORE.INTRA.SOLV.lig_0>
-82.9274

>  <SCORE.INTRA.VDW>
1.02026

>  <SCORE.INTRA.VDW.0>
-3.84922

>  <SCORE.INTRA.norm>
-0.0751068

>  <SCORE.RESTR>
0.00140497

>  <SCORE.RESTR.CAVITY>
0.00140497

>  <SCORE.RESTR.norm>
4.53217e-05

>  <SCORE.SYSTEM>
0

>  <SCORE.SYSTEM.CONST>
0

>  <SCORE.SYSTEM.DIHEDRAL>
0

>  <SCORE.SYSTEM.SOLV>
0

>  <SCORE.SYSTEM.norm>
0

>  <SCORE.heavy>
31

>  <SCORE.norm>
-0.364413

>  <RMSD>
5.786

$$$$
2o3x_lig
 OpenBabel11021811463D
libRbt.so/2013.1/901 2013/11/27
 31 33  0  0  0  0  0  0  0  0999 V2000
   19.0507    8.6548    6.7482 C   0  0  2  0  0  0  0  0  0  0  0  0
   18.5333    9.8075    7.4256 O   0  0  0  0  0  0  0  0  0  0  0  0
   17.2190   10.5397   11.4300 C   0  0  2  0  0  0  0  0  0  0  0  0
   16.5827   10.4161   12.7601 N   0  0  0  0  0  0  0  0  0  0  0  0
   20.2696    7.3723   10.4741 C   0  0  1  0  0  0  0  0  0  0  0  0
   19.8384    9.1360    5.4887 C   0  0  2  0  0  0  0  0  0  0  0  0
   20.7832   10.2370    5.8066 N   0  0  0  0  0  0  0  0  0  0  0  0
   16.1630   10.6679   10.2821 C   0  0  0  0  0  0  0  0  0  0  0  0
   20.5951    5.8831   10.1239 C   0  0  2  0  0  0  0  0  0  0  0  0
   19.6656    4.8896   10.6372 O   0  0  0  0  0  0  0  0  0  0  0  0
   18.8898    9.6279    4.3792 C   0  0  1  0  0  0  0  0  0  0  0  0
   19.6171   10.0076    3.2385 O   0  0  0  0  0  0  0  0  0  0  0  0
   16.9335   10.8237    8.9204 C   0  0  2  0  0  0  0  0  0  0  0  0
   15.9920   10.9716    7.7701 N   0  0  0  0  0  0  0  0  0  0  0  0
   22.0072    5.8302   10.6825 C   0  0  2  0  0  0  0  0  0  0  0  0
   21.9925    5.6674   12.1423 O   0  0  0  0  0  0  0  0  0  0  0  0
   17.8924    8.5343    4.0356 C   0  0  2  0  0  0  0  0  0  0  0  0
   17.0491    8.9680    3.0176 O   0  0  0  0  0  0  0  0  0  0  0  0
   17.8382    9.5854    8.6610 C   0  0  2  0  0  0  0  0  0  0  0  0
   22.6225    7.1681   10.2894 C   0  0  2  0  0  0  0  0  0  0  0  0
   21.5313    8.0472   10.5477 O   0  0  0  0  0  0  0  0  0  0  0  0
   17.0637    8.1576    5.2961 C   0  0  2  0  0  0  0  0  0  0  0  0
   17.9511    7.7242    6.3494 O   0  0  0  0  0  0  0  0  0  0  0  0
   18.8521    9.3237    9.7922 C   0  0  2  0  0  0  0  0  0  0  0  0
   19.4264    8.0020    9.4971 O   0  0  0  0  0  0  0  0  0  0  0  0
   23.0730    7.2729    8.7929 C   0  0  0  0  0  0  0  0  0  0  0  0
   24.0828    6.3063    8.5170 N   0  0  0  0  0  0  0  0  0  0  0  0
   16.0637    7.0581    5.0232 C   0  0  0  0  0  0  0  0  0  0  0  0
   15.3372    6.7403    6.1542 O   0  0  0  0  0  0  0  0  0  0  0  0
   18.1133    9.3076   11.2027 C   0  0  1  0  0  0  0  0  0  0  0  0
   19.0538    9.2859   12.2872 O   0  0  0  0  0  0  0  0  0  0  0  0
  1  2  1  6  0  0  0
  1  6  1  0  0  0  0
  1 23  1  0  0  0  0
  3  4  1  1  0  0  0
  3  8  1  0  0  0  0
  3 30  1  0  0  0  0
  5  9  1  0  0  0  0
  5 21  1  0  0  0  0
  5 25  1  6  0  0  0
  6  7  1  1  0  0  0
  6 11  1  0  0  0  0
  8 13  1  0  0  0  0
  9 10  1  1  0  0  0
  9 15  1  0  0  0  0
 11 12  1  6  0  0  0
 11 17  1  0  0  0  0
 13 14  1  6  0  0  0
 13 19  1  0  0  0  0
 15 16  1  1  0  0  0
 15 20  1  0  0  0  0
 17 18  1  6  0  0  0
 17 22  1  0  0  0  0
 19  2  1  6  0  0  0
 19 24  1  0  0  0  0
 20 21  1  0  0  0  0
 20 26  1  6  0  0  0
 22 23  1  0  0  0  0
 22 28  1  6  0  0  0
 24 25  1  6  0  0  0
 24 30  1  0  0  0  0
 26 27  1  0  0  0  0
 28 29  1  0  0  0  0
 30 31  1  1  0  0  0
M  END
>  <CHROM.1>
-176.46156757,170.00865569,-158.85443826,-61.67730780,-179.90430243,-170.89662873
19.03242649,8.42407123,8.30432300,-2.14746133,-0.53970496,1.53899696

>  <Name>
2o3x_lig

>  <RI>
3.34184e+07

>  <Rbt.Current_Directory>
/home/itssahil/PROJECTS/Mol_Feturizer/New_Systems/rnas/2o3x

>  <Rbt.Executable>
rbdock ($Id: //depot/dev/client3/rdock/2013.1/src/exe/rbdock.cxx#4 $)

>  <Rbt.Library>
libRbt.so (2013.1, Build901 2013/11/27)

>  <Rbt.Parameter_File>
/export/apps/rDock/src/rDock_2013.1_src/data/scripts/dock_solv.prm

>  <Rbt.Receptor>
prm/pocket_docking_6.prm

>  <SCORE>
-13.1341

>  <SCORE.INTER>
-9.91818

>  <SCORE.INTER.CONST>
1

>  <SCORE.INTER.POLAR>
-1.35268

>  <SCORE.INTER.ROT>
6

>  <SCORE.INTER.SOLV>
17.132

>  <SCORE.INTER.VDW>
-15.4139

>  <SCORE.INTER.norm>
-0.319941

>  <SCORE.INTRA>
-3.21593

>  <SCORE.INTRA.DIHEDRAL>
-6.27091

>  <SCORE.INTRA.DIHEDRAL.0>
9.37739

>  <SCORE.INTRA.POLAR>
0

>  <SCORE.INTRA.POLAR.0>
0

>  <SCORE.INTRA.REPUL>
0

>  <SCORE.INTRA.REPUL.0>
0

>  <SCORE.INTRA.SOLV>
-2.53893

>  <SCORE.INTRA.SOLV.lig_0>
-82.9274

>  <SCORE.INTRA.VDW>
1.18899

>  <SCORE.INTRA.VDW.0>
-3.84922

>  <SCORE.INTRA.norm>
-0.10374

>  <SCORE.RESTR>
0

>  <SCORE.RESTR.CAVITY>
0

>  <SCORE.RESTR.norm>
0

>  <SCORE.SYSTEM>
0

>  <SCORE.SYSTEM.CONST>
0

>  <SCORE.SYSTEM.DIHEDRAL>
0

>  <SCORE.SYSTEM.SOLV>
0

>  <SCORE.SYSTEM.norm>
0

>  <SCORE.heavy>
31

>  <SCORE.norm>
-0.423681

>  <RMSD>
5.789

$$$$
2o3x_lig
 OpenBabel11021811463D
libRbt.so/2013.1/901 2013/11/27
 31 33  0  0  0  0  0  0  0  0999 V2000
   18.9763    8.5887    6.8373 C   0  0  2  0  0  0  0  0  0  0  0  0
   18.4913    9.7589    7.5087 O   0  0  0  0  0  0  0  0  0  0  0  0
   17.2516   10.5801   11.5196 C   0  0  2  0  0  0  0  0  0  0  0  0
   16.6391   10.4867   12.8633 N   0  0  0  0  0  0  0  0  0  0  0  0
   20.2636    7.3773   10.5834 C   0  0  1  0  0  0  0  0  0  0  0  0
   19.7898    9.0417    5.5838 C   0  0  2  0  0  0  0  0  0  0  0  0
   20.7676   10.1115    5.9081 N   0  0  0  0  0  0  0  0  0  0  0  0
   16.1753   10.6869   10.3885 C   0  0  0  0  0  0  0  0  0  0  0  0
   20.4778    5.8500   10.3235 C   0  0  2  0  0  0  0  0  0  0  0  0
   19.5125    4.9563   10.9432 O   0  0  0  0  0  0  0  0  0  0  0  0
   18.8672    9.5625    4.4656 C   0  0  1  0  0  0  0  0  0  0  0  0
   19.6161    9.9162    3.3305 O   0  0  0  0  0  0  0  0  0  0  0  0
   16.9214   10.8115    9.0100 C   0  0  2  0  0  0  0  0  0  0  0  0
   15.9597   10.9377    7.8740 N   0  0  0  0  0  0  0  0  0  0  0  0
   21.9083    5.7409   10.8240 C   0  0  2  0  0  0  0  0  0  0  0  0
   21.9517    5.6765   12.2909 O   0  0  0  0  0  0  0  0  0  0  0  0
   17.8374    8.5016    4.1153 C   0  0  2  0  0  0  0  0  0  0  0  0
   17.0173    8.9610    3.0895 O   0  0  0  0  0  0  0  0  0  0  0  0
   17.8181    9.5653    8.7609 C   0  0  2  0  0  0  0  0  0  0  0  0
   22.5878    7.0062   10.3136 C   0  0  2  0  0  0  0  0  0  0  0  0
   21.5675    7.9707   10.5566 O   0  0  0  0  0  0  0  0  0  0  0  0
   16.9862    8.1545    5.3693 C   0  0  2  0  0  0  0  0  0  0  0  0
   17.8501    7.6940    6.4307 O   0  0  0  0  0  0  0  0  0  0  0  0
   18.8517    9.3247    9.8790 C   0  0  2  0  0  0  0  0  0  0  0  0
   19.4171    7.9953    9.6018 O   0  0  0  0  0  0  0  0  0  0  0  0
   22.9735    6.9815    8.7957 C   0  0  0  0  0  0  0  0  0  0  0  0
   23.7648    8.1216    8.4734 N   0  0  0  0  0  0  0  0  0  0  0  0
   15.9530    7.0879    5.0896 C   0  0  0  0  0  0  0  0  0  0  0  0
   15.1673    6.8389    6.1980 O   0  0  0  0  0  0  0  0  0  0  0  0
   18.1384    9.3408   11.3026 C   0  0  1  0  0  0  0  0  0  0  0  0
   19.0984    9.3394   12.3702 O   0  0  0  0  0  0  0  0  0  0  0  0
  1  2  1  6  0  0  0
  1  6  1  0  0  0  0
  1 23  1  0  0  0  0
  3  4  1  1  0  0  0
  3  8  1  0  0  0  0
  3 30  1  0  0  0  0
  5  9  1  0  0  0  0
  5 21  1  0  0  0  0
  5 25  1  6  0  0  0
  6  7  1  1  0  0  0
  6 11  1  0  0  0  0
  8 13  1  0  0  0  0
  9 10  1  1  0  0  0
  9 15  1  0  0  0  0
 11 12  1  6  0  0  0
 11 17  1  0  0  0  0
 13 14  1  6  0  0  0
 13 19  1  0  0  0  0
 15 16  1  1  0  0  0
 15 20  1  0  0  0  0
 17 18  1  6  0  0  0
 17 22  1  0  0  0  0
 19  2  1  6  0  0  0
 19 24  1  0  0  0  0
 20 21  1  0  0  0  0
 20 26  1  6  0  0  0
 22 23  1  0  0  0  0
 22 28  1  6  0  0  0
 24 25  1  6  0  0  0
 24 30  1  0  0  0  0
 26 27  1  0  0  0  0
 28 29  1  0  0  0  0
 30 31  1  1  0  0  0
M  END
>  <CHROM.1>
-174.43276199,165.00715266,-157.96838452,-171.75467069,-177.19450099,-170.17750796
18.98421512,8.45533925,8.39584688,-2.10359621,-0.49976110,1.54554985

>  <Name>
2o3x_lig

>  <RI>
0

>  <Rbt.Current_Directory>
/home/itssahil/PROJECTS/Mol_Feturizer/New_Systems/rnas/2o3x

>  <Rbt.Executable>
rbdock ($Id: //depot/dev/client3/rdock/2013.1/src/exe/rbdock.cxx#4 $)

>  <Rbt.Library>
libRbt.so (2013.1, Build901 2013/11/27)

>  <Rbt.Parameter_File>
/export/apps/rDock/src/rDock_2013.1_src/data/scripts/dock_solv.prm

>  <Rbt.Receptor>
prm/pocket_docking_5.prm

>  <SCORE>
-11.5218

>  <SCORE.INTER>
-8.58719

>  <SCORE.INTER.CONST>
1

>  <SCORE.INTER.POLAR>
-1.51943

>  <SCORE.INTER.ROT>
6

>  <SCORE.INTER.SOLV>
20.4881

>  <SCORE.INTER.VDW>
-15.0894

>  <SCORE.INTER.norm>
-0.277006

>  <SCORE.INTRA>
-2.94482

>  <SCORE.INTRA.DIHEDRAL>
-5.16622

>  <SCORE.INTRA.DIHEDRAL.0>
9.37739

>  <SCORE.INTRA.POLAR>
0

>  <SCORE.INTRA.POLAR.0>
0

>  <SCORE.INTRA.REPUL>
0

>  <SCORE.INTRA.REPUL.0>
0

>  <SCORE.INTRA.SOLV>
-2.90758

>  <SCORE.INTRA.SOLV.lig_0>
-82.9274

>  <SCORE.INTRA.VDW>
1.09207

>  <SCORE.INTRA.VDW.0>
-3.84922

>  <SCORE.INTRA.norm>
-0.0949943

>  <SCORE.RESTR>
0.0102453

>  <SCORE.RESTR.CAVITY>
0.0102453

>  <SCORE.RESTR.norm>
0.000330494

>  <SCORE.SYSTEM>
0

>  <SCORE.SYSTEM.CONST>
0

>  <SCORE.SYSTEM.DIHEDRAL>
0

>  <SCORE.SYSTEM.SOLV>
0

>  <SCORE.SYSTEM.norm>
0

>  <SCORE.heavy>
31

>  <SCORE.norm>
-0.37167

>  <RMSD>
5.791

$$$$
2o3x_lig
 OpenBabel11021811463D
libRbt.so/2013.1/901 2013/11/27
 31 33  0  0  0  0  0  0  0  0999 V2000
   18.8491    8.4732    6.5565 C   0  0  2  0  0  0  0  0  0  0  0  0
   17.7404    9.2118    7.0864 O   0  0  0  0  0  0  0  0  0  0  0  0
   16.1410    9.1058   11.0523 C   0  0  2  0  0  0  0  0  0  0  0  0
   15.5153    8.6667   12.3193 N   0  0  0  0  0  0  0  0  0  0  0  0
   20.2019    7.2543    9.7871 C   0  0  1  0  0  0  0  0  0  0  0  0
   19.6007    9.3806    5.5317 C   0  0  2  0  0  0  0  0  0  0  0  0
   19.8661   10.7371    6.0750 N   0  0  0  0  0  0  0  0  0  0  0  0
   15.1293    9.0849    9.8584 C   0  0  0  0  0  0  0  0  0  0  0  0
   20.8827    5.8822    9.4708 C   0  0  2  0  0  0  0  0  0  0  0  0
   20.4412    4.7518   10.2718 O   0  0  0  0  0  0  0  0  0  0  0  0
   18.8045    9.5391    4.2226 C   0  0  1  0  0  0  0  0  0  0  0  0
   19.5220   10.3164    3.2979 O   0  0  0  0  0  0  0  0  0  0  0  0
   15.8766    9.5936    8.5718 C   0  0  2  0  0  0  0  0  0  0  0  0
   14.9702    9.6220    7.3849 N   0  0  0  0  0  0  0  0  0  0  0  0
   22.3297    6.3081    9.6544 C   0  0  2  0  0  0  0  0  0  0  0  0
   22.6896    6.3579   11.0776 O   0  0  0  0  0  0  0  0  0  0  0  0
   18.4959    8.1695    3.6415 C   0  0  2  0  0  0  0  0  0  0  0  0
   17.7966    8.3106    2.4470 O   0  0  0  0  0  0  0  0  0  0  0  0
   17.0878    8.6740    8.2454 C   0  0  2  0  0  0  0  0  0  0  0  0
   22.4014    7.6944    9.0250 C   0  0  2  0  0  0  0  0  0  0  0  0
   21.1788    8.2595    9.4901 O   0  0  0  0  0  0  0  0  0  0  0  0
   17.6622    7.3383    4.6573 C   0  0  2  0  0  0  0  0  0  0  0  0
   18.3919    7.2123    5.8968 O   0  0  0  0  0  0  0  0  0  0  0  0
   18.0952    8.5578    9.4065 C   0  0  2  0  0  0  0  0  0  0  0  0
   19.0117    7.4759    9.0149 O   0  0  0  0  0  0  0  0  0  0  0  0
   22.4546    7.7065    7.4596 C   0  0  0  0  0  0  0  0  0  0  0  0
   23.6036    6.9982    7.0036 N   0  0  0  0  0  0  0  0  0  0  0  0
   17.3383    5.9545    4.1440 C   0  0  0  0  0  0  0  0  0  0  0  0
   18.4828    5.2527    3.8189 O   0  0  0  0  0  0  0  0  0  0  0  0
   17.3393    8.1856   10.7577 C   0  0  1  0  0  0  0  0  0  0  0  0
   18.2134    8.2856   11.8923 O   0  0  0  0  0  0  0  0  0  0  0  0
  1  2  1  6  0  0  0
  1  6  1  0  0  0  0
  1 23  1  0  0  0  0
  3  4  1  1  0  0  0
  3  8  1  0  0  0  0
  3 30  1  0  0  0  0
  5  9  1  0  0  0  0
  5 21  1  0  0  0  0
  5 25  1  6  0  0  0
  6  7  1  1  0  0  0
  6 11  1  0  0  0  0
  8 13  1  0  0  0  0
  9 10  1  1  0  0  0
  9 15  1  0  0  0  0
 11 12  1  6  0  0  0
 11 17  1  0  0  0  0
 13 14  1  6  0  0  0
 13 19  1  0  0  0  0
 15 16  1  1  0  0  0
 15 20  1  0  0  0  0
 17 18  1  6  0  0  0
 17 22  1  0  0  0  0
 19  2  1  6  0  0  0
 19 24  1  0  0  0  0
 20 21  1  0  0  0  0
 20 26  1  6  0  0  0
 22 23  1  0  0  0  0
 22 28  1  6  0  0  0
 24 25  1  6  0  0  0
 24 30  1  0  0  0  0
 26 27  1  0  0  0  0
 28 29  1  0  0  0  0
 30 31  1  1  0  0  0
M  END
>  <CHROM.1>
-167.10763939,166.08686428,-176.48212276,-59.93540661,57.07753441,170.20996696
18.92881237,7.98592574,7.69477315,1.74054155,0.36162768,-1.50374394

>  <Name>
2o3x_lig

>  <RI>
0

>  <Rbt.Current_Directory>
/home/itssahil/PROJECTS/Mol_Feturizer/New_Systems/rnas/2o3x

>  <Rbt.Executable>
rbdock ($Id: //depot/dev/client3/rdock/2013.1/src/exe/rbdock.cxx#4 $)

>  <Rbt.Library>
libRbt.so (2013.1, Build901 2013/11/27)

>  <Rbt.Parameter_File>
/export/apps/rDock/src/rDock_2013.1_src/data/scripts/dock_solv.prm

>  <Rbt.Receptor>
prm/pocket_docking_5.prm

>  <SCORE>
-10.5767

>  <SCORE.INTER>
-7.24315

>  <SCORE.INTER.CONST>
1

>  <SCORE.INTER.POLAR>
-1.41929

>  <SCORE.INTER.ROT>
6

>  <SCORE.INTER.SOLV>
15.1257

>  <SCORE.INTER.VDW>
-12.7397

>  <SCORE.INTER.norm>
-0.23365

>  <SCORE.INTRA>
-3.33354

>  <SCORE.INTRA.DIHEDRAL>
-6.94095

>  <SCORE.INTRA.DIHEDRAL.0>
9.37739

>  <SCORE.INTRA.POLAR>
0

>  <SCORE.INTRA.POLAR.0>
0

>  <SCORE.INTRA.REPUL>
0

>  <SCORE.INTRA.REPUL.0>
0

>  <SCORE.INTRA.SOLV>
-2.27566

>  <SCORE.INTRA.SOLV.lig_0>
-82.9274

>  <SCORE.INTRA.VDW>
1.27477

>  <SCORE.INTRA.VDW.0>
-3.84922

>  <SCORE.INTRA.norm>
-0.107534

>  <SCORE.RESTR>
0

>  <SCORE.RESTR.CAVITY>
0

>  <SCORE.RESTR.norm>
0

>  <SCORE.SYSTEM>
0

>  <SCORE.SYSTEM.CONST>
0

>  <SCORE.SYSTEM.DIHEDRAL>
0

>  <SCORE.SYSTEM.SOLV>
0

>  <SCORE.SYSTEM.norm>
0

>  <SCORE.heavy>
31

>  <SCORE.norm>
-0.341183

>  <RMSD>
5.792

$$$$
2o3x_lig
 OpenBabel11021811463D
libRbt.so/2013.1/901 2013/11/27
 31 33  0  0  0  0  0  0  0  0999 V2000
   22.1673    4.7099    6.2620 C   0  0  2  0  0  0  0  0  0  0  0  0
   21.4405    5.1827    7.4038 O   0  0  0  0  0  0  0  0  0  0  0  0
   19.3066    8.2720    5.3543 C   0  0  2  0  0  0  0  0  0  0  0  0
   18.3498    9.3457    5.0063 N   0  0  0  0  0  0  0  0  0  0  0  0
   20.5009    8.1176    9.5153 C   0  0  1  0  0  0  0  0  0  0  0  0
   23.1274    3.5695    6.7269 C   0  0  2  0  0  0  0  0  0  0  0  0
   22.4344    2.5652    7.5736 N   0  0  0  0  0  0  0  0  0  0  0  0
   18.6001    6.8852    5.5192 C   0  0  0  0  0  0  0  0  0  0  0  0
   19.7219    6.8354    9.9570 C   0  0  2  0  0  0  0  0  0  0  0  0
   18.5302    6.5165    9.1871 O   0  0  0  0  0  0  0  0  0  0  0  0
   24.3221    4.1234    7.5261 C   0  0  1  0  0  0  0  0  0  0  0  0
   25.1977    3.0865    7.8897 O   0  0  0  0  0  0  0  0  0  0  0  0
   19.6980    5.8112    5.8563 C   0  0  2  0  0  0  0  0  0  0  0  0
   19.1049    4.4491    6.0115 N   0  0  0  0  0  0  0  0  0  0  0  0
   19.4983    7.2056   11.4137 C   0  0  2  0  0  0  0  0  0  0  0  0
   18.3796    8.1471   11.5542 O   0  0  0  0  0  0  0  0  0  0  0  0
   25.0500    5.1705    6.6999 C   0  0  2  0  0  0  0  0  0  0  0  0
   26.1432    5.6557    7.4107 O   0  0  0  0  0  0  0  0  0  0  0  0
   20.4358    6.1809    7.1747 C   0  0  2  0  0  0  0  0  0  0  0  0
   20.8100    7.8486   11.8487 C   0  0  2  0  0  0  0  0  0  0  0  0
   21.1091    8.6407   10.7026 O   0  0  0  0  0  0  0  0  0  0  0  0
   24.0808    6.3333    6.3447 C   0  0  2  0  0  0  0  0  0  0  0  0
   22.9440    5.8145    5.6213 O   0  0  0  0  0  0  0  0  0  0  0  0
   21.0853    7.5785    7.1384 C   0  0  2  0  0  0  0  0  0  0  0  0
   21.5029    7.8456    8.5233 O   0  0  0  0  0  0  0  0  0  0  0  0
   21.9732    6.8416   12.1422 C   0  0  0  0  0  0  0  0  0  0  0  0
   23.0714    7.5236   12.7409 N   0  0  0  0  0  0  0  0  0  0  0  0
   24.7424    7.4011    5.5048 C   0  0  0  0  0  0  0  0  0  0  0  0
   25.7900    7.9996    6.1773 O   0  0  0  0  0  0  0  0  0  0  0  0
   20.0273    8.6664    6.6560 C   0  0  1  0  0  0  0  0  0  0  0  0
   20.6553    9.9322    6.4020 O   0  0  0  0  0  0  0  0  0  0  0  0
  1  2  1  1  0  0  0
  1  6  1  0  0  0  0
  1 23  1  0  0  0  0
  3  4  1  1  0  0  0
  3  8  1  0  0  0  0
  3 30  1  0  0  0  0
  5  9  1  0  0  0  0
  5 21  1  0  0  0  0
  5 25  1  6  0  0  0
  6  7  1  1  0  0  0
  6 11  1  0  0  0  0
  8 13  1  0  0  0  0
  9 10  1  6  0  0  0
  9 15  1  0  0  0  0
 11 12  1  6  0  0  0
 11 17  1  0  0  0  0
 13 14  1  1  0  0  0
 13 19  1  0  0  0  0
 15 16  1  6  0  0  0
 15 20  1  0  0  0  0
 17 18  1  1  0  0  0
 17 22  1  0  0  0  0
 19  2  1  6  0  0  0
 19 24  1  0  0  0  0
 20 21  1  0  0  0  0
 20 26  1  6  0  0  0
 22 23  1  0  0  0  0
 22 28  1  6  0  0  0
 24 25  1  1  0  0  0
 24 30  1  0  0  0  0
 26 27  1  0  0  0  0
 28 29  1  0  0  0  0
 30 31  1  6  0  0  0
M  END
>  <CHROM.1>
-176.12150638,74.66385873,39.81747310,-170.70793104,-62.21139886,-71.59575184
21.63792495,6.60630228,7.87963936,0.53855410,0.48092310,-1.68550042

>  <Name>
2o3x_lig

>  <RI>
0

>  <Rbt.Current_Directory>
/home/itssahil/PROJECTS/Mol_Feturizer/New_Systems/rnas/2o3x

>  <Rbt.Executable>
rbdock ($Id: //depot/dev/client3/rdock/2013.1/src/exe/rbdock.cxx#4 $)

>  <Rbt.Library>
libRbt.so (2013.1, Build901 2013/11/27)

>  <Rbt.Parameter_File>
/export/apps/rDock/src/rDock_2013.1_src/data/scripts/dock_solv.prm

>  <Rbt.Receptor>
prm/pocket_docking_4.prm

>  <SCORE>
-4.40504

>  <SCORE.INTER>
-4.26668

>  <SCORE.INTER.CONST>
1

>  <SCORE.INTER.POLAR>
-1.46969

>  <SCORE.INTER.ROT>
6

>  <SCORE.INTER.SOLV>
12.1629

>  <SCORE.INTER.VDW>
-9.5998

>  <SCORE.INTER.norm>
-0.137635

>  <SCORE.INTRA>
-0.138358

>  <SCORE.INTRA.DIHEDRAL>
-5.37124

>  <SCORE.INTRA.DIHEDRAL.0>
9.37739

>  <SCORE.INTRA.POLAR>
0

>  <SCORE.INTRA.POLAR.0>
0

>  <SCORE.INTRA.REPUL>
0

>  <SCORE.INTRA.REPUL.0>
0

>  <SCORE.INTRA.SOLV>
-0.663142

>  <SCORE.INTRA.SOLV.lig_0>
-82.9274

>  <SCORE.INTRA.VDW>
2.87883

>  <SCORE.INTRA.VDW.0>
-3.84922

>  <SCORE.INTRA.norm>
-0.00446316

>  <SCORE.RESTR>
0

>  <SCORE.RESTR.CAVITY>
0

>  <SCORE.RESTR.norm>
0

>  <SCORE.SYSTEM>
0

>  <SCORE.SYSTEM.CONST>
0

>  <SCORE.SYSTEM.DIHEDRAL>
0

>  <SCORE.SYSTEM.SOLV>
0

>  <SCORE.SYSTEM.norm>
0

>  <SCORE.heavy>
31

>  <SCORE.norm>
-0.142098

>  <RMSD>
5.811

$$$$
2o3x_lig
 OpenBabel11021811463D
libRbt.so/2013.1/901 2013/11/27
 31 33  0  0  0  0  0  0  0  0999 V2000
   19.8558    9.2849    8.8030 C   0  0  2  0  0  0  0  0  0  0  0  0
   20.8033    8.5500    9.5891 O   0  0  0  0  0  0  0  0  0  0  0  0
   24.3618    6.6234    8.2025 C   0  0  2  0  0  0  0  0  0  0  0  0
   25.3112    5.7158    7.5210 N   0  0  0  0  0  0  0  0  0  0  0  0
   21.5892    9.6957    5.8526 C   0  0  1  0  0  0  0  0  0  0  0  0
   18.8300    9.9570    9.7696 C   0  0  2  0  0  0  0  0  0  0  0  0
   19.4987   10.6643   10.8914 N   0  0  0  0  0  0  0  0  0  0  0  0
   23.4992    5.8761    9.2734 C   0  0  0  0  0  0  0  0  0  0  0  0
   21.8574    9.2254    4.3854 C   0  0  2  0  0  0  0  0  0  0  0  0
   23.2462    8.9624    4.0440 O   0  0  0  0  0  0  0  0  0  0  0  0
   17.8555    8.9260   10.3698 C   0  0  1  0  0  0  0  0  0  0  0  0
   16.9112    9.5596   11.1953 O   0  0  0  0  0  0  0  0  0  0  0  0
   22.5494    6.9251    9.9588 C   0  0  2  0  0  0  0  0  0  0  0  0
   21.7011    6.2920   11.0128 N   0  0  0  0  0  0  0  0  0  0  0  0
   21.1979   10.3858    3.6592 C   0  0  2  0  0  0  0  0  0  0  0  0
   22.0791   11.5607    3.6301 O   0  0  0  0  0  0  0  0  0  0  0  0
   17.1614    8.1658    9.2523 C   0  0  2  0  0  0  0  0  0  0  0  0
   16.2637    7.2498    9.7916 O   0  0  0  0  0  0  0  0  0  0  0  0
   21.6154    7.5853    8.9048 C   0  0  2  0  0  0  0  0  0  0  0  0
   19.9356   10.6709    4.4645 C   0  0  2  0  0  0  0  0  0  0  0  0
   20.4347   10.5423    5.7929 O   0  0  0  0  0  0  0  0  0  0  0  0
   18.2157    7.4326    8.3756 C   0  0  2  0  0  0  0  0  0  0  0  0
   19.1496    8.3918    7.8347 O   0  0  0  0  0  0  0  0  0  0  0  0
   22.3813    8.2679    7.7542 C   0  0  2  0  0  0  0  0  0  0  0  0
   21.3562    8.6021    6.7536 O   0  0  0  0  0  0  0  0  0  0  0  0
   18.7561    9.6700    4.2189 C   0  0  0  0  0  0  0  0  0  0  0  0
   18.3811    9.6835    2.8444 N   0  0  0  0  0  0  0  0  0  0  0  0
   17.5874    6.6712    7.2315 C   0  0  0  0  0  0  0  0  0  0  0  0
   16.8204    7.4967    6.4327 O   0  0  0  0  0  0  0  0  0  0  0  0
   23.4565    7.2682    7.1376 C   0  0  1  0  0  0  0  0  0  0  0  0
   24.3306    7.9403    6.2180 O   0  0  0  0  0  0  0  0  0  0  0  0
  1  2  1  1  0  0  0
  1  6  1  0  0  0  0
  1 23  1  0  0  0  0
  3  4  1  6  0  0  0
  3  8  1  0  0  0  0
  3 30  1  0  0  0  0
  5  9  1  0  0  0  0
  5 21  1  0  0  0  0
  5 25  1  1  0  0  0
  6  7  1  1  0  0  0
  6 11  1  0  0  0  0
  8 13  1  0  0  0  0
  9 10  1  1  0  0  0
  9 15  1  0  0  0  0
 11 12  1  6  0  0  0
 11 17  1  0  0  0  0
 13 14  1  1  0  0  0
 13 19  1  0  0  0  0
 15 16  1  1  0  0  0
 15 20  1  0  0  0  0
 17 18  1  1  0  0  0
 17 22  1  0  0  0  0
 19  2  1  1  0  0  0
 19 24  1  0  0  0  0
 20 21  1  0  0  0  0
 20 26  1  6  0  0  0
 22 23  1  0  0  0  0
 22 28  1  6  0  0  0
 24 25  1  6  0  0  0
 24 30  1  0  0  0  0
 26 27  1  0  0  0  0
 28 29  1  0  0  0  0
 30 31  1  6  0  0  0
M  END
>  <CHROM.1>
164.25552002,108.96832007,-179.87512263,-59.31947241,56.60703123,154.13446698
20.52243031,8.52501895,7.43639888,-2.36595069,0.26957529,-1.16376700

>  <Name>
2o3x_lig

>  <RI>
0

>  <Rbt.Current_Directory>
/home/itssahil/PROJECTS/Mol_Feturizer/New_Systems/rnas/2o3x

>  <Rbt.Executable>
rbdock ($Id: //depot/dev/client3/rdock/2013.1/src/exe/rbdock.cxx#4 $)

>  <Rbt.Library>
libRbt.so (2013.1, Build901 2013/11/27)

>  <Rbt.Parameter_File>
/export/apps/rDock/src/rDock_2013.1_src/data/scripts/dock_solv.prm

>  <Rbt.Receptor>
prm/pocket_docking_3.prm

>  <SCORE>
-9.25879

>  <SCORE.INTER>
-11.5621

>  <SCORE.INTER.CONST>
1

>  <SCORE.INTER.POLAR>
-1.55953

>  <SCORE.INTER.ROT>
6

>  <SCORE.INTER.SOLV>
17.0554

>  <SCORE.INTER.VDW>
-15.7948

>  <SCORE.INTER.norm>
-0.372971

>  <SCORE.INTRA>
2.23906

>  <SCORE.INTRA.DIHEDRAL>
1.4245

>  <SCORE.INTRA.DIHEDRAL.0>
9.37739

>  <SCORE.INTRA.POLAR>
0

>  <SCORE.INTRA.POLAR.0>
0

>  <SCORE.INTRA.REPUL>
0.111741

>  <SCORE.INTRA.REPUL.0>
0

>  <SCORE.INTRA.SOLV>
-1.67544

>  <SCORE.INTRA.SOLV.lig_0>
-82.9274

>  <SCORE.INTRA.VDW>
1.80583

>  <SCORE.INTRA.VDW.0>
-3.84922

>  <SCORE.INTRA.norm>
0.0722278

>  <SCORE.RESTR>
0.0642642

>  <SCORE.RESTR.CAVITY>
0.0642642

>  <SCORE.RESTR.norm>
0.00207304

>  <SCORE.SYSTEM>
0

>  <SCORE.SYSTEM.CONST>
0

>  <SCORE.SYSTEM.DIHEDRAL>
0

>  <SCORE.SYSTEM.SOLV>
0

>  <SCORE.SYSTEM.norm>
0

>  <SCORE.heavy>
31

>  <SCORE.norm>
-0.298671

>  <RMSD>
5.836

$$$$
2o3x_lig
 OpenBabel11021811463D
libRbt.so/2013.1/901 2013/11/27
 31 33  0  0  0  0  0  0  0  0999 V2000
   19.6600    5.5903    6.2643 C   0  0  2  0  0  0  0  0  0  0  0  0
   18.3701    6.2116    6.3398 O   0  0  0  0  0  0  0  0  0  0  0  0
   19.2436    9.3068    3.5195 C   0  0  2  0  0  0  0  0  0  0  0  0
   19.1468   10.4852    2.6298 N   0  0  0  0  0  0  0  0  0  0  0  0
   18.5845   10.2363    7.8282 C   0  0  1  0  0  0  0  0  0  0  0  0
   19.6401    4.3048    7.1507 C   0  0  2  0  0  0  0  0  0  0  0  0
   18.4466    3.4614    6.8864 N   0  0  0  0  0  0  0  0  0  0  0  0
   18.3102    8.1400    3.0542 C   0  0  0  0  0  0  0  0  0  0  0  0
   17.5470   10.6689    8.9156 C   0  0  2  0  0  0  0  0  0  0  0  0
   16.3900   11.4071    8.4350 O   0  0  0  0  0  0  0  0  0  0  0  0
   19.6567    4.6498    8.6519 C   0  0  1  0  0  0  0  0  0  0  0  0
   19.6899    3.4791    9.4284 O   0  0  0  0  0  0  0  0  0  0  0  0
   18.5064    6.9306    4.0397 C   0  0  2  0  0  0  0  0  0  0  0  0
   17.6599    5.7627    3.6517 N   0  0  0  0  0  0  0  0  0  0  0  0
   18.4926   11.4286    9.8308 C   0  0  2  0  0  0  0  0  0  0  0  0
   18.7685   12.7731    9.3075 O   0  0  0  0  0  0  0  0  0  0  0  0
   20.8562    5.5293    8.9624 C   0  0  2  0  0  0  0  0  0  0  0  0
   20.8861    5.8232   10.3220 O   0  0  0  0  0  0  0  0  0  0  0  0
   18.1377    7.3459    5.4926 C   0  0  2  0  0  0  0  0  0  0  0  0
   19.7602   10.5826    9.8556 C   0  0  2  0  0  0  0  0  0  0  0  0
   19.8589   10.2139    8.4827 O   0  0  0  0  0  0  0  0  0  0  0  0
   20.7813    6.8408    8.1305 C   0  0  2  0  0  0  0  0  0  0  0  0
   20.7353    6.5215    6.7231 O   0  0  0  0  0  0  0  0  0  0  0  0
   18.9449    8.5554    6.0042 C   0  0  2  0  0  0  0  0  0  0  0  0
   18.2942    8.9482    7.2636 O   0  0  0  0  0  0  0  0  0  0  0  0
   19.6860    9.3093   10.7648 C   0  0  0  0  0  0  0  0  0  0  0  0
   19.4250    9.6859   12.1138 N   0  0  0  0  0  0  0  0  0  0  0  0
   21.9600    7.7525    8.3814 C   0  0  0  0  0  0  0  0  0  0  0  0
   21.9525    8.8386    7.5280 O   0  0  0  0  0  0  0  0  0  0  0  0
   18.8821    9.7468    4.9496 C   0  0  1  0  0  0  0  0  0  0  0  0
   19.7972   10.7988    5.2917 O   0  0  0  0  0  0  0  0  0  0  0  0
  1  2  1  1  0  0  0
  1  6  1  0  0  0  0
  1 23  1  0  0  0  0
  3  4  1  6  0  0  0
  3  8  1  0  0  0  0
  3 30  1  0  0  0  0
  5  9  1  0  0  0  0
  5 21  1  0  0  0  0
  5 25  1  1  0  0  0
  6  7  1  1  0  0  0
  6 11  1  0  0  0  0
  8 13  1  0  0  0  0
  9 10  1  6  0  0  0
  9 15  1  0  0  0  0
 11 12  1  1  0  0  0
 11 17  1  0  0  0  0
 13 14  1  6  0  0  0
 13 19  1  0  0  0  0
 15 16  1  6  0  0  0
 15 20  1  0  0  0  0
 17 18  1  1  0  0  0
 17 22  1  0  0  0  0
 19  2  1  1  0  0  0
 19 24  1  0  0  0  0
 20 21  1  0  0  0  0
 20 26  1  1  0  0  0
 22 23  1  0  0  0  0
 22 28  1  6  0  0  0
 24 25  1  1  0  0  0
 24 30  1  0  0  0  0
 26 27  1  0  0  0  0
 28 29  1  0  0  0  0
 30 31  1  1  0  0  0
M  END
>  <CHROM.1>
-174.27012430,163.97015908,52.48481492,-59.80846565,173.31282724,-164.55307276
19.30407026,8.12927733,7.33036275,1.22106531,1.31337432,-2.42174403

>  <Name>
2o3x_lig

>  <RI>
2.78316e+07

>  <Rbt.Current_Directory>
/home/itssahil/PROJECTS/Mol_Feturizer/New_Systems/rnas/2o3x

>  <Rbt.Executable>
rbdock ($Id: //depot/dev/client3/rdock/2013.1/src/exe/rbdock.cxx#4 $)

>  <Rbt.Library>
libRbt.so (2013.1, Build901 2013/11/27)

>  <Rbt.Parameter_File>
/export/apps/rDock/src/rDock_2013.1_src/data/scripts/dock_solv.prm

>  <Rbt.Receptor>
prm/pocket_docking_7.prm

>  <SCORE>
-9.56812

>  <SCORE.INTER>
-6.84495

>  <SCORE.INTER.CONST>
1

>  <SCORE.INTER.POLAR>
-0.954578

>  <SCORE.INTER.ROT>
6

>  <SCORE.INTER.SOLV>
15.0029

>  <SCORE.INTER.VDW>
-13.9823

>  <SCORE.INTER.norm>
-0.220805

>  <SCORE.INTRA>
-2.72317

>  <SCORE.INTRA.DIHEDRAL>
-6.29786

>  <SCORE.INTRA.DIHEDRAL.0>
9.37739

>  <SCORE.INTRA.POLAR>
0

>  <SCORE.INTRA.POLAR.0>
0

>  <SCORE.INTRA.REPUL>
0

>  <SCORE.INTRA.REPUL.0>
0

>  <SCORE.INTRA.SOLV>
-0.239246

>  <SCORE.INTRA.SOLV.lig_0>
-82.9274

>  <SCORE.INTRA.VDW>
0.545385

>  <SCORE.INTRA.VDW.0>
-3.84922

>  <SCORE.INTRA.norm>
-0.0878442

>  <SCORE.RESTR>
0

>  <SCORE.RESTR.CAVITY>
0

>  <SCORE.RESTR.norm>
0

>  <SCORE.SYSTEM>
0

>  <SCORE.SYSTEM.CONST>
0

>  <SCORE.SYSTEM.DIHEDRAL>
0

>  <SCORE.SYSTEM.SOLV>
0

>  <SCORE.SYSTEM.norm>
0

>  <SCORE.heavy>
31

>  <SCORE.norm>
-0.308649

>  <RMSD>
5.861

$$$$
2o3x_lig
 OpenBabel11021811463D
libRbt.so/2013.1/901 2013/11/27
 31 33  0  0  0  0  0  0  0  0999 V2000
   19.6794    7.3212   10.8353 C   0  0  2  0  0  0  0  0  0  0  0  0
   20.9264    6.6984   11.1706 O   0  0  0  0  0  0  0  0  0  0  0  0
   24.0851    7.9155   13.7858 C   0  0  2  0  0  0  0  0  0  0  0  0
   25.1467    8.6915   14.4643 N   0  0  0  0  0  0  0  0  0  0  0  0
   19.7883    9.4885   14.0968 C   0  0  1  0  0  0  0  0  0  0  0  0
   18.7688    6.2586   10.1423 C   0  0  2  0  0  0  0  0  0  0  0  0
   18.7258    4.9806   10.8977 N   0  0  0  0  0  0  0  0  0  0  0  0
   24.4553    7.5847   12.3016 C   0  0  0  0  0  0  0  0  0  0  0  0
   18.6886   10.5356   13.7224 C   0  0  2  0  0  0  0  0  0  0  0  0
   19.1362   11.9135   13.5979 O   0  0  0  0  0  0  0  0  0  0  0  0
   19.2451    5.9498    8.7103 C   0  0  1  0  0  0  0  0  0  0  0  0
   18.3826    5.0307    8.0892 O   0  0  0  0  0  0  0  0  0  0  0  0
   23.2854    6.7376   11.6802 C   0  0  2  0  0  0  0  0  0  0  0  0
   23.5713    6.3627   10.2629 N   0  0  0  0  0  0  0  0  0  0  0  0
   17.7169   10.2473   14.8545 C   0  0  2  0  0  0  0  0  0  0  0  0
   18.1527   10.8896   16.1016 O   0  0  0  0  0  0  0  0  0  0  0  0
   19.3204    7.2370    7.9065 C   0  0  2  0  0  0  0  0  0  0  0  0
   19.7283    6.9577    6.6059 O   0  0  0  0  0  0  0  0  0  0  0  0
   21.9523    7.5379   11.7194 C   0  0  2  0  0  0  0  0  0  0  0  0
   17.7297    8.7292   14.9899 C   0  0  2  0  0  0  0  0  0  0  0  0
   19.1215    8.4621   14.8416 O   0  0  0  0  0  0  0  0  0  0  0  0
   20.3133    8.2256    8.5805 C   0  0  2  0  0  0  0  0  0  0  0  0
   19.8874    8.4949    9.9337 O   0  0  0  0  0  0  0  0  0  0  0  0
   21.5547    7.9907   13.1382 C   0  0  2  0  0  0  0  0  0  0  0  0
   20.4350    8.9250   12.9451 O   0  0  0  0  0  0  0  0  0  0  0  0
   16.9020    7.9629   13.9030 C   0  0  0  0  0  0  0  0  0  0  0  0
   15.5150    8.2542   14.0487 N   0  0  0  0  0  0  0  0  0  0  0  0
   20.4183    9.5366    7.8365 C   0  0  0  0  0  0  0  0  0  0  0  0
   19.2033   10.1918    7.7883 O   0  0  0  0  0  0  0  0  0  0  0  0
   22.7774    8.7254   13.8460 C   0  0  1  0  0  0  0  0  0  0  0  0
   22.5129    8.9621   15.2371 O   0  0  0  0  0  0  0  0  0  0  0  0
  1  2  1  6  0  0  0
  1  6  1  0  0  0  0
  1 23  1  0  0  0  0
  3  4  1  6  0  0  0
  3  8  1  0  0  0  0
  3 30  1  0  0  0  0
  5  9  1  0  0  0  0
  5 21  1  0  0  0  0
  5 25  1  6  0  0  0
  6  7  1  1  0  0  0
  6 11  1  0  0  0  0
  8 13  1  0  0  0  0
  9 10  1  1  0  0  0
  9 15  1  0  0  0  0
 11 12  1  6  0  0  0
 11 17  1  0  0  0  0
 13 14  1  6  0  0  0
 13 19  1  0  0  0  0
 15 16  1  1  0  0  0
 15 20  1  0  0  0  0
 17 18  1  6  0  0  0
 17 22  1  0  0  0  0
 19  2  1  1  0  0  0
 19 24  1  0  0  0  0
 20 21  1  0  0  0  0
 20 26  1  6  0  0  0
 22 23  1  0  0  0  0
 22 28  1  6  0  0  0
 24 25  1  6  0  0  0
 24 30  1  0  0  0  0
 26 27  1  0  0  0  0
 28 29  1  0  0  0  0
 30 31  1  1  0  0  0
M  END
>  <CHROM.1>
174.93746982,175.94938041,-166.68962628,-65.92940475,61.05247081,177.25718121
20.20435527,8.18020110,11.85705475,1.56264952,0.15517199,-1.94984400

>  <Name>
2o3x_lig

>  <RI>
2.78316e+07

>  <Rbt.Current_Directory>
/home/itssahil/PROJECTS/Mol_Feturizer/New_Systems/rnas/2o3x

>  <Rbt.Executable>
rbdock ($Id: //depot/dev/client3/rdock/2013.1/src/exe/rbdock.cxx#4 $)

>  <Rbt.Library>
libRbt.so (2013.1, Build901 2013/11/27)

>  <Rbt.Parameter_File>
/export/apps/rDock/src/rDock_2013.1_src/data/scripts/dock_solv.prm

>  <Rbt.Receptor>
prm/pocket_docking_7.prm

>  <SCORE>
-9.4389

>  <SCORE.INTER>
-5.24936

>  <SCORE.INTER.CONST>
1

>  <SCORE.INTER.POLAR>
0

>  <SCORE.INTER.ROT>
6

>  <SCORE.INTER.SOLV>
13.8915

>  <SCORE.INTER.VDW>
-15.7301

>  <SCORE.INTER.norm>
-0.169334

>  <SCORE.INTRA>
-4.18954

>  <SCORE.INTRA.DIHEDRAL>
-7.98198

>  <SCORE.INTRA.DIHEDRAL.0>
9.37739

>  <SCORE.INTRA.POLAR>
0

>  <SCORE.INTRA.POLAR.0>
0

>  <SCORE.INTRA.REPUL>
0

>  <SCORE.INTRA.REPUL.0>
0

>  <SCORE.INTRA.SOLV>
-2.56347

>  <SCORE.INTRA.SOLV.lig_0>
-82.9274

>  <SCORE.INTRA.VDW>
1.08318

>  <SCORE.INTRA.VDW.0>
-3.84922

>  <SCORE.INTRA.norm>
-0.135146

>  <SCORE.RESTR>
0

>  <SCORE.RESTR.CAVITY>
0

>  <SCORE.RESTR.norm>
0

>  <SCORE.SYSTEM>
0

>  <SCORE.SYSTEM.CONST>
0

>  <SCORE.SYSTEM.DIHEDRAL>
0

>  <SCORE.SYSTEM.SOLV>
0

>  <SCORE.SYSTEM.norm>
0

>  <SCORE.heavy>
31

>  <SCORE.norm>
-0.304481

>  <RMSD>
5.878

$$$$
2o3x_lig
 OpenBabel11021811463D
libRbt.so/2013.1/901 2013/11/27
 31 33  0  0  0  0  0  0  0  0999 V2000
   18.9263    8.4759    6.6521 C   0  0  2  0  0  0  0  0  0  0  0  0
   17.9592    9.3429    7.2592 O   0  0  0  0  0  0  0  0  0  0  0  0
   16.1026    9.2849   11.1125 C   0  0  2  0  0  0  0  0  0  0  0  0
   15.3862    8.8637   12.3368 N   0  0  0  0  0  0  0  0  0  0  0  0
   20.0628    7.1991   10.2261 C   0  0  1  0  0  0  0  0  0  0  0  0
   19.6913    9.2827    5.5556 C   0  0  2  0  0  0  0  0  0  0  0  0
   20.1574   10.6016    6.0545 N   0  0  0  0  0  0  0  0  0  0  0  0
   15.1707    9.2818    9.8551 C   0  0  0  0  0  0  0  0  0  0  0  0
   20.6169    5.7585    9.9736 C   0  0  2  0  0  0  0  0  0  0  0  0
   19.9065    4.6769   10.6367 O   0  0  0  0  0  0  0  0  0  0  0  0
   18.8134    9.5264    4.3135 C   0  0  1  0  0  0  0  0  0  0  0  0
   19.5378   10.2086    3.3215 O   0  0  0  0  0  0  0  0  0  0  0  0
   16.0112    9.7698    8.6191 C   0  0  2  0  0  0  0  0  0  0  0  0
   15.1849    9.8137    7.3755 N   0  0  0  0  0  0  0  0  0  0  0  0
   22.0494    5.9928   10.4228 C   0  0  2  0  0  0  0  0  0  0  0  0
   22.1552    5.9665   11.8876 O   0  0  0  0  0  0  0  0  0  0  0  0
   18.2998    8.1994    3.7806 C   0  0  2  0  0  0  0  0  0  0  0  0
   17.5253    8.4151    2.6451 O   0  0  0  0  0  0  0  0  0  0  0  0
   17.2209    8.8233    8.3742 C   0  0  2  0  0  0  0  0  0  0  0  0
   22.3994    7.3716    9.8756 C   0  0  2  0  0  0  0  0  0  0  0  0
   21.1917    8.0779   10.1461 O   0  0  0  0  0  0  0  0  0  0  0  0
   17.4617    7.4778    4.8736 C   0  0  2  0  0  0  0  0  0  0  0  0
   18.2718    7.2739    6.0514 O   0  0  0  0  0  0  0  0  0  0  0  0
   18.1476    8.6893    9.5988 C   0  0  2  0  0  0  0  0  0  0  0  0
   19.0639    7.5866    9.2700 O   0  0  0  0  0  0  0  0  0  0  0  0
   22.7298    7.4098    8.3450 C   0  0  0  0  0  0  0  0  0  0  0  0
   23.8471    6.5714    8.0645 N   0  0  0  0  0  0  0  0  0  0  0  0
   16.9370    6.1389    4.4098 C   0  0  0  0  0  0  0  0  0  0  0  0
   16.1090    5.5633    5.3537 O   0  0  0  0  0  0  0  0  0  0  0  0
   17.2973    8.3381   10.8986 C   0  0  1  0  0  0  0  0  0  0  0  0
   18.0975    8.4230   12.0875 O   0  0  0  0  0  0  0  0  0  0  0  0
  1  2  1  6  0  0  0
  1  6  1  0  0  0  0
  1 23  1  0  0  0  0
  3  4  1  1  0  0  0
  3  8  1  0  0  0  0
  3 30  1  0  0  0  0
  5  9  1  0  0  0  0
  5 21  1  0  0  0  0
  5 25  1  6  0  0  0
  6  7  1  1  0  0  0
  6 11  1  0  0  0  0
  8 13  1  0  0  0  0
  9 10  1  1  0  0  0
  9 15  1  0  0  0  0
 11 12  1  6  0  0  0
 11 17  1  0  0  0  0
 13 14  1  6  0  0  0
 13 19  1  0  0  0  0
 15 16  1  1  0  0  0
 15 20  1  0  0  0  0
 17 18  1  6  0  0  0
 17 22  1  0  0  0  0
 19  2  1  6  0  0  0
 19 24  1  0  0  0  0
 20 21  1  0  0  0  0
 20 26  1  6  0  0  0
 22 23  1  0  0  0  0
 22 28  1  6  0  0  0
 24 25  1  6  0  0  0
 24 30  1  0  0  0  0
 26 27  1  0  0  0  0
 28 29  1  0  0  0  0
 30 31  1  1  0  0  0
M  END
>  <CHROM.1>
-174.99919075,160.40936715,-165.59310404,-59.96461364,-175.20298891,-179.58886153
18.79347148,7.98771312,8.03253803,-1.97227052,-0.33232942,1.67386409

>  <Name>
2o3x_lig

>  <RI>
2.78316e+07

>  <Rbt.Current_Directory>
/home/itssahil/PROJECTS/Mol_Feturizer/New_Systems/rnas/2o3x

>  <Rbt.Executable>
rbdock ($Id: //depot/dev/client3/rdock/2013.1/src/exe/rbdock.cxx#4 $)

>  <Rbt.Library>
libRbt.so (2013.1, Build901 2013/11/27)

>  <Rbt.Parameter_File>
/export/apps/rDock/src/rDock_2013.1_src/data/scripts/dock_solv.prm

>  <Rbt.Receptor>
prm/pocket_docking_7.prm

>  <SCORE>
-11.4882

>  <SCORE.INTER>
-8.05672

>  <SCORE.INTER.CONST>
1

>  <SCORE.INTER.POLAR>
-1.54512

>  <SCORE.INTER.ROT>
6

>  <SCORE.INTER.SOLV>
15.0741

>  <SCORE.INTER.VDW>
-12.8455

>  <SCORE.INTER.norm>
-0.259894

>  <SCORE.INTRA>
-3.43147

>  <SCORE.INTRA.DIHEDRAL>
-6.29014

>  <SCORE.INTRA.DIHEDRAL.0>
9.37739

>  <SCORE.INTRA.POLAR>
0

>  <SCORE.INTRA.POLAR.0>
0

>  <SCORE.INTRA.REPUL>
0

>  <SCORE.INTRA.REPUL.0>
0

>  <SCORE.INTRA.SOLV>
-2.78736

>  <SCORE.INTRA.SOLV.lig_0>
-82.9274

>  <SCORE.INTRA.VDW>
1.10728

>  <SCORE.INTRA.VDW.0>
-3.84922

>  <SCORE.INTRA.norm>
-0.110693

>  <SCORE.RESTR>
0

>  <SCORE.RESTR.CAVITY>
0

>  <SCORE.RESTR.norm>
0

>  <SCORE.SYSTEM>
0

>  <SCORE.SYSTEM.CONST>
0

>  <SCORE.SYSTEM.DIHEDRAL>
0

>  <SCORE.SYSTEM.SOLV>
0

>  <SCORE.SYSTEM.norm>
0

>  <SCORE.heavy>
31

>  <SCORE.norm>
-0.370587

>  <RMSD>
5.889

$$$$
2o3x_lig
 OpenBabel11021811463D
libRbt.so/2013.1/901 2013/11/27
 31 33  0  0  0  0  0  0  0  0999 V2000
   22.4861    6.0370    8.0911 C   0  0  2  0  0  0  0  0  0  0  0  0
   22.5661    6.9017    9.2318 O   0  0  0  0  0  0  0  0  0  0  0  0
   19.7613    5.3776   12.0793 C   0  0  2  0  0  0  0  0  0  0  0  0
   18.6237    5.2347   13.0147 N   0  0  0  0  0  0  0  0  0  0  0  0
   19.1561    7.9166    8.5695 C   0  0  1  0  0  0  0  0  0  0  0  0
   23.6136    4.9629    8.2072 C   0  0  2  0  0  0  0  0  0  0  0  0
   23.6523    4.3356    9.5528 N   0  0  0  0  0  0  0  0  0  0  0  0
   20.8032    6.4340   12.5772 C   0  0  0  0  0  0  0  0  0  0  0  0
   20.1667    9.0986    8.7358 C   0  0  2  0  0  0  0  0  0  0  0  0
   20.5680    9.4073   10.0989 O   0  0  0  0  0  0  0  0  0  0  0  0
   25.0027    5.5646    7.9220 C   0  0  1  0  0  0  0  0  0  0  0  0
   25.9943    4.5709    7.9821 O   0  0  0  0  0  0  0  0  0  0  0  0
   21.9812    6.4906   11.5373 C   0  0  2  0  0  0  0  0  0  0  0  0
   23.0331    7.4671   11.9510 N   0  0  0  0  0  0  0  0  0  0  0  0
   19.3696   10.1718    8.0135 C   0  0  2  0  0  0  0  0  0  0  0  0
   18.3159   10.7196    8.8780 O   0  0  0  0  0  0  0  0  0  0  0  0
   25.0010    6.2339    6.5579 C   0  0  2  0  0  0  0  0  0  0  0  0
   26.2612    6.7582    6.2882 O   0  0  0  0  0  0  0  0  0  0  0  0
   21.4507    6.9021   10.1343 C   0  0  2  0  0  0  0  0  0  0  0  0
   18.7692    9.4549    6.8098 C   0  0  2  0  0  0  0  0  0  0  0  0
   18.3785    8.2206    7.4050 O   0  0  0  0  0  0  0  0  0  0  0  0
   23.9309    7.3615    6.5221 C   0  0  2  0  0  0  0  0  0  0  0  0
   22.6310    6.8073    6.8185 O   0  0  0  0  0  0  0  0  0  0  0  0
   20.3465    5.9675    9.6019 C   0  0  2  0  0  0  0  0  0  0  0  0
   19.8069    6.6460    8.4136 O   0  0  0  0  0  0  0  0  0  0  0  0
   19.7643    9.2060    5.6261 C   0  0  0  0  0  0  0  0  0  0  0  0
   20.3719   10.4328    5.2316 N   0  0  0  0  0  0  0  0  0  0  0  0
   23.8667    8.0551    5.1811 C   0  0  0  0  0  0  0  0  0  0  0  0
   23.5944    7.1643    4.1612 O   0  0  0  0  0  0  0  0  0  0  0  0
   19.2085    5.7768   10.6993 C   0  0  1  0  0  0  0  0  0  0  0  0
   18.2832    4.7460   10.3216 O   0  0  0  0  0  0  0  0  0  0  0  0
  1  2  1  1  0  0  0
  1  6  1  0  0  0  0
  1 23  1  0  0  0  0
  3  4  1  1  0  0  0
  3  8  1  0  0  0  0
  3 30  1  0  0  0  0
  5  9  1  0  0  0  0
  5 21  1  0  0  0  0
  5 25  1  6  0  0  0
  6  7  1  1  0  0  0
  6 11  1  0  0  0  0
  8 13  1  0  0  0  0
  9 10  1  1  0  0  0
  9 15  1  0  0  0  0
 11 12  1  6  0  0  0
 11 17  1  0  0  0  0
 13 14  1  1  0  0  0
 13 19  1  0  0  0  0
 15 16  1  1  0  0  0
 15 20  1  0  0  0  0
 17 18  1  1  0  0  0
 17 22  1  0  0  0  0
 19  2  1  6  0  0  0
 19 24  1  0  0  0  0
 20 21  1  0  0  0  0
 20 26  1  6  0  0  0
 22 23  1  0  0  0  0
 22 28  1  6  0  0  0
 24 25  1  6  0  0  0
 24 30  1  0  0  0  0
 26 27  1  0  0  0  0
 28 29  1  0  0  0  0
 30 31  1  6  0  0  0
M  END
>  <CHROM.1>
-116.04509081,78.33155412,121.18572665,-54.13818115,57.97625215,-63.44353650
21.51626692,7.11933718,8.55175016,-0.42531475,-0.47967879,2.15209139

>  <Name>
2o3x_lig

>  <RI>
0

>  <Rbt.Current_Directory>
/home/itssahil/PROJECTS/Mol_Feturizer/New_Systems/rnas/2o3x

>  <Rbt.Executable>
rbdock ($Id: //depot/dev/client3/rdock/2013.1/src/exe/rbdock.cxx#4 $)

>  <Rbt.Library>
libRbt.so (2013.1, Build901 2013/11/27)

>  <Rbt.Parameter_File>
/export/apps/rDock/src/rDock_2013.1_src/data/scripts/dock_solv.prm

>  <Rbt.Receptor>
prm/pocket_docking_3.prm

>  <SCORE>
-0.757762

>  <SCORE.INTER>
-9.54129

>  <SCORE.INTER.CONST>
1

>  <SCORE.INTER.POLAR>
-1.3927

>  <SCORE.INTER.ROT>
6

>  <SCORE.INTER.SOLV>
17.6619

>  <SCORE.INTER.VDW>
-15.2058

>  <SCORE.INTER.norm>
-0.307784

>  <SCORE.INTRA>
8.77863

>  <SCORE.INTRA.DIHEDRAL>
6.72747

>  <SCORE.INTRA.DIHEDRAL.0>
9.37739

>  <SCORE.INTRA.POLAR>
0

>  <SCORE.INTRA.POLAR.0>
0

>  <SCORE.INTRA.REPUL>
0

>  <SCORE.INTRA.REPUL.0>
0

>  <SCORE.INTRA.SOLV>
1.27565

>  <SCORE.INTRA.SOLV.lig_0>
-82.9274

>  <SCORE.INTRA.VDW>
4.77707

>  <SCORE.INTRA.VDW.0>
-3.84922

>  <SCORE.INTRA.norm>
0.283181

>  <SCORE.RESTR>
0.0049077

>  <SCORE.RESTR.CAVITY>
0.0049077

>  <SCORE.RESTR.norm>
0.000158313

>  <SCORE.SYSTEM>
0

>  <SCORE.SYSTEM.CONST>
0

>  <SCORE.SYSTEM.DIHEDRAL>
0

>  <SCORE.SYSTEM.SOLV>
0

>  <SCORE.SYSTEM.norm>
0

>  <SCORE.heavy>
31

>  <SCORE.norm>
-0.0244439

>  <RMSD>
5.911

$$$$
2o3x_lig
 OpenBabel11021811463D
libRbt.so/2013.1/901 2013/11/27
 31 33  0  0  0  0  0  0  0  0999 V2000
   20.2575    5.6078    5.5818 C   0  0  2  0  0  0  0  0  0  0  0  0
   18.8660    5.9494    5.6323 O   0  0  0  0  0  0  0  0  0  0  0  0
   19.2713    9.6183    3.4707 C   0  0  2  0  0  0  0  0  0  0  0  0
   19.0063   10.9276    2.8341 N   0  0  0  0  0  0  0  0  0  0  0  0
   17.1272    8.7964    7.1698 C   0  0  1  0  0  0  0  0  0  0  0  0
   20.4408    4.1936    6.2179 C   0  0  2  0  0  0  0  0  0  0  0  0
   19.4644    3.2095    5.6850 N   0  0  0  0  0  0  0  0  0  0  0  0
   18.4612    8.4615    2.7962 C   0  0  0  0  0  0  0  0  0  0  0  0
   16.4520    8.3123    8.4949 C   0  0  2  0  0  0  0  0  0  0  0  0
   15.8453    6.9914    8.4556 O   0  0  0  0  0  0  0  0  0  0  0  0
   20.2868    4.2356    7.7501 C   0  0  1  0  0  0  0  0  0  0  0  0
   20.5058    2.9633    8.3046 O   0  0  0  0  0  0  0  0  0  0  0  0
   18.8320    7.1153    3.5191 C   0  0  2  0  0  0  0  0  0  0  0  0
   18.1113    5.9527    2.9190 N   0  0  0  0  0  0  0  0  0  0  0  0
   15.5007    9.4800    8.6954 C   0  0  2  0  0  0  0  0  0  0  0  0
   14.3155    9.3498    7.8374 O   0  0  0  0  0  0  0  0  0  0  0  0
   21.2586    5.2465    8.3352 C   0  0  2  0  0  0  0  0  0  0  0  0
   21.1374    5.2697    9.7210 O   0  0  0  0  0  0  0  0  0  0  0  0
   18.4731    7.1912    5.0306 C   0  0  2  0  0  0  0  0  0  0  0  0
   16.3187   10.7077    8.3124 C   0  0  2  0  0  0  0  0  0  0  0  0
   16.9974   10.2233    7.1569 O   0  0  0  0  0  0  0  0  0  0  0  0
   20.9738    6.6575    7.7472 C   0  0  2  0  0  0  0  0  0  0  0  0
   21.0876    6.6163    6.3084 O   0  0  0  0  0  0  0  0  0  0  0  0
   19.1548    8.3653    5.7607 C   0  0  2  0  0  0  0  0  0  0  0  0
   18.5112    8.4234    7.0822 O   0  0  0  0  0  0  0  0  0  0  0  0
   17.3448   11.1816    9.3968 C   0  0  0  0  0  0  0  0  0  0  0  0
   16.6644   11.5042   10.6063 N   0  0  0  0  0  0  0  0  0  0  0  0
   21.9227    7.7071    8.2776 C   0  0  0  0  0  0  0  0  0  0  0  0
   21.6202    8.0535    9.5800 O   0  0  0  0  0  0  0  0  0  0  0  0
   18.9158    9.7236    4.9647 C   0  0  1  0  0  0  0  0  0  0  0  0
   19.7163   10.7905    5.4958 O   0  0  0  0  0  0  0  0  0  0  0  0
  1  2  1  1  0  0  0
  1  6  1  0  0  0  0
  1 23  1  0  0  0  0
  3  4  1  6  0  0  0
  3  8  1  0  0  0  0
  3 30  1  0  0  0  0
  5  9  1  0  0  0  0
  5 21  1  0  0  0  0
  5 25  1  1  0  0  0
  6  7  1  6  0  0  0
  6 11  1  0  0  0  0
  8 13  1  0  0  0  0
  9 10  1  6  0  0  0
  9 15  1  0  0  0  0
 11 12  1  1  0  0  0
 11 17  1  0  0  0  0
 13 14  1  6  0  0  0
 13 19  1  0  0  0  0
 15 16  1  6  0  0  0
 15 20  1  0  0  0  0
 17 18  1  1  0  0  0
 17 22  1  0  0  0  0
 19  2  1  1  0  0  0
 19 24  1  0  0  0  0
 20 21  1  0  0  0  0
 20 26  1  1  0  0  0
 22 23  1  0  0  0  0
 22 28  1  1  0  0  0
 24 25  1  1  0  0  0
 24 30  1  0  0  0  0
 26 27  1  0  0  0  0
 28 29  1  0  0  0  0
 30 31  1  1  0  0  0
M  END
>  <CHROM.1>
-176.84358139,158.48292710,61.23184256,-59.53130129,-74.50582445,-67.17721120
18.80394839,7.69919447,6.79078819,-0.03988983,0.95799637,-1.40526828

>  <Name>
2o3x_lig

>  <RI>
0

>  <Rbt.Current_Directory>
/home/itssahil/PROJECTS/Mol_Feturizer/New_Systems/rnas/2o3x

>  <Rbt.Executable>
rbdock ($Id: //depot/dev/client3/rdock/2013.1/src/exe/rbdock.cxx#4 $)

>  <Rbt.Library>
libRbt.so (2013.1, Build901 2013/11/27)

>  <Rbt.Parameter_File>
/export/apps/rDock/src/rDock_2013.1_src/data/scripts/dock_solv.prm

>  <Rbt.Receptor>
prm/pocket_docking_8.prm

>  <SCORE>
-11.035

>  <SCORE.INTER>
-9.33944

>  <SCORE.INTER.CONST>
1

>  <SCORE.INTER.POLAR>
-1.28765

>  <SCORE.INTER.ROT>
6

>  <SCORE.INTER.SOLV>
15.7595

>  <SCORE.INTER.VDW>
-14.7873

>  <SCORE.INTER.norm>
-0.301272

>  <SCORE.INTRA>
-1.69557

>  <SCORE.INTRA.DIHEDRAL>
-6.12023

>  <SCORE.INTRA.DIHEDRAL.0>
9.37739

>  <SCORE.INTRA.POLAR>
0

>  <SCORE.INTRA.POLAR.0>
0

>  <SCORE.INTRA.REPUL>
0

>  <SCORE.INTRA.REPUL.0>
0

>  <SCORE.INTRA.SOLV>
-1.46189

>  <SCORE.INTRA.SOLV.lig_0>
-82.9274

>  <SCORE.INTRA.VDW>
2.09549

>  <SCORE.INTRA.VDW.0>
-3.84922

>  <SCORE.INTRA.norm>
-0.0546957

>  <SCORE.RESTR>
0

>  <SCORE.RESTR.CAVITY>
0

>  <SCORE.RESTR.norm>
0

>  <SCORE.SYSTEM>
0

>  <SCORE.SYSTEM.CONST>
0

>  <SCORE.SYSTEM.DIHEDRAL>
0

>  <SCORE.SYSTEM.SOLV>
0

>  <SCORE.SYSTEM.norm>
0

>  <SCORE.heavy>
31

>  <SCORE.norm>
-0.355968

>  <RMSD>
5.926

$$$$
2o3x_lig
 OpenBabel11021811463D
libRbt.so/2013.1/901 2013/11/27
 31 33  0  0  0  0  0  0  0  0999 V2000
   18.7378    8.6538    6.5328 C   0  0  2  0  0  0  0  0  0  0  0  0
   17.6317    9.4552    6.9686 O   0  0  0  0  0  0  0  0  0  0  0  0
   15.2602    9.5826   10.5264 C   0  0  2  0  0  0  0  0  0  0  0  0
   14.4715    9.2074   11.7208 N   0  0  0  0  0  0  0  0  0  0  0  0
   19.6404    8.3588   10.5317 C   0  0  1  0  0  0  0  0  0  0  0  0
   19.5598    9.4748    5.4893 C   0  0  2  0  0  0  0  0  0  0  0  0
   19.8448   10.8538    5.9616 N   0  0  0  0  0  0  0  0  0  0  0  0
   14.5560    9.1515    9.1969 C   0  0  0  0  0  0  0  0  0  0  0  0
   19.4548    7.0919   11.4298 C   0  0  2  0  0  0  0  0  0  0  0  0
   18.4672    7.2020   12.4913 O   0  0  0  0  0  0  0  0  0  0  0  0
   18.8244    9.5760    4.1396 C   0  0  1  0  0  0  0  0  0  0  0  0
   19.6041   10.2743    3.2022 O   0  0  0  0  0  0  0  0  0  0  0  0
   15.4518    9.6186    7.9921 C   0  0  2  0  0  0  0  0  0  0  0  0
   14.8371    9.2600    6.6788 N   0  0  0  0  0  0  0  0  0  0  0  0
   20.8984    6.9245   11.8735 C   0  0  2  0  0  0  0  0  0  0  0  0
   21.2304    7.8596   12.9566 O   0  0  0  0  0  0  0  0  0  0  0  0
   18.4974    8.1829    3.6285 C   0  0  2  0  0  0  0  0  0  0  0  0
   17.8535    8.2709    2.3983 O   0  0  0  0  0  0  0  0  0  0  0  0
   16.8598    8.9626    8.0731 C   0  0  2  0  0  0  0  0  0  0  0  0
   21.7181    7.2244   10.6240 C   0  0  2  0  0  0  0  0  0  0  0  0
   21.0080    8.3454   10.1047 O   0  0  0  0  0  0  0  0  0  0  0  0
   17.5962    7.4397    4.6548 C   0  0  2  0  0  0  0  0  0  0  0  0
   18.2691    7.3688    5.9304 O   0  0  0  0  0  0  0  0  0  0  0  0
   17.5937    9.2560    9.3966 C   0  0  2  0  0  0  0  0  0  0  0  0
   18.7653    8.3666    9.3931 O   0  0  0  0  0  0  0  0  0  0  0  0
   21.7649    6.0652    9.5716 C   0  0  0  0  0  0  0  0  0  0  0  0
   22.6152    6.4238    8.4861 N   0  0  0  0  0  0  0  0  0  0  0  0
   17.2507    6.0371    4.2116 C   0  0  0  0  0  0  0  0  0  0  0  0
   16.3617    5.4345    5.0802 O   0  0  0  0  0  0  0  0  0  0  0  0
   16.6491    8.9279   10.6359 C   0  0  1  0  0  0  0  0  0  0  0  0
   17.2194    9.3947   11.8680 O   0  0  0  0  0  0  0  0  0  0  0  0
  1  2  1  6  0  0  0
  1  6  1  0  0  0  0
  1 23  1  0  0  0  0
  3  4  1  1  0  0  0
  3  8  1  0  0  0  0
  3 30  1  0  0  0  0
  5  9  1  0  0  0  0
  5 21  1  0  0  0  0
  5 25  1  6  0  0  0
  6  7  1  1  0  0  0
  6 11  1  0  0  0  0
  8 13  1  0  0  0  0
  9 10  1  1  0  0  0
  9 15  1  0  0  0  0
 11 12  1  6  0  0  0
 11 17  1  0  0  0  0
 13 14  1  6  0  0  0
 13 19  1  0  0  0  0
 15 16  1  1  0  0  0
 15 20  1  0  0  0  0
 17 18  1  6  0  0  0
 17 22  1  0  0  0  0
 19  2  1  6  0  0  0
 19 24  1  0  0  0  0
 20 21  1  0  0  0  0
 20 26  1  6  0  0  0
 22 23  1  0  0  0  0
 22 28  1  6  0  0  0
 24 25  1  1  0  0  0
 24 30  1  0  0  0  0
 26 27  1  0  0  0  0
 28 29  1  0  0  0  0
 30 31  1  1  0  0  0
M  END
>  <CHROM.1>
-171.15433293,104.77320542,-156.95193846,-176.73344690,-174.99431304,-177.54802767
18.35208080,8.31835340,8.11306561,-1.75412269,-0.27950652,1.58759776

>  <Name>
2o3x_lig

>  <RI>
0

>  <Rbt.Current_Directory>
/home/itssahil/PROJECTS/Mol_Feturizer/New_Systems/rnas/2o3x

>  <Rbt.Executable>
rbdock ($Id: //depot/dev/client3/rdock/2013.1/src/exe/rbdock.cxx#4 $)

>  <Rbt.Library>
libRbt.so (2013.1, Build901 2013/11/27)

>  <Rbt.Parameter_File>
/export/apps/rDock/src/rDock_2013.1_src/data/scripts/dock_solv.prm

>  <Rbt.Receptor>
prm/pocket_docking_5.prm

>  <SCORE>
-10.968

>  <SCORE.INTER>
-10.6674

>  <SCORE.INTER.CONST>
1

>  <SCORE.INTER.POLAR>
-1.64276

>  <SCORE.INTER.ROT>
6

>  <SCORE.INTER.SOLV>
15.0554

>  <SCORE.INTER.VDW>
-14.2542

>  <SCORE.INTER.norm>
-0.34411

>  <SCORE.INTRA>
-0.300622

>  <SCORE.INTRA.DIHEDRAL>
-0.272993

>  <SCORE.INTRA.DIHEDRAL.0>
9.37739

>  <SCORE.INTRA.POLAR>
0

>  <SCORE.INTRA.POLAR.0>
0

>  <SCORE.INTRA.REPUL>
0

>  <SCORE.INTRA.REPUL.0>
0

>  <SCORE.INTRA.SOLV>
-2.08727

>  <SCORE.INTRA.SOLV.lig_0>
-82.9274

>  <SCORE.INTRA.VDW>
0.879511

>  <SCORE.INTRA.VDW.0>
-3.84922

>  <SCORE.INTRA.norm>
-0.00969747

>  <SCORE.RESTR>
0

>  <SCORE.RESTR.CAVITY>
0

>  <SCORE.RESTR.norm>
0

>  <SCORE.SYSTEM>
0

>  <SCORE.SYSTEM.CONST>
0

>  <SCORE.SYSTEM.DIHEDRAL>
0

>  <SCORE.SYSTEM.SOLV>
0

>  <SCORE.SYSTEM.norm>
0

>  <SCORE.heavy>
31

>  <SCORE.norm>
-0.353808

>  <RMSD>
5.958

$$$$
2o3x_lig
 OpenBabel11021811463D
libRbt.so/2013.1/901 2013/11/27
 31 33  0  0  0  0  0  0  0  0999 V2000
   17.6762    8.6856    7.4138 C   0  0  2  0  0  0  0  0  0  0  0  0
   18.1430    8.3227    8.7199 O   0  0  0  0  0  0  0  0  0  0  0  0
   22.0004    7.0260   10.0379 C   0  0  2  0  0  0  0  0  0  0  0  0
   23.2752    6.2903   10.1903 N   0  0  0  0  0  0  0  0  0  0  0  0
   21.1069    9.4186    6.1150 C   0  0  1  0  0  0  0  0  0  0  0  0
   16.3362    9.4719    7.5707 C   0  0  2  0  0  0  0  0  0  0  0  0
   16.4323   10.5421    8.5960 N   0  0  0  0  0  0  0  0  0  0  0  0
   20.7646    6.1490   10.4288 C   0  0  0  0  0  0  0  0  0  0  0  0
   21.6879    8.8533    4.7774 C   0  0  2  0  0  0  0  0  0  0  0  0
   22.9969    8.2265    4.8654 O   0  0  0  0  0  0  0  0  0  0  0  0
   15.1735    8.5404    7.9618 C   0  0  1  0  0  0  0  0  0  0  0  0
   13.9698    9.2602    8.0474 O   0  0  0  0  0  0  0  0  0  0  0  0
   19.4687    7.0240   10.2633 C   0  0  2  0  0  0  0  0  0  0  0  0
   18.2396    6.2618   10.6370 N   0  0  0  0  0  0  0  0  0  0  0  0
   21.6091   10.1251    3.9495 C   0  0  2  0  0  0  0  0  0  0  0  0
   22.7266   11.0270    4.2583 O   0  0  0  0  0  0  0  0  0  0  0  0
   15.0519    7.4178    6.9450 C   0  0  2  0  0  0  0  0  0  0  0  0
   13.9877    6.5880    7.2836 O   0  0  0  0  0  0  0  0  0  0  0  0
   19.3212    7.5071    8.7923 C   0  0  2  0  0  0  0  0  0  0  0  0
   20.2771   10.7532    4.3423 C   0  0  2  0  0  0  0  0  0  0  0  0
   20.2872   10.5358    5.7506 O   0  0  0  0  0  0  0  0  0  0  0  0
   16.3747    6.6021    6.8952 C   0  0  2  0  0  0  0  0  0  0  0  0
   17.4727    7.4771    6.5582 O   0  0  0  0  0  0  0  0  0  0  0  0
   20.5407    8.3032    8.2870 C   0  0  2  0  0  0  0  0  0  0  0  0
   20.3320    8.4498    6.8383 O   0  0  0  0  0  0  0  0  0  0  0  0
   19.0168   10.0895    3.6907 C   0  0  0  0  0  0  0  0  0  0  0  0
   19.0951   10.1800    2.2710 N   0  0  0  0  0  0  0  0  0  0  0  0
   16.3237    5.4791    5.8855 C   0  0  0  0  0  0  0  0  0  0  0  0
   16.1375    5.9574    4.6031 O   0  0  0  0  0  0  0  0  0  0  0  0
   21.8839    7.4988    8.5777 C   0  0  1  0  0  0  0  0  0  0  0  0
   23.0438    8.3047    8.3205 O   0  0  0  0  0  0  0  0  0  0  0  0
  1  2  1  1  0  0  0
  1  6  1  0  0  0  0
  1 23  1  0  0  0  0
  3  4  1  6  0  0  0
  3  8  1  0  0  0  0
  3 30  1  0  0  0  0
  5  9  1  0  0  0  0
  5 21  1  0  0  0  0
  5 25  1  6  0  0  0
  6  7  1  1  0  0  0
  6 11  1  0  0  0  0
  8 13  1  0  0  0  0
  9 10  1  1  0  0  0
  9 15  1  0  0  0  0
 11 12  1  6  0  0  0
 11 17  1  0  0  0  0
 13 14  1  6  0  0  0
 13 19  1  0  0  0  0
 15 16  1  1  0  0  0
 15 20  1  0  0  0  0
 17 18  1  1  0  0  0
 17 22  1  0  0  0  0
 19  2  1  1  0  0  0
 19 24  1  0  0  0  0
 20 21  1  0  0  0  0
 20 26  1  6  0  0  0
 22 23  1  0  0  0  0
 22 28  1  6  0  0  0
 24 25  1  6  0  0  0
 24 30  1  0  0  0  0
 26 27  1  0  0  0  0
 28 29  1  0  0  0  0
 30 31  1  1  0  0  0
M  END
>  <CHROM.1>
175.73711559,134.55573007,-169.27379163,-60.19522936,61.70806725,164.62572913
19.04600058,8.27310830,7.02921159,2.86162794,0.09892639,2.05552480

>  <Name>
2o3x_lig

>  <RI>
2.78316e+07

>  <Rbt.Current_Directory>
/home/itssahil/PROJECTS/Mol_Feturizer/New_Systems/rnas/2o3x

>  <Rbt.Executable>
rbdock ($Id: //depot/dev/client3/rdock/2013.1/src/exe/rbdock.cxx#4 $)

>  <Rbt.Library>
libRbt.so (2013.1, Build901 2013/11/27)

>  <Rbt.Parameter_File>
/export/apps/rDock/src/rDock_2013.1_src/data/scripts/dock_solv.prm

>  <Rbt.Receptor>
prm/pocket_docking_7.prm

>  <SCORE>
-11.3377

>  <SCORE.INTER>
-10.3557

>  <SCORE.INTER.CONST>
1

>  <SCORE.INTER.POLAR>
-0.956568

>  <SCORE.INTER.ROT>
6

>  <SCORE.INTER.SOLV>
17.9803

>  <SCORE.INTER.VDW>
-17.3087

>  <SCORE.INTER.norm>
-0.334056

>  <SCORE.INTRA>
-0.981922

>  <SCORE.INTRA.DIHEDRAL>
-1.25275

>  <SCORE.INTRA.DIHEDRAL.0>
9.37739

>  <SCORE.INTRA.POLAR>
0

>  <SCORE.INTRA.POLAR.0>
0

>  <SCORE.INTRA.REPUL>
0

>  <SCORE.INTRA.REPUL.0>
0

>  <SCORE.INTRA.SOLV>
-2.31583

>  <SCORE.INTRA.SOLV.lig_0>
-82.9274

>  <SCORE.INTRA.VDW>
0.802368

>  <SCORE.INTRA.VDW.0>
-3.84922

>  <SCORE.INTRA.norm>
-0.0316749

>  <SCORE.RESTR>
0

>  <SCORE.RESTR.CAVITY>
0

>  <SCORE.RESTR.norm>
0

>  <SCORE.SYSTEM>
0

>  <SCORE.SYSTEM.CONST>
0

>  <SCORE.SYSTEM.DIHEDRAL>
0

>  <SCORE.SYSTEM.SOLV>
0

>  <SCORE.SYSTEM.norm>
0

>  <SCORE.heavy>
31

>  <SCORE.norm>
-0.365731

>  <RMSD>
5.987

$$$$
2o3x_lig
 OpenBabel11021811463D
libRbt.so/2013.1/901 2013/11/27
 31 33  0  0  0  0  0  0  0  0999 V2000
   21.1995    6.5812    8.1883 C   0  0  2  0  0  0  0  0  0  0  0  0
   20.7001    7.8718    8.5632 O   0  0  0  0  0  0  0  0  0  0  0  0
   18.5215    6.5005   11.9795 C   0  0  2  0  0  0  0  0  0  0  0  0
   17.6954    6.4396   13.2056 N   0  0  0  0  0  0  0  0  0  0  0  0
   16.4327    8.2430    8.4246 C   0  0  1  0  0  0  0  0  0  0  0  0
   22.0489    6.7406    6.8877 C   0  0  2  0  0  0  0  0  0  0  0  0
   23.0209    7.8590    6.9878 N   0  0  0  0  0  0  0  0  0  0  0  0
   19.8918    7.2145   12.2282 C   0  0  0  0  0  0  0  0  0  0  0  0
   15.8129    9.5535    7.8376 C   0  0  2  0  0  0  0  0  0  0  0  0
   15.3596   10.5354    8.8096 O   0  0  0  0  0  0  0  0  0  0  0  0
   21.1592    6.9914    5.6555 C   0  0  1  0  0  0  0  0  0  0  0  0
   21.9403    7.0807    4.4909 O   0  0  0  0  0  0  0  0  0  0  0  0
   20.7043    7.2017   10.8820 C   0  0  2  0  0  0  0  0  0  0  0  0
   22.0401    7.8512   11.0403 N   0  0  0  0  0  0  0  0  0  0  0  0
   14.7351    8.9189    6.9747 C   0  0  2  0  0  0  0  0  0  0  0  0
   13.5746    8.5238    7.7840 O   0  0  0  0  0  0  0  0  0  0  0  0
   20.1360    5.8756    5.5265 C   0  0  2  0  0  0  0  0  0  0  0  0
   19.3460    6.0879    4.4011 O   0  0  0  0  0  0  0  0  0  0  0  0
   19.9213    7.9499    9.7656 C   0  0  2  0  0  0  0  0  0  0  0  0
   15.4101    7.6995    6.3579 C   0  0  2  0  0  0  0  0  0  0  0  0
   16.1424    7.2080    7.4772 O   0  0  0  0  0  0  0  0  0  0  0  0
   19.2493    5.8194    6.8026 C   0  0  2  0  0  0  0  0  0  0  0  0
   20.0821    5.6142    7.9642 O   0  0  0  0  0  0  0  0  0  0  0  0
   18.5141    7.3720    9.5161 C   0  0  2  0  0  0  0  0  0  0  0  0
   17.8502    8.3423    8.6320 O   0  0  0  0  0  0  0  0  0  0  0  0
   16.3731    8.0123    5.1628 C   0  0  0  0  0  0  0  0  0  0  0  0
   16.7172    6.8081    4.4835 N   0  0  0  0  0  0  0  0  0  0  0  0
   18.2207    4.7140    6.7436 C   0  0  0  0  0  0  0  0  0  0  0  0
   17.4646    4.6618    7.8983 O   0  0  0  0  0  0  0  0  0  0  0  0
   17.7212    7.2374   10.8905 C   0  0  1  0  0  0  0  0  0  0  0  0
   16.4992    6.5031   10.7211 O   0  0  0  0  0  0  0  0  0  0  0  0
  1  2  1  6  0  0  0
  1  6  1  0  0  0  0
  1 23  1  0  0  0  0
  3  4  1  1  0  0  0
  3  8  1  0  0  0  0
  3 30  1  0  0  0  0
  5  9  1  0  0  0  0
  5 21  1  0  0  0  0
  5 25  1  6  0  0  0
  6  7  1  1  0  0  0
  6 11  1  0  0  0  0
  8 13  1  0  0  0  0
  9 10  1  1  0  0  0
  9 15  1  0  0  0  0
 11 12  1  6  0  0  0
 11 17  1  0  0  0  0
 13 14  1  1  0  0  0
 13 19  1  0  0  0  0
 15 16  1  1  0  0  0
 15 20  1  0  0  0  0
 17 18  1  6  0  0  0
 17 22  1  0  0  0  0
 19  2  1  6  0  0  0
 19 24  1  0  0  0  0
 20 21  1  0  0  0  0
 20 26  1  6  0  0  0
 22 23  1  0  0  0  0
 22 28  1  6  0  0  0
 24 25  1  6  0  0  0
 24 30  1  0  0  0  0
 26 27  1  0  0  0  0
 28 29  1  0  0  0  0
 30 31  1  6  0  0  0
M  END
>  <CHROM.1>
-178.18497529,162.61367495,48.76794021,-167.45245173,178.62037725,-167.42848883
18.49817663,7.22346987,8.11318539,-0.15982547,-0.23138332,1.50359450

>  <Name>
2o3x_lig

>  <RI>
0

>  <Rbt.Current_Directory>
/home/itssahil/PROJECTS/Mol_Feturizer/New_Systems/rnas/2o3x

>  <Rbt.Executable>
rbdock ($Id: //depot/dev/client3/rdock/2013.1/src/exe/rbdock.cxx#4 $)

>  <Rbt.Library>
libRbt.so (2013.1, Build901 2013/11/27)

>  <Rbt.Parameter_File>
/export/apps/rDock/src/rDock_2013.1_src/data/scripts/dock_solv.prm

>  <Rbt.Receptor>
prm/pocket_docking_4.prm

>  <SCORE>
-1.59205

>  <SCORE.INTER>
0.0187653

>  <SCORE.INTER.CONST>
1

>  <SCORE.INTER.POLAR>
-0.35852

>  <SCORE.INTER.ROT>
6

>  <SCORE.INTER.SOLV>
9.24431

>  <SCORE.INTER.VDW>
-9.47386

>  <SCORE.INTER.norm>
0.000605333

>  <SCORE.INTRA>
-1.61081

>  <SCORE.INTRA.DIHEDRAL>
-5.93279

>  <SCORE.INTRA.DIHEDRAL.0>
9.37739

>  <SCORE.INTRA.POLAR>
0

>  <SCORE.INTRA.POLAR.0>
0

>  <SCORE.INTRA.REPUL>
0

>  <SCORE.INTRA.REPUL.0>
0

>  <SCORE.INTRA.SOLV>
2.36801

>  <SCORE.INTRA.SOLV.lig_0>
-82.9274

>  <SCORE.INTRA.VDW>
0.171576

>  <SCORE.INTRA.VDW.0>
-3.84922

>  <SCORE.INTRA.norm>
-0.0519618

>  <SCORE.RESTR>
0

>  <SCORE.RESTR.CAVITY>
0

>  <SCORE.RESTR.norm>
0

>  <SCORE.SYSTEM>
0

>  <SCORE.SYSTEM.CONST>
0

>  <SCORE.SYSTEM.DIHEDRAL>
0

>  <SCORE.SYSTEM.SOLV>
0

>  <SCORE.SYSTEM.norm>
0

>  <SCORE.heavy>
31

>  <SCORE.norm>
-0.0513564

>  <RMSD>
6.012

$$$$
2o3x_lig
 OpenBabel11021811463D
libRbt.so/2013.1/901 2013/11/27
 31 33  0  0  0  0  0  0  0  0999 V2000
   22.4042    7.0475    8.9341 C   0  0  2  0  0  0  0  0  0  0  0  0
   21.8759    6.3982    7.7702 O   0  0  0  0  0  0  0  0  0  0  0  0
   22.1580    9.8294    5.2315 C   0  0  2  0  0  0  0  0  0  0  0  0
   22.0528   10.7602    4.0860 N   0  0  0  0  0  0  0  0  0  0  0  0
   18.8966    6.9746    5.7645 C   0  0  1  0  0  0  0  0  0  0  0  0
   22.5573    5.9823   10.0656 C   0  0  2  0  0  0  0  0  0  0  0  0
   23.2382    4.7521    9.5873 N   0  0  0  0  0  0  0  0  0  0  0  0
   23.0901    8.6123    4.9169 C   0  0  0  0  0  0  0  0  0  0  0  0
   17.8521    5.8719    6.1377 C   0  0  2  0  0  0  0  0  0  0  0  0
   18.3885    4.5428    6.3835 O   0  0  0  0  0  0  0  0  0  0  0  0
   21.1917    5.5743   10.6500 C   0  0  1  0  0  0  0  0  0  0  0  0
   21.3573    4.6545   11.6993 O   0  0  0  0  0  0  0  0  0  0  0  0
   23.1608    7.7032    6.1978 C   0  0  2  0  0  0  0  0  0  0  0  0
   24.0509    6.5226    5.9854 N   0  0  0  0  0  0  0  0  0  0  0  0
   16.9425    6.0134    4.9288 C   0  0  2  0  0  0  0  0  0  0  0  0
   17.5084    5.3295    3.7584 O   0  0  0  0  0  0  0  0  0  0  0  0
   20.4526    6.8097   11.1361 C   0  0  2  0  0  0  0  0  0  0  0  0
   19.2286    6.4413   11.6854 O   0  0  0  0  0  0  0  0  0  0  0  0
   21.7435    7.1895    6.5808 C   0  0  2  0  0  0  0  0  0  0  0  0
   16.8548    7.5166    4.6922 C   0  0  2  0  0  0  0  0  0  0  0  0
   18.2102    7.8982    4.9108 O   0  0  0  0  0  0  0  0  0  0  0  0
   20.2361    7.7970    9.9545 C   0  0  2  0  0  0  0  0  0  0  0  0
   21.5120    8.1591    9.3839 O   0  0  0  0  0  0  0  0  0  0  0  0
   20.7273    8.3243    6.8176 C   0  0  2  0  0  0  0  0  0  0  0  0
   19.4199    7.6570    6.9145 O   0  0  0  0  0  0  0  0  0  0  0  0
   15.9011    8.2838    5.6694 C   0  0  0  0  0  0  0  0  0  0  0  0
   16.3867    8.1850    7.0052 N   0  0  0  0  0  0  0  0  0  0  0  0
   19.5205    9.0584   10.3789 C   0  0  0  0  0  0  0  0  0  0  0  0
   20.4025   10.0027   10.8671 O   0  0  0  0  0  0  0  0  0  0  0  0
   20.7431    9.3434    5.5941 C   0  0  1  0  0  0  0  0  0  0  0  0
   19.9735   10.5206    5.8823 O   0  0  0  0  0  0  0  0  0  0  0  0
  1  2  1  6  0  0  0
  1  6  1  0  0  0  0
  1 23  1  0  0  0  0
  3  4  1  6  0  0  0
  3  8  1  0  0  0  0
  3 30  1  0  0  0  0
  5  9  1  0  0  0  0
  5 21  1  0  0  0  0
  5 25  1  1  0  0  0
  6  7  1  6  0  0  0
  6 11  1  0  0  0  0
  8 13  1  0  0  0  0
  9 10  1  6  0  0  0
  9 15  1  0  0  0  0
 11 12  1  1  0  0  0
 11 17  1  0  0  0  0
 13 14  1  6  0  0  0
 13 19  1  0  0  0  0
 15 16  1  6  0  0  0
 15 20  1  0  0  0  0
 17 18  1  6  0  0  0
 17 22  1  0  0  0  0
 19  2  1  1  0  0  0
 19 24  1  0  0  0  0
 20 21  1  0  0  0  0
 20 26  1  1  0  0  0
 22 23  1  0  0  0  0
 22 28  1  1  0  0  0
 24 25  1  6  0  0  0
 24 30  1  0  0  0  0
 26 27  1  0  0  0  0
 28 29  1  0  0  0  0
 30 31  1  1  0  0  0
M  END
>  <CHROM.1>
-175.89351182,156.85015822,60.01648165,63.63462284,85.72485273,-64.70877101
20.23269144,7.40427621,7.43118225,-1.02202508,-0.30044160,-1.18140982

>  <Name>
2o3x_lig

>  <RI>
0

>  <Rbt.Current_Directory>
/home/itssahil/PROJECTS/Mol_Feturizer/New_Systems/rnas/2o3x

>  <Rbt.Executable>
rbdock ($Id: //depot/dev/client3/rdock/2013.1/src/exe/rbdock.cxx#4 $)

>  <Rbt.Library>
libRbt.so (2013.1, Build901 2013/11/27)

>  <Rbt.Parameter_File>
/export/apps/rDock/src/rDock_2013.1_src/data/scripts/dock_solv.prm

>  <Rbt.Receptor>
prm/pocket_docking_4.prm

>  <SCORE>
-11.1232

>  <SCORE.INTER>
-11.72

>  <SCORE.INTER.CONST>
1

>  <SCORE.INTER.POLAR>
-1.8677

>  <SCORE.INTER.ROT>
6

>  <SCORE.INTER.SOLV>
11.9058

>  <SCORE.INTER.VDW>
-13.1562

>  <SCORE.INTER.norm>
-0.378063

>  <SCORE.INTRA>
0.596767

>  <SCORE.INTRA.DIHEDRAL>
-4.57356

>  <SCORE.INTRA.DIHEDRAL.0>
9.37739

>  <SCORE.INTRA.POLAR>
0

>  <SCORE.INTRA.POLAR.0>
0

>  <SCORE.INTRA.REPUL>
0

>  <SCORE.INTRA.REPUL.0>
0

>  <SCORE.INTRA.SOLV>
1.59587

>  <SCORE.INTRA.SOLV.lig_0>
-82.9274

>  <SCORE.INTRA.VDW>
2.08561

>  <SCORE.INTRA.VDW.0>
-3.84922

>  <SCORE.INTRA.norm>
0.0192506

>  <SCORE.RESTR>
0

>  <SCORE.RESTR.CAVITY>
0

>  <SCORE.RESTR.norm>
0

>  <SCORE.SYSTEM>
0

>  <SCORE.SYSTEM.CONST>
0

>  <SCORE.SYSTEM.DIHEDRAL>
0

>  <SCORE.SYSTEM.SOLV>
0

>  <SCORE.SYSTEM.norm>
0

>  <SCORE.heavy>
31

>  <SCORE.norm>
-0.358813

>  <RMSD>
6.023

$$$$
2o3x_lig
 OpenBabel11021811463D
libRbt.so/2013.1/901 2013/11/27
 31 33  0  0  0  0  0  0  0  0999 V2000
   20.3472    8.6568    8.8903 C   0  0  2  0  0  0  0  0  0  0  0  0
   21.5730    8.1006    9.3840 O   0  0  0  0  0  0  0  0  0  0  0  0
   24.9162    6.4259    7.3065 C   0  0  2  0  0  0  0  0  0  0  0  0
   25.7698    5.6075    6.4171 N   0  0  0  0  0  0  0  0  0  0  0  0
   21.6639    9.5767    5.7387 C   0  0  1  0  0  0  0  0  0  0  0  0
   19.4819    9.1031   10.1111 C   0  0  2  0  0  0  0  0  0  0  0  0
   20.2636    9.9031   11.0882 N   0  0  0  0  0  0  0  0  0  0  0  0
   24.2650    5.5728    8.4455 C   0  0  0  0  0  0  0  0  0  0  0  0
   21.9817    9.3323    4.2270 C   0  0  2  0  0  0  0  0  0  0  0  0
   23.3876    9.3674    3.8572 O   0  0  0  0  0  0  0  0  0  0  0  0
   18.8835    7.8944   10.8553 C   0  0  1  0  0  0  0  0  0  0  0  0
   18.0688    8.3211   11.9176 O   0  0  0  0  0  0  0  0  0  0  0  0
   23.4072    6.5320    9.3491 C   0  0  2  0  0  0  0  0  0  0  0  0
   22.7637    5.7944   10.4774 N   0  0  0  0  0  0  0  0  0  0  0  0
   21.1076   10.4276    3.6394 C   0  0  2  0  0  0  0  0  0  0  0  0
   21.7606   11.7391    3.7457 O   0  0  0  0  0  0  0  0  0  0  0  0
   18.0883    7.0375    9.8848 C   0  0  2  0  0  0  0  0  0  0  0  0
   17.5277    5.9575   10.5594 O   0  0  0  0  0  0  0  0  0  0  0  0
   22.2925    7.2194    8.5099 C   0  0  2  0  0  0  0  0  0  0  0  0
   19.8320   10.3847    4.4725 C   0  0  2  0  0  0  0  0  0  0  0  0
   20.3742   10.1997    5.7772 O   0  0  0  0  0  0  0  0  0  0  0  0
   19.0134    6.5349    8.7406 C   0  0  2  0  0  0  0  0  0  0  0  0
   19.6004    7.6643    8.0589 O   0  0  0  0  0  0  0  0  0  0  0  0
   22.8374    8.0091    7.3033 C   0  0  2  0  0  0  0  0  0  0  0  0
   21.6521    8.3640    6.5078 O   0  0  0  0  0  0  0  0  0  0  0  0
   18.8484    9.2198    4.1135 C   0  0  0  0  0  0  0  0  0  0  0  0
   17.7843    9.1688    5.0596 N   0  0  0  0  0  0  0  0  0  0  0  0
   18.2747    5.6899    7.7289 C   0  0  0  0  0  0  0  0  0  0  0  0
   17.8628    4.4893    8.2740 O   0  0  0  0  0  0  0  0  0  0  0  0
   23.8286    7.1000    6.4508 C   0  0  1  0  0  0  0  0  0  0  0  0
   24.5183    7.8686    5.4535 O   0  0  0  0  0  0  0  0  0  0  0  0
  1  2  1  1  0  0  0
  1  6  1  0  0  0  0
  1 23  1  0  0  0  0
  3  4  1  6  0  0  0
  3  8  1  0  0  0  0
  3 30  1  0  0  0  0
  5  9  1  0  0  0  0
  5 21  1  0  0  0  0
  5 25  1  1  0  0  0
  6  7  1  1  0  0  0
  6 11  1  0  0  0  0
  8 13  1  0  0  0  0
  9 10  1  1  0  0  0
  9 15  1  0  0  0  0
 11 12  1  1  0  0  0
 11 17  1  0  0  0  0
 13 14  1  1  0  0  0
 13 19  1  0  0  0  0
 15 16  1  1  0  0  0
 15 20  1  0  0  0  0
 17 18  1  1  0  0  0
 17 22  1  0  0  0  0
 19  2  1  1  0  0  0
 19 24  1  0  0  0  0
 20 21  1  0  0  0  0
 20 26  1  6  0  0  0
 22 23  1  0  0  0  0
 22 28  1  6  0  0  0
 24 25  1  6  0  0  0
 24 30  1  0  0  0  0
 26 27  1  0  0  0  0
 28 29  1  0  0  0  0
 30 31  1  6  0  0  0
M  END
>  <CHROM.1>
158.56878664,99.49079453,-168.85132440,172.42178222,-67.59437389,149.60251634
21.00610553,7.98074145,7.48725638,2.15357935,-0.29161312,2.13791063

>  <Name>
2o3x_lig

>  <RI>
3.41138e+07

>  <Rbt.Current_Directory>
/home/itssahil/PROJECTS/Mol_Feturizer/New_Systems/rnas/2o3x

>  <Rbt.Executable>
rbdock ($Id: //depot/dev/client3/rdock/2013.1/src/exe/rbdock.cxx#4 $)

>  <Rbt.Library>
libRbt.so (2013.1, Build901 2013/11/27)

>  <Rbt.Parameter_File>
/export/apps/rDock/src/rDock_2013.1_src/data/scripts/dock_solv.prm

>  <Rbt.Receptor>
prm/pocket_docking_2.prm

>  <SCORE>
-5.77974

>  <SCORE.INTER>
-10.4448

>  <SCORE.INTER.CONST>
1

>  <SCORE.INTER.POLAR>
-1.68872

>  <SCORE.INTER.ROT>
6

>  <SCORE.INTER.SOLV>
15.6324

>  <SCORE.INTER.VDW>
-14.1449

>  <SCORE.INTER.norm>
-0.336928

>  <SCORE.INTRA>
2.26784

>  <SCORE.INTRA.DIHEDRAL>
2.81947

>  <SCORE.INTRA.DIHEDRAL.0>
9.37739

>  <SCORE.INTRA.POLAR>
0

>  <SCORE.INTRA.POLAR.0>
0

>  <SCORE.INTRA.REPUL>
0.0289349

>  <SCORE.INTRA.REPUL.0>
0

>  <SCORE.INTRA.SOLV>
-1.087

>  <SCORE.INTRA.SOLV.lig_0>
-82.9274

>  <SCORE.INTRA.VDW>
1.25693

>  <SCORE.INTRA.VDW.0>
-3.84922

>  <SCORE.INTRA.norm>
0.073156

>  <SCORE.RESTR>
2.39719

>  <SCORE.RESTR.CAVITY>
2.39719

>  <SCORE.RESTR.norm>
0.0773286

>  <SCORE.SYSTEM>
0

>  <SCORE.SYSTEM.CONST>
0

>  <SCORE.SYSTEM.DIHEDRAL>
0

>  <SCORE.SYSTEM.SOLV>
0

>  <SCORE.SYSTEM.norm>
0

>  <SCORE.heavy>
31

>  <SCORE.norm>
-0.186443

>  <RMSD>
6.036

$$$$
2o3x_lig
 OpenBabel11021811463D
libRbt.so/2013.1/901 2013/11/27
 31 33  0  0  0  0  0  0  0  0999 V2000
   22.8787    4.8698    7.5435 C   0  0  2  0  0  0  0  0  0  0  0  0
   23.6722    5.6675    6.6549 O   0  0  0  0  0  0  0  0  0  0  0  0
   22.7802    9.3686    4.7045 C   0  0  2  0  0  0  0  0  0  0  0  0
   22.1409   10.4264    3.8909 N   0  0  0  0  0  0  0  0  0  0  0  0
   20.4475    7.7835    8.3201 C   0  0  1  0  0  0  0  0  0  0  0  0
   23.7509    3.6753    8.0446 C   0  0  2  0  0  0  0  0  0  0  0  0
   25.0881    4.1180    8.5156 N   0  0  0  0  0  0  0  0  0  0  0  0
   23.3166    8.1918    3.8231 C   0  0  0  0  0  0  0  0  0  0  0  0
   19.3229    6.9320    8.9955 C   0  0  2  0  0  0  0  0  0  0  0  0
   18.0405    6.9113    8.3104 O   0  0  0  0  0  0  0  0  0  0  0  0
   23.9594    2.6218    6.9404 C   0  0  1  0  0  0  0  0  0  0  0  0
   24.7030    1.5339    7.4283 O   0  0  0  0  0  0  0  0  0  0  0  0
   24.0007    7.1400    4.7708 C   0  0  2  0  0  0  0  0  0  0  0  0
   24.5588    5.9880    4.0010 N   0  0  0  0  0  0  0  0  0  0  0  0
   19.3400    7.5924   10.3639 C   0  0  2  0  0  0  0  0  0  0  0  0
   18.6081    8.8659   10.3456 O   0  0  0  0  0  0  0  0  0  0  0  0
   22.6118    2.1542    6.4170 C   0  0  2  0  0  0  0  0  0  0  0  0
   22.7971    1.1857    5.4355 O   0  0  0  0  0  0  0  0  0  0  0  0
   22.9772    6.5920    5.8059 C   0  0  2  0  0  0  0  0  0  0  0  0
   20.8182    7.8174   10.6597 C   0  0  2  0  0  0  0  0  0  0  0  0
   21.2783    8.2599    9.3858 O   0  0  0  0  0  0  0  0  0  0  0  0
   21.8201    3.3610    5.8385 C   0  0  2  0  0  0  0  0  0  0  0  0
   21.6480    4.3648    6.8621 O   0  0  0  0  0  0  0  0  0  0  0  0
   22.3230    7.6963    6.6596 C   0  0  2  0  0  0  0  0  0  0  0  0
   21.2291    7.0284    7.3814 O   0  0  0  0  0  0  0  0  0  0  0  0
   21.6016    6.5403   11.1162 C   0  0  0  0  0  0  0  0  0  0  0  0
   21.0675    6.0511   12.3431 N   0  0  0  0  0  0  0  0  0  0  0  0
   20.4586    2.9630    5.3177 C   0  0  0  0  0  0  0  0  0  0  0  0
   19.6706    2.4243    6.3161 O   0  0  0  0  0  0  0  0  0  0  0  0
   21.7498    8.8504    5.7239 C   0  0  1  0  0  0  0  0  0  0  0  0
   21.3335    9.9897    6.4918 O   0  0  0  0  0  0  0  0  0  0  0  0
  1  2  1  6  0  0  0
  1  6  1  0  0  0  0
  1 23  1  0  0  0  0
  3  4  1  6  0  0  0
  3  8  1  0  0  0  0
  3 30  1  0  0  0  0
  5  9  1  0  0  0  0
  5 21  1  0  0  0  0
  5 25  1  6  0  0  0
  6  7  1  6  0  0  0
  6 11  1  0  0  0  0
  8 13  1  0  0  0  0
  9 10  1  6  0  0  0
  9 15  1  0  0  0  0
 11 12  1  1  0  0  0
 11 17  1  0  0  0  0
 13 14  1  6  0  0  0
 13 19  1  0  0  0  0
 15 16  1  6  0  0  0
 15 20  1  0  0  0  0
 17 18  1  6  0  0  0
 17 22  1  0  0  0  0
 19  2  1  1  0  0  0
 19 24  1  0  0  0  0
 20 21  1  0  0  0  0
 20 26  1  6  0  0  0
 22 23  1  0  0  0  0
 22 28  1  1  0  0  0
 24 25  1  6  0  0  0
 24 30  1  0  0  0  0
 26 27  1  0  0  0  0
 28 29  1  0  0  0  0
 30 31  1  1  0  0  0
M  END
>  <CHROM.1>
163.47550990,179.70401564,-169.84845226,-62.60817003,60.60521296,177.35236275
21.90260340,6.00810302,7.25019167,0.64969718,-1.00501835,2.72913870

>  <Name>
2o3x_lig

>  <RI>
0

>  <Rbt.Current_Directory>
/home/itssahil/PROJECTS/Mol_Feturizer/New_Systems/rnas/2o3x

>  <Rbt.Executable>
rbdock ($Id: //depot/dev/client3/rdock/2013.1/src/exe/rbdock.cxx#4 $)

>  <Rbt.Library>
libRbt.so (2013.1, Build901 2013/11/27)

>  <Rbt.Parameter_File>
/export/apps/rDock/src/rDock_2013.1_src/data/scripts/dock_solv.prm

>  <Rbt.Receptor>
prm/pocket_docking_8.prm

>  <SCORE>
-9.2507

>  <SCORE.INTER>
-5.63395

>  <SCORE.INTER.CONST>
1

>  <SCORE.INTER.POLAR>
-1.66662

>  <SCORE.INTER.ROT>
6

>  <SCORE.INTER.SOLV>
13.9612

>  <SCORE.INTER.VDW>
-10.4543

>  <SCORE.INTER.norm>
-0.18174

>  <SCORE.INTRA>
-3.61674

>  <SCORE.INTRA.DIHEDRAL>
-7.37264

>  <SCORE.INTRA.DIHEDRAL.0>
9.37739

>  <SCORE.INTRA.POLAR>
0

>  <SCORE.INTRA.POLAR.0>
0

>  <SCORE.INTRA.REPUL>
0

>  <SCORE.INTRA.REPUL.0>
0

>  <SCORE.INTRA.SOLV>
-2.42868

>  <SCORE.INTRA.SOLV.lig_0>
-82.9274

>  <SCORE.INTRA.VDW>
1.28391

>  <SCORE.INTRA.VDW.0>
-3.84922

>  <SCORE.INTRA.norm>
-0.116669

>  <SCORE.RESTR>
0

>  <SCORE.RESTR.CAVITY>
0

>  <SCORE.RESTR.norm>
0

>  <SCORE.SYSTEM>
0

>  <SCORE.SYSTEM.CONST>
0

>  <SCORE.SYSTEM.DIHEDRAL>
0

>  <SCORE.SYSTEM.SOLV>
0

>  <SCORE.SYSTEM.norm>
0

>  <SCORE.heavy>
31

>  <SCORE.norm>
-0.29841

>  <RMSD>
6.051

$$$$
2o3x_lig
 OpenBabel11021811463D
libRbt.so/2013.1/901 2013/11/27
 31 33  0  0  0  0  0  0  0  0999 V2000
   20.1723    9.0683    7.8706 C   0  0  2  0  0  0  0  0  0  0  0  0
   21.4806    8.6161    8.2440 O   0  0  0  0  0  0  0  0  0  0  0  0
   24.6958    6.7510    6.1269 C   0  0  2  0  0  0  0  0  0  0  0  0
   25.4891    5.8887    5.2233 N   0  0  0  0  0  0  0  0  0  0  0  0
   21.5022   10.2635    4.9064 C   0  0  1  0  0  0  0  0  0  0  0  0
   19.5782    9.8911    9.0574 C   0  0  2  0  0  0  0  0  0  0  0  0
   20.5390   10.8977    9.5765 N   0  0  0  0  0  0  0  0  0  0  0  0
   23.9971    5.9293    7.2610 C   0  0  0  0  0  0  0  0  0  0  0  0
   21.8739   10.4033    3.3937 C   0  0  2  0  0  0  0  0  0  0  0  0
   23.2821   10.6160    3.1002 O   0  0  0  0  0  0  0  0  0  0  0  0
   19.1633    8.9804   10.2284 C   0  0  1  0  0  0  0  0  0  0  0  0
   18.5856    9.7361   11.2626 O   0  0  0  0  0  0  0  0  0  0  0  0
   23.2087    6.9322    8.1803 C   0  0  2  0  0  0  0  0  0  0  0  0
   22.5252    6.2255    9.3049 N   0  0  0  0  0  0  0  0  0  0  0  0
   20.9370   11.5469    3.0426 C   0  0  2  0  0  0  0  0  0  0  0  0
   21.4898   12.8361    3.4784 O   0  0  0  0  0  0  0  0  0  0  0  0
   18.1913    7.9219    9.7350 C   0  0  2  0  0  0  0  0  0  0  0  0
   17.7973    7.1122   10.7956 O   0  0  0  0  0  0  0  0  0  0  0  0
   22.1362    7.6998    7.3558 C   0  0  2  0  0  0  0  0  0  0  0  0
   19.6478   11.2260    3.7897 C   0  0  2  0  0  0  0  0  0  0  0  0
   20.1699   10.7746    5.0363 O   0  0  0  0  0  0  0  0  0  0  0  0
   18.8606    7.0643    8.6240 C   0  0  2  0  0  0  0  0  0  0  0  0
   19.2784    7.9178    7.5368 O   0  0  0  0  0  0  0  0  0  0  0  0
   22.7243    8.4657    6.1542 C   0  0  2  0  0  0  0  0  0  0  0  0
   21.5599    8.9056    5.3702 O   0  0  0  0  0  0  0  0  0  0  0  0
   18.7608   10.1169    3.1289 C   0  0  0  0  0  0  0  0  0  0  0  0
   17.8431    9.5911    4.0835 N   0  0  0  0  0  0  0  0  0  0  0  0
   17.9351    6.0024    8.0770 C   0  0  0  0  0  0  0  0  0  0  0  0
   18.5777    5.1906    7.1627 O   0  0  0  0  0  0  0  0  0  0  0  0
   23.6493    7.5037    5.2856 C   0  0  1  0  0  0  0  0  0  0  0  0
   24.3817    8.2369    4.2920 O   0  0  0  0  0  0  0  0  0  0  0  0
  1  2  1  1  0  0  0
  1  6  1  0  0  0  0
  1 23  1  0  0  0  0
  3  4  1  6  0  0  0
  3  8  1  0  0  0  0
  3 30  1  0  0  0  0
  5  9  1  0  0  0  0
  5 21  1  0  0  0  0
  5 25  1  6  0  0  0
  6  7  1  1  0  0  0
  6 11  1  0  0  0  0
  8 13  1  0  0  0  0
  9 10  1  1  0  0  0
  9 15  1  0  0  0  0
 11 12  1  1  0  0  0
 11 17  1  0  0  0  0
 13 14  1  1  0  0  0
 13 19  1  0  0  0  0
 15 16  1  1  0  0  0
 15 20  1  0  0  0  0
 17 18  1  1  0  0  0
 17 22  1  0  0  0  0
 19  2  1  1  0  0  0
 19 24  1  0  0  0  0
 20 21  1  0  0  0  0
 20 26  1  6  0  0  0
 22 23  1  0  0  0  0
 22 28  1  6  0  0  0
 24 25  1  6  0  0  0
 24 30  1  0  0  0  0
 26 27  1  0  0  0  0
 28 29  1  0  0  0  0
 30 31  1  6  0  0  0
M  END
>  <CHROM.1>
172.46903335,101.86096310,-157.76732784,161.18337100,-175.61593839,133.35118404
20.94852575,8.66466633,6.66446880,2.11858699,-0.49336132,2.23179051

>  <Name>
2o3x_lig

>  <RI>
0

>  <Rbt.Current_Directory>
/home/itssahil/PROJECTS/Mol_Feturizer/New_Systems/rnas/2o3x

>  <Rbt.Executable>
rbdock ($Id: //depot/dev/client3/rdock/2013.1/src/exe/rbdock.cxx#4 $)

>  <Rbt.Library>
libRbt.so (2013.1, Build901 2013/11/27)

>  <Rbt.Parameter_File>
/export/apps/rDock/src/rDock_2013.1_src/data/scripts/dock_solv.prm

>  <Rbt.Receptor>
prm/pocket_docking_3.prm

>  <SCORE>
-8.91622

>  <SCORE.INTER>
-11.5726

>  <SCORE.INTER.CONST>
1

>  <SCORE.INTER.POLAR>
-1.48581

>  <SCORE.INTER.ROT>
6

>  <SCORE.INTER.SOLV>
19.4506

>  <SCORE.INTER.VDW>
-16.8459

>  <SCORE.INTER.norm>
-0.373309

>  <SCORE.INTRA>
2.65635

>  <SCORE.INTRA.DIHEDRAL>
6.49852

>  <SCORE.INTRA.DIHEDRAL.0>
9.37739

>  <SCORE.INTRA.POLAR>
0

>  <SCORE.INTRA.POLAR.0>
0

>  <SCORE.INTRA.REPUL>
0

>  <SCORE.INTRA.REPUL.0>
0

>  <SCORE.INTRA.SOLV>
-1.19514

>  <SCORE.INTRA.SOLV.lig_0>
-82.9274

>  <SCORE.INTRA.VDW>
0.00466344

>  <SCORE.INTRA.VDW.0>
-3.84922

>  <SCORE.INTRA.norm>
0.0856887

>  <SCORE.RESTR>
0

>  <SCORE.RESTR.CAVITY>
0

>  <SCORE.RESTR.norm>
0

>  <SCORE.SYSTEM>
0

>  <SCORE.SYSTEM.CONST>
0

>  <SCORE.SYSTEM.DIHEDRAL>
0

>  <SCORE.SYSTEM.SOLV>
0

>  <SCORE.SYSTEM.norm>
0

>  <SCORE.heavy>
31

>  <SCORE.norm>
-0.28762

>  <RMSD>
6.058

$$$$
2o3x_lig
 OpenBabel11021811463D
libRbt.so/2013.1/901 2013/11/27
 31 33  0  0  0  0  0  0  0  0999 V2000
   21.8664    7.1790    8.7749 C   0  0  2  0  0  0  0  0  0  0  0  0
   21.1018    6.6220    7.6976 O   0  0  0  0  0  0  0  0  0  0  0  0
   22.5991    9.2689    4.6893 C   0  0  2  0  0  0  0  0  0  0  0  0
   22.7854   10.0331    3.4360 N   0  0  0  0  0  0  0  0  0  0  0  0
   18.4888    8.8980    5.7695 C   0  0  1  0  0  0  0  0  0  0  0  0
   22.1187    6.0571    9.8314 C   0  0  2  0  0  0  0  0  0  0  0  0
   22.6096    4.8017    9.2079 N   0  0  0  0  0  0  0  0  0  0  0  0
   22.8117    7.7327    4.4789 C   0  0  0  0  0  0  0  0  0  0  0  0
   18.4198    7.5787    4.9323 C   0  0  2  0  0  0  0  0  0  0  0  0
   19.3504    7.4804    3.8194 O   0  0  0  0  0  0  0  0  0  0  0  0
   20.8406    5.7267   10.6252 C   0  0  1  0  0  0  0  0  0  0  0  0
   21.1033    4.7523   11.6029 O   0  0  0  0  0  0  0  0  0  0  0  0
   22.6231    7.0158    5.8656 C   0  0  2  0  0  0  0  0  0  0  0  0
   22.8295    5.5406    5.7540 N   0  0  0  0  0  0  0  0  0  0  0  0
   16.9450    7.6263    4.5694 C   0  0  2  0  0  0  0  0  0  0  0  0
   16.7044    8.5531    3.4554 O   0  0  0  0  0  0  0  0  0  0  0  0
   20.2943    6.9913   11.2663 C   0  0  2  0  0  0  0  0  0  0  0  0
   19.1527    6.6913   12.0029 O   0  0  0  0  0  0  0  0  0  0  0  0
   21.1939    7.2731    6.4225 C   0  0  2  0  0  0  0  0  0  0  0  0
   16.2557    8.1102    5.8397 C   0  0  2  0  0  0  0  0  0  0  0  0
   17.1628    9.1243    6.2630 O   0  0  0  0  0  0  0  0  0  0  0  0
   19.9650    8.0424   10.1689 C   0  0  2  0  0  0  0  0  0  0  0  0
   21.1537    8.3332    9.4024 O   0  0  0  0  0  0  0  0  0  0  0  0
   20.8592    8.7702    6.5740 C   0  0  2  0  0  0  0  0  0  0  0  0
   19.4173    8.8157    6.8618 O   0  0  0  0  0  0  0  0  0  0  0  0
   16.0856    7.0222    6.9536 C   0  0  0  0  0  0  0  0  0  0  0  0
   15.2577    5.9634    6.4810 N   0  0  0  0  0  0  0  0  0  0  0  0
   19.4338    9.3338   10.7461 C   0  0  0  0  0  0  0  0  0  0  0  0
   20.4574   10.1655   11.1567 O   0  0  0  0  0  0  0  0  0  0  0  0
   21.1821    9.5475    5.2222 C   0  0  1  0  0  0  0  0  0  0  0  0
   21.0899   10.9691    5.3998 O   0  0  0  0  0  0  0  0  0  0  0  0
  1  2  1  6  0  0  0
  1  6  1  0  0  0  0
  1 23  1  0  0  0  0
  3  4  1  6  0  0  0
  3  8  1  0  0  0  0
  3 30  1  0  0  0  0
  5  9  1  0  0  0  0
  5 21  1  0  0  0  0
  5 25  1  1  0  0  0
  6  7  1  6  0  0  0
  6 11  1  0  0  0  0
  8 13  1  0  0  0  0
  9 10  1  6  0  0  0
  9 15  1  0  0  0  0
 11 12  1  1  0  0  0
 11 17  1  0  0  0  0
 13 14  1  6  0  0  0
 13 19  1  0  0  0  0
 15 16  1  6  0  0  0
 15 20  1  0  0  0  0
 17 18  1  6  0  0  0
 17 22  1  0  0  0  0
 19  2  1  1  0  0  0
 19 24  1  0  0  0  0
 20 21  1  0  0  0  0
 20 26  1  1  0  0  0
 22 23  1  0  0  0  0
 22 28  1  1  0  0  0
 24 25  1  6  0  0  0
 24 30  1  0  0  0  0
 26 27  1  0  0  0  0
 28 29  1  0  0  0  0
 30 31  1  1  0  0  0
M  END
>  <CHROM.1>
-156.30137682,69.95244449,69.64148093,-62.42458435,83.29243471,-89.57168487
20.04541663,7.76177628,7.29206904,-1.28208048,0.00030326,-1.28405638

>  <Name>
2o3x_lig

>  <RI>
0

>  <Rbt.Current_Directory>
/home/itssahil/PROJECTS/Mol_Feturizer/New_Systems/rnas/2o3x

>  <Rbt.Executable>
rbdock ($Id: //depot/dev/client3/rdock/2013.1/src/exe/rbdock.cxx#4 $)

>  <Rbt.Library>
libRbt.so (2013.1, Build901 2013/11/27)

>  <Rbt.Parameter_File>
/export/apps/rDock/src/rDock_2013.1_src/data/scripts/dock_solv.prm

>  <Rbt.Receptor>
prm/pocket_docking_4.prm

>  <SCORE>
-10.2465

>  <SCORE.INTER>
-11.6423

>  <SCORE.INTER.CONST>
1

>  <SCORE.INTER.POLAR>
-1.68529

>  <SCORE.INTER.ROT>
6

>  <SCORE.INTER.SOLV>
12.1557

>  <SCORE.INTER.VDW>
-13.7958

>  <SCORE.INTER.norm>
-0.375557

>  <SCORE.INTRA>
1.39575

>  <SCORE.INTRA.DIHEDRAL>
-0.564227

>  <SCORE.INTRA.DIHEDRAL.0>
9.37739

>  <SCORE.INTRA.POLAR>
0

>  <SCORE.INTRA.POLAR.0>
0

>  <SCORE.INTRA.REPUL>
0

>  <SCORE.INTRA.REPUL.0>
0

>  <SCORE.INTRA.SOLV>
0.0600543

>  <SCORE.INTRA.SOLV.lig_0>
-82.9274

>  <SCORE.INTRA.VDW>
1.64783

>  <SCORE.INTRA.VDW.0>
-3.84922

>  <SCORE.INTRA.norm>
0.0450241

>  <SCORE.RESTR>
0

>  <SCORE.RESTR.CAVITY>
0

>  <SCORE.RESTR.norm>
0

>  <SCORE.SYSTEM>
0

>  <SCORE.SYSTEM.CONST>
0

>  <SCORE.SYSTEM.DIHEDRAL>
0

>  <SCORE.SYSTEM.SOLV>
0

>  <SCORE.SYSTEM.norm>
0

>  <SCORE.heavy>
31

>  <SCORE.norm>
-0.330533

>  <RMSD>
6.064

$$$$
2o3x_lig
 OpenBabel11021811463D
libRbt.so/2013.1/901 2013/11/27
 31 33  0  0  0  0  0  0  0  0999 V2000
   18.5955    8.5313    6.8817 C   0  0  2  0  0  0  0  0  0  0  0  0
   17.8584    9.5953    7.4983 O   0  0  0  0  0  0  0  0  0  0  0  0
   15.7167   10.2377   11.1450 C   0  0  2  0  0  0  0  0  0  0  0  0
   14.9557   10.0384   12.3982 N   0  0  0  0  0  0  0  0  0  0  0  0
   19.9611    8.5412   10.9926 C   0  0  1  0  0  0  0  0  0  0  0  0
   19.4890    9.1397    5.7548 C   0  0  2  0  0  0  0  0  0  0  0  0
   20.2460   10.3290    6.2219 N   0  0  0  0  0  0  0  0  0  0  0  0
   14.8948    9.8107    9.8834 C   0  0  0  0  0  0  0  0  0  0  0  0
   19.7411    7.3892   12.0274 C   0  0  2  0  0  0  0  0  0  0  0  0
   18.8739    7.6999   13.1525 O   0  0  0  0  0  0  0  0  0  0  0  0
   18.6529    9.5578    4.5305 C   0  0  1  0  0  0  0  0  0  0  0  0
   19.4824   10.0546    3.5110 O   0  0  0  0  0  0  0  0  0  0  0  0
   15.7723   10.0874    8.6083 C   0  0  2  0  0  0  0  0  0  0  0  0
   15.0487    9.7224    7.3535 N   0  0  0  0  0  0  0  0  0  0  0  0
   21.1976    7.1133   12.3612 C   0  0  2  0  0  0  0  0  0  0  0  0
   21.7191    8.1047   13.3114 O   0  0  0  0  0  0  0  0  0  0  0  0
   17.8470    8.3706    4.0307 C   0  0  2  0  0  0  0  0  0  0  0  0
   17.1085    8.7397    2.9108 O   0  0  0  0  0  0  0  0  0  0  0  0
   17.0954    9.2720    8.6695 C   0  0  2  0  0  0  0  0  0  0  0  0
   21.9198    7.2089   11.0224 C   0  0  2  0  0  0  0  0  0  0  0  0
   21.2744    8.3451   10.4542 O   0  0  0  0  0  0  0  0  0  0  0  0
   16.9008    7.8614    5.1545 C   0  0  2  0  0  0  0  0  0  0  0  0
   17.6777    7.4963    6.3155 O   0  0  0  0  0  0  0  0  0  0  0  0
   17.9300    9.5585    9.9334 C   0  0  2  0  0  0  0  0  0  0  0  0
   18.9867    8.5351    9.9378 O   0  0  0  0  0  0  0  0  0  0  0  0
   21.7550    5.9588   10.0931 C   0  0  0  0  0  0  0  0  0  0  0  0
   22.5061    6.1369    8.8956 N   0  0  0  0  0  0  0  0  0  0  0  0
   16.0832    6.6657    4.7242 C   0  0  0  0  0  0  0  0  0  0  0  0
   15.2544    6.2258    5.7378 O   0  0  0  0  0  0  0  0  0  0  0  0
   17.0225    9.4277   11.2354 C   0  0  1  0  0  0  0  0  0  0  0  0
   17.7104    9.8999   12.4037 O   0  0  0  0  0  0  0  0  0  0  0  0
  1  2  1  6  0  0  0
  1  6  1  0  0  0  0
  1 23  1  0  0  0  0
  3  4  1  1  0  0  0
  3  8  1  0  0  0  0
  3 30  1  0  0  0  0
  5  9  1  0  0  0  0
  5 21  1  0  0  0  0
  5 25  1  6  0  0  0
  6  7  1  1  0  0  0
  6 11  1  0  0  0  0
  8 13  1  0  0  0  0
  9 10  1  1  0  0  0
  9 15  1  0  0  0  0
 11 12  1  6  0  0  0
 11 17  1  0  0  0  0
 13 14  1  6  0  0  0
 13 19  1  0  0  0  0
 15 16  1  1  0  0  0
 15 20  1  0  0  0  0
 17 18  1  6  0  0  0
 17 22  1  0  0  0  0
 19  2  1  6  0  0  0
 19 24  1  0  0  0  0
 20 21  1  0  0  0  0
 20 26  1  6  0  0  0
 22 23  1  0  0  0  0
 22 28  1  6  0  0  0
 24 25  1  1  0  0  0
 24 30  1  0  0  0  0
 26 27  1  0  0  0  0
 28 29  1  0  0  0  0
 30 31  1  1  0  0  0
M  END
>  <CHROM.1>
-172.64246351,106.20756538,-142.35601623,-177.97220576,179.73663768,178.96713929
18.37243598,8.55963236,8.60961073,-1.92176812,-0.33199294,1.51642276

>  <Name>
2o3x_lig

>  <RI>
3.34184e+07

>  <Rbt.Current_Directory>
/home/itssahil/PROJECTS/Mol_Feturizer/New_Systems/rnas/2o3x

>  <Rbt.Executable>
rbdock ($Id: //depot/dev/client3/rdock/2013.1/src/exe/rbdock.cxx#4 $)

>  <Rbt.Library>
libRbt.so (2013.1, Build901 2013/11/27)

>  <Rbt.Parameter_File>
/export/apps/rDock/src/rDock_2013.1_src/data/scripts/dock_solv.prm

>  <Rbt.Receptor>
prm/pocket_docking_6.prm

>  <SCORE>
-10.6257

>  <SCORE.INTER>
-11.8484

>  <SCORE.INTER.CONST>
1

>  <SCORE.INTER.POLAR>
-1.46543

>  <SCORE.INTER.ROT>
6

>  <SCORE.INTER.SOLV>
13.0929

>  <SCORE.INTER.VDW>
-14.9785

>  <SCORE.INTER.norm>
-0.382207

>  <SCORE.INTRA>
1.2227

>  <SCORE.INTRA.DIHEDRAL>
2.31099

>  <SCORE.INTRA.DIHEDRAL.0>
9.37739

>  <SCORE.INTRA.POLAR>
0

>  <SCORE.INTRA.POLAR.0>
0

>  <SCORE.INTRA.REPUL>
0

>  <SCORE.INTRA.REPUL.0>
0

>  <SCORE.INTRA.SOLV>
-0.84731

>  <SCORE.INTRA.SOLV.lig_0>
-82.9274

>  <SCORE.INTRA.VDW>
0.490856

>  <SCORE.INTRA.VDW.0>
-3.84922

>  <SCORE.INTRA.norm>
0.0394419

>  <SCORE.RESTR>
0

>  <SCORE.RESTR.CAVITY>
0

>  <SCORE.RESTR.norm>
0

>  <SCORE.SYSTEM>
0

>  <SCORE.SYSTEM.CONST>
0

>  <SCORE.SYSTEM.DIHEDRAL>
0

>  <SCORE.SYSTEM.SOLV>
0

>  <SCORE.SYSTEM.norm>
0

>  <SCORE.heavy>
31

>  <SCORE.norm>
-0.342765

>  <RMSD>
6.077

$$$$
2o3x_lig
 OpenBabel11021811463D
libRbt.so/2013.1/901 2013/11/27
 31 33  0  0  0  0  0  0  0  0999 V2000
   18.6631    8.6493    6.8213 C   0  0  2  0  0  0  0  0  0  0  0  0
   17.8040    9.6342    7.4108 O   0  0  0  0  0  0  0  0  0  0  0  0
   15.2531    9.9836   10.8267 C   0  0  2  0  0  0  0  0  0  0  0  0
   14.4016    9.6837   11.9991 N   0  0  0  0  0  0  0  0  0  0  0  0
   19.6549    8.7922   11.1047 C   0  0  1  0  0  0  0  0  0  0  0  0
   19.4781    9.3289    5.6757 C   0  0  2  0  0  0  0  0  0  0  0  0
   20.0874   10.6125    6.1081 N   0  0  0  0  0  0  0  0  0  0  0  0
   14.6157    9.4749    9.4910 C   0  0  0  0  0  0  0  0  0  0  0  0
   19.4276    7.6323   12.1290 C   0  0  2  0  0  0  0  0  0  0  0  0
   18.4197    7.8713   13.1495 O   0  0  0  0  0  0  0  0  0  0  0  0
   18.5985    9.6104    4.4428 C   0  0  1  0  0  0  0  0  0  0  0  0
   19.3632   10.1746    3.4078 O   0  0  0  0  0  0  0  0  0  0  0  0
   15.5753    9.8656    8.3083 C   0  0  2  0  0  0  0  0  0  0  0  0
   15.0270    9.4299    6.9889 N   0  0  0  0  0  0  0  0  0  0  0  0
   20.8582    7.4911   12.6213 C   0  0  2  0  0  0  0  0  0  0  0  0
   21.1838    8.5320   13.6052 O   0  0  0  0  0  0  0  0  0  0  0  0
   17.9404    8.3223    3.9779 C   0  0  2  0  0  0  0  0  0  0  0  0
   17.1635    8.5697    2.8506 O   0  0  0  0  0  0  0  0  0  0  0  0
   16.9732    9.2116    8.5015 C   0  0  2  0  0  0  0  0  0  0  0  0
   21.7095    7.6421   11.3660 C   0  0  2  0  0  0  0  0  0  0  0  0
   21.0309    8.7116   10.7133 O   0  0  0  0  0  0  0  0  0  0  0  0
   17.0613    7.7347    5.1179 C   0  0  2  0  0  0  0  0  0  0  0  0
   17.8758    7.4970    6.2862 O   0  0  0  0  0  0  0  0  0  0  0  0
   17.6397    9.5824    9.8412 C   0  0  2  0  0  0  0  0  0  0  0  0
   18.8045    8.6910    9.9520 O   0  0  0  0  0  0  0  0  0  0  0  0
   21.7579    6.3758   10.4453 C   0  0  0  0  0  0  0  0  0  0  0  0
   20.4416    6.0214   10.0311 N   0  0  0  0  0  0  0  0  0  0  0  0
   16.3925    6.4386    4.7227 C   0  0  0  0  0  0  0  0  0  0  0  0
   15.5215    5.9980    5.7000 O   0  0  0  0  0  0  0  0  0  0  0  0
   16.6305    9.3327   11.0474 C   0  0  1  0  0  0  0  0  0  0  0  0
   17.1393    9.8715   12.2770 O   0  0  0  0  0  0  0  0  0  0  0  0
  1  2  1  6  0  0  0
  1  6  1  0  0  0  0
  1 23  1  0  0  0  0
  3  4  1  1  0  0  0
  3  8  1  0  0  0  0
  3 30  1  0  0  0  0
  5  9  1  0  0  0  0
  5 21  1  0  0  0  0
  5 25  1  6  0  0  0
  6  7  1  1  0  0  0
  6 11  1  0  0  0  0
  8 13  1  0  0  0  0
  9 10  1  1  0  0  0
  9 15  1  0  0  0  0
 11 12  1  6  0  0  0
 11 17  1  0  0  0  0
 13 14  1  6  0  0  0
 13 19  1  0  0  0  0
 15 16  1  1  0  0  0
 15 20  1  0  0  0  0
 17 18  1  6  0  0  0
 17 22  1  0  0  0  0
 19  2  1  6  0  0  0
 19 24  1  0  0  0  0
 20 21  1  0  0  0  0
 20 26  1  6  0  0  0
 22 23  1  0  0  0  0
 22 28  1  6  0  0  0
 24 25  1  1  0  0  0
 24 30  1  0  0  0  0
 26 27  1  0  0  0  0
 28 29  1  0  0  0  0
 30 31  1  1  0  0  0
M  END
>  <CHROM.1>
-179.38285794,104.02141179,-138.82775346,58.43438993,-174.42740312,179.62206558
18.15457621,8.59688192,8.60410365,-1.83585852,-0.23408263,1.54526306

>  <Name>
2o3x_lig

>  <RI>
0

>  <Rbt.Current_Directory>
/home/itssahil/PROJECTS/Mol_Feturizer/New_Systems/rnas/2o3x

>  <Rbt.Executable>
rbdock ($Id: //depot/dev/client3/rdock/2013.1/src/exe/rbdock.cxx#4 $)

>  <Rbt.Library>
libRbt.so (2013.1, Build901 2013/11/27)

>  <Rbt.Parameter_File>
/export/apps/rDock/src/rDock_2013.1_src/data/scripts/dock_solv.prm

>  <Rbt.Receptor>
prm/pocket_docking_4.prm

>  <SCORE>
-8.7314

>  <SCORE.INTER>
-12.2542

>  <SCORE.INTER.CONST>
1

>  <SCORE.INTER.POLAR>
-1.61348

>  <SCORE.INTER.ROT>
6

>  <SCORE.INTER.SOLV>
13.6895

>  <SCORE.INTER.VDW>
-14.9544

>  <SCORE.INTER.norm>
-0.395298

>  <SCORE.INTRA>
3.52285

>  <SCORE.INTRA.DIHEDRAL>
2.45023

>  <SCORE.INTRA.DIHEDRAL.0>
9.37739

>  <SCORE.INTRA.POLAR>
0

>  <SCORE.INTRA.POLAR.0>
0

>  <SCORE.INTRA.REPUL>
0

>  <SCORE.INTRA.REPUL.0>
0

>  <SCORE.INTRA.SOLV>
3.07063

>  <SCORE.INTRA.SOLV.lig_0>
-82.9274

>  <SCORE.INTRA.VDW>
0.762423

>  <SCORE.INTRA.VDW.0>
-3.84922

>  <SCORE.INTRA.norm>
0.11364

>  <SCORE.RESTR>
0

>  <SCORE.RESTR.CAVITY>
0

>  <SCORE.RESTR.norm>
0

>  <SCORE.SYSTEM>
0

>  <SCORE.SYSTEM.CONST>
0

>  <SCORE.SYSTEM.DIHEDRAL>
0

>  <SCORE.SYSTEM.SOLV>
0

>  <SCORE.SYSTEM.norm>
0

>  <SCORE.heavy>
31

>  <SCORE.norm>
-0.281658

>  <RMSD>
6.083

$$$$
2o3x_lig
 OpenBabel11021811463D
libRbt.so/2013.1/901 2013/11/27
 31 33  0  0  0  0  0  0  0  0999 V2000
   19.7432    9.1038    9.1107 C   0  0  2  0  0  0  0  0  0  0  0  0
   21.1071    8.6708    9.0215 O   0  0  0  0  0  0  0  0  0  0  0  0
   23.7364    7.9760    5.7197 C   0  0  2  0  0  0  0  0  0  0  0  0
   24.3056    7.5372    4.4263 N   0  0  0  0  0  0  0  0  0  0  0  0
   19.4991    8.9618    5.7215 C   0  0  1  0  0  0  0  0  0  0  0  0
   19.3783    9.2745   10.6194 C   0  0  2  0  0  0  0  0  0  0  0  0
   20.4041   10.0539   11.3583 N   0  0  0  0  0  0  0  0  0  0  0  0
   23.4149    6.7679    6.6612 C   0  0  0  0  0  0  0  0  0  0  0  0
   18.0850    9.6023    5.5307 C   0  0  2  0  0  0  0  0  0  0  0  0
   17.1108    9.3186    6.5722 O   0  0  0  0  0  0  0  0  0  0  0  0
   19.2165    7.9133   11.3221 C   0  0  1  0  0  0  0  0  0  0  0  0
   18.8390    8.0908   12.6639 O   0  0  0  0  0  0  0  0  0  0  0  0
   22.8467    7.3357    8.0130 C   0  0  2  0  0  0  0  0  0  0  0  0
   22.5308    6.2411    8.9791 N   0  0  0  0  0  0  0  0  0  0  0  0
   17.7745    9.0415    4.1530 C   0  0  2  0  0  0  0  0  0  0  0  0
   17.3242    7.6460    4.2395 O   0  0  0  0  0  0  0  0  0  0  0  0
   18.1857    7.0753   10.5848 C   0  0  2  0  0  0  0  0  0  0  0  0
   18.0210    5.8542   11.2310 O   0  0  0  0  0  0  0  0  0  0  0  0
   21.5510    8.1573    7.7575 C   0  0  2  0  0  0  0  0  0  0  0  0
   19.0928    9.1429    3.3947 C   0  0  2  0  0  0  0  0  0  0  0  0
   20.0106    8.7300    4.4034 O   0  0  0  0  0  0  0  0  0  0  0  0
   18.6398    6.8485    9.1151 C   0  0  2  0  0  0  0  0  0  0  0  0
   18.8218    8.1227    8.4608 O   0  0  0  0  0  0  0  0  0  0  0  0
   21.7512    9.3175    6.7625 C   0  0  2  0  0  0  0  0  0  0  0  0
   20.3964    9.8047    6.4608 O   0  0  0  0  0  0  0  0  0  0  0  0
   19.4486   10.5785    2.8791 C   0  0  0  0  0  0  0  0  0  0  0  0
   18.6560   10.8996    1.7396 N   0  0  0  0  0  0  0  0  0  0  0  0
   17.6440    6.0351    8.3213 C   0  0  0  0  0  0  0  0  0  0  0  0
   18.0886    5.8037    7.0342 O   0  0  0  0  0  0  0  0  0  0  0  0
   22.4620    8.7921    5.4379 C   0  0  1  0  0  0  0  0  0  0  0  0
   22.8587    9.8797    4.5889 O   0  0  0  0  0  0  0  0  0  0  0  0
  1  2  1  1  0  0  0
  1  6  1  0  0  0  0
  1 23  1  0  0  0  0
  3  4  1  6  0  0  0
  3  8  1  0  0  0  0
  3 30  1  0  0  0  0
  5  9  1  0  0  0  0
  5 21  1  0  0  0  0
  5 25  1  6  0  0  0
  6  7  1  1  0  0  0
  6 11  1  0  0  0  0
  8 13  1  0  0  0  0
  9 10  1  1  0  0  0
  9 15  1  0  0  0  0
 11 12  1  1  0  0  0
 11 17  1  0  0  0  0
 13 14  1  1  0  0  0
 13 19  1  0  0  0  0
 15 16  1  1  0  0  0
 15 20  1  0  0  0  0
 17 18  1  1  0  0  0
 17 22  1  0  0  0  0
 19  2  1  1  0  0  0
 19 24  1  0  0  0  0
 20 21  1  0  0  0  0
 20 26  1  1  0  0  0
 22 23  1  0  0  0  0
 22 28  1  6  0  0  0
 24 25  1  6  0  0  0
 24 30  1  0  0  0  0
 26 27  1  0  0  0  0
 28 29  1  0  0  0  0
 30 31  1  6  0  0  0
M  END
>  <CHROM.1>
165.86365703,177.85737970,-161.43294315,-75.52560295,-177.79215803,-67.82358415
19.99206765,8.33041248,7.17731665,1.73312192,-0.04618752,1.82844666

>  <Name>
2o3x_lig

>  <RI>
0

>  <Rbt.Current_Directory>
/home/itssahil/PROJECTS/Mol_Feturizer/New_Systems/rnas/2o3x

>  <Rbt.Executable>
rbdock ($Id: //depot/dev/client3/rdock/2013.1/src/exe/rbdock.cxx#4 $)

>  <Rbt.Library>
libRbt.so (2013.1, Build901 2013/11/27)

>  <Rbt.Parameter_File>
/export/apps/rDock/src/rDock_2013.1_src/data/scripts/dock_solv.prm

>  <Rbt.Receptor>
prm/pocket_docking_3.prm

>  <SCORE>
-12.5557

>  <SCORE.INTER>
-9.82737

>  <SCORE.INTER.CONST>
1

>  <SCORE.INTER.POLAR>
-1.26004

>  <SCORE.INTER.ROT>
6

>  <SCORE.INTER.SOLV>
18.5943

>  <SCORE.INTER.VDW>
-16.1496

>  <SCORE.INTER.norm>
-0.317012

>  <SCORE.INTRA>
-2.72832

>  <SCORE.INTRA.DIHEDRAL>
-5.54125

>  <SCORE.INTRA.DIHEDRAL.0>
9.37739

>  <SCORE.INTRA.POLAR>
0

>  <SCORE.INTRA.POLAR.0>
0

>  <SCORE.INTRA.REPUL>
0

>  <SCORE.INTRA.REPUL.0>
0

>  <SCORE.INTRA.SOLV>
-1.06291

>  <SCORE.INTRA.SOLV.lig_0>
-82.9274

>  <SCORE.INTRA.VDW>
0.573755

>  <SCORE.INTRA.VDW.0>
-3.84922

>  <SCORE.INTRA.norm>
-0.0880104

>  <SCORE.RESTR>
0

>  <SCORE.RESTR.CAVITY>
0

>  <SCORE.RESTR.norm>
0

>  <SCORE.SYSTEM>
0

>  <SCORE.SYSTEM.CONST>
0

>  <SCORE.SYSTEM.DIHEDRAL>
0

>  <SCORE.SYSTEM.SOLV>
0

>  <SCORE.SYSTEM.norm>
0

>  <SCORE.heavy>
31

>  <SCORE.norm>
-0.405022

>  <RMSD>
6.110

$$$$
2o3x_lig
 OpenBabel11021811463D
libRbt.so/2013.1/901 2013/11/27
 31 33  0  0  0  0  0  0  0  0999 V2000
   19.9214    8.3510    7.8909 C   0  0  2  0  0  0  0  0  0  0  0  0
   18.9076    9.3534    7.7397 O   0  0  0  0  0  0  0  0  0  0  0  0
   16.7836   11.9395   10.4041 C   0  0  2  0  0  0  0  0  0  0  0  0
   16.0735   12.4958   11.5770 N   0  0  0  0  0  0  0  0  0  0  0  0
   20.0540    9.3808   11.4581 C   0  0  1  0  0  0  0  0  0  0  0  0
   20.9298    8.4878    6.7065 C   0  0  2  0  0  0  0  0  0  0  0  0
   21.3671    9.8926    6.5035 N   0  0  0  0  0  0  0  0  0  0  0  0
   15.9866   10.7714    9.7335 C   0  0  0  0  0  0  0  0  0  0  0  0
   19.1451    8.1145   11.3298 C   0  0  2  0  0  0  0  0  0  0  0  0
   17.7259    8.3214   11.5693 O   0  0  0  0  0  0  0  0  0  0  0  0
   20.3244    7.9814    5.3837 C   0  0  1  0  0  0  0  0  0  0  0  0
   21.2656    8.0668    4.3439 O   0  0  0  0  0  0  0  0  0  0  0  0
   16.8038   10.2709    8.4868 C   0  0  2  0  0  0  0  0  0  0  0  0
   16.0980    9.1629    7.7759 N   0  0  0  0  0  0  0  0  0  0  0  0
   19.8688    7.2234   12.3253 C   0  0  2  0  0  0  0  0  0  0  0  0
   19.4999    7.5644   13.7056 O   0  0  0  0  0  0  0  0  0  0  0  0
   19.8468    6.5491    5.5539 C   0  0  2  0  0  0  0  0  0  0  0  0
   19.3204    6.0817    4.3538 O   0  0  0  0  0  0  0  0  0  0  0  0
   18.2071    9.7617    8.9234 C   0  0  2  0  0  0  0  0  0  0  0  0
   21.3475    7.4939   12.0736 C   0  0  2  0  0  0  0  0  0  0  0  0
   21.3320    8.9083   11.9013 O   0  0  0  0  0  0  0  0  0  0  0  0
   18.7724    6.4783    6.6757 C   0  0  2  0  0  0  0  0  0  0  0  0
   19.3262    6.9801    7.9112 O   0  0  0  0  0  0  0  0  0  0  0  0
   19.0318   10.8217    9.6802 C   0  0  2  0  0  0  0  0  0  0  0  0
   20.1912   10.0949   10.2198 O   0  0  0  0  0  0  0  0  0  0  0  0
   21.9407    6.7902   10.8062 C   0  0  0  0  0  0  0  0  0  0  0  0
   21.7075    5.3862   10.8720 N   0  0  0  0  0  0  0  0  0  0  0  0
   18.2698    5.0722    6.9069 C   0  0  0  0  0  0  0  0  0  0  0  0
   17.5518    4.6050    5.8233 O   0  0  0  0  0  0  0  0  0  0  0  0
   18.1698   11.4512   10.8619 C   0  0  1  0  0  0  0  0  0  0  0  0
   18.8269   12.5882   11.4421 O   0  0  0  0  0  0  0  0  0  0  0  0
  1  2  1  6  0  0  0
  1  6  1  0  0  0  0
  1 23  1  0  0  0  0
  3  4  1  1  0  0  0
  3  8  1  0  0  0  0
  3 30  1  0  0  0  0
  5  9  1  0  0  0  0
  5 21  1  0  0  0  0
  5 25  1  6  0  0  0
  6  7  1  6  0  0  0
  6 11  1  0  0  0  0
  8 13  1  0  0  0  0
  9 10  1  1  0  0  0
  9 15  1  0  0  0  0
 11 12  1  6  0  0  0
 11 17  1  0  0  0  0
 13 14  1  1  0  0  0
 13 19  1  0  0  0  0
 15 16  1  1  0  0  0
 15 20  1  0  0  0  0
 17 18  1  6  0  0  0
 17 22  1  0  0  0  0
 19  2  1  6  0  0  0
 19 24  1  0  0  0  0
 20 21  1  0  0  0  0
 20 26  1  6  0  0  0
 22 23  1  0  0  0  0
 22 28  1  1  0  0  0
 24 25  1  1  0  0  0
 24 30  1  0  0  0  0
 26 27  1  0  0  0  0
 28 29  1  0  0  0  0
 30 31  1  6  0  0  0
M  END
>  <CHROM.1>
-156.15384585,69.90538082,-153.44220057,-55.21091755,-67.26493226,-83.37635468
19.18865838,8.57047004,9.05327648,-1.32061730,-0.89790175,1.21187044

>  <Name>
2o3x_lig

>  <RI>
0

>  <Rbt.Current_Directory>
/home/itssahil/PROJECTS/Mol_Feturizer/New_Systems/rnas/2o3x

>  <Rbt.Executable>
rbdock ($Id: //depot/dev/client3/rdock/2013.1/src/exe/rbdock.cxx#4 $)

>  <Rbt.Library>
libRbt.so (2013.1, Build901 2013/11/27)

>  <Rbt.Parameter_File>
/export/apps/rDock/src/rDock_2013.1_src/data/scripts/dock_solv.prm

>  <Rbt.Receptor>
prm/pocket_docking_5.prm

>  <SCORE>
-5.12169

>  <SCORE.INTER>
-4.98314

>  <SCORE.INTER.CONST>
1

>  <SCORE.INTER.POLAR>
-1.58254

>  <SCORE.INTER.ROT>
6

>  <SCORE.INTER.SOLV>
10.9018

>  <SCORE.INTER.VDW>
-9.28089

>  <SCORE.INTER.norm>
-0.160746

>  <SCORE.INTRA>
-0.138545

>  <SCORE.INTRA.DIHEDRAL>
-0.720094

>  <SCORE.INTRA.DIHEDRAL.0>
9.37739

>  <SCORE.INTRA.POLAR>
0

>  <SCORE.INTRA.POLAR.0>
0

>  <SCORE.INTRA.REPUL>
0

>  <SCORE.INTRA.REPUL.0>
0

>  <SCORE.INTRA.SOLV>
-0.105758

>  <SCORE.INTRA.SOLV.lig_0>
-82.9274

>  <SCORE.INTRA.VDW>
0.274381

>  <SCORE.INTRA.VDW.0>
-3.84922

>  <SCORE.INTRA.norm>
-0.00446921

>  <SCORE.RESTR>
0

>  <SCORE.RESTR.CAVITY>
0

>  <SCORE.RESTR.norm>
0

>  <SCORE.SYSTEM>
0

>  <SCORE.SYSTEM.CONST>
0

>  <SCORE.SYSTEM.DIHEDRAL>
0

>  <SCORE.SYSTEM.SOLV>
0

>  <SCORE.SYSTEM.norm>
0

>  <SCORE.heavy>
31

>  <SCORE.norm>
-0.165216

>  <RMSD>
6.120

$$$$
2o3x_lig
 OpenBabel11021811463D
libRbt.so/2013.1/901 2013/11/27
 31 33  0  0  0  0  0  0  0  0999 V2000
   22.5234    4.4685    4.6651 C   0  0  2  0  0  0  0  0  0  0  0  0
   22.3556    5.6760    5.4196 O   0  0  0  0  0  0  0  0  0  0  0  0
   22.6014    9.8386    4.4657 C   0  0  2  0  0  0  0  0  0  0  0  0
   22.4348   11.1589    3.8187 N   0  0  0  0  0  0  0  0  0  0  0  0
   18.8483    7.8785    6.1922 C   0  0  1  0  0  0  0  0  0  0  0  0
   21.8532    3.2985    5.4527 C   0  0  2  0  0  0  0  0  0  0  0  0
   20.4843    3.6455    5.9126 N   0  0  0  0  0  0  0  0  0  0  0  0
   23.3943    8.8365    3.5621 C   0  0  0  0  0  0  0  0  0  0  0  0
   17.4835    7.1301    6.0392 C   0  0  2  0  0  0  0  0  0  0  0  0
   16.6625    7.5265    4.9065 O   0  0  0  0  0  0  0  0  0  0  0  0
   22.6826    2.8961    6.6868 C   0  0  1  0  0  0  0  0  0  0  0  0
   22.0876    1.8098    7.3503 O   0  0  0  0  0  0  0  0  0  0  0  0
   23.5443    7.4813    4.3453 C   0  0  2  0  0  0  0  0  0  0  0  0
   24.3103    6.4717    3.5547 N   0  0  0  0  0  0  0  0  0  0  0  0
   16.9140    7.4293    7.4158 C   0  0  2  0  0  0  0  0  0  0  0  0
   16.3620    8.7892    7.4755 O   0  0  0  0  0  0  0  0  0  0  0  0
   24.0994    2.5495    6.2612 C   0  0  2  0  0  0  0  0  0  0  0  0
   24.8442    2.1636    7.3712 O   0  0  0  0  0  0  0  0  0  0  0  0
   22.1462    6.8877    4.6804 C   0  0  2  0  0  0  0  0  0  0  0  0
   18.1016    7.2811    8.3596 C   0  0  2  0  0  0  0  0  0  0  0  0
   19.1257    7.9141    7.5975 O   0  0  0  0  0  0  0  0  0  0  0  0
   24.7604    3.7757    5.5704 C   0  0  2  0  0  0  0  0  0  0  0  0
   23.9700    4.1754    4.4301 O   0  0  0  0  0  0  0  0  0  0  0  0
   21.2547    7.8484    5.4919 C   0  0  2  0  0  0  0  0  0  0  0  0
   19.9203    7.2293    5.4912 O   0  0  0  0  0  0  0  0  0  0  0  0
   18.4972    5.8032    8.6954 C   0  0  0  0  0  0  0  0  0  0  0  0
   19.5004    5.7830    9.7069 N   0  0  0  0  0  0  0  0  0  0  0  0
   26.1690    3.4875    5.1055 C   0  0  0  0  0  0  0  0  0  0  0  0
   27.0100    3.2213    6.1684 O   0  0  0  0  0  0  0  0  0  0  0  0
   21.2056    9.2785    4.7933 C   0  0  1  0  0  0  0  0  0  0  0  0
   20.5674   10.2514    5.6343 O   0  0  0  0  0  0  0  0  0  0  0  0
  1  2  1  1  0  0  0
  1  6  1  0  0  0  0
  1 23  1  0  0  0  0
  3  4  1  6  0  0  0
  3  8  1  0  0  0  0
  3 30  1  0  0  0  0
  5  9  1  0  0  0  0
  5 21  1  0  0  0  0
  5 25  1  6  0  0  0
  6  7  1  1  0  0  0
  6 11  1  0  0  0  0
  8 13  1  0  0  0  0
  9 10  1  6  0  0  0
  9 15  1  0  0  0  0
 11 12  1  6  0  0  0
 11 17  1  0  0  0  0
 13 14  1  6  0  0  0
 13 19  1  0  0  0  0
 15 16  1  6  0  0  0
 15 20  1  0  0  0  0
 17 18  1  1  0  0  0
 17 22  1  0  0  0  0
 19  2  1  1  0  0  0
 19 24  1  0  0  0  0
 20 21  1  0  0  0  0
 20 26  1  6  0  0  0
 22 23  1  0  0  0  0
 22 28  1  6  0  0  0
 24 25  1  6  0  0  0
 24 30  1  0  0  0  0
 26 27  1  0  0  0  0
 28 29  1  0  0  0  0
 30 31  1  1  0  0  0
M  END
>  <CHROM.1>
-144.35198565,177.30399722,-87.61676187,-172.73798252,-64.07309170,179.07993054
21.47238131,6.17566798,5.90884848,-0.53624192,0.41972517,-0.44162428

>  <Name>
2o3x_lig

>  <RI>
0

>  <Rbt.Current_Directory>
/home/itssahil/PROJECTS/Mol_Feturizer/New_Systems/rnas/2o3x

>  <Rbt.Executable>
rbdock ($Id: //depot/dev/client3/rdock/2013.1/src/exe/rbdock.cxx#4 $)

>  <Rbt.Library>
libRbt.so (2013.1, Build901 2013/11/27)

>  <Rbt.Parameter_File>
/export/apps/rDock/src/rDock_2013.1_src/data/scripts/dock_solv.prm

>  <Rbt.Receptor>
prm/pocket_docking_5.prm

>  <SCORE>
-3.93472

>  <SCORE.INTER>
-5.21281

>  <SCORE.INTER.CONST>
1

>  <SCORE.INTER.POLAR>
-1.68894

>  <SCORE.INTER.ROT>
6

>  <SCORE.INTER.SOLV>
9.42165

>  <SCORE.INTER.VDW>
-8.58595

>  <SCORE.INTER.norm>
-0.168155

>  <SCORE.INTRA>
1.27809

>  <SCORE.INTRA.DIHEDRAL>
-1.17754

>  <SCORE.INTRA.DIHEDRAL.0>
9.37739

>  <SCORE.INTRA.POLAR>
0

>  <SCORE.INTRA.POLAR.0>
0

>  <SCORE.INTRA.REPUL>
0

>  <SCORE.INTRA.REPUL.0>
0

>  <SCORE.INTRA.SOLV>
0.89473

>  <SCORE.INTRA.SOLV.lig_0>
-82.9274

>  <SCORE.INTRA.VDW>
1.41949

>  <SCORE.INTRA.VDW.0>
-3.84922

>  <SCORE.INTRA.norm>
0.0412287

>  <SCORE.RESTR>
0

>  <SCORE.RESTR.CAVITY>
0

>  <SCORE.RESTR.norm>
0

>  <SCORE.SYSTEM>
0

>  <SCORE.SYSTEM.CONST>
0

>  <SCORE.SYSTEM.DIHEDRAL>
0

>  <SCORE.SYSTEM.SOLV>
0

>  <SCORE.SYSTEM.norm>
0

>  <SCORE.heavy>
31

>  <SCORE.norm>
-0.126926

>  <RMSD>
6.138

$$$$
2o3x_lig
 OpenBabel11021811463D
libRbt.so/2013.1/901 2013/11/27
 31 33  0  0  0  0  0  0  0  0999 V2000
   17.8165   10.2546    7.8197 C   0  0  2  0  0  0  0  0  0  0  0  0
   18.8980    9.3158    7.8854 O   0  0  0  0  0  0  0  0  0  0  0  0
   18.2494    7.6812    3.9860 C   0  0  2  0  0  0  0  0  0  0  0  0
   18.3457    6.8675    2.7539 N   0  0  0  0  0  0  0  0  0  0  0  0
   19.2736    5.7478    7.7867 C   0  0  1  0  0  0  0  0  0  0  0  0
   17.8334   11.1173    9.1212 C   0  0  2  0  0  0  0  0  0  0  0  0
   19.1892   11.6401    9.4282 N   0  0  0  0  0  0  0  0  0  0  0  0
   19.5133    8.5797    4.1979 C   0  0  0  0  0  0  0  0  0  0  0  0
   19.4000    5.0105    9.1602 C   0  0  2  0  0  0  0  0  0  0  0  0
   20.0956    5.7354   10.2113 O   0  0  0  0  0  0  0  0  0  0  0  0
   17.3450   10.3140   10.3414 C   0  0  1  0  0  0  0  0  0  0  0  0
   17.3204   11.1238   11.4895 O   0  0  0  0  0  0  0  0  0  0  0  0
   19.3028    9.4229    5.5083 C   0  0  2  0  0  0  0  0  0  0  0  0
   20.4630   10.3258    5.7730 N   0  0  0  0  0  0  0  0  0  0  0  0
   20.0715    3.7401    8.6660 C   0  0  2  0  0  0  0  0  0  0  0  0
   21.5087    3.9521    8.4485 O   0  0  0  0  0  0  0  0  0  0  0  0
   15.9643    9.7450   10.0610 C   0  0  2  0  0  0  0  0  0  0  0  0
   15.5112    9.0382   11.1705 O   0  0  0  0  0  0  0  0  0  0  0  0
   19.1171    8.4859    6.7357 C   0  0  2  0  0  0  0  0  0  0  0  0
   19.3630    3.4201    7.3550 C   0  0  2  0  0  0  0  0  0  0  0  0
   19.2588    4.7224    6.7860 O   0  0  0  0  0  0  0  0  0  0  0  0
   16.0171    8.8148    8.8162 C   0  0  2  0  0  0  0  0  0  0  0  0
   16.5030    9.5559    7.6762 O   0  0  0  0  0  0  0  0  0  0  0  0
   17.9470    7.4953    6.5748 C   0  0  2  0  0  0  0  0  0  0  0  0
   18.0860    6.5495    7.6929 O   0  0  0  0  0  0  0  0  0  0  0  0
   17.9460    2.7716    7.5120 C   0  0  0  0  0  0  0  0  0  0  0  0
   17.4419    2.3829    6.2373 N   0  0  0  0  0  0  0  0  0  0  0  0
   14.6663    8.2307    8.4732 C   0  0  0  0  0  0  0  0  0  0  0  0
   13.7957    9.1999    8.0142 O   0  0  0  0  0  0  0  0  0  0  0  0
   18.0584    6.7313    5.1820 C   0  0  1  0  0  0  0  0  0  0  0  0
   16.8739    5.9683    4.9063 O   0  0  0  0  0  0  0  0  0  0  0  0
  1  2  1  1  0  0  0
  1  6  1  0  0  0  0
  1 23  1  0  0  0  0
  3  4  1  6  0  0  0
  3  8  1  0  0  0  0
  3 30  1  0  0  0  0
  5  9  1  0  0  0  0
  5 21  1  0  0  0  0
  5 25  1  1  0  0  0
  6  7  1  1  0  0  0
  6 11  1  0  0  0  0
  8 13  1  0  0  0  0
  9 10  1  1  0  0  0
  9 15  1  0  0  0  0
 11 12  1  1  0  0  0
 11 17  1  0  0  0  0
 13 14  1  1  0  0  0
 13 19  1  0  0  0  0
 15 16  1  6  0  0  0
 15 20  1  0  0  0  0
 17 18  1  1  0  0  0
 17 22  1  0  0  0  0
 19  2  1  1  0  0  0
 19 24  1  0  0  0  0
 20 21  1  0  0  0  0
 20 26  1  1  0  0  0
 22 23  1  0  0  0  0
 22 28  1  6  0  0  0
 24 25  1  1  0  0  0
 24 30  1  0  0  0  0
 26 27  1  0  0  0  0
 28 29  1  0  0  0  0
 30 31  1  6  0  0  0
M  END
>  <CHROM.1>
-175.68727735,168.68033672,55.61468478,-173.67705021,68.44331867,-61.41660581
18.08277213,7.53972562,7.64117972,-3.01143870,-1.23488741,2.13662224

>  <Name>
2o3x_lig

>  <RI>
0

>  <Rbt.Current_Directory>
/home/itssahil/PROJECTS/Mol_Feturizer/New_Systems/rnas/2o3x

>  <Rbt.Executable>
rbdock ($Id: //depot/dev/client3/rdock/2013.1/src/exe/rbdock.cxx#4 $)

>  <Rbt.Library>
libRbt.so (2013.1, Build901 2013/11/27)

>  <Rbt.Parameter_File>
/export/apps/rDock/src/rDock_2013.1_src/data/scripts/dock_solv.prm

>  <Rbt.Receptor>
prm/pocket_docking_8.prm

>  <SCORE>
-8.61924

>  <SCORE.INTER>
-5.88882

>  <SCORE.INTER.CONST>
1

>  <SCORE.INTER.POLAR>
-1.69004

>  <SCORE.INTER.ROT>
6

>  <SCORE.INTER.SOLV>
13.5931

>  <SCORE.INTER.VDW>
-10.4234

>  <SCORE.INTER.norm>
-0.189962

>  <SCORE.INTRA>
-2.73042

>  <SCORE.INTRA.DIHEDRAL>
-8.00398

>  <SCORE.INTRA.DIHEDRAL.0>
9.37739

>  <SCORE.INTRA.POLAR>
0

>  <SCORE.INTRA.POLAR.0>
0

>  <SCORE.INTRA.REPUL>
0

>  <SCORE.INTRA.REPUL.0>
0

>  <SCORE.INTRA.SOLV>
-1.32911

>  <SCORE.INTRA.SOLV.lig_0>
-82.9274

>  <SCORE.INTRA.VDW>
1.93612

>  <SCORE.INTRA.VDW.0>
-3.84922

>  <SCORE.INTRA.norm>
-0.0880781

>  <SCORE.RESTR>
0

>  <SCORE.RESTR.CAVITY>
0

>  <SCORE.RESTR.norm>
0

>  <SCORE.SYSTEM>
0

>  <SCORE.SYSTEM.CONST>
0

>  <SCORE.SYSTEM.DIHEDRAL>
0

>  <SCORE.SYSTEM.SOLV>
0

>  <SCORE.SYSTEM.norm>
0

>  <SCORE.heavy>
31

>  <SCORE.norm>
-0.27804

>  <RMSD>
6.169

$$$$
2o3x_lig
 OpenBabel11021811463D
libRbt.so/2013.1/901 2013/11/27
 31 33  0  0  0  0  0  0  0  0999 V2000
   18.7117    9.7362    8.2624 C   0  0  2  0  0  0  0  0  0  0  0  0
   19.4900    9.0328    9.2396 O   0  0  0  0  0  0  0  0  0  0  0  0
   22.8434    6.4084    8.8332 C   0  0  2  0  0  0  0  0  0  0  0  0
   23.7448    5.3108    8.4183 N   0  0  0  0  0  0  0  0  0  0  0  0
   21.4933    9.8025    5.8287 C   0  0  1  0  0  0  0  0  0  0  0  0
   18.2137   11.0726    8.8985 C   0  0  2  0  0  0  0  0  0  0  0  0
   19.3088   11.8115    9.5770 N   0  0  0  0  0  0  0  0  0  0  0  0
   21.5969    5.8809    9.6190 C   0  0  0  0  0  0  0  0  0  0  0  0
   21.9866    9.1631    4.4893 C   0  0  2  0  0  0  0  0  0  0  0  0
   23.3057    8.5520    4.5223 O   0  0  0  0  0  0  0  0  0  0  0  0
   17.0941   10.8290    9.9280 C   0  0  1  0  0  0  0  0  0  0  0  0
   16.6271   12.0475   10.4491 O   0  0  0  0  0  0  0  0  0  0  0  0
   20.7217    7.1174   10.0399 C   0  0  2  0  0  0  0  0  0  0  0  0
   19.5155    6.6985   10.8152 N   0  0  0  0  0  0  0  0  0  0  0  0
   21.8363   10.3828    3.5957 C   0  0  2  0  0  0  0  0  0  0  0  0
   22.9622   11.3095    3.7722 O   0  0  0  0  0  0  0  0  0  0  0  0
   15.9583   10.0575    9.2771 C   0  0  2  0  0  0  0  0  0  0  0  0
   14.9358    9.8563   10.1989 O   0  0  0  0  0  0  0  0  0  0  0  0
   20.2515    7.9054    8.7840 C   0  0  2  0  0  0  0  0  0  0  0  0
   20.5276   11.0235    4.0429 C   0  0  2  0  0  0  0  0  0  0  0  0
   20.6377   10.8902    5.4573 O   0  0  0  0  0  0  0  0  0  0  0  0
   16.4803    8.6922    8.7469 C   0  0  2  0  0  0  0  0  0  0  0  0
   17.5506    8.9145    7.8036 O   0  0  0  0  0  0  0  0  0  0  0  0
   21.4154    8.3851    7.8944 C   0  0  2  0  0  0  0  0  0  0  0  0
   20.7813    8.8728    6.6599 O   0  0  0  0  0  0  0  0  0  0  0  0
   19.2329   10.3132    3.5209 C   0  0  0  0  0  0  0  0  0  0  0  0
   19.1950   10.3496    2.0971 N   0  0  0  0  0  0  0  0  0  0  0  0
   15.3986    7.8834    8.0693 C   0  0  0  0  0  0  0  0  0  0  0  0
   14.8242    8.5792    7.0234 O   0  0  0  0  0  0  0  0  0  0  0  0
   22.4002    7.1754    7.5743 C   0  0  1  0  0  0  0  0  0  0  0  0
   23.6023    7.6325    6.9361 O   0  0  0  0  0  0  0  0  0  0  0  0
  1  2  1  1  0  0  0
  1  6  1  0  0  0  0
  1 23  1  0  0  0  0
  3  4  1  6  0  0  0
  3  8  1  0  0  0  0
  3 30  1  0  0  0  0
  5  9  1  0  0  0  0
  5 21  1  0  0  0  0
  5 25  1  1  0  0  0
  6  7  1  1  0  0  0
  6 11  1  0  0  0  0
  8 13  1  0  0  0  0
  9 10  1  1  0  0  0
  9 15  1  0  0  0  0
 11 12  1  6  0  0  0
 11 17  1  0  0  0  0
 13 14  1  6  0  0  0
 13 19  1  0  0  0  0
 15 16  1  1  0  0  0
 15 20  1  0  0  0  0
 17 18  1  1  0  0  0
 17 22  1  0  0  0  0
 19  2  1  1  0  0  0
 19 24  1  0  0  0  0
 20 21  1  0  0  0  0
 20 26  1  6  0  0  0
 22 23  1  0  0  0  0
 22 28  1  6  0  0  0
 24 25  1  6  0  0  0
 24 30  1  0  0  0  0
 26 27  1  0  0  0  0
 28 29  1  0  0  0  0
 30 31  1  1  0  0  0
M  END
>  <CHROM.1>
-168.45490325,108.73293501,-166.65190807,-61.65901310,57.29125335,158.12227957
19.74207893,9.10711396,7.41635460,2.68197553,-0.43721372,2.11004930

>  <Name>
2o3x_lig

>  <RI>
0

>  <Rbt.Current_Directory>
/home/itssahil/PROJECTS/Mol_Feturizer/New_Systems/rnas/2o3x

>  <Rbt.Executable>
rbdock ($Id: //depot/dev/client3/rdock/2013.1/src/exe/rbdock.cxx#4 $)

>  <Rbt.Library>
libRbt.so (2013.1, Build901 2013/11/27)

>  <Rbt.Parameter_File>
/export/apps/rDock/src/rDock_2013.1_src/data/scripts/dock_solv.prm

>  <Rbt.Receptor>
prm/pocket_docking_5.prm

>  <SCORE>
-14.4949

>  <SCORE.INTER>
-14.9483

>  <SCORE.INTER.CONST>
1

>  <SCORE.INTER.POLAR>
-1.72425

>  <SCORE.INTER.ROT>
6

>  <SCORE.INTER.SOLV>
17.0471

>  <SCORE.INTER.VDW>
-17.5004

>  <SCORE.INTER.norm>
-0.482202

>  <SCORE.INTRA>
0.453406

>  <SCORE.INTRA.DIHEDRAL>
1.00379

>  <SCORE.INTRA.DIHEDRAL.0>
9.37739

>  <SCORE.INTRA.POLAR>
0

>  <SCORE.INTRA.POLAR.0>
0

>  <SCORE.INTRA.REPUL>
0

>  <SCORE.INTRA.REPUL.0>
0

>  <SCORE.INTRA.SOLV>
-1.82155

>  <SCORE.INTRA.SOLV.lig_0>
-82.9274

>  <SCORE.INTRA.VDW>
0.862284

>  <SCORE.INTRA.VDW.0>
-3.84922

>  <SCORE.INTRA.norm>
0.014626

>  <SCORE.RESTR>
0

>  <SCORE.RESTR.CAVITY>
0

>  <SCORE.RESTR.norm>
0

>  <SCORE.SYSTEM>
0

>  <SCORE.SYSTEM.CONST>
0

>  <SCORE.SYSTEM.DIHEDRAL>
0

>  <SCORE.SYSTEM.SOLV>
0

>  <SCORE.SYSTEM.norm>
0

>  <SCORE.heavy>
31

>  <SCORE.norm>
-0.467576

>  <RMSD>
6.170

$$$$
2o3x_lig
 OpenBabel11021811463D
libRbt.so/2013.1/901 2013/11/27
 31 33  0  0  0  0  0  0  0  0999 V2000
   23.3934    6.8587    7.6006 C   0  0  2  0  0  0  0  0  0  0  0  0
   22.7953    6.3664    6.3942 O   0  0  0  0  0  0  0  0  0  0  0  0
   22.0789   10.2130    4.6656 C   0  0  2  0  0  0  0  0  0  0  0  0
   21.5828   11.3161    3.8132 N   0  0  0  0  0  0  0  0  0  0  0  0
   19.3686    6.8498    5.3963 C   0  0  1  0  0  0  0  0  0  0  0  0
   24.1929    5.6934    8.2650 C   0  0  2  0  0  0  0  0  0  0  0  0
   25.0680    4.9898    7.2930 N   0  0  0  0  0  0  0  0  0  0  0  0
   22.9802    9.2127    3.8679 C   0  0  0  0  0  0  0  0  0  0  0  0
   18.2871    5.8205    5.8619 C   0  0  2  0  0  0  0  0  0  0  0  0
   18.7261    4.4384    5.9680 O   0  0  0  0  0  0  0  0  0  0  0  0
   23.2541    4.6514    8.9020 C   0  0  1  0  0  0  0  0  0  0  0  0
   23.9950    3.6404    9.5369 O   0  0  0  0  0  0  0  0  0  0  0  0
   23.4794    8.1010    4.8616 C   0  0  2  0  0  0  0  0  0  0  0  0
   24.3663    7.1118    4.1788 N   0  0  0  0  0  0  0  0  0  0  0  0
   17.2381    6.1100    4.8014 C   0  0  2  0  0  0  0  0  0  0  0  0
   17.5729    5.4499    3.5326 O   0  0  0  0  0  0  0  0  0  0  0  0
   22.3270    5.3349    9.8929 C   0  0  2  0  0  0  0  0  0  0  0  0
   21.4935    4.3922   10.4866 O   0  0  0  0  0  0  0  0  0  0  0  0
   22.2720    7.3381    5.4775 C   0  0  2  0  0  0  0  0  0  0  0  0
   17.2589    7.6264    4.6491 C   0  0  2  0  0  0  0  0  0  0  0  0
   18.6609    7.8772    4.6916 O   0  0  0  0  0  0  0  0  0  0  0  0
   21.4810    6.4187    9.1668 C   0  0  2  0  0  0  0  0  0  0  0  0
   22.3574    7.3816    8.5425 O   0  0  0  0  0  0  0  0  0  0  0  0
   21.2752    8.2612    6.2059 C   0  0  2  0  0  0  0  0  0  0  0  0
   20.1052    7.4164    6.4911 O   0  0  0  0  0  0  0  0  0  0  0  0
   16.5229    8.4139    5.7856 C   0  0  0  0  0  0  0  0  0  0  0  0
   15.1635    7.9957    5.8694 N   0  0  0  0  0  0  0  0  0  0  0  0
   20.5494    7.1498   10.1054 C   0  0  0  0  0  0  0  0  0  0  0  0
   21.1475    8.2738   10.6409 O   0  0  0  0  0  0  0  0  0  0  0  0
   20.8659    9.4811    5.2677 C   0  0  1  0  0  0  0  0  0  0  0  0
   20.1158   10.4694    5.9900 O   0  0  0  0  0  0  0  0  0  0  0  0
  1  2  1  6  0  0  0
  1  6  1  0  0  0  0
  1 23  1  0  0  0  0
  3  4  1  6  0  0  0
  3  8  1  0  0  0  0
  3 30  1  0  0  0  0
  5  9  1  0  0  0  0
  5 21  1  0  0  0  0
  5 25  1  1  0  0  0
  6  7  1  6  0  0  0
  6 11  1  0  0  0  0
  8 13  1  0  0  0  0
  9 10  1  6  0  0  0
  9 15  1  0  0  0  0
 11 12  1  1  0  0  0
 11 17  1  0  0  0  0
 13 14  1  6  0  0  0
 13 19  1  0  0  0  0
 15 16  1  6  0  0  0
 15 20  1  0  0  0  0
 17 18  1  6  0  0  0
 17 22  1  0  0  0  0
 19  2  1  1  0  0  0
 19 24  1  0  0  0  0
 20 21  1  0  0  0  0
 20 26  1  1  0  0  0
 22 23  1  0  0  0  0
 22 28  1  1  0  0  0
 24 25  1  6  0  0  0
 24 30  1  0  0  0  0
 26 27  1  0  0  0  0
 28 29  1  0  0  0  0
 30 31  1  1  0  0  0
M  END
>  <CHROM.1>
-166.25356638,171.82013811,69.47360528,-57.66224562,90.66071608,-62.26379369
20.94733937,7.09524761,6.61883881,-0.72982089,-0.15295242,-0.85918716

>  <Name>
2o3x_lig

>  <RI>
0

>  <Rbt.Current_Directory>
/home/itssahil/PROJECTS/Mol_Feturizer/New_Systems/rnas/2o3x

>  <Rbt.Executable>
rbdock ($Id: //depot/dev/client3/rdock/2013.1/src/exe/rbdock.cxx#4 $)

>  <Rbt.Library>
libRbt.so (2013.1, Build901 2013/11/27)

>  <Rbt.Parameter_File>
/export/apps/rDock/src/rDock_2013.1_src/data/scripts/dock_solv.prm

>  <Rbt.Receptor>
prm/pocket_docking_4.prm

>  <SCORE>
-10.7072

>  <SCORE.INTER>
-10.1205

>  <SCORE.INTER.CONST>
1

>  <SCORE.INTER.POLAR>
-1.60987

>  <SCORE.INTER.ROT>
6

>  <SCORE.INTER.SOLV>
14.6176

>  <SCORE.INTER.VDW>
-13.8533

>  <SCORE.INTER.norm>
-0.326469

>  <SCORE.INTRA>
-0.586633

>  <SCORE.INTRA.DIHEDRAL>
-4.77419

>  <SCORE.INTRA.DIHEDRAL.0>
9.37739

>  <SCORE.INTRA.POLAR>
0

>  <SCORE.INTRA.POLAR.0>
0

>  <SCORE.INTRA.REPUL>
0

>  <SCORE.INTRA.REPUL.0>
0

>  <SCORE.INTRA.SOLV>
-0.900856

>  <SCORE.INTRA.SOLV.lig_0>
-82.9274

>  <SCORE.INTRA.VDW>
2.25089

>  <SCORE.INTRA.VDW.0>
-3.84922

>  <SCORE.INTRA.norm>
-0.0189236

>  <SCORE.RESTR>
0

>  <SCORE.RESTR.CAVITY>
0

>  <SCORE.RESTR.norm>
0

>  <SCORE.SYSTEM>
0

>  <SCORE.SYSTEM.CONST>
0

>  <SCORE.SYSTEM.DIHEDRAL>
0

>  <SCORE.SYSTEM.SOLV>
0

>  <SCORE.SYSTEM.norm>
0

>  <SCORE.heavy>
31

>  <SCORE.norm>
-0.345392

>  <RMSD>
6.179

$$$$
2o3x_lig
 OpenBabel11021811463D
libRbt.so/2013.1/901 2013/11/27
 31 33  0  0  0  0  0  0  0  0999 V2000
   20.2240    8.3661    8.8539 C   0  0  2  0  0  0  0  0  0  0  0  0
   21.6570    8.3977    8.8857 O   0  0  0  0  0  0  0  0  0  0  0  0
   24.5156    7.3200    5.8917 C   0  0  2  0  0  0  0  0  0  0  0  0
   25.2932    6.5821    4.8716 N   0  0  0  0  0  0  0  0  0  0  0  0
   20.0401    8.3013    5.0862 C   0  0  1  0  0  0  0  0  0  0  0  0
   19.6855    9.4819    9.8045 C   0  0  2  0  0  0  0  0  0  0  0  0
   20.3567   10.7863    9.5725 N   0  0  0  0  0  0  0  0  0  0  0  0
   24.6947    6.7109    7.3222 C   0  0  0  0  0  0  0  0  0  0  0  0
   19.0810    7.2892    4.3777 C   0  0  2  0  0  0  0  0  0  0  0  0
   19.6823    6.4524    3.3517 O   0  0  0  0  0  0  0  0  0  0  0  0
   19.8746    9.1057   11.2862 C   0  0  1  0  0  0  0  0  0  0  0  0
   19.3377   10.0998   12.1217 O   0  0  0  0  0  0  0  0  0  0  0  0
   23.8589    7.5774    8.3336 C   0  0  2  0  0  0  0  0  0  0  0  0
   23.9923    7.0705    9.7323 N   0  0  0  0  0  0  0  0  0  0  0  0
   18.0300    8.2787    3.9032 C   0  0  2  0  0  0  0  0  0  0  0  0
   18.4725    8.9789    2.6901 O   0  0  0  0  0  0  0  0  0  0  0  0
   19.2161    7.7646   11.5625 C   0  0  2  0  0  0  0  0  0  0  0  0
   19.3656    7.4334   12.9055 O   0  0  0  0  0  0  0  0  0  0  0  0
   22.3525    7.5657    7.9464 C   0  0  2  0  0  0  0  0  0  0  0  0
   17.8698    9.2509    5.0661 C   0  0  2  0  0  0  0  0  0  0  0  0
   19.2295    9.4236    5.4556 O   0  0  0  0  0  0  0  0  0  0  0  0
   19.8524    6.6665   10.6642 C   0  0  2  0  0  0  0  0  0  0  0  0
   19.7041    7.0294    9.2745 O   0  0  0  0  0  0  0  0  0  0  0  0
   22.0882    8.0625    6.5113 C   0  0  2  0  0  0  0  0  0  0  0  0
   20.6762    7.7453    6.2474 O   0  0  0  0  0  0  0  0  0  0  0  0
   17.0168    8.7118    6.2641 C   0  0  0  0  0  0  0  0  0  0  0  0
   16.9436    9.6940    7.2936 N   0  0  0  0  0  0  0  0  0  0  0  0
   19.2251    5.3087   10.8790 C   0  0  0  0  0  0  0  0  0  0  0  0
   17.8879    5.3066   10.5330 O   0  0  0  0  0  0  0  0  0  0  0  0
   23.0324    7.2998    5.4805 C   0  0  1  0  0  0  0  0  0  0  0  0
   22.9677    7.8908    4.1737 O   0  0  0  0  0  0  0  0  0  0  0  0
  1  2  1  1  0  0  0
  1  6  1  0  0  0  0
  1 23  1  0  0  0  0
  3  4  1  6  0  0  0
  3  8  1  0  0  0  0
  3 30  1  0  0  0  0
  5  9  1  0  0  0  0
  5 21  1  0  0  0  0
  5 25  1  1  0  0  0
  6  7  1  6  0  0  0
  6 11  1  0  0  0  0
  8 13  1  0  0  0  0
  9 10  1  6  0  0  0
  9 15  1  0  0  0  0
 11 12  1  1  0  0  0
 11 17  1  0  0  0  0
 13 14  1  1  0  0  0
 13 19  1  0  0  0  0
 15 16  1  6  0  0  0
 15 20  1  0  0  0  0
 17 18  1  1  0  0  0
 17 22  1  0  0  0  0
 19  2  1  1  0  0  0
 19 24  1  0  0  0  0
 20 21  1  0  0  0  0
 20 26  1  1  0  0  0
 22 23  1  0  0  0  0
 22 28  1  6  0  0  0
 24 25  1  6  0  0  0
 24 30  1  0  0  0  0
 26 27  1  0  0  0  0
 28 29  1  0  0  0  0
 30 31  1  6  0  0  0
M  END
>  <CHROM.1>
-172.06949856,140.43501219,-170.25688064,179.49386634,62.92888426,168.46349628
20.48965259,7.92836186,7.62572255,1.77639691,-0.23402875,1.61210694

>  <Name>
2o3x_lig

>  <RI>
0

>  <Rbt.Current_Directory>
/home/itssahil/PROJECTS/Mol_Feturizer/New_Systems/rnas/2o3x

>  <Rbt.Executable>
rbdock ($Id: //depot/dev/client3/rdock/2013.1/src/exe/rbdock.cxx#4 $)

>  <Rbt.Library>
libRbt.so (2013.1, Build901 2013/11/27)

>  <Rbt.Parameter_File>
/export/apps/rDock/src/rDock_2013.1_src/data/scripts/dock_solv.prm

>  <Rbt.Receptor>
prm/pocket_docking_3.prm

>  <SCORE>
-6.74002

>  <SCORE.INTER>
-5.56648

>  <SCORE.INTER.CONST>
1

>  <SCORE.INTER.POLAR>
-0.757836

>  <SCORE.INTER.ROT>
6

>  <SCORE.INTER.SOLV>
17.3724

>  <SCORE.INTER.VDW>
-14.5756

>  <SCORE.INTER.norm>
-0.179564

>  <SCORE.INTRA>
-1.18526

>  <SCORE.INTRA.DIHEDRAL>
-2.44813

>  <SCORE.INTRA.DIHEDRAL.0>
9.37739

>  <SCORE.INTRA.POLAR>
0

>  <SCORE.INTRA.POLAR.0>
0

>  <SCORE.INTRA.REPUL>
0

>  <SCORE.INTRA.REPUL.0>
0

>  <SCORE.INTRA.SOLV>
-1.34309

>  <SCORE.INTRA.SOLV.lig_0>
-82.9274

>  <SCORE.INTRA.VDW>
0.71035

>  <SCORE.INTRA.VDW.0>
-3.84922

>  <SCORE.INTRA.norm>
-0.0382342

>  <SCORE.RESTR>
0.0117137

>  <SCORE.RESTR.CAVITY>
0.0117137

>  <SCORE.RESTR.norm>
0.000377862

>  <SCORE.SYSTEM>
0

>  <SCORE.SYSTEM.CONST>
0

>  <SCORE.SYSTEM.DIHEDRAL>
0

>  <SCORE.SYSTEM.SOLV>
0

>  <SCORE.SYSTEM.norm>
0

>  <SCORE.heavy>
31

>  <SCORE.norm>
-0.21742

>  <RMSD>
6.191

$$$$
2o3x_lig
 OpenBabel11021811463D
libRbt.so/2013.1/901 2013/11/27
 31 33  0  0  0  0  0  0  0  0999 V2000
   17.3852    6.8795    9.4152 C   0  0  2  0  0  0  0  0  0  0  0  0
   17.5662    6.8766    7.9929 O   0  0  0  0  0  0  0  0  0  0  0  0
   21.8218    7.3020    8.0777 C   0  0  2  0  0  0  0  0  0  0  0  0
   23.2497    7.3678    7.6953 N   0  0  0  0  0  0  0  0  0  0  0  0
   18.8541    8.5655    5.1044 C   0  0  1  0  0  0  0  0  0  0  0  0
   15.9180    7.3158    9.7240 C   0  0  2  0  0  0  0  0  0  0  0  0
   14.9289    6.5756    8.8995 N   0  0  0  0  0  0  0  0  0  0  0  0
   21.2373    5.8584    7.9233 C   0  0  0  0  0  0  0  0  0  0  0  0
   17.6961    9.0889    4.1926 C   0  0  2  0  0  0  0  0  0  0  0  0
   16.5088    8.2521    4.1266 O   0  0  0  0  0  0  0  0  0  0  0  0
   15.7099    8.8223    9.4791 C   0  0  1  0  0  0  0  0  0  0  0  0
   14.3984    9.2014    9.8116 O   0  0  0  0  0  0  0  0  0  0  0  0
   19.7329    5.8857    8.3800 C   0  0  2  0  0  0  0  0  0  0  0  0
   19.1038    4.5346    8.2805 N   0  0  0  0  0  0  0  0  0  0  0  0
   18.4834    9.2367    2.9014 C   0  0  2  0  0  0  0  0  0  0  0  0
   18.6566    7.9385    2.2363 O   0  0  0  0  0  0  0  0  0  0  0  0
   16.7169    9.6176   10.2928 C   0  0  2  0  0  0  0  0  0  0  0  0
   16.5161   10.9795   10.0911 O   0  0  0  0  0  0  0  0  0  0  0  0
   18.9148    6.8764    7.5033 C   0  0  2  0  0  0  0  0  0  0  0  0
   19.8269    9.8090    3.3381 C   0  0  2  0  0  0  0  0  0  0  0  0
   20.0694    9.0451    4.5162 O   0  0  0  0  0  0  0  0  0  0  0  0
   18.1629    9.2208    9.8811 C   0  0  2  0  0  0  0  0  0  0  0  0
   18.3533    7.8035   10.0807 O   0  0  0  0  0  0  0  0  0  0  0  0
   19.4774    8.3115    7.5187 C   0  0  2  0  0  0  0  0  0  0  0  0
   18.7447    9.0241    6.4608 O   0  0  0  0  0  0  0  0  0  0  0  0
   19.8165   11.3406    3.6660 C   0  0  0  0  0  0  0  0  0  0  0  0
   20.9142   11.6670    4.5135 N   0  0  0  0  0  0  0  0  0  0  0  0
   19.2138    9.9659   10.6708 C   0  0  0  0  0  0  0  0  0  0  0  0
   20.4575    9.8705   10.0774 O   0  0  0  0  0  0  0  0  0  0  0  0
   21.0379    8.2960    7.2020 C   0  0  1  0  0  0  0  0  0  0  0  0
   21.6309    9.5845    7.4241 O   0  0  0  0  0  0  0  0  0  0  0  0
  1  2  1  6  0  0  0
  1  6  1  0  0  0  0
  1 23  1  0  0  0  0
  3  4  1  6  0  0  0
  3  8  1  0  0  0  0
  3 30  1  0  0  0  0
  5  9  1  0  0  0  0
  5 21  1  0  0  0  0
  5 25  1  1  0  0  0
  6  7  1  6  0  0  0
  6 11  1  0  0  0  0
  8 13  1  0  0  0  0
  9 10  1  6  0  0  0
  9 15  1  0  0  0  0
 11 12  1  1  0  0  0
 11 17  1  0  0  0  0
 13 14  1  6  0  0  0
 13 19  1  0  0  0  0
 15 16  1  1  0  0  0
 15 20  1  0  0  0  0
 17 18  1  6  0  0  0
 17 22  1  0  0  0  0
 19  2  1  1  0  0  0
 19 24  1  0  0  0  0
 20 21  1  0  0  0  0
 20 26  1  1  0  0  0
 22 23  1  0  0  0  0
 22 28  1  1  0  0  0
 24 25  1  6  0  0  0
 24 30  1  0  0  0  0
 26 27  1  0  0  0  0
 28 29  1  0  0  0  0
 30 31  1  1  0  0  0
M  END
>  <CHROM.1>
162.86556061,161.02365953,42.04731332,158.20889819,-164.51130991,-61.17132158
18.73092903,8.44880982,7.33480932,2.02170537,-0.15166903,1.81832534

>  <Name>
2o3x_lig

>  <RI>
0

>  <Rbt.Current_Directory>
/home/itssahil/PROJECTS/Mol_Feturizer/New_Systems/rnas/2o3x

>  <Rbt.Executable>
rbdock ($Id: //depot/dev/client3/rdock/2013.1/src/exe/rbdock.cxx#4 $)

>  <Rbt.Library>
libRbt.so (2013.1, Build901 2013/11/27)

>  <Rbt.Parameter_File>
/export/apps/rDock/src/rDock_2013.1_src/data/scripts/dock_solv.prm

>  <Rbt.Receptor>
prm/pocket_docking_3.prm

>  <SCORE>
-7.73072

>  <SCORE.INTER>
-9.35864

>  <SCORE.INTER.CONST>
1

>  <SCORE.INTER.POLAR>
-1.55945

>  <SCORE.INTER.ROT>
6

>  <SCORE.INTER.SOLV>
15.5214

>  <SCORE.INTER.VDW>
-13.8147

>  <SCORE.INTER.norm>
-0.301892

>  <SCORE.INTRA>
1.62792

>  <SCORE.INTRA.DIHEDRAL>
-2.4055

>  <SCORE.INTRA.DIHEDRAL.0>
9.37739

>  <SCORE.INTRA.POLAR>
0

>  <SCORE.INTRA.POLAR.0>
0

>  <SCORE.INTRA.REPUL>
0

>  <SCORE.INTRA.REPUL.0>
0

>  <SCORE.INTRA.SOLV>
0.545044

>  <SCORE.INTRA.SOLV.lig_0>
-82.9274

>  <SCORE.INTRA.VDW>
2.55815

>  <SCORE.INTRA.VDW.0>
-3.84922

>  <SCORE.INTRA.norm>
0.0525136

>  <SCORE.RESTR>
0

>  <SCORE.RESTR.CAVITY>
0

>  <SCORE.RESTR.norm>
0

>  <SCORE.SYSTEM>
0

>  <SCORE.SYSTEM.CONST>
0

>  <SCORE.SYSTEM.DIHEDRAL>
0

>  <SCORE.SYSTEM.SOLV>
0

>  <SCORE.SYSTEM.norm>
0

>  <SCORE.heavy>
31

>  <SCORE.norm>
-0.249378

>  <RMSD>
6.201

$$$$
2o3x_lig
 OpenBabel11021811463D
libRbt.so/2013.1/901 2013/11/27
 31 33  0  0  0  0  0  0  0  0999 V2000
   20.1574    8.3901    9.0861 C   0  0  2  0  0  0  0  0  0  0  0  0
   21.4828    8.0061    9.4752 O   0  0  0  0  0  0  0  0  0  0  0  0
   24.8635    6.4878    7.3389 C   0  0  2  0  0  0  0  0  0  0  0  0
   25.7347    5.7276    6.4157 N   0  0  0  0  0  0  0  0  0  0  0  0
   21.6132    9.6052    5.8171 C   0  0  1  0  0  0  0  0  0  0  0  0
   19.4620    9.0680   10.3089 C   0  0  2  0  0  0  0  0  0  0  0  0
   20.3249   10.0968   10.9436 N   0  0  0  0  0  0  0  0  0  0  0  0
   24.2193    5.5695    8.4303 C   0  0  0  0  0  0  0  0  0  0  0  0
   21.8439    9.3099    4.2987 C   0  0  2  0  0  0  0  0  0  0  0  0
   23.2300    9.2599    3.8623 O   0  0  0  0  0  0  0  0  0  0  0  0
   19.0778    8.0373   11.3872 C   0  0  1  0  0  0  0  0  0  0  0  0
   18.4091    8.6621   12.4533 O   0  0  0  0  0  0  0  0  0  0  0  0
   23.3415    6.4695    9.3746 C   0  0  2  0  0  0  0  0  0  0  0  0
   22.7033    5.6672   10.4610 N   0  0  0  0  0  0  0  0  0  0  0  0
   21.0020   10.4377    3.7257 C   0  0  2  0  0  0  0  0  0  0  0  0
   21.7285   11.7137    3.7680 O   0  0  0  0  0  0  0  0  0  0  0  0
   18.2068    6.9540   10.7734 C   0  0  2  0  0  0  0  0  0  0  0  0
   17.8395    6.0342   11.7505 O   0  0  0  0  0  0  0  0  0  0  0  0
   22.2210    7.1804    8.5633 C   0  0  2  0  0  0  0  0  0  0  0  0
   19.7678   10.4831    4.6188 C   0  0  2  0  0  0  0  0  0  0  0  0
   20.3619   10.2983    5.9007 O   0  0  0  0  0  0  0  0  0  0  0  0
   18.9772    6.2409    9.6265 C   0  0  2  0  0  0  0  0  0  0  0  0
   19.3658    7.2082    8.6274 O   0  0  0  0  0  0  0  0  0  0  0  0
   22.7602    8.0371    7.4007 C   0  0  2  0  0  0  0  0  0  0  0  0
   21.5739    8.4126    6.6161 O   0  0  0  0  0  0  0  0  0  0  0  0
   18.7071    9.3658    4.3360 C   0  0  0  0  0  0  0  0  0  0  0  0
   17.7410    9.3321    5.3826 N   0  0  0  0  0  0  0  0  0  0  0  0
   18.1546    5.1621    8.9610 C   0  0  0  0  0  0  0  0  0  0  0  0
   17.0107    5.6787    8.3845 O   0  0  0  0  0  0  0  0  0  0  0  0
   23.7702    7.1866    6.5106 C   0  0  1  0  0  0  0  0  0  0  0  0
   24.4534    8.0141    5.5569 O   0  0  0  0  0  0  0  0  0  0  0  0
  1  2  1  1  0  0  0
  1  6  1  0  0  0  0
  1 23  1  0  0  0  0
  3  4  1  6  0  0  0
  3  8  1  0  0  0  0
  3 30  1  0  0  0  0
  5  9  1  0  0  0  0
  5 21  1  0  0  0  0
  5 25  1  1  0  0  0
  6  7  1  1  0  0  0
  6 11  1  0  0  0  0
  8 13  1  0  0  0  0
  9 10  1  1  0  0  0
  9 15  1  0  0  0  0
 11 12  1  1  0  0  0
 11 17  1  0  0  0  0
 13 14  1  1  0  0  0
 13 19  1  0  0  0  0
 15 16  1  1  0  0  0
 15 20  1  0  0  0  0
 17 18  1  1  0  0  0
 17 22  1  0  0  0  0
 19  2  1  1  0  0  0
 19 24  1  0  0  0  0
 20 21  1  0  0  0  0
 20 26  1  6  0  0  0
 22 23  1  0  0  0  0
 22 28  1  6  0  0  0
 24 25  1  6  0  0  0
 24 30  1  0  0  0  0
 26 27  1  0  0  0  0
 28 29  1  0  0  0  0
 30 31  1  6  0  0  0
M  END
>  <CHROM.1>
170.56374204,101.61463796,-159.07018988,168.33622605,61.14706478,154.86094942
20.94400167,8.01354237,7.74117722,2.11826061,-0.32826410,2.11952281

>  <Name>
2o3x_lig

>  <RI>
0

>  <Rbt.Current_Directory>
/home/itssahil/PROJECTS/Mol_Feturizer/New_Systems/rnas/2o3x

>  <Rbt.Executable>
rbdock ($Id: //depot/dev/client3/rdock/2013.1/src/exe/rbdock.cxx#4 $)

>  <Rbt.Library>
libRbt.so (2013.1, Build901 2013/11/27)

>  <Rbt.Parameter_File>
/export/apps/rDock/src/rDock_2013.1_src/data/scripts/dock_solv.prm

>  <Rbt.Receptor>
prm/pocket_docking_3.prm

>  <SCORE>
-9.92036

>  <SCORE.INTER>
-11.4129

>  <SCORE.INTER.CONST>
1

>  <SCORE.INTER.POLAR>
-1.75466

>  <SCORE.INTER.ROT>
6

>  <SCORE.INTER.SOLV>
16.5066

>  <SCORE.INTER.VDW>
-14.8619

>  <SCORE.INTER.norm>
-0.368158

>  <SCORE.INTRA>
1.49255

>  <SCORE.INTRA.DIHEDRAL>
1.98644

>  <SCORE.INTRA.DIHEDRAL.0>
9.37739

>  <SCORE.INTRA.POLAR>
0

>  <SCORE.INTRA.POLAR.0>
0

>  <SCORE.INTRA.REPUL>
0

>  <SCORE.INTRA.REPUL.0>
0

>  <SCORE.INTRA.SOLV>
-1.20122

>  <SCORE.INTRA.SOLV.lig_0>
-82.9274

>  <SCORE.INTRA.VDW>
1.09994

>  <SCORE.INTRA.VDW.0>
-3.84922

>  <SCORE.INTRA.norm>
0.0481467

>  <SCORE.RESTR>
0

>  <SCORE.RESTR.CAVITY>
0

>  <SCORE.RESTR.norm>
0

>  <SCORE.SYSTEM>
0

>  <SCORE.SYSTEM.CONST>
0

>  <SCORE.SYSTEM.DIHEDRAL>
0

>  <SCORE.SYSTEM.SOLV>
0

>  <SCORE.SYSTEM.norm>
0

>  <SCORE.heavy>
31

>  <SCORE.norm>
-0.320012

>  <RMSD>
6.239

$$$$
2o3x_lig
 OpenBabel11021811463D
libRbt.so/2013.1/901 2013/11/27
 31 33  0  0  0  0  0  0  0  0999 V2000
   24.5957    5.5824    6.8400 C   0  0  2  0  0  0  0  0  0  0  0  0
   24.3239    6.9787    7.0191 O   0  0  0  0  0  0  0  0  0  0  0  0
   20.6479    6.4168    9.1333 C   0  0  2  0  0  0  0  0  0  0  0  0
   19.3450    6.6382    9.7988 N   0  0  0  0  0  0  0  0  0  0  0  0
   21.2653    8.8522    5.6457 C   0  0  1  0  0  0  0  0  0  0  0  0
   26.0680    5.4271    6.3431 C   0  0  2  0  0  0  0  0  0  0  0  0
   27.0209    6.2210    7.1601 N   0  0  0  0  0  0  0  0  0  0  0  0
   21.8224    7.1226    9.8896 C   0  0  0  0  0  0  0  0  0  0  0  0
   21.5037    9.6473    4.3201 C   0  0  2  0  0  0  0  0  0  0  0  0
   22.7103   10.4571    4.2706 O   0  0  0  0  0  0  0  0  0  0  0  0
   26.2207    5.8645    4.8740 C   0  0  1  0  0  0  0  0  0  0  0  0
   27.5406    5.6685    4.4339 O   0  0  0  0  0  0  0  0  0  0  0  0
   23.1599    6.8047    9.1265 C   0  0  2  0  0  0  0  0  0  0  0  0
   24.3381    7.4298    9.7990 N   0  0  0  0  0  0  0  0  0  0  0  0
   20.1871   10.4048    4.2791 C   0  0  2  0  0  0  0  0  0  0  0  0
   20.2143   11.5615    5.1840 O   0  0  0  0  0  0  0  0  0  0  0  0
   25.2477    5.0866    4.0040 C   0  0  2  0  0  0  0  0  0  0  0  0
   25.3998    5.4635    2.6734 O   0  0  0  0  0  0  0  0  0  0  0  0
   23.0912    7.3295    7.6639 C   0  0  2  0  0  0  0  0  0  0  0  0
   19.1471    9.3852    4.7285 C   0  0  2  0  0  0  0  0  0  0  0  0
   19.8441    8.7496    5.7965 O   0  0  0  0  0  0  0  0  0  0  0  0
   23.7891    5.3501    4.4738 C   0  0  2  0  0  0  0  0  0  0  0  0
   23.6487    4.9695    5.8595 O   0  0  0  0  0  0  0  0  0  0  0  0
   21.9022    6.7579    6.8665 C   0  0  2  0  0  0  0  0  0  0  0  0
   21.8576    7.5442    5.6241 O   0  0  0  0  0  0  0  0  0  0  0  0
   18.7348    8.3387    3.6385 C   0  0  0  0  0  0  0  0  0  0  0  0
   17.7333    7.4654    4.1526 N   0  0  0  0  0  0  0  0  0  0  0  0
   22.7721    4.5871    3.6572 C   0  0  0  0  0  0  0  0  0  0  0  0
   21.4816    4.9711    3.9660 O   0  0  0  0  0  0  0  0  0  0  0  0
   20.5498    6.9369    7.6878 C   0  0  1  0  0  0  0  0  0  0  0  0
   19.4655    6.2230    7.0748 O   0  0  0  0  0  0  0  0  0  0  0  0
  1  2  1  6  0  0  0
  1  6  1  0  0  0  0
  1 23  1  0  0  0  0
  3  4  1  1  0  0  0
  3  8  1  0  0  0  0
  3 30  1  0  0  0  0
  5  9  1  0  0  0  0
  5 21  1  0  0  0  0
  5 25  1  6  0  0  0
  6  7  1  1  0  0  0
  6 11  1  0  0  0  0
  8 13  1  0  0  0  0
  9 10  1  1  0  0  0
  9 15  1  0  0  0  0
 11 12  1  6  0  0  0
 11 17  1  0  0  0  0
 13 14  1  1  0  0  0
 13 19  1  0  0  0  0
 15 16  1  1  0  0  0
 15 20  1  0  0  0  0
 17 18  1  6  0  0  0
 17 22  1  0  0  0  0
 19  2  1  6  0  0  0
 19 24  1  0  0  0  0
 20 21  1  0  0  0  0
 20 26  1  6  0  0  0
 22 23  1  0  0  0  0
 22 28  1  6  0  0  0
 24 25  1  6  0  0  0
 24 30  1  0  0  0  0
 26 27  1  0  0  0  0
 28 29  1  0  0  0  0
 30 31  1  6  0  0  0
M  END
>  <CHROM.1>
-170.82544557,170.54209795,65.04353830,-178.24469878,-171.76444148,-79.40513915
22.44167882,7.11043611,5.95835287,0.05678280,-0.47754040,1.74169516

>  <Name>
2o3x_lig

>  <RI>
0

>  <Rbt.Current_Directory>
/home/itssahil/PROJECTS/Mol_Feturizer/New_Systems/rnas/2o3x

>  <Rbt.Executable>
rbdock ($Id: //depot/dev/client3/rdock/2013.1/src/exe/rbdock.cxx#4 $)

>  <Rbt.Library>
libRbt.so (2013.1, Build901 2013/11/27)

>  <Rbt.Parameter_File>
/export/apps/rDock/src/rDock_2013.1_src/data/scripts/dock_solv.prm

>  <Rbt.Receptor>
prm/pocket_docking_4.prm

>  <SCORE>
-10.2747

>  <SCORE.INTER>
-8.75576

>  <SCORE.INTER.CONST>
1

>  <SCORE.INTER.POLAR>
-1.36936

>  <SCORE.INTER.ROT>
6

>  <SCORE.INTER.SOLV>
16.5758

>  <SCORE.INTER.VDW>
-14.3979

>  <SCORE.INTER.norm>
-0.282444

>  <SCORE.INTRA>
-1.52247

>  <SCORE.INTRA.DIHEDRAL>
-6.27631

>  <SCORE.INTRA.DIHEDRAL.0>
9.37739

>  <SCORE.INTRA.POLAR>
0

>  <SCORE.INTRA.POLAR.0>
0

>  <SCORE.INTRA.REPUL>
0

>  <SCORE.INTRA.REPUL.0>
0

>  <SCORE.INTRA.SOLV>
-0.537745

>  <SCORE.INTRA.SOLV.lig_0>
-82.9274

>  <SCORE.INTRA.VDW>
1.88456

>  <SCORE.INTRA.VDW.0>
-3.84922

>  <SCORE.INTRA.norm>
-0.049112

>  <SCORE.RESTR>
0.00353576

>  <SCORE.RESTR.CAVITY>
0.00353576

>  <SCORE.RESTR.norm>
0.000114057

>  <SCORE.SYSTEM>
0

>  <SCORE.SYSTEM.CONST>
0

>  <SCORE.SYSTEM.DIHEDRAL>
0

>  <SCORE.SYSTEM.SOLV>
0

>  <SCORE.SYSTEM.norm>
0

>  <SCORE.heavy>
31

>  <SCORE.norm>
-0.331442

>  <RMSD>
6.239

$$$$
2o3x_lig
 OpenBabel11021811463D
libRbt.so/2013.1/901 2013/11/27
 31 33  0  0  0  0  0  0  0  0999 V2000
   18.8362    9.2176    8.2986 C   0  0  2  0  0  0  0  0  0  0  0  0
   19.0251    7.9135    8.8635 O   0  0  0  0  0  0  0  0  0  0  0  0
   20.4064    4.2026    7.2450 C   0  0  2  0  0  0  0  0  0  0  0  0
   20.6208    3.0263    6.3733 N   0  0  0  0  0  0  0  0  0  0  0  0
   19.7937    7.8810    5.1049 C   0  0  1  0  0  0  0  0  0  0  0  0
   18.9311   10.2706    9.4478 C   0  0  2  0  0  0  0  0  0  0  0  0
   20.1211   10.0527   10.3093 N   0  0  0  0  0  0  0  0  0  0  0  0
   18.9535    4.2482    7.8249 C   0  0  0  0  0  0  0  0  0  0  0  0
   18.3287    8.4255    5.1636 C   0  0  2  0  0  0  0  0  0  0  0  0
   17.3031    7.4589    5.5214 O   0  0  0  0  0  0  0  0  0  0  0  0
   17.6807   10.2442   10.3470 C   0  0  1  0  0  0  0  0  0  0  0  0
   17.7655   11.2329   11.3418 O   0  0  0  0  0  0  0  0  0  0  0  0
   18.8353    5.5096    8.7562 C   0  0  2  0  0  0  0  0  0  0  0  0
   17.4766    5.6157    9.3677 N   0  0  0  0  0  0  0  0  0  0  0  0
   18.2501    8.9951    3.7570 C   0  0  2  0  0  0  0  0  0  0  0  0
   18.0033    7.9351    2.7705 O   0  0  0  0  0  0  0  0  0  0  0  0
   16.4358   10.4462    9.4997 C   0  0  2  0  0  0  0  0  0  0  0  0
   15.3067   10.4457   10.3126 O   0  0  0  0  0  0  0  0  0  0  0  0
   19.1165    6.8102    7.9509 C   0  0  2  0  0  0  0  0  0  0  0  0
   19.6111    9.6431    3.5320 C   0  0  2  0  0  0  0  0  0  0  0  0
   20.4690    8.6656    4.1142 O   0  0  0  0  0  0  0  0  0  0  0  0
   16.3311    9.3188    8.4340 C   0  0  2  0  0  0  0  0  0  0  0  0
   17.5150    9.3202    7.6073 O   0  0  0  0  0  0  0  0  0  0  0  0
   20.4954    6.8141    7.2616 C   0  0  2  0  0  0  0  0  0  0  0  0
   20.4749    7.9802    6.3651 O   0  0  0  0  0  0  0  0  0  0  0  0
   19.8040   11.0322    4.2296 C   0  0  0  0  0  0  0  0  0  0  0  0
   19.9126   10.8606    5.6397 N   0  0  0  0  0  0  0  0  0  0  0  0
   15.1198    9.4749    7.5443 C   0  0  0  0  0  0  0  0  0  0  0  0
   13.9505    9.1973    8.2252 O   0  0  0  0  0  0  0  0  0  0  0  0
   20.6989    5.4734    6.4269 C   0  0  1  0  0  0  0  0  0  0  0  0
   22.0495    5.3485    5.9563 O   0  0  0  0  0  0  0  0  0  0  0  0
  1  2  1  1  0  0  0
  1  6  1  0  0  0  0
  1 23  1  0  0  0  0
  3  4  1  6  0  0  0
  3  8  1  0  0  0  0
  3 30  1  0  0  0  0
  5  9  1  0  0  0  0
  5 21  1  0  0  0  0
  5 25  1  1  0  0  0
  6  7  1  1  0  0  0
  6 11  1  0  0  0  0
  8 13  1  0  0  0  0
  9 10  1  6  0  0  0
  9 15  1  0  0  0  0
 11 12  1  1  0  0  0
 11 17  1  0  0  0  0
 13 14  1  6  0  0  0
 13 19  1  0  0  0  0
 15 16  1  6  0  0  0
 15 20  1  0  0  0  0
 17 18  1  1  0  0  0
 17 22  1  0  0  0  0
 19  2  1  1  0  0  0
 19 24  1  0  0  0  0
 20 21  1  0  0  0  0
 20 26  1  1  0  0  0
 22 23  1  0  0  0  0
 22 28  1  6  0  0  0
 24 25  1  6  0  0  0
 24 30  1  0  0  0  0
 26 27  1  0  0  0  0
 28 29  1  0  0  0  0
 30 31  1  1  0  0  0
M  END
>  <CHROM.1>
-173.52735472,95.52912632,-161.21795620,71.23767617,-71.27804637,-79.08417599
18.60616830,8.18305719,7.20725276,-2.97722636,0.99859252,-0.95853790

>  <Name>
2o3x_lig

>  <RI>
0

>  <Rbt.Current_Directory>
/home/itssahil/PROJECTS/Mol_Feturizer/New_Systems/rnas/2o3x

>  <Rbt.Executable>
rbdock ($Id: //depot/dev/client3/rdock/2013.1/src/exe/rbdock.cxx#4 $)

>  <Rbt.Library>
libRbt.so (2013.1, Build901 2013/11/27)

>  <Rbt.Parameter_File>
/export/apps/rDock/src/rDock_2013.1_src/data/scripts/dock_solv.prm

>  <Rbt.Receptor>
prm/pocket_docking_5.prm

>  <SCORE>
-6.82233

>  <SCORE.INTER>
-8.82174

>  <SCORE.INTER.CONST>
1

>  <SCORE.INTER.POLAR>
-1.62564

>  <SCORE.INTER.ROT>
6

>  <SCORE.INTER.SOLV>
11.9971

>  <SCORE.INTER.VDW>
-12.0614

>  <SCORE.INTER.norm>
-0.284572

>  <SCORE.INTRA>
1.99941

>  <SCORE.INTRA.DIHEDRAL>
-0.294093

>  <SCORE.INTRA.DIHEDRAL.0>
9.37739

>  <SCORE.INTRA.POLAR>
0

>  <SCORE.INTRA.POLAR.0>
0

>  <SCORE.INTRA.REPUL>
0.0103488

>  <SCORE.INTRA.REPUL.0>
0

>  <SCORE.INTRA.SOLV>
3.5945

>  <SCORE.INTRA.SOLV.lig_0>
-82.9274

>  <SCORE.INTRA.VDW>
0.297466

>  <SCORE.INTRA.VDW.0>
-3.84922

>  <SCORE.INTRA.norm>
0.0644972

>  <SCORE.RESTR>
0

>  <SCORE.RESTR.CAVITY>
0

>  <SCORE.RESTR.norm>
0

>  <SCORE.SYSTEM>
0

>  <SCORE.SYSTEM.CONST>
0

>  <SCORE.SYSTEM.DIHEDRAL>
0

>  <SCORE.SYSTEM.SOLV>
0

>  <SCORE.SYSTEM.norm>
0

>  <SCORE.heavy>
31

>  <SCORE.norm>
-0.220075

>  <RMSD>
6.247

$$$$
2o3x_lig
 OpenBabel11021811463D
libRbt.so/2013.1/901 2013/11/27
 31 33  0  0  0  0  0  0  0  0999 V2000
   19.6757    9.0524    9.2453 C   0  0  2  0  0  0  0  0  0  0  0  0
   20.9895    8.6774    9.6800 O   0  0  0  0  0  0  0  0  0  0  0  0
   23.9579    6.0589    8.0584 C   0  0  2  0  0  0  0  0  0  0  0  0
   24.6502    4.8996    7.4532 N   0  0  0  0  0  0  0  0  0  0  0  0
   20.4475    9.1675    6.3104 C   0  0  1  0  0  0  0  0  0  0  0  0
   19.2309   10.3130   10.0524 C   0  0  2  0  0  0  0  0  0  0  0  0
   20.2813   11.3628   10.0740 N   0  0  0  0  0  0  0  0  0  0  0  0
   23.3988    5.7322    9.4832 C   0  0  0  0  0  0  0  0  0  0  0  0
   21.2592    9.4196    4.9975 C   0  0  2  0  0  0  0  0  0  0  0  0
   22.5523   10.0642    5.1612 O   0  0  0  0  0  0  0  0  0  0  0  0
   18.8807    9.9595   11.5102 C   0  0  1  0  0  0  0  0  0  0  0  0
   18.4352   11.0984   12.2023 O   0  0  0  0  0  0  0  0  0  0  0  0
   22.7121    7.0279   10.0508 C   0  0  2  0  0  0  0  0  0  0  0  0
   22.1661    6.8042   11.4230 N   0  0  0  0  0  0  0  0  0  0  0  0
   20.2078   10.2118    4.2386 C   0  0  2  0  0  0  0  0  0  0  0  0
   20.1694   11.6087    4.6914 O   0  0  0  0  0  0  0  0  0  0  0  0
   17.8190    8.8728   11.5331 C   0  0  2  0  0  0  0  0  0  0  0  0
   17.4843    8.5681   12.8487 O   0  0  0  0  0  0  0  0  0  0  0  0
   21.5471    7.4782    9.1239 C   0  0  2  0  0  0  0  0  0  0  0  0
   18.8962    9.5011    4.5513 C   0  0  2  0  0  0  0  0  0  0  0  0
   19.0648    9.2343    5.9408 O   0  0  0  0  0  0  0  0  0  0  0  0
   18.3438    7.6035   10.8043 C   0  0  2  0  0  0  0  0  0  0  0  0
   18.7018    7.9365    9.4457 O   0  0  0  0  0  0  0  0  0  0  0  0
   21.9891    7.7323    7.6691 C   0  0  2  0  0  0  0  0  0  0  0  0
   20.7399    7.8957    6.9096 O   0  0  0  0  0  0  0  0  0  0  0  0
   18.6613    8.1707    3.7586 C   0  0  0  0  0  0  0  0  0  0  0  0
   17.4228    7.5825    4.1459 N   0  0  0  0  0  0  0  0  0  0  0  0
   17.3234    6.4894   10.7764 C   0  0  0  0  0  0  0  0  0  0  0  0
   16.1645    6.8783   10.1331 O   0  0  0  0  0  0  0  0  0  0  0  0
   22.8169    6.4883    7.1186 C   0  0  1  0  0  0  0  0  0  0  0  0
   23.4262    6.7828    5.8524 O   0  0  0  0  0  0  0  0  0  0  0  0
  1  2  1  1  0  0  0
  1  6  1  0  0  0  0
  1 23  1  0  0  0  0
  3  4  1  6  0  0  0
  3  8  1  0  0  0  0
  3 30  1  0  0  0  0
  5  9  1  0  0  0  0
  5 21  1  0  0  0  0
  5 25  1  6  0  0  0
  6  7  1  1  0  0  0
  6 11  1  0  0  0  0
  8 13  1  0  0  0  0
  9 10  1  1  0  0  0
  9 15  1  0  0  0  0
 11 12  1  6  0  0  0
 11 17  1  0  0  0  0
 13 14  1  1  0  0  0
 13 19  1  0  0  0  0
 15 16  1  1  0  0  0
 15 20  1  0  0  0  0
 17 18  1  1  0  0  0
 17 22  1  0  0  0  0
 19  2  1  1  0  0  0
 19 24  1  0  0  0  0
 20 21  1  0  0  0  0
 20 26  1  6  0  0  0
 22 23  1  0  0  0  0
 22 28  1  6  0  0  0
 24 25  1  6  0  0  0
 24 30  1  0  0  0  0
 26 27  1  0  0  0  0
 28 29  1  0  0  0  0
 30 31  1  6  0  0  0
M  END
>  <CHROM.1>
175.74966431,77.23486332,-161.63953775,178.95215016,59.56095669,114.81747005
20.27171515,8.36342376,8.23603897,2.09449933,-0.52336362,1.81369479

>  <Name>
2o3x_lig

>  <RI>
0

>  <Rbt.Current_Directory>
/home/itssahil/PROJECTS/Mol_Feturizer/New_Systems/rnas/2o3x

>  <Rbt.Executable>
rbdock ($Id: //depot/dev/client3/rdock/2013.1/src/exe/rbdock.cxx#4 $)

>  <Rbt.Library>
libRbt.so (2013.1, Build901 2013/11/27)

>  <Rbt.Parameter_File>
/export/apps/rDock/src/rDock_2013.1_src/data/scripts/dock_solv.prm

>  <Rbt.Receptor>
prm/pocket_docking_4.prm

>  <SCORE>
-14.3962

>  <SCORE.INTER>
-14.4419

>  <SCORE.INTER.CONST>
1

>  <SCORE.INTER.POLAR>
-2.43364

>  <SCORE.INTER.ROT>
6

>  <SCORE.INTER.SOLV>
14.1622

>  <SCORE.INTER.VDW>
-13.8365

>  <SCORE.INTER.norm>
-0.465869

>  <SCORE.INTRA>
0.0457182

>  <SCORE.INTRA.DIHEDRAL>
0.850279

>  <SCORE.INTRA.DIHEDRAL.0>
9.37739

>  <SCORE.INTRA.POLAR>
0

>  <SCORE.INTRA.POLAR.0>
0

>  <SCORE.INTRA.REPUL>
0

>  <SCORE.INTRA.REPUL.0>
0

>  <SCORE.INTRA.SOLV>
-1.9314

>  <SCORE.INTRA.SOLV.lig_0>
-82.9274

>  <SCORE.INTRA.VDW>
0.58628

>  <SCORE.INTRA.VDW.0>
-3.84922

>  <SCORE.INTRA.norm>
0.00147478

>  <SCORE.RESTR>
0

>  <SCORE.RESTR.CAVITY>
0

>  <SCORE.RESTR.norm>
0

>  <SCORE.SYSTEM>
0

>  <SCORE.SYSTEM.CONST>
0

>  <SCORE.SYSTEM.DIHEDRAL>
0

>  <SCORE.SYSTEM.SOLV>
0

>  <SCORE.SYSTEM.norm>
0

>  <SCORE.heavy>
31

>  <SCORE.norm>
-0.464394

>  <RMSD>
6.257

$$$$
2o3x_lig
 OpenBabel11021811463D
libRbt.so/2013.1/901 2013/11/27
 31 33  0  0  0  0  0  0  0  0999 V2000
   20.1590    8.3919    9.1191 C   0  0  2  0  0  0  0  0  0  0  0  0
   21.4970    8.0257    9.4812 O   0  0  0  0  0  0  0  0  0  0  0  0
   24.8473    6.4847    7.3135 C   0  0  2  0  0  0  0  0  0  0  0  0
   25.7048    5.7185    6.3823 N   0  0  0  0  0  0  0  0  0  0  0  0
   21.6019    9.6250    5.8245 C   0  0  1  0  0  0  0  0  0  0  0  0
   19.4796    9.0607   10.3559 C   0  0  2  0  0  0  0  0  0  0  0  0
   20.3414   10.1010   10.9731 N   0  0  0  0  0  0  0  0  0  0  0  0
   24.2076    5.5709    8.4112 C   0  0  0  0  0  0  0  0  0  0  0  0
   21.8279    9.3326    4.3048 C   0  0  2  0  0  0  0  0  0  0  0  0
   23.2127    9.2822    3.8643 O   0  0  0  0  0  0  0  0  0  0  0  0
   19.1312    8.0250   11.4416 C   0  0  1  0  0  0  0  0  0  0  0  0
   18.4760    8.6410   12.5212 O   0  0  0  0  0  0  0  0  0  0  0  0
   23.3446    6.4770    9.3635 C   0  0  2  0  0  0  0  0  0  0  0  0
   22.7115    5.6792   10.4562 N   0  0  0  0  0  0  0  0  0  0  0  0
   20.9855   10.4624    3.7366 C   0  0  2  0  0  0  0  0  0  0  0  0
   21.7134   11.7376    3.7795 O   0  0  0  0  0  0  0  0  0  0  0  0
   18.2624    6.9302   10.8455 C   0  0  2  0  0  0  0  0  0  0  0  0
   17.9273    6.0057   11.8297 O   0  0  0  0  0  0  0  0  0  0  0  0
   22.2211    7.1949    8.5625 C   0  0  2  0  0  0  0  0  0  0  0  0
   19.7539   10.5073    4.6334 C   0  0  2  0  0  0  0  0  0  0  0  0
   20.3516   10.3192    5.9131 O   0  0  0  0  0  0  0  0  0  0  0  0
   19.0188    6.2273    9.6830 C   0  0  2  0  0  0  0  0  0  0  0  0
   19.3740    7.1996    8.6763 O   0  0  0  0  0  0  0  0  0  0  0  0
   22.7549    8.0477    7.3946 C   0  0  2  0  0  0  0  0  0  0  0  0
   21.5637    8.4308    6.6211 O   0  0  0  0  0  0  0  0  0  0  0  0
   18.6913    9.3916    4.3513 C   0  0  0  0  0  0  0  0  0  0  0  0
   17.7383    9.3448    5.4094 N   0  0  0  0  0  0  0  0  0  0  0  0
   18.1973    5.1375    9.0342 C   0  0  0  0  0  0  0  0  0  0  0  0
   17.0291    5.6369    8.4920 O   0  0  0  0  0  0  0  0  0  0  0  0
   23.7509    7.1904    6.4954 C   0  0  1  0  0  0  0  0  0  0  0  0
   24.4304    8.0131    5.5349 O   0  0  0  0  0  0  0  0  0  0  0  0
  1  2  1  1  0  0  0
  1  6  1  0  0  0  0
  1 23  1  0  0  0  0
  3  4  1  6  0  0  0
  3  8  1  0  0  0  0
  3 30  1  0  0  0  0
  5  9  1  0  0  0  0
  5 21  1  0  0  0  0
  5 25  1  1  0  0  0
  6  7  1  1  0  0  0
  6 11  1  0  0  0  0
  8 13  1  0  0  0  0
  9 10  1  1  0  0  0
  9 15  1  0  0  0  0
 11 12  1  1  0  0  0
 11 17  1  0  0  0  0
 13 14  1  1  0  0  0
 13 19  1  0  0  0  0
 15 16  1  1  0  0  0
 15 20  1  0  0  0  0
 17 18  1  1  0  0  0
 17 22  1  0  0  0  0
 19  2  1  1  0  0  0
 19 24  1  0  0  0  0
 20 21  1  0  0  0  0
 20 26  1  6  0  0  0
 22 23  1  0  0  0  0
 22 28  1  6  0  0  0
 24 25  1  6  0  0  0
 24 30  1  0  0  0  0
 26 27  1  0  0  0  0
 28 29  1  0  0  0  0
 30 31  1  6  0  0  0
M  END
>  <CHROM.1>
169.74636073,101.21867425,-157.62149426,167.57065369,60.58837469,154.67608071
20.95078340,8.01645022,7.76273825,2.09907522,-0.33807126,2.12241379

>  <Name>
2o3x_lig

>  <RI>
0

>  <Rbt.Current_Directory>
/home/itssahil/PROJECTS/Mol_Feturizer/New_Systems/rnas/2o3x

>  <Rbt.Executable>
rbdock ($Id: //depot/dev/client3/rdock/2013.1/src/exe/rbdock.cxx#4 $)

>  <Rbt.Library>
libRbt.so (2013.1, Build901 2013/11/27)

>  <Rbt.Parameter_File>
/export/apps/rDock/src/rDock_2013.1_src/data/scripts/dock_solv.prm

>  <Rbt.Receptor>
prm/pocket_docking_3.prm

>  <SCORE>
-9.8953

>  <SCORE.INTER>
-11.6156

>  <SCORE.INTER.CONST>
1

>  <SCORE.INTER.POLAR>
-1.76231

>  <SCORE.INTER.ROT>
6

>  <SCORE.INTER.SOLV>
16.4832

>  <SCORE.INTER.VDW>
-14.9637

>  <SCORE.INTER.norm>
-0.374696

>  <SCORE.INTRA>
1.72026

>  <SCORE.INTRA.DIHEDRAL>
2.33592

>  <SCORE.INTRA.DIHEDRAL.0>
9.37739

>  <SCORE.INTRA.POLAR>
0

>  <SCORE.INTRA.POLAR.0>
0

>  <SCORE.INTRA.REPUL>
0

>  <SCORE.INTRA.REPUL.0>
0

>  <SCORE.INTRA.SOLV>
-1.11886

>  <SCORE.INTRA.SOLV.lig_0>
-82.9274

>  <SCORE.INTRA.VDW>
1.11173

>  <SCORE.INTRA.VDW.0>
-3.84922

>  <SCORE.INTRA.norm>
0.0554923

>  <SCORE.RESTR>
0

>  <SCORE.RESTR.CAVITY>
0

>  <SCORE.RESTR.norm>
0

>  <SCORE.SYSTEM>
0

>  <SCORE.SYSTEM.CONST>
0

>  <SCORE.SYSTEM.DIHEDRAL>
0

>  <SCORE.SYSTEM.SOLV>
0

>  <SCORE.SYSTEM.norm>
0

>  <SCORE.heavy>
31

>  <SCORE.norm>
-0.319203

>  <RMSD>
6.262

$$$$
2o3x_lig
 OpenBabel11021811463D
libRbt.so/2013.1/901 2013/11/27
 31 33  0  0  0  0  0  0  0  0999 V2000
   16.2039    7.3578   10.3830 C   0  0  2  0  0  0  0  0  0  0  0  0
   17.0359    6.2394   10.0475 O   0  0  0  0  0  0  0  0  0  0  0  0
   20.3252    7.4292   12.5098 C   0  0  2  0  0  0  0  0  0  0  0  0
   21.6317    7.4884   13.2019 N   0  0  0  0  0  0  0  0  0  0  0  0
   20.8060    7.2346    8.1796 C   0  0  1  0  0  0  0  0  0  0  0  0
   14.7723    7.0937    9.8179 C   0  0  2  0  0  0  0  0  0  0  0  0
   14.2789    5.7346   10.1572 N   0  0  0  0  0  0  0  0  0  0  0  0
   19.4619    6.2137   12.9855 C   0  0  0  0  0  0  0  0  0  0  0  0
   21.0709    6.5332    6.8070 C   0  0  2  0  0  0  0  0  0  0  0  0
   21.7343    5.2408    6.8691 O   0  0  0  0  0  0  0  0  0  0  0  0
   14.7292    7.2474    8.2858 C   0  0  1  0  0  0  0  0  0  0  0  0
   13.4227    7.0556    7.8056 O   0  0  0  0  0  0  0  0  0  0  0  0
   18.0896    6.2554   12.2191 C   0  0  2  0  0  0  0  0  0  0  0  0
   17.1949    5.1330   12.6326 N   0  0  0  0  0  0  0  0  0  0  0  0
   21.8481    7.6528    6.1351 C   0  0  2  0  0  0  0  0  0  0  0  0
   23.2439    7.6757    6.5921 O   0  0  0  0  0  0  0  0  0  0  0  0
   15.2445    8.6221    7.8940 C   0  0  2  0  0  0  0  0  0  0  0  0
   15.1850    8.7719    6.5121 O   0  0  0  0  0  0  0  0  0  0  0  0
   18.3196    6.1627   10.6836 C   0  0  2  0  0  0  0  0  0  0  0  0
   21.1179    8.9250    6.5494 C   0  0  2  0  0  0  0  0  0  0  0  0
   20.8527    8.6431    7.9207 O   0  0  0  0  0  0  0  0  0  0  0  0
   16.7066    8.8018    8.3916 C   0  0  2  0  0  0  0  0  0  0  0  0
   16.7570    8.6289    9.8242 O   0  0  0  0  0  0  0  0  0  0  0  0
   19.2414    7.2709   10.1374 C   0  0  2  0  0  0  0  0  0  0  0  0
   19.5383    6.8771    8.7515 O   0  0  0  0  0  0  0  0  0  0  0  0
   19.7848    9.2024    5.7753 C   0  0  0  0  0  0  0  0  0  0  0  0
   19.4240   10.5752    5.8985 N   0  0  0  0  0  0  0  0  0  0  0  0
   17.2711   10.1608    8.0483 C   0  0  0  0  0  0  0  0  0  0  0  0
   16.5687   11.1744    8.6705 O   0  0  0  0  0  0  0  0  0  0  0  0
   20.5815    7.3462   10.9942 C   0  0  1  0  0  0  0  0  0  0  0  0
   21.3583    8.5041   10.6522 O   0  0  0  0  0  0  0  0  0  0  0  0
  1  2  1  6  0  0  0
  1  6  1  0  0  0  0
  1 23  1  0  0  0  0
  3  4  1  1  0  0  0
  3  8  1  0  0  0  0
  3 30  1  0  0  0  0
  5  9  1  0  0  0  0
  5 21  1  0  0  0  0
  5 25  1  6  0  0  0
  6  7  1  6  0  0  0
  6 11  1  0  0  0  0
  8 13  1  0  0  0  0
  9 10  1  1  0  0  0
  9 15  1  0  0  0  0
 11 12  1  1  0  0  0
 11 17  1  0  0  0  0
 13 14  1  1  0  0  0
 13 19  1  0  0  0  0
 15 16  1  1  0  0  0
 15 20  1  0  0  0  0
 17 18  1  6  0  0  0
 17 22  1  0  0  0  0
 19  2  1  6  0  0  0
 19 24  1  0  0  0  0
 20 21  1  0  0  0  0
 20 26  1  6  0  0  0
 22 23  1  0  0  0  0
 22 28  1  1  0  0  0
 24 25  1  6  0  0  0
 24 30  1  0  0  0  0
 26 27  1  0  0  0  0
 28 29  1  0  0  0  0
 30 31  1  6  0  0  0
M  END
>  <CHROM.1>
-168.65103654,169.75235838,53.73576627,-160.79141252,63.01784579,-148.71657752
18.51264474,7.67092963,9.03871302,-2.92467177,0.05223682,-1.15365682

>  <Name>
2o3x_lig

>  <RI>
0

>  <Rbt.Current_Directory>
/home/itssahil/PROJECTS/Mol_Feturizer/New_Systems/rnas/2o3x

>  <Rbt.Executable>
rbdock ($Id: //depot/dev/client3/rdock/2013.1/src/exe/rbdock.cxx#4 $)

>  <Rbt.Library>
libRbt.so (2013.1, Build901 2013/11/27)

>  <Rbt.Parameter_File>
/export/apps/rDock/src/rDock_2013.1_src/data/scripts/dock_solv.prm

>  <Rbt.Receptor>
prm/pocket_docking_5.prm

>  <SCORE>
-7.14357

>  <SCORE.INTER>
-7.73374

>  <SCORE.INTER.CONST>
1

>  <SCORE.INTER.POLAR>
-1.64276

>  <SCORE.INTER.ROT>
6

>  <SCORE.INTER.SOLV>
13.327

>  <SCORE.INTER.VDW>
-11.7223

>  <SCORE.INTER.norm>
-0.249476

>  <SCORE.INTRA>
0.590167

>  <SCORE.INTRA.DIHEDRAL>
-2.87122

>  <SCORE.INTRA.DIHEDRAL.0>
9.37739

>  <SCORE.INTRA.POLAR>
0

>  <SCORE.INTRA.POLAR.0>
0

>  <SCORE.INTRA.REPUL>
0

>  <SCORE.INTRA.REPUL.0>
0

>  <SCORE.INTRA.SOLV>
0.354247

>  <SCORE.INTRA.SOLV.lig_0>
-82.9274

>  <SCORE.INTRA.VDW>
1.84865

>  <SCORE.INTRA.VDW.0>
-3.84922

>  <SCORE.INTRA.norm>
0.0190377

>  <SCORE.RESTR>
0

>  <SCORE.RESTR.CAVITY>
0

>  <SCORE.RESTR.norm>
0

>  <SCORE.SYSTEM>
0

>  <SCORE.SYSTEM.CONST>
0

>  <SCORE.SYSTEM.DIHEDRAL>
0

>  <SCORE.SYSTEM.SOLV>
0

>  <SCORE.SYSTEM.norm>
0

>  <SCORE.heavy>
31

>  <SCORE.norm>
-0.230438

>  <RMSD>
6.262

$$$$
2o3x_lig
 OpenBabel11021811463D
libRbt.so/2013.1/901 2013/11/27
 31 33  0  0  0  0  0  0  0  0999 V2000
   21.0881    7.8315   11.1003 C   0  0  2  0  0  0  0  0  0  0  0  0
   20.3339    7.0579   10.1579 O   0  0  0  0  0  0  0  0  0  0  0  0
   21.7141    9.1299    6.6794 C   0  0  2  0  0  0  0  0  0  0  0  0
   21.9854    9.5337    5.2820 N   0  0  0  0  0  0  0  0  0  0  0  0
   17.9617    6.9477    7.7429 C   0  0  1  0  0  0  0  0  0  0  0  0
   20.6705    7.3966   12.5408 C   0  0  2  0  0  0  0  0  0  0  0  0
   20.6659    5.9199   12.7001 N   0  0  0  0  0  0  0  0  0  0  0  0
   22.4138    7.7794    7.0481 C   0  0  0  0  0  0  0  0  0  0  0  0
   16.4158    6.7144    7.7857 C   0  0  2  0  0  0  0  0  0  0  0  0
   15.9105    6.0017    8.9480 O   0  0  0  0  0  0  0  0  0  0  0  0
   19.2689    7.9197   12.9081 C   0  0  1  0  0  0  0  0  0  0  0  0
   18.9358    7.5599   14.2249 O   0  0  0  0  0  0  0  0  0  0  0  0
   22.0922    7.4536    8.5523 C   0  0  2  0  0  0  0  0  0  0  0  0
   22.7427    6.1824    8.9905 N   0  0  0  0  0  0  0  0  0  0  0  0
   16.2637    6.0080    6.4490 C   0  0  2  0  0  0  0  0  0  0  0  0
   16.6564    4.5961    6.5495 O   0  0  0  0  0  0  0  0  0  0  0  0
   19.2253    9.4292   12.7409 C   0  0  2  0  0  0  0  0  0  0  0  0
   17.9672    9.9067   13.0941 O   0  0  0  0  0  0  0  0  0  0  0  0
   20.5572    7.3210    8.7653 C   0  0  2  0  0  0  0  0  0  0  0  0
   17.1933    6.7668    5.5093 C   0  0  2  0  0  0  0  0  0  0  0  0
   18.3221    6.9640    6.3562 O   0  0  0  0  0  0  0  0  0  0  0  0
   19.5503    9.8091   11.2686 C   0  0  2  0  0  0  0  0  0  0  0  0
   20.8510    9.2949   10.9099 O   0  0  0  0  0  0  0  0  0  0  0  0
   19.7717    8.5765    8.3373 C   0  0  2  0  0  0  0  0  0  0  0  0
   18.3566    8.1764    8.3725 O   0  0  0  0  0  0  0  0  0  0  0  0
   16.6390    8.1404    4.9999 C   0  0  0  0  0  0  0  0  0  0  0  0
   15.4142    7.9443    4.2991 N   0  0  0  0  0  0  0  0  0  0  0  0
   19.5414   11.3030   11.0415 C   0  0  0  0  0  0  0  0  0  0  0  0
   19.9405   11.6240    9.7587 O   0  0  0  0  0  0  0  0  0  0  0  0
   20.1904    9.0140    6.8646 C   0  0  1  0  0  0  0  0  0  0  0  0
   19.6435   10.2968    6.5232 O   0  0  0  0  0  0  0  0  0  0  0  0
  1  2  1  6  0  0  0
  1  6  1  0  0  0  0
  1 23  1  0  0  0  0
  3  4  1  6  0  0  0
  3  8  1  0  0  0  0
  3 30  1  0  0  0  0
  5  9  1  0  0  0  0
  5 21  1  0  0  0  0
  5 25  1  6  0  0  0
  6  7  1  6  0  0  0
  6 11  1  0  0  0  0
  8 13  1  0  0  0  0
  9 10  1  1  0  0  0
  9 15  1  0  0  0  0
 11 12  1  1  0  0  0
 11 17  1  0  0  0  0
 13 14  1  6  0  0  0
 13 19  1  0  0  0  0
 15 16  1  1  0  0  0
 15 20  1  0  0  0  0
 17 18  1  6  0  0  0
 17 22  1  0  0  0  0
 19  2  1  1  0  0  0
 19 24  1  0  0  0  0
 20 21  1  0  0  0  0
 20 26  1  1  0  0  0
 22 23  1  0  0  0  0
 22 28  1  1  0  0  0
 24 25  1  6  0  0  0
 24 30  1  0  0  0  0
 26 27  1  0  0  0  0
 28 29  1  0  0  0  0
 30 31  1  1  0  0  0
M  END
>  <CHROM.1>
179.11057112,-176.17503723,43.65893655,-59.34755778,174.97979122,-48.13296240
19.26802071,8.02968397,8.93967988,-1.15536092,-0.48193258,-1.57682857

>  <Name>
2o3x_lig

>  <RI>
0

>  <Rbt.Current_Directory>
/home/itssahil/PROJECTS/Mol_Feturizer/New_Systems/rnas/2o3x

>  <Rbt.Executable>
rbdock ($Id: //depot/dev/client3/rdock/2013.1/src/exe/rbdock.cxx#4 $)

>  <Rbt.Library>
libRbt.so (2013.1, Build901 2013/11/27)

>  <Rbt.Parameter_File>
/export/apps/rDock/src/rDock_2013.1_src/data/scripts/dock_solv.prm

>  <Rbt.Receptor>
prm/pocket_docking_4.prm

>  <SCORE>
-12.2432

>  <SCORE.INTER>
-10.5436

>  <SCORE.INTER.CONST>
1

>  <SCORE.INTER.POLAR>
-2.31461

>  <SCORE.INTER.ROT>
6

>  <SCORE.INTER.SOLV>
16.5486

>  <SCORE.INTER.VDW>
-12.4299

>  <SCORE.INTER.norm>
-0.340117

>  <SCORE.INTRA>
-1.70102

>  <SCORE.INTRA.DIHEDRAL>
-7.1326

>  <SCORE.INTRA.DIHEDRAL.0>
9.37739

>  <SCORE.INTRA.POLAR>
0

>  <SCORE.INTRA.POLAR.0>
0

>  <SCORE.INTRA.REPUL>
0

>  <SCORE.INTRA.REPUL.0>
0

>  <SCORE.INTRA.SOLV>
-1.05032

>  <SCORE.INTRA.SOLV.lig_0>
-82.9274

>  <SCORE.INTRA.VDW>
2.39044

>  <SCORE.INTRA.VDW.0>
-3.84922

>  <SCORE.INTRA.norm>
-0.0548715

>  <SCORE.RESTR>
0.00149629

>  <SCORE.RESTR.CAVITY>
0.00149629

>  <SCORE.RESTR.norm>
4.82674e-05

>  <SCORE.SYSTEM>
0

>  <SCORE.SYSTEM.CONST>
0

>  <SCORE.SYSTEM.DIHEDRAL>
0

>  <SCORE.SYSTEM.SOLV>
0

>  <SCORE.SYSTEM.norm>
0

>  <SCORE.heavy>
31

>  <SCORE.norm>
-0.39494

>  <RMSD>
6.272

$$$$
2o3x_lig
 OpenBabel11021811463D
libRbt.so/2013.1/901 2013/11/27
 31 33  0  0  0  0  0  0  0  0999 V2000
   19.1269    9.1028    8.3830 C   0  0  2  0  0  0  0  0  0  0  0  0
   19.0477   10.4824    8.7648 O   0  0  0  0  0  0  0  0  0  0  0  0
   19.2832   12.2833   12.6377 C   0  0  2  0  0  0  0  0  0  0  0  0
   19.0431   12.6434   14.0526 N   0  0  0  0  0  0  0  0  0  0  0  0
   20.5464    7.9975   11.8635 C   0  0  1  0  0  0  0  0  0  0  0  0
   19.2413    9.0280    6.8274 C   0  0  2  0  0  0  0  0  0  0  0  0
   20.2727    9.9557    6.2970 N   0  0  0  0  0  0  0  0  0  0  0  0
   18.0878   12.6944   11.7150 C   0  0  0  0  0  0  0  0  0  0  0  0
   20.3423    6.4599   11.6626 C   0  0  2  0  0  0  0  0  0  0  0  0
   19.3256    5.8376   12.4952 O   0  0  0  0  0  0  0  0  0  0  0  0
   17.9025    9.3625    6.1428 C   0  0  1  0  0  0  0  0  0  0  0  0
   18.0157    9.2395    4.7477 O   0  0  0  0  0  0  0  0  0  0  0  0
   18.4495   12.2996   10.2366 C   0  0  2  0  0  0  0  0  0  0  0  0
   17.3619   12.6777    9.2851 N   0  0  0  0  0  0  0  0  0  0  0  0
   21.7740    6.0147   11.9093 C   0  0  2  0  0  0  0  0  0  0  0  0
   22.0720    5.9652   13.3468 O   0  0  0  0  0  0  0  0  0  0  0  0
   16.8130    8.4451    6.6720 C   0  0  2  0  0  0  0  0  0  0  0  0
   15.6076    8.7300    6.0384 O   0  0  0  0  0  0  0  0  0  0  0  0
   18.6916   10.7672   10.1251 C   0  0  2  0  0  0  0  0  0  0  0  0
   22.6260    7.0687   11.2119 C   0  0  2  0  0  0  0  0  0  0  0  0
   21.9252    8.2559   11.5720 O   0  0  0  0  0  0  0  0  0  0  0  0
   16.6679    8.6264    8.2095 C   0  0  2  0  0  0  0  0  0  0  0  0
   17.9289    8.3429    8.8533 O   0  0  0  0  0  0  0  0  0  0  0  0
   19.7934   10.2537   11.0730 C   0  0  2  0  0  0  0  0  0  0  0  0
   19.7027    8.7868   11.0107 O   0  0  0  0  0  0  0  0  0  0  0  0
   22.7069    6.9267    9.6541 C   0  0  0  0  0  0  0  0  0  0  0  0
   23.2892    5.6738    9.3065 N   0  0  0  0  0  0  0  0  0  0  0  0
   15.6095    7.7243    8.8006 C   0  0  0  0  0  0  0  0  0  0  0  0
   14.3480    8.0559    8.3460 O   0  0  0  0  0  0  0  0  0  0  0  0
   19.5273   10.7656   12.5572 C   0  0  1  0  0  0  0  0  0  0  0  0
   20.6450   10.4905   13.4152 O   0  0  0  0  0  0  0  0  0  0  0  0
  1  2  1  6  0  0  0
  1  6  1  0  0  0  0
  1 23  1  0  0  0  0
  3  4  1  1  0  0  0
  3  8  1  0  0  0  0
  3 30  1  0  0  0  0
  5  9  1  0  0  0  0
  5 21  1  0  0  0  0
  5 25  1  6  0  0  0
  6  7  1  6  0  0  0
  6 11  1  0  0  0  0
  8 13  1  0  0  0  0
  9 10  1  1  0  0  0
  9 15  1  0  0  0  0
 11 12  1  6  0  0  0
 11 17  1  0  0  0  0
 13 14  1  6  0  0  0
 13 19  1  0  0  0  0
 15 16  1  1  0  0  0
 15 20  1  0  0  0  0
 17 18  1  6  0  0  0
 17 22  1  0  0  0  0
 19  2  1  6  0  0  0
 19 24  1  0  0  0  0
 20 21  1  0  0  0  0
 20 26  1  6  0  0  0
 22 23  1  0  0  0  0
 22 28  1  1  0  0  0
 24 25  1  1  0  0  0
 24 30  1  0  0  0  0
 26 27  1  0  0  0  0
 28 29  1  0  0  0  0
 30 31  1  1  0  0  0
M  END
>  <CHROM.1>
168.83388017,-179.22893321,-171.11453639,-61.01843885,-65.75280869,-175.73037221
19.19848165,9.03042598,9.90605274,-2.72986111,-0.80789679,0.81443276

>  <Name>
2o3x_lig

>  <RI>
2.78316e+07

>  <Rbt.Current_Directory>
/home/itssahil/PROJECTS/Mol_Feturizer/New_Systems/rnas/2o3x

>  <Rbt.Executable>
rbdock ($Id: //depot/dev/client3/rdock/2013.1/src/exe/rbdock.cxx#4 $)

>  <Rbt.Library>
libRbt.so (2013.1, Build901 2013/11/27)

>  <Rbt.Parameter_File>
/export/apps/rDock/src/rDock_2013.1_src/data/scripts/dock_solv.prm

>  <Rbt.Receptor>
prm/pocket_docking_7.prm

>  <SCORE>
-11.0421

>  <SCORE.INTER>
-7.49958

>  <SCORE.INTER.CONST>
1

>  <SCORE.INTER.POLAR>
-1.05245

>  <SCORE.INTER.ROT>
6

>  <SCORE.INTER.SOLV>
17.2016

>  <SCORE.INTER.VDW>
-14.8254

>  <SCORE.INTER.norm>
-0.241922

>  <SCORE.INTRA>
-3.54247

>  <SCORE.INTRA.DIHEDRAL>
-8.00352

>  <SCORE.INTRA.DIHEDRAL.0>
9.37739

>  <SCORE.INTRA.POLAR>
0

>  <SCORE.INTRA.POLAR.0>
0

>  <SCORE.INTRA.REPUL>
0

>  <SCORE.INTRA.REPUL.0>
0

>  <SCORE.INTRA.SOLV>
-2.49322

>  <SCORE.INTRA.SOLV.lig_0>
-82.9274

>  <SCORE.INTRA.VDW>
1.7059

>  <SCORE.INTRA.VDW.0>
-3.84922

>  <SCORE.INTRA.norm>
-0.114273

>  <SCORE.RESTR>
0

>  <SCORE.RESTR.CAVITY>
0

>  <SCORE.RESTR.norm>
0

>  <SCORE.SYSTEM>
0

>  <SCORE.SYSTEM.CONST>
0

>  <SCORE.SYSTEM.DIHEDRAL>
0

>  <SCORE.SYSTEM.SOLV>
0

>  <SCORE.SYSTEM.norm>
0

>  <SCORE.heavy>
31

>  <SCORE.norm>
-0.356195

>  <RMSD>
6.279

$$$$
2o3x_lig
 OpenBabel11021811463D
libRbt.so/2013.1/901 2013/11/27
 31 33  0  0  0  0  0  0  0  0999 V2000
   20.7851    9.5762    8.3151 C   0  0  2  0  0  0  0  0  0  0  0  0
   19.3770    9.7119    8.0819 O   0  0  0  0  0  0  0  0  0  0  0  0
   18.2607    9.6790   12.2112 C   0  0  2  0  0  0  0  0  0  0  0  0
   17.4931    9.7413   13.4747 N   0  0  0  0  0  0  0  0  0  0  0  0
   16.1674    8.0445    8.7647 C   0  0  1  0  0  0  0  0  0  0  0  0
   21.4849    9.2877    6.9493 C   0  0  2  0  0  0  0  0  0  0  0  0
   21.0444   10.2261    5.8857 N   0  0  0  0  0  0  0  0  0  0  0  0
   18.3020   11.0617   11.4791 C   0  0  0  0  0  0  0  0  0  0  0  0
   16.0179    9.3325    7.8902 C   0  0  2  0  0  0  0  0  0  0  0  0
   16.0031   10.5948    8.6118 O   0  0  0  0  0  0  0  0  0  0  0  0
   21.2098    7.8525    6.4622 C   0  0  1  0  0  0  0  0  0  0  0  0
   21.8899    7.5993    5.2590 O   0  0  0  0  0  0  0  0  0  0  0  0
   19.1606   10.9002   10.1717 C   0  0  2  0  0  0  0  0  0  0  0  0
   19.2654   12.1872    9.4208 N   0  0  0  0  0  0  0  0  0  0  0  0
   14.7340    8.9593    7.1682 C   0  0  2  0  0  0  0  0  0  0  0  0
   13.5611    9.1903    8.0217 O   0  0  0  0  0  0  0  0  0  0  0  0
   21.6310    6.8588    7.5316 C   0  0  2  0  0  0  0  0  0  0  0  0
   21.4048    5.5608    7.0847 O   0  0  0  0  0  0  0  0  0  0  0  0
   18.5299    9.8318    9.2337 C   0  0  2  0  0  0  0  0  0  0  0  0
   14.8931    7.4773    6.8498 C   0  0  2  0  0  0  0  0  0  0  0  0
   15.4710    7.0065    8.0642 O   0  0  0  0  0  0  0  0  0  0  0  0
   20.8367    7.1220    8.8422 C   0  0  2  0  0  0  0  0  0  0  0  0
   21.0678    8.4762    9.2867 O   0  0  0  0  0  0  0  0  0  0  0  0
   18.3614    8.4545    9.9051 C   0  0  2  0  0  0  0  0  0  0  0  0
   17.5378    7.6693    8.9728 O   0  0  0  0  0  0  0  0  0  0  0  0
   15.8288    7.1603    5.6343 C   0  0  0  0  0  0  0  0  0  0  0  0
   15.3339    7.7931    4.4577 N   0  0  0  0  0  0  0  0  0  0  0  0
   21.2254    6.1751    9.9538 C   0  0  0  0  0  0  0  0  0  0  0  0
   20.5069    6.4237   11.1070 O   0  0  0  0  0  0  0  0  0  0  0  0
   17.6213    8.6104   11.3064 C   0  0  1  0  0  0  0  0  0  0  0  0
   17.6454    7.3835   12.0516 O   0  0  0  0  0  0  0  0  0  0  0  0
  1  2  1  6  0  0  0
  1  6  1  0  0  0  0
  1 23  1  0  0  0  0
  3  4  1  1  0  0  0
  3  8  1  0  0  0  0
  3 30  1  0  0  0  0
  5  9  1  0  0  0  0
  5 21  1  0  0  0  0
  5 25  1  6  0  0  0
  6  7  1  6  0  0  0
  6 11  1  0  0  0  0
  8 13  1  0  0  0  0
  9 10  1  1  0  0  0
  9 15  1  0  0  0  0
 11 12  1  6  0  0  0
 11 17  1  0  0  0  0
 13 14  1  6  0  0  0
 13 19  1  0  0  0  0
 15 16  1  1  0  0  0
 15 20  1  0  0  0  0
 17 18  1  6  0  0  0
 17 22  1  0  0  0  0
 19  2  1  6  0  0  0
 19 24  1  0  0  0  0
 20 21  1  0  0  0  0
 20 26  1  6  0  0  0
 22 23  1  0  0  0  0
 22 28  1  1  0  0  0
 24 25  1  6  0  0  0
 24 30  1  0  0  0  0
 26 27  1  0  0  0  0
 28 29  1  0  0  0  0
 30 31  1  1  0  0  0
M  END
>  <CHROM.1>
173.17105832,74.13005907,47.79955456,-58.86733489,-179.86783106,-67.70859145
18.46901958,8.54674473,8.65861587,-0.11642464,-0.13894205,1.27219017

>  <Name>
2o3x_lig

>  <RI>
2.78316e+07

>  <Rbt.Current_Directory>
/home/itssahil/PROJECTS/Mol_Feturizer/New_Systems/rnas/2o3x

>  <Rbt.Executable>
rbdock ($Id: //depot/dev/client3/rdock/2013.1/src/exe/rbdock.cxx#4 $)

>  <Rbt.Library>
libRbt.so (2013.1, Build901 2013/11/27)

>  <Rbt.Parameter_File>
/export/apps/rDock/src/rDock_2013.1_src/data/scripts/dock_solv.prm

>  <Rbt.Receptor>
prm/pocket_docking_7.prm

>  <SCORE>
-8.93569

>  <SCORE.INTER>
-8.03068

>  <SCORE.INTER.CONST>
1

>  <SCORE.INTER.POLAR>
-1.93673

>  <SCORE.INTER.ROT>
6

>  <SCORE.INTER.SOLV>
18.3623

>  <SCORE.INTER.VDW>
-12.6188

>  <SCORE.INTER.norm>
-0.259054

>  <SCORE.INTRA>
-0.905011

>  <SCORE.INTRA.DIHEDRAL>
-7.03393

>  <SCORE.INTRA.DIHEDRAL.0>
9.37739

>  <SCORE.INTRA.POLAR>
0

>  <SCORE.INTRA.POLAR.0>
0

>  <SCORE.INTRA.REPUL>
0

>  <SCORE.INTRA.REPUL.0>
0

>  <SCORE.INTRA.SOLV>
-0.0467981

>  <SCORE.INTRA.SOLV.lig_0>
-82.9274

>  <SCORE.INTRA.VDW>
2.63535

>  <SCORE.INTRA.VDW.0>
-3.84922

>  <SCORE.INTRA.norm>
-0.0291939

>  <SCORE.RESTR>
0

>  <SCORE.RESTR.CAVITY>
0

>  <SCORE.RESTR.norm>
0

>  <SCORE.SYSTEM>
0

>  <SCORE.SYSTEM.CONST>
0

>  <SCORE.SYSTEM.DIHEDRAL>
0

>  <SCORE.SYSTEM.SOLV>
0

>  <SCORE.SYSTEM.norm>
0

>  <SCORE.heavy>
31

>  <SCORE.norm>
-0.288248

>  <RMSD>
6.283

$$$$
2o3x_lig
 OpenBabel11021811463D
libRbt.so/2013.1/901 2013/11/27
 31 33  0  0  0  0  0  0  0  0999 V2000
   19.0916    8.3880    7.5013 C   0  0  2  0  0  0  0  0  0  0  0  0
   19.2466    7.4607    8.5838 O   0  0  0  0  0  0  0  0  0  0  0  0
   20.4750    3.3661    8.7350 C   0  0  2  0  0  0  0  0  0  0  0  0
   20.6241    1.9181    8.4694 N   0  0  0  0  0  0  0  0  0  0  0  0
   19.6727    5.8582    5.2706 C   0  0  1  0  0  0  0  0  0  0  0  0
   19.6329    9.7782    7.9624 C   0  0  2  0  0  0  0  0  0  0  0  0
   20.9695    9.6742    8.6016 N   0  0  0  0  0  0  0  0  0  0  0  0
   19.0525    3.7203    9.2832 C   0  0  0  0  0  0  0  0  0  0  0  0
   19.5260    6.8226    4.0480 C   0  0  2  0  0  0  0  0  0  0  0  0
   18.4787    7.8263    4.1499 O   0  0  0  0  0  0  0  0  0  0  0  0
   18.6778   10.4563    8.9628 C   0  0  1  0  0  0  0  0  0  0  0  0
   19.1594   11.7259    9.3242 O   0  0  0  0  0  0  0  0  0  0  0  0
   19.0039    5.2671    9.5612 C   0  0  2  0  0  0  0  0  0  0  0  0
   17.6783    5.6858   10.1076 N   0  0  0  0  0  0  0  0  0  0  0  0
   19.3454    5.7747    2.9626 C   0  0  2  0  0  0  0  0  0  0  0  0
   17.9690    5.2616    2.9469 O   0  0  0  0  0  0  0  0  0  0  0  0
   17.2906   10.5663    8.3529 C   0  0  2  0  0  0  0  0  0  0  0  0
   16.4316   11.1993    9.2458 O   0  0  0  0  0  0  0  0  0  0  0  0
   19.2724    6.0648    8.2533 C   0  0  2  0  0  0  0  0  0  0  0  0
   20.3335    4.6734    3.3284 C   0  0  2  0  0  0  0  0  0  0  0  0
   20.1565    4.6178    4.7412 O   0  0  0  0  0  0  0  0  0  0  0  0
   16.7523    9.1506    8.0012 C   0  0  2  0  0  0  0  0  0  0  0  0
   17.6599    8.4991    7.0866 O   0  0  0  0  0  0  0  0  0  0  0  0
   20.6167    5.7095    7.5877 C   0  0  2  0  0  0  0  0  0  0  0  0
   20.5768    6.3581    6.2680 O   0  0  0  0  0  0  0  0  0  0  0  0
   21.8271    4.9818    2.9713 C   0  0  0  0  0  0  0  0  0  0  0  0
   22.3029    6.0716    3.7561 N   0  0  0  0  0  0  0  0  0  0  0  0
   15.3794    9.1942    7.3713 C   0  0  0  0  0  0  0  0  0  0  0  0
   14.4035    9.4962    8.3010 O   0  0  0  0  0  0  0  0  0  0  0  0
   20.7534    4.1310    7.4285 C   0  0  1  0  0  0  0  0  0  0  0  0
   22.0773    3.7581    7.0169 O   0  0  0  0  0  0  0  0  0  0  0  0
  1  2  1  1  0  0  0
  1  6  1  0  0  0  0
  1 23  1  0  0  0  0
  3  4  1  6  0  0  0
  3  8  1  0  0  0  0
  3 30  1  0  0  0  0
  5  9  1  0  0  0  0
  5 21  1  0  0  0  0
  5 25  1  1  0  0  0
  6  7  1  1  0  0  0
  6 11  1  0  0  0  0
  8 13  1  0  0  0  0
  9 10  1  1  0  0  0
  9 15  1  0  0  0  0
 11 12  1  6  0  0  0
 11 17  1  0  0  0  0
 13 14  1  6  0  0  0
 13 19  1  0  0  0  0
 15 16  1  1  0  0  0
 15 20  1  0  0  0  0
 17 18  1  1  0  0  0
 17 22  1  0  0  0  0
 19  2  1  1  0  0  0
 19 24  1  0  0  0  0
 20 21  1  0  0  0  0
 20 26  1  1  0  0  0
 22 23  1  0  0  0  0
 22 28  1  6  0  0  0
 24 25  1  6  0  0  0
 24 30  1  0  0  0  0
 26 27  1  0  0  0  0
 28 29  1  0  0  0  0
 30 31  1  1  0  0  0
M  END
>  <CHROM.1>
-158.23188299,167.78781774,-162.78240726,65.83711115,-73.26836156,-69.41354314
19.14556312,6.91968054,6.96341078,2.84751729,-1.06828063,1.77925173

>  <Name>
2o3x_lig

>  <RI>
0

>  <Rbt.Current_Directory>
/home/itssahil/PROJECTS/Mol_Feturizer/New_Systems/rnas/2o3x

>  <Rbt.Executable>
rbdock ($Id: //depot/dev/client3/rdock/2013.1/src/exe/rbdock.cxx#4 $)

>  <Rbt.Library>
libRbt.so (2013.1, Build901 2013/11/27)

>  <Rbt.Parameter_File>
/export/apps/rDock/src/rDock_2013.1_src/data/scripts/dock_solv.prm

>  <Rbt.Receptor>
prm/pocket_docking_5.prm

>  <SCORE>
-3.85208

>  <SCORE.INTER>
-3.96655

>  <SCORE.INTER.CONST>
1

>  <SCORE.INTER.POLAR>
-1.01357

>  <SCORE.INTER.ROT>
6

>  <SCORE.INTER.SOLV>
12.299

>  <SCORE.INTER.VDW>
-10.9655

>  <SCORE.INTER.norm>
-0.127953

>  <SCORE.INTRA>
0.114468

>  <SCORE.INTRA.DIHEDRAL>
-3.90508

>  <SCORE.INTRA.DIHEDRAL.0>
9.37739

>  <SCORE.INTRA.POLAR>
0

>  <SCORE.INTRA.POLAR.0>
0

>  <SCORE.INTRA.REPUL>
0

>  <SCORE.INTRA.REPUL.0>
0

>  <SCORE.INTRA.SOLV>
2.17677

>  <SCORE.INTRA.SOLV.lig_0>
-82.9274

>  <SCORE.INTRA.VDW>
0.978619

>  <SCORE.INTRA.VDW.0>
-3.84922

>  <SCORE.INTRA.norm>
0.00369251

>  <SCORE.RESTR>
0

>  <SCORE.RESTR.CAVITY>
0

>  <SCORE.RESTR.norm>
0

>  <SCORE.SYSTEM>
0

>  <SCORE.SYSTEM.CONST>
0

>  <SCORE.SYSTEM.DIHEDRAL>
0

>  <SCORE.SYSTEM.SOLV>
0

>  <SCORE.SYSTEM.norm>
0

>  <SCORE.heavy>
31

>  <SCORE.norm>
-0.124261

>  <RMSD>
6.288

$$$$
2o3x_lig
 OpenBabel11021811463D
libRbt.so/2013.1/901 2013/11/27
 31 33  0  0  0  0  0  0  0  0999 V2000
   23.5096    6.2595    9.8021 C   0  0  2  0  0  0  0  0  0  0  0  0
   22.9568    7.3156    9.0056 O   0  0  0  0  0  0  0  0  0  0  0  0
   23.5847    8.2516    4.8791 C   0  0  2  0  0  0  0  0  0  0  0  0
   23.6112    8.2023    3.4005 N   0  0  0  0  0  0  0  0  0  0  0  0
   19.6299    8.6156    7.6802 C   0  0  1  0  0  0  0  0  0  0  0  0
   22.4078    5.1732   10.0130 C   0  0  2  0  0  0  0  0  0  0  0  0
   21.7349    4.8047    8.7413 N   0  0  0  0  0  0  0  0  0  0  0  0
   24.4887    7.1469    5.5209 C   0  0  0  0  0  0  0  0  0  0  0  0
   19.0415    9.3659    6.4404 C   0  0  2  0  0  0  0  0  0  0  0  0
   19.7304   10.5844    6.0466 O   0  0  0  0  0  0  0  0  0  0  0  0
   21.3273    5.6452   11.0043 C   0  0  1  0  0  0  0  0  0  0  0  0
   20.3753    4.6339   11.2173 O   0  0  0  0  0  0  0  0  0  0  0  0
   24.4177    7.3005    7.0841 C   0  0  2  0  0  0  0  0  0  0  0  0
   25.2730    6.2895    7.7751 N   0  0  0  0  0  0  0  0  0  0  0  0
   17.6171    9.5347    6.9420 C   0  0  2  0  0  0  0  0  0  0  0  0
   17.5187   10.6547    7.8872 O   0  0  0  0  0  0  0  0  0  0  0  0
   21.9776    6.0499   12.3166 C   0  0  2  0  0  0  0  0  0  0  0  0
   21.0014    6.4548   13.2215 O   0  0  0  0  0  0  0  0  0  0  0  0
   22.9541    7.1316    7.5827 C   0  0  2  0  0  0  0  0  0  0  0  0
   17.2960    8.2122    7.6284 C   0  0  2  0  0  0  0  0  0  0  0  0
   18.5210    7.9653    8.3131 O   0  0  0  0  0  0  0  0  0  0  0  0
   22.9940    7.2008   12.0719 C   0  0  2  0  0  0  0  0  0  0  0  0
   23.9921    6.7733   11.1201 O   0  0  0  0  0  0  0  0  0  0  0  0
   21.9694    8.1212    6.9289 C   0  0  2  0  0  0  0  0  0  0  0  0
   20.6322    7.6514    7.3227 O   0  0  0  0  0  0  0  0  0  0  0  0
   16.9583    7.0300    6.6580 C   0  0  0  0  0  0  0  0  0  0  0  0
   18.0865    6.7299    5.8413 N   0  0  0  0  0  0  0  0  0  0  0  0
   23.6904    7.6365   13.3402 C   0  0  0  0  0  0  0  0  0  0  0  0
   22.8328    8.3173   14.1822 O   0  0  0  0  0  0  0  0  0  0  0  0
   22.1264    8.0903    5.3446 C   0  0  1  0  0  0  0  0  0  0  0  0
   21.3847    9.1511    4.7233 O   0  0  0  0  0  0  0  0  0  0  0  0
  1  2  1  6  0  0  0
  1  6  1  0  0  0  0
  1 23  1  0  0  0  0
  3  4  1  6  0  0  0
  3  8  1  0  0  0  0
  3 30  1  0  0  0  0
  5  9  1  0  0  0  0
  5 21  1  0  0  0  0
  5 25  1  6  0  0  0
  6  7  1  6  0  0  0
  6 11  1  0  0  0  0
  8 13  1  0  0  0  0
  9 10  1  1  0  0  0
  9 15  1  0  0  0  0
 11 12  1  1  0  0  0
 11 17  1  0  0  0  0
 13 14  1  1  0  0  0
 13 19  1  0  0  0  0
 15 16  1  1  0  0  0
 15 20  1  0  0  0  0
 17 18  1  1  0  0  0
 17 22  1  0  0  0  0
 19  2  1  1  0  0  0
 19 24  1  0  0  0  0
 20 21  1  0  0  0  0
 20 26  1  6  0  0  0
 22 23  1  0  0  0  0
 22 28  1  1  0  0  0
 24 25  1  6  0  0  0
 24 30  1  0  0  0  0
 26 27  1  0  0  0  0
 28 29  1  0  0  0  0
 30 31  1  6  0  0  0
M  END
>  <CHROM.1>
-83.13858204,74.73654652,-73.35105427,62.98046954,-71.14523525,139.78758679
21.38204726,7.51389721,8.43353556,-1.14304692,0.23374250,-1.33409633

>  <Name>
2o3x_lig

>  <RI>
0

>  <Rbt.Current_Directory>
/home/itssahil/PROJECTS/Mol_Feturizer/New_Systems/rnas/2o3x

>  <Rbt.Executable>
rbdock ($Id: //depot/dev/client3/rdock/2013.1/src/exe/rbdock.cxx#4 $)

>  <Rbt.Library>
libRbt.so (2013.1, Build901 2013/11/27)

>  <Rbt.Parameter_File>
/export/apps/rDock/src/rDock_2013.1_src/data/scripts/dock_solv.prm

>  <Rbt.Receptor>
prm/pocket_docking_5.prm

>  <SCORE>
-8.88603

>  <SCORE.INTER>
-13.8539

>  <SCORE.INTER.CONST>
1

>  <SCORE.INTER.POLAR>
-0.877115

>  <SCORE.INTER.ROT>
6

>  <SCORE.INTER.SOLV>
14.6204

>  <SCORE.INTER.VDW>
-18.7856

>  <SCORE.INTER.norm>
-0.446899

>  <SCORE.INTRA>
4.96783

>  <SCORE.INTRA.DIHEDRAL>
0.872437

>  <SCORE.INTRA.DIHEDRAL.0>
9.37739

>  <SCORE.INTRA.POLAR>
0

>  <SCORE.INTRA.POLAR.0>
0

>  <SCORE.INTRA.REPUL>
0

>  <SCORE.INTRA.REPUL.0>
0

>  <SCORE.INTRA.SOLV>
5.3769

>  <SCORE.INTRA.SOLV.lig_0>
-82.9274

>  <SCORE.INTRA.VDW>
1.84316

>  <SCORE.INTRA.VDW.0>
-3.84922

>  <SCORE.INTRA.norm>
0.160253

>  <SCORE.RESTR>
0

>  <SCORE.RESTR.CAVITY>
0

>  <SCORE.RESTR.norm>
0

>  <SCORE.SYSTEM>
0

>  <SCORE.SYSTEM.CONST>
0

>  <SCORE.SYSTEM.DIHEDRAL>
0

>  <SCORE.SYSTEM.SOLV>
0

>  <SCORE.SYSTEM.norm>
0

>  <SCORE.heavy>
31

>  <SCORE.norm>
-0.286646

>  <RMSD>
6.290

$$$$
2o3x_lig
 OpenBabel11021811463D
libRbt.so/2013.1/901 2013/11/27
 31 33  0  0  0  0  0  0  0  0999 V2000
   18.0126    9.5729    7.9552 C   0  0  2  0  0  0  0  0  0  0  0  0
   18.7543    8.6831    8.7999 O   0  0  0  0  0  0  0  0  0  0  0  0
   21.0845    5.2161    7.8789 C   0  0  2  0  0  0  0  0  0  0  0  0
   21.5346    3.9042    7.3633 N   0  0  0  0  0  0  0  0  0  0  0  0
   19.6720    9.4724    5.6253 C   0  0  1  0  0  0  0  0  0  0  0  0
   17.8231   10.9261    8.7111 C   0  0  2  0  0  0  0  0  0  0  0  0
   19.0946   11.4227    9.2964 N   0  0  0  0  0  0  0  0  0  0  0  0
   19.9550    5.0702    8.9524 C   0  0  0  0  0  0  0  0  0  0  0  0
   20.9227    9.5251    4.6877 C   0  0  2  0  0  0  0  0  0  0  0  0
   22.2112    9.6490    5.3500 O   0  0  0  0  0  0  0  0  0  0  0  0
   16.7917   10.8018    9.8484 C   0  0  1  0  0  0  0  0  0  0  0  0
   16.6002   12.0420   10.4807 O   0  0  0  0  0  0  0  0  0  0  0  0
   19.5683    6.5081    9.4578 C   0  0  2  0  0  0  0  0  0  0  0  0
   18.5037    6.4550   10.5041 N   0  0  0  0  0  0  0  0  0  0  0  0
   20.4990   10.7005    3.8229 C   0  0  2  0  0  0  0  0  0  0  0  0
   20.7411   11.9763    4.5094 O   0  0  0  0  0  0  0  0  0  0  0  0
   15.4777   10.2781    9.2936 C   0  0  2  0  0  0  0  0  0  0  0  0
   14.5374   10.1868   10.3149 O   0  0  0  0  0  0  0  0  0  0  0  0
   19.0563    7.3816    8.2771 C   0  0  2  0  0  0  0  0  0  0  0  0
   19.0090   10.4823    3.5874 C   0  0  2  0  0  0  0  0  0  0  0  0
   18.5955   10.0593    4.8838 O   0  0  0  0  0  0  0  0  0  0  0  0
   15.6965    8.8851    8.6384 C   0  0  2  0  0  0  0  0  0  0  0  0
   16.6850    8.9905    7.5912 O   0  0  0  0  0  0  0  0  0  0  0  0
   20.0719    7.5036    7.1239 C   0  0  2  0  0  0  0  0  0  0  0  0
   19.3300    8.1353    6.0220 O   0  0  0  0  0  0  0  0  0  0  0  0
   18.6627    9.3941    2.5154 C   0  0  0  0  0  0  0  0  0  0  0  0
   18.9319    8.0943    3.0330 N   0  0  0  0  0  0  0  0  0  0  0  0
   14.4262    8.3174    8.0490 C   0  0  0  0  0  0  0  0  0  0  0  0
   13.9341    9.1181    7.0368 O   0  0  0  0  0  0  0  0  0  0  0  0
   20.5913    6.0618    6.6911 C   0  0  1  0  0  0  0  0  0  0  0  0
   21.6938    6.1544    5.7762 O   0  0  0  0  0  0  0  0  0  0  0  0
  1  2  1  1  0  0  0
  1  6  1  0  0  0  0
  1 23  1  0  0  0  0
  3  4  1  6  0  0  0
  3  8  1  0  0  0  0
  3 30  1  0  0  0  0
  5  9  1  0  0  0  0
  5 21  1  0  0  0  0
  5 25  1  6  0  0  0
  6  7  1  1  0  0  0
  6 11  1  0  0  0  0
  8 13  1  0  0  0  0
  9 10  1  1  0  0  0
  9 15  1  0  0  0  0
 11 12  1  6  0  0  0
 11 17  1  0  0  0  0
 13 14  1  1  0  0  0
 13 19  1  0  0  0  0
 15 16  1  1  0  0  0
 15 20  1  0  0  0  0
 17 18  1  1  0  0  0
 17 22  1  0  0  0  0
 19  2  1  1  0  0  0
 19 24  1  0  0  0  0
 20 21  1  0  0  0  0
 20 26  1  6  0  0  0
 22 23  1  0  0  0  0
 22 28  1  6  0  0  0
 24 25  1  6  0  0  0
 24 30  1  0  0  0  0
 26 27  1  0  0  0  0
 28 29  1  0  0  0  0
 30 31  1  6  0  0  0
M  END
>  <CHROM.1>
-179.00928848,80.82811736,-167.58945934,72.58579678,62.15238453,111.55162715
18.63738278,8.77297234,7.15681487,2.89349260,-0.72209874,2.33919174

>  <Name>
2o3x_lig

>  <RI>
0

>  <Rbt.Current_Directory>
/home/itssahil/PROJECTS/Mol_Feturizer/New_Systems/rnas/2o3x

>  <Rbt.Executable>
rbdock ($Id: //depot/dev/client3/rdock/2013.1/src/exe/rbdock.cxx#4 $)

>  <Rbt.Library>
libRbt.so (2013.1, Build901 2013/11/27)

>  <Rbt.Parameter_File>
/export/apps/rDock/src/rDock_2013.1_src/data/scripts/dock_solv.prm

>  <Rbt.Receptor>
prm/pocket_docking_4.prm

>  <SCORE>
-10.85

>  <SCORE.INTER>
-13.2134

>  <SCORE.INTER.CONST>
1

>  <SCORE.INTER.POLAR>
-1.22842

>  <SCORE.INTER.ROT>
6

>  <SCORE.INTER.SOLV>
14.0857

>  <SCORE.INTER.VDW>
-17.0094

>  <SCORE.INTER.norm>
-0.42624

>  <SCORE.INTRA>
2.32622

>  <SCORE.INTRA.DIHEDRAL>
0.837422

>  <SCORE.INTRA.DIHEDRAL.0>
9.37739

>  <SCORE.INTRA.POLAR>
0

>  <SCORE.INTRA.POLAR.0>
0

>  <SCORE.INTRA.REPUL>
0.000959752

>  <SCORE.INTRA.REPUL.0>
0

>  <SCORE.INTRA.SOLV>
1.29416

>  <SCORE.INTRA.SOLV.lig_0>
-82.9274

>  <SCORE.INTRA.VDW>
1.25563

>  <SCORE.INTRA.VDW.0>
-3.84922

>  <SCORE.INTRA.norm>
0.0750393

>  <SCORE.RESTR>
0.0372656

>  <SCORE.RESTR.CAVITY>
0.0372656

>  <SCORE.RESTR.norm>
0.00120211

>  <SCORE.SYSTEM>
0

>  <SCORE.SYSTEM.CONST>
0

>  <SCORE.SYSTEM.DIHEDRAL>
0

>  <SCORE.SYSTEM.SOLV>
0

>  <SCORE.SYSTEM.norm>
0

>  <SCORE.heavy>
31

>  <SCORE.norm>
-0.349999

>  <RMSD>
6.304

$$$$
2o3x_lig
 OpenBabel11021811463D
libRbt.so/2013.1/901 2013/11/27
 31 33  0  0  0  0  0  0  0  0999 V2000
   20.1839    7.9295    9.7218 C   0  0  2  0  0  0  0  0  0  0  0  0
   21.3863    8.4162    9.1112 O   0  0  0  0  0  0  0  0  0  0  0  0
   23.2487    8.4987    5.2611 C   0  0  2  0  0  0  0  0  0  0  0  0
   23.5285    8.3471    3.8161 N   0  0  0  0  0  0  0  0  0  0  0  0
   19.1451    9.4147    6.1801 C   0  0  1  0  0  0  0  0  0  0  0  0
   20.0607    8.5657   11.1425 C   0  0  2  0  0  0  0  0  0  0  0  0
   20.2825   10.0340   11.1191 N   0  0  0  0  0  0  0  0  0  0  0  0
   23.1390    7.1168    5.9874 C   0  0  0  0  0  0  0  0  0  0  0  0
   18.9652    7.8789    6.4144 C   0  0  2  0  0  0  0  0  0  0  0  0
   19.8137    7.0084    5.6164 O   0  0  0  0  0  0  0  0  0  0  0  0
   21.0675    7.9475   12.1310 C   0  0  1  0  0  0  0  0  0  0  0  0
   20.9041    8.4983   13.4132 O   0  0  0  0  0  0  0  0  0  0  0  0
   22.8724    7.3835    7.5139 C   0  0  2  0  0  0  0  0  0  0  0  0
   22.7731    6.1082    8.2854 N   0  0  0  0  0  0  0  0  0  0  0  0
   17.4726    7.7894    6.1443 C   0  0  2  0  0  0  0  0  0  0  0  0
   17.1960    7.7798    4.7017 O   0  0  0  0  0  0  0  0  0  0  0  0
   20.8857    6.4395   12.1716 C   0  0  2  0  0  0  0  0  0  0  0  0
   21.7786    5.8812   13.0809 O   0  0  0  0  0  0  0  0  0  0  0  0
   21.5502    8.1799    7.7055 C   0  0  2  0  0  0  0  0  0  0  0  0
   16.8911    9.0350    6.8026 C   0  0  2  0  0  0  0  0  0  0  0  0
   17.8660   10.0074    6.4359 O   0  0  0  0  0  0  0  0  0  0  0  0
   21.1152    5.8395   10.7556 C   0  0  2  0  0  0  0  0  0  0  0  0
   20.1934    6.4380    9.8191 O   0  0  0  0  0  0  0  0  0  0  0  0
   21.5301    9.5200    6.9438 C   0  0  2  0  0  0  0  0  0  0  0  0
   20.1410    9.9952    7.0364 O   0  0  0  0  0  0  0  0  0  0  0  0
   16.7517    8.9540    8.3606 C   0  0  0  0  0  0  0  0  0  0  0  0
   16.1003   10.1207    8.8550 N   0  0  0  0  0  0  0  0  0  0  0  0
   20.9294    4.3402   10.7260 C   0  0  0  0  0  0  0  0  0  0  0  0
   21.1544    3.8255    9.4641 O   0  0  0  0  0  0  0  0  0  0  0  0
   21.9417    9.2959    5.4219 C   0  0  1  0  0  0  0  0  0  0  0  0
   22.1449   10.5452    4.7443 O   0  0  0  0  0  0  0  0  0  0  0  0
  1  2  1  1  0  0  0
  1  6  1  0  0  0  0
  1 23  1  0  0  0  0
  3  4  1  6  0  0  0
  3  8  1  0  0  0  0
  3 30  1  0  0  0  0
  5  9  1  0  0  0  0
  5 21  1  0  0  0  0
  5 25  1  1  0  0  0
  6  7  1  6  0  0  0
  6 11  1  0  0  0  0
  8 13  1  0  0  0  0
  9 10  1  6  0  0  0
  9 15  1  0  0  0  0
 11 12  1  1  0  0  0
 11 17  1  0  0  0  0
 13 14  1  1  0  0  0
 13 19  1  0  0  0  0
 15 16  1  6  0  0  0
 15 20  1  0  0  0  0
 17 18  1  1  0  0  0
 17 22  1  0  0  0  0
 19  2  1  1  0  0  0
 19 24  1  0  0  0  0
 20 21  1  0  0  0  0
 20 26  1  1  0  0  0
 22 23  1  0  0  0  0
 22 28  1  1  0  0  0
 24 25  1  6  0  0  0
 24 30  1  0  0  0  0
 26 27  1  0  0  0  0
 28 29  1  0  0  0  0
 30 31  1  1  0  0  0
M  END
>  <CHROM.1>
-167.28387472,61.22106726,-122.33058916,-175.25117511,-179.22372090,-78.00617114
20.41006509,7.96116769,8.22929569,1.40702890,-0.38244702,1.86180579

>  <Name>
2o3x_lig

>  <RI>
3.34184e+07

>  <Rbt.Current_Directory>
/home/itssahil/PROJECTS/Mol_Feturizer/New_Systems/rnas/2o3x

>  <Rbt.Executable>
rbdock ($Id: //depot/dev/client3/rdock/2013.1/src/exe/rbdock.cxx#4 $)

>  <Rbt.Library>
libRbt.so (2013.1, Build901 2013/11/27)

>  <Rbt.Parameter_File>
/export/apps/rDock/src/rDock_2013.1_src/data/scripts/dock_solv.prm

>  <Rbt.Receptor>
prm/pocket_docking_6.prm

>  <SCORE>
-8.13097

>  <SCORE.INTER>
-9.17756

>  <SCORE.INTER.CONST>
1

>  <SCORE.INTER.POLAR>
-0.916585

>  <SCORE.INTER.ROT>
6

>  <SCORE.INTER.SOLV>
15.3725

>  <SCORE.INTER.VDW>
-15.7873

>  <SCORE.INTER.norm>
-0.29605

>  <SCORE.INTRA>
1.04659

>  <SCORE.INTRA.DIHEDRAL>
0.218411

>  <SCORE.INTRA.DIHEDRAL.0>
9.37739

>  <SCORE.INTRA.POLAR>
0

>  <SCORE.INTRA.POLAR.0>
0

>  <SCORE.INTRA.REPUL>
0

>  <SCORE.INTRA.REPUL.0>
0

>  <SCORE.INTRA.SOLV>
1.723

>  <SCORE.INTRA.SOLV.lig_0>
-82.9274

>  <SCORE.INTRA.VDW>
0.0758909

>  <SCORE.INTRA.VDW.0>
-3.84922

>  <SCORE.INTRA.norm>
0.0337611

>  <SCORE.RESTR>
0

>  <SCORE.RESTR.CAVITY>
0

>  <SCORE.RESTR.norm>
0

>  <SCORE.SYSTEM>
0

>  <SCORE.SYSTEM.CONST>
0

>  <SCORE.SYSTEM.DIHEDRAL>
0

>  <SCORE.SYSTEM.SOLV>
0

>  <SCORE.SYSTEM.norm>
0

>  <SCORE.heavy>
31

>  <SCORE.norm>
-0.262289

>  <RMSD>
6.319

$$$$
2o3x_lig
 OpenBabel11021811463D
libRbt.so/2013.1/901 2013/11/27
 31 33  0  0  0  0  0  0  0  0999 V2000
   20.2893    7.9839    9.3605 C   0  0  2  0  0  0  0  0  0  0  0  0
   21.7181    8.0134    9.4749 O   0  0  0  0  0  0  0  0  0  0  0  0
   24.8568    7.1152    6.7109 C   0  0  2  0  0  0  0  0  0  0  0  0
   25.7060    6.4608    5.6910 N   0  0  0  0  0  0  0  0  0  0  0  0
   20.5380    8.7330    5.6826 C   0  0  1  0  0  0  0  0  0  0  0  0
   19.6814    8.7350   10.5872 C   0  0  2  0  0  0  0  0  0  0  0  0
   20.3325   10.0499   10.8169 N   0  0  0  0  0  0  0  0  0  0  0  0
   24.8066    6.2998    8.0458 C   0  0  0  0  0  0  0  0  0  0  0  0
   19.2569    8.1965    4.9635 C   0  0  2  0  0  0  0  0  0  0  0  0
   19.4830    7.4000    3.7682 O   0  0  0  0  0  0  0  0  0  0  0  0
   19.8093    7.9076   11.8802 C   0  0  1  0  0  0  0  0  0  0  0  0
   19.2111    8.5800   12.9592 O   0  0  0  0  0  0  0  0  0  0  0  0
   23.9100    7.0874    9.0695 C   0  0  2  0  0  0  0  0  0  0  0  0
   23.8259    6.3812   10.3831 N   0  0  0  0  0  0  0  0  0  0  0  0
   18.5482    9.5248    4.7584 C   0  0  2  0  0  0  0  0  0  0  0  0
   19.1045   10.2487    3.6076 O   0  0  0  0  0  0  0  0  0  0  0  0
   19.1694    6.5439   11.6813 C   0  0  2  0  0  0  0  0  0  0  0  0
   19.2633    5.8031   12.8553 O   0  0  0  0  0  0  0  0  0  0  0  0
   22.4691    7.2621    8.5105 C   0  0  2  0  0  0  0  0  0  0  0  0
   18.7918   10.2904    6.0536 C   0  0  2  0  0  0  0  0  0  0  0  0
   20.1591    9.9710    6.2964 O   0  0  0  0  0  0  0  0  0  0  0  0
   19.8722    5.7936   10.5148 C   0  0  2  0  0  0  0  0  0  0  0  0
   19.7810    6.5793    9.3069 O   0  0  0  0  0  0  0  0  0  0  0  0
   22.4277    7.9749    7.1443 C   0  0  2  0  0  0  0  0  0  0  0  0
   21.0429    7.8229    6.6720 O   0  0  0  0  0  0  0  0  0  0  0  0
   17.8986    9.8457    7.2610 C   0  0  0  0  0  0  0  0  0  0  0  0
   18.1747   10.6573    8.3989 N   0  0  0  0  0  0  0  0  0  0  0  0
   19.2668    4.4338   10.2541 C   0  0  0  0  0  0  0  0  0  0  0  0
   17.9259    4.5275    9.9361 O   0  0  0  0  0  0  0  0  0  0  0  0
   23.4413    7.2829    6.1298 C   0  0  1  0  0  0  0  0  0  0  0  0
   23.5874    8.0532    4.9271 O   0  0  0  0  0  0  0  0  0  0  0  0
  1  2  1  1  0  0  0
  1  6  1  0  0  0  0
  1 23  1  0  0  0  0
  3  4  1  6  0  0  0
  3  8  1  0  0  0  0
  3 30  1  0  0  0  0
  5  9  1  0  0  0  0
  5 21  1  0  0  0  0
  5 25  1  1  0  0  0
  6  7  1  1  0  0  0
  6 11  1  0  0  0  0
  8 13  1  0  0  0  0
  9 10  1  6  0  0  0
  9 15  1  0  0  0  0
 11 12  1  1  0  0  0
 11 17  1  0  0  0  0
 13 14  1  1  0  0  0
 13 19  1  0  0  0  0
 15 16  1  6  0  0  0
 15 20  1  0  0  0  0
 17 18  1  1  0  0  0
 17 22  1  0  0  0  0
 19  2  1  1  0  0  0
 19 24  1  0  0  0  0
 20 21  1  0  0  0  0
 20 26  1  1  0  0  0
 22 23  1  0  0  0  0
 22 28  1  6  0  0  0
 24 25  1  6  0  0  0
 24 30  1  0  0  0  0
 26 27  1  0  0  0  0
 28 29  1  0  0  0  0
 30 31  1  6  0  0  0
M  END
>  <CHROM.1>
174.08107686,161.93276471,-163.16330660,-177.84995247,59.24322141,158.72667560
20.75101836,7.78490450,8.17818540,1.83049233,-0.37327053,1.93507351

>  <Name>
2o3x_lig

>  <RI>
0

>  <Rbt.Current_Directory>
/home/itssahil/PROJECTS/Mol_Feturizer/New_Systems/rnas/2o3x

>  <Rbt.Executable>
rbdock ($Id: //depot/dev/client3/rdock/2013.1/src/exe/rbdock.cxx#4 $)

>  <Rbt.Library>
libRbt.so (2013.1, Build901 2013/11/27)

>  <Rbt.Parameter_File>
/export/apps/rDock/src/rDock_2013.1_src/data/scripts/dock_solv.prm

>  <Rbt.Receptor>
prm/pocket_docking_4.prm

>  <SCORE>
-10.2395

>  <SCORE.INTER>
-8.3579

>  <SCORE.INTER.CONST>
1

>  <SCORE.INTER.POLAR>
-1.41304

>  <SCORE.INTER.ROT>
6

>  <SCORE.INTER.SOLV>
15.7215

>  <SCORE.INTER.VDW>
-13.7023

>  <SCORE.INTER.norm>
-0.26961

>  <SCORE.INTRA>
-1.88158

>  <SCORE.INTRA.DIHEDRAL>
-4.21357

>  <SCORE.INTRA.DIHEDRAL.0>
9.37739

>  <SCORE.INTRA.POLAR>
0

>  <SCORE.INTRA.POLAR.0>
0

>  <SCORE.INTRA.REPUL>
0

>  <SCORE.INTRA.REPUL.0>
0

>  <SCORE.INTRA.SOLV>
0.532741

>  <SCORE.INTRA.SOLV.lig_0>
-82.9274

>  <SCORE.INTRA.VDW>
-0.0411651

>  <SCORE.INTRA.VDW.0>
-3.84922

>  <SCORE.INTRA.norm>
-0.0606961

>  <SCORE.RESTR>
0

>  <SCORE.RESTR.CAVITY>
0

>  <SCORE.RESTR.norm>
0

>  <SCORE.SYSTEM>
0

>  <SCORE.SYSTEM.CONST>
0

>  <SCORE.SYSTEM.DIHEDRAL>
0

>  <SCORE.SYSTEM.SOLV>
0

>  <SCORE.SYSTEM.norm>
0

>  <SCORE.heavy>
31

>  <SCORE.norm>
-0.330306

>  <RMSD>
6.322

$$$$
2o3x_lig
 OpenBabel11021811463D
libRbt.so/2013.1/901 2013/11/27
 31 33  0  0  0  0  0  0  0  0999 V2000
   19.9068    8.5986    9.5006 C   0  0  2  0  0  0  0  0  0  0  0  0
   20.3657    9.8323   10.0689 O   0  0  0  0  0  0  0  0  0  0  0  0
   19.1924   12.0743   13.5178 C   0  0  2  0  0  0  0  0  0  0  0  0
   18.4014   12.7658   14.5597 N   0  0  0  0  0  0  0  0  0  0  0  0
   18.8391    7.4671   13.1126 C   0  0  1  0  0  0  0  0  0  0  0  0
   21.1282    7.8677    8.8584 C   0  0  2  0  0  0  0  0  0  0  0  0
   22.2957    7.8182    9.7750 N   0  0  0  0  0  0  0  0  0  0  0  0
   19.0536   12.7634   12.1195 C   0  0  0  0  0  0  0  0  0  0  0  0
   18.0560    6.1782   12.6980 C   0  0  2  0  0  0  0  0  0  0  0  0
   16.6442    6.1508   13.0450 O   0  0  0  0  0  0  0  0  0  0  0  0
   21.5764    8.5507    7.5525 C   0  0  1  0  0  0  0  0  0  0  0  0
   22.6424    7.8473    6.9666 O   0  0  0  0  0  0  0  0  0  0  0  0
   19.9492   11.9779   11.0932 C   0  0  2  0  0  0  0  0  0  0  0  0
   19.8869   12.5870    9.7308 N   0  0  0  0  0  0  0  0  0  0  0  0
   18.9363    5.1536   13.3939 C   0  0  2  0  0  0  0  0  0  0  0  0
   18.6355    5.0866   14.8301 O   0  0  0  0  0  0  0  0  0  0  0  0
   20.4031    8.6379    6.5909 C   0  0  2  0  0  0  0  0  0  0  0  0
   20.8111    9.2337    5.4017 O   0  0  0  0  0  0  0  0  0  0  0  0
   19.4900   10.4952   10.9920 C   0  0  2  0  0  0  0  0  0  0  0  0
   20.3579    5.6495   13.1572 C   0  0  2  0  0  0  0  0  0  0  0  0
   20.1871    7.0494   13.3608 O   0  0  0  0  0  0  0  0  0  0  0  0
   19.2498    9.4582    7.2349 C   0  0  2  0  0  0  0  0  0  0  0  0
   18.8463    8.8383    8.4750 O   0  0  0  0  0  0  0  0  0  0  0  0
   19.5032    9.7593   12.3464 C   0  0  2  0  0  0  0  0  0  0  0  0
   18.8136    8.4838   12.0988 O   0  0  0  0  0  0  0  0  0  0  0  0
   20.9260    5.3655   11.7254 C   0  0  0  0  0  0  0  0  0  0  0  0
   21.0549    3.9616   11.5197 N   0  0  0  0  0  0  0  0  0  0  0  0
   18.0425    9.5651    6.3324 C   0  0  0  0  0  0  0  0  0  0  0  0
   17.4588    8.3319    6.1170 O   0  0  0  0  0  0  0  0  0  0  0  0
   18.7240   10.6098   13.4443 C   0  0  1  0  0  0  0  0  0  0  0  0
   18.9056   10.0614   14.7586 O   0  0  0  0  0  0  0  0  0  0  0  0
  1  2  1  6  0  0  0
  1  6  1  0  0  0  0
  1 23  1  0  0  0  0
  3  4  1  1  0  0  0
  3  8  1  0  0  0  0
  3 30  1  0  0  0  0
  5  9  1  0  0  0  0
  5 21  1  0  0  0  0
  5 25  1  6  0  0  0
  6  7  1  1  0  0  0
  6 11  1  0  0  0  0
  8 13  1  0  0  0  0
  9 10  1  1  0  0  0
  9 15  1  0  0  0  0
 11 12  1  6  0  0  0
 11 17  1  0  0  0  0
 13 14  1  6  0  0  0
 13 19  1  0  0  0  0
 15 16  1  1  0  0  0
 15 20  1  0  0  0  0
 17 18  1  6  0  0  0
 17 22  1  0  0  0  0
 19  2  1  6  0  0  0
 19 24  1  0  0  0  0
 20 21  1  0  0  0  0
 20 26  1  6  0  0  0
 22 23  1  0  0  0  0
 22 28  1  6  0  0  0
 24 25  1  6  0  0  0
 24 30  1  0  0  0  0
 26 27  1  0  0  0  0
 28 29  1  0  0  0  0
 30 31  1  1  0  0  0
M  END
>  <CHROM.1>
-164.70766443,179.72838048,-161.16138651,-65.11133949,65.02830187,170.27813513
19.60749126,8.62394288,10.76830692,-0.70083186,-1.33358900,2.62644057

>  <Name>
2o3x_lig

>  <RI>
2.78316e+07

>  <Rbt.Current_Directory>
/home/itssahil/PROJECTS/Mol_Feturizer/New_Systems/rnas/2o3x

>  <Rbt.Executable>
rbdock ($Id: //depot/dev/client3/rdock/2013.1/src/exe/rbdock.cxx#4 $)

>  <Rbt.Library>
libRbt.so (2013.1, Build901 2013/11/27)

>  <Rbt.Parameter_File>
/export/apps/rDock/src/rDock_2013.1_src/data/scripts/dock_solv.prm

>  <Rbt.Receptor>
prm/pocket_docking_7.prm

>  <SCORE>
-15.1967

>  <SCORE.INTER>
-12.0556

>  <SCORE.INTER.CONST>
1

>  <SCORE.INTER.POLAR>
-1.78279

>  <SCORE.INTER.ROT>
6

>  <SCORE.INTER.SOLV>
20.9766

>  <SCORE.INTER.VDW>
-16.6866

>  <SCORE.INTER.norm>
-0.38889

>  <SCORE.INTRA>
-3.14108

>  <SCORE.INTRA.DIHEDRAL>
-5.85618

>  <SCORE.INTRA.DIHEDRAL.0>
9.37739

>  <SCORE.INTRA.POLAR>
0

>  <SCORE.INTRA.POLAR.0>
0

>  <SCORE.INTRA.REPUL>
0

>  <SCORE.INTRA.REPUL.0>
0

>  <SCORE.INTRA.SOLV>
-1.27306

>  <SCORE.INTRA.SOLV.lig_0>
-82.9274

>  <SCORE.INTRA.VDW>
0.423537

>  <SCORE.INTRA.VDW.0>
-3.84922

>  <SCORE.INTRA.norm>
-0.101325

>  <SCORE.RESTR>
0

>  <SCORE.RESTR.CAVITY>
0

>  <SCORE.RESTR.norm>
0

>  <SCORE.SYSTEM>
0

>  <SCORE.SYSTEM.CONST>
0

>  <SCORE.SYSTEM.DIHEDRAL>
0

>  <SCORE.SYSTEM.SOLV>
0

>  <SCORE.SYSTEM.norm>
0

>  <SCORE.heavy>
31

>  <SCORE.norm>
-0.490216

>  <RMSD>
6.322

$$$$
2o3x_lig
 OpenBabel11021811463D
libRbt.so/2013.1/901 2013/11/27
 31 33  0  0  0  0  0  0  0  0999 V2000
   23.8405    6.4934   10.0097 C   0  0  2  0  0  0  0  0  0  0  0  0
   23.3090    7.4897    9.1263 O   0  0  0  0  0  0  0  0  0  0  0  0
   23.5308    7.8517    4.8698 C   0  0  2  0  0  0  0  0  0  0  0  0
   23.3969    7.6116    3.4159 N   0  0  0  0  0  0  0  0  0  0  0  0
   19.6615    8.4270    7.1978 C   0  0  1  0  0  0  0  0  0  0  0  0
   22.7880    5.3485   10.1511 C   0  0  2  0  0  0  0  0  0  0  0  0
   22.2669    4.9019    8.8340 N   0  0  0  0  0  0  0  0  0  0  0  0
   24.4509    6.7898    5.5592 C   0  0  0  0  0  0  0  0  0  0  0  0
   18.3609    7.9683    7.9354 C   0  0  2  0  0  0  0  0  0  0  0  0
   17.6461    6.8539    7.3341 O   0  0  0  0  0  0  0  0  0  0  0  0
   21.5891    5.7827   11.0154 C   0  0  1  0  0  0  0  0  0  0  0  0
   20.6809    4.7218   11.1706 O   0  0  0  0  0  0  0  0  0  0  0  0
   24.5540    7.1465    7.0871 C   0  0  2  0  0  0  0  0  0  0  0  0
   25.4350    6.1863    7.8173 N   0  0  0  0  0  0  0  0  0  0  0  0
   17.6333    9.3023    7.9466 C   0  0  2  0  0  0  0  0  0  0  0  0
   17.0093    9.5750    6.6451 O   0  0  0  0  0  0  0  0  0  0  0  0
   22.0816    6.2651   12.3694 C   0  0  2  0  0  0  0  0  0  0  0  0
   20.9987    6.6362   13.1603 O   0  0  0  0  0  0  0  0  0  0  0  0
   23.1463    7.1249    7.7483 C   0  0  2  0  0  0  0  0  0  0  0  0
   18.7195   10.3259    8.2556 C   0  0  2  0  0  0  0  0  0  0  0  0
   19.7854    9.8321    7.4490 O   0  0  0  0  0  0  0  0  0  0  0  0
   23.0489    7.4682   12.1839 C   0  0  2  0  0  0  0  0  0  0  0  0
   24.1595    7.0745   11.3493 O   0  0  0  0  0  0  0  0  0  0  0  0
   22.1400    8.0759    7.0706 C   0  0  2  0  0  0  0  0  0  0  0  0
   20.8340    7.7359    7.6559 O   0  0  0  0  0  0  0  0  0  0  0  0
   19.1522   10.3954    9.7594 C   0  0  0  0  0  0  0  0  0  0  0  0
   20.0130   11.5110    9.9698 N   0  0  0  0  0  0  0  0  0  0  0  0
   23.5897    7.9831   13.4975 C   0  0  0  0  0  0  0  0  0  0  0  0
   22.5999    8.5762   14.2567 O   0  0  0  0  0  0  0  0  0  0  0  0
   22.1251    7.8332    5.4968 C   0  0  1  0  0  0  0  0  0  0  0  0
   21.3667    8.8452    4.8173 O   0  0  0  0  0  0  0  0  0  0  0  0
  1  2  1  6  0  0  0
  1  6  1  0  0  0  0
  1 23  1  0  0  0  0
  3  4  1  6  0  0  0
  3  8  1  0  0  0  0
  3 30  1  0  0  0  0
  5  9  1  0  0  0  0
  5 21  1  0  0  0  0
  5 25  1  1  0  0  0
  6  7  1  6  0  0  0
  6 11  1  0  0  0  0
  8 13  1  0  0  0  0
  9 10  1  6  0  0  0
  9 15  1  0  0  0  0
 11 12  1  1  0  0  0
 11 17  1  0  0  0  0
 13 14  1  1  0  0  0
 13 19  1  0  0  0  0
 15 16  1  6  0  0  0
 15 20  1  0  0  0  0
 17 18  1  1  0  0  0
 17 22  1  0  0  0  0
 19  2  1  1  0  0  0
 19 24  1  0  0  0  0
 20 21  1  0  0  0  0
 20 26  1  1  0  0  0
 22 23  1  0  0  0  0
 22 28  1  1  0  0  0
 24 25  1  1  0  0  0
 24 30  1  0  0  0  0
 26 27  1  0  0  0  0
 28 29  1  0  0  0  0
 30 31  1  6  0  0  0
M  END
>  <CHROM.1>
-67.71291978,-178.98804365,-76.21022626,-171.18713363,-68.14917584,-178.12823891
21.57380764,7.68895546,8.77893111,-1.17078952,0.45189739,-1.47556017

>  <Name>
2o3x_lig

>  <RI>
0

>  <Rbt.Current_Directory>
/home/itssahil/PROJECTS/Mol_Feturizer/New_Systems/rnas/2o3x

>  <Rbt.Executable>
rbdock ($Id: //depot/dev/client3/rdock/2013.1/src/exe/rbdock.cxx#4 $)

>  <Rbt.Library>
libRbt.so (2013.1, Build901 2013/11/27)

>  <Rbt.Parameter_File>
/export/apps/rDock/src/rDock_2013.1_src/data/scripts/dock_solv.prm

>  <Rbt.Receptor>
prm/pocket_docking_4.prm

>  <SCORE>
-12.0365

>  <SCORE.INTER>
-12.0966

>  <SCORE.INTER.CONST>
1

>  <SCORE.INTER.POLAR>
-0.956993

>  <SCORE.INTER.ROT>
6

>  <SCORE.INTER.SOLV>
18.4341

>  <SCORE.INTER.VDW>
-18.6191

>  <SCORE.INTER.norm>
-0.390214

>  <SCORE.INTRA>
0.0531795

>  <SCORE.INTRA.DIHEDRAL>
-7.19794

>  <SCORE.INTRA.DIHEDRAL.0>
9.37739

>  <SCORE.INTRA.POLAR>
0

>  <SCORE.INTRA.POLAR.0>
0

>  <SCORE.INTRA.REPUL>
0

>  <SCORE.INTRA.REPUL.0>
0

>  <SCORE.INTRA.SOLV>
1.97662

>  <SCORE.INTRA.SOLV.lig_0>
-82.9274

>  <SCORE.INTRA.VDW>
2.66384

>  <SCORE.INTRA.VDW.0>
-3.84922

>  <SCORE.INTRA.norm>
0.00171547

>  <SCORE.RESTR>
0.00699515

>  <SCORE.RESTR.CAVITY>
0.00699515

>  <SCORE.RESTR.norm>
0.00022565

>  <SCORE.SYSTEM>
0

>  <SCORE.SYSTEM.CONST>
0

>  <SCORE.SYSTEM.DIHEDRAL>
0

>  <SCORE.SYSTEM.SOLV>
0

>  <SCORE.SYSTEM.norm>
0

>  <SCORE.heavy>
31

>  <SCORE.norm>
-0.388273

>  <RMSD>
6.328

$$$$
2o3x_lig
 OpenBabel11021811463D
libRbt.so/2013.1/901 2013/11/27
 31 33  0  0  0  0  0  0  0  0999 V2000
   19.8433    9.6108    8.5283 C   0  0  2  0  0  0  0  0  0  0  0  0
   18.6074    9.6096    7.8017 O   0  0  0  0  0  0  0  0  0  0  0  0
   17.8722    9.2090    3.6068 C   0  0  2  0  0  0  0  0  0  0  0  0
   17.7848    8.6890    2.2243 N   0  0  0  0  0  0  0  0  0  0  0  0
   16.9293    6.2256    6.4973 C   0  0  1  0  0  0  0  0  0  0  0  0
   19.8310    8.4069    9.5228 C   0  0  2  0  0  0  0  0  0  0  0  0
   19.4132    7.1424    8.8655 N   0  0  0  0  0  0  0  0  0  0  0  0
   19.3545    9.3992    4.0713 C   0  0  0  0  0  0  0  0  0  0  0  0
   18.4274    5.7779    6.5354 C   0  0  2  0  0  0  0  0  0  0  0  0
   19.1979    6.0264    5.3275 O   0  0  0  0  0  0  0  0  0  0  0  0
   18.8844    8.6615   10.7111 C   0  0  1  0  0  0  0  0  0  0  0  0
   18.9281    7.5887   11.6174 O   0  0  0  0  0  0  0  0  0  0  0  0
   19.3412    9.9805    5.5322 C   0  0  2  0  0  0  0  0  0  0  0  0
   20.7252   10.2101    6.0449 N   0  0  0  0  0  0  0  0  0  0  0  0
   18.2111    4.3196    6.9031 C   0  0  2  0  0  0  0  0  0  0  0  0
   17.8224    3.5299    5.7271 O   0  0  0  0  0  0  0  0  0  0  0  0
   19.2674    9.9592   11.4025 C   0  0  2  0  0  0  0  0  0  0  0  0
   18.4282   10.1796   12.4901 O   0  0  0  0  0  0  0  0  0  0  0  0
   18.6121    9.0055    6.5003 C   0  0  2  0  0  0  0  0  0  0  0  0
   17.0895    4.3493    7.9347 C   0  0  2  0  0  0  0  0  0  0  0  0
   16.2233    5.3213    7.3557 O   0  0  0  0  0  0  0  0  0  0  0  0
   19.1695   11.1432   10.3995 C   0  0  2  0  0  0  0  0  0  0  0  0
   20.0328   10.8951    9.2690 O   0  0  0  0  0  0  0  0  0  0  0  0
   17.1681    8.6834    6.0677 C   0  0  2  0  0  0  0  0  0  0  0  0
   16.7416    7.5786    6.9403 O   0  0  0  0  0  0  0  0  0  0  0  0
   17.5276    4.7878    9.3732 C   0  0  0  0  0  0  0  0  0  0  0  0
   18.4013    3.8138    9.9368 N   0  0  0  0  0  0  0  0  0  0  0  0
   19.5577   12.4634   11.0239 C   0  0  0  0  0  0  0  0  0  0  0  0
   20.0520   13.3447   10.0821 O   0  0  0  0  0  0  0  0  0  0  0  0
   17.1372    8.2311    4.5411 C   0  0  1  0  0  0  0  0  0  0  0  0
   15.7917    8.1369    4.0492 O   0  0  0  0  0  0  0  0  0  0  0  0
  1  2  1  1  0  0  0
  1  6  1  0  0  0  0
  1 23  1  0  0  0  0
  3  4  1  6  0  0  0
  3  8  1  0  0  0  0
  3 30  1  0  0  0  0
  5  9  1  0  0  0  0
  5 21  1  0  0  0  0
  5 25  1  1  0  0  0
  6  7  1  6  0  0  0
  6 11  1  0  0  0  0
  8 13  1  0  0  0  0
  9 10  1  6  0  0  0
  9 15  1  0  0  0  0
 11 12  1  1  0  0  0
 11 17  1  0  0  0  0
 13 14  1  1  0  0  0
 13 19  1  0  0  0  0
 15 16  1  6  0  0  0
 15 20  1  0  0  0  0
 17 18  1  1  0  0  0
 17 22  1  0  0  0  0
 19  2  1  1  0  0  0
 19 24  1  0  0  0  0
 20 21  1  0  0  0  0
 20 26  1  1  0  0  0
 22 23  1  0  0  0  0
 22 28  1  1  0  0  0
 24 25  1  1  0  0  0
 24 30  1  0  0  0  0
 26 27  1  0  0  0  0
 28 29  1  0  0  0  0
 30 31  1  6  0  0  0
M  END
>  <CHROM.1>
-97.41364940,72.89347243,-74.45190349,-66.35905136,152.55037284,-92.27488219
18.45257036,8.14275187,7.66582557,-0.33848759,-1.27847861,-1.08125759

>  <Name>
2o3x_lig

>  <RI>
0

>  <Rbt.Current_Directory>
/home/itssahil/PROJECTS/Mol_Feturizer/New_Systems/rnas/2o3x

>  <Rbt.Executable>
rbdock ($Id: //depot/dev/client3/rdock/2013.1/src/exe/rbdock.cxx#4 $)

>  <Rbt.Library>
libRbt.so (2013.1, Build901 2013/11/27)

>  <Rbt.Parameter_File>
/export/apps/rDock/src/rDock_2013.1_src/data/scripts/dock_solv.prm

>  <Rbt.Receptor>
prm/pocket_docking_8.prm

>  <SCORE>
-6.1906

>  <SCORE.INTER>
-12.2791

>  <SCORE.INTER.CONST>
1

>  <SCORE.INTER.POLAR>
-1.93664

>  <SCORE.INTER.ROT>
6

>  <SCORE.INTER.SOLV>
17.6917

>  <SCORE.INTER.VDW>
-15.2278

>  <SCORE.INTER.norm>
-0.396101

>  <SCORE.INTRA>
6.08852

>  <SCORE.INTRA.DIHEDRAL>
3.9681

>  <SCORE.INTRA.DIHEDRAL.0>
9.37739

>  <SCORE.INTRA.POLAR>
0

>  <SCORE.INTRA.POLAR.0>
0

>  <SCORE.INTRA.REPUL>
0

>  <SCORE.INTRA.REPUL.0>
0

>  <SCORE.INTRA.SOLV>
5.51501

>  <SCORE.INTRA.SOLV.lig_0>
-82.9274

>  <SCORE.INTRA.VDW>
1.34696

>  <SCORE.INTRA.VDW.0>
-3.84922

>  <SCORE.INTRA.norm>
0.196404

>  <SCORE.RESTR>
0

>  <SCORE.RESTR.CAVITY>
0

>  <SCORE.RESTR.norm>
0

>  <SCORE.SYSTEM>
0

>  <SCORE.SYSTEM.CONST>
0

>  <SCORE.SYSTEM.DIHEDRAL>
0

>  <SCORE.SYSTEM.SOLV>
0

>  <SCORE.SYSTEM.norm>
0

>  <SCORE.heavy>
31

>  <SCORE.norm>
-0.199697

>  <RMSD>
6.335

$$$$
2o3x_lig
 OpenBabel11021811463D
libRbt.so/2013.1/901 2013/11/27
 31 33  0  0  0  0  0  0  0  0999 V2000
   19.6140    9.0261    9.4512 C   0  0  2  0  0  0  0  0  0  0  0  0
   20.9416    8.4849    9.4412 O   0  0  0  0  0  0  0  0  0  0  0  0
   23.6717    7.3518    6.3492 C   0  0  2  0  0  0  0  0  0  0  0  0
   24.2626    6.8075    5.1067 N   0  0  0  0  0  0  0  0  0  0  0  0
   19.6860    8.9680    5.9243 C   0  0  1  0  0  0  0  0  0  0  0  0
   19.3448    9.6444   10.8596 C   0  0  2  0  0  0  0  0  0  0  0  0
   20.4560   10.5224   11.3069 N   0  0  0  0  0  0  0  0  0  0  0  0
   23.1176    6.2230    7.2809 C   0  0  0  0  0  0  0  0  0  0  0  0
   18.3026    9.6852    5.7899 C   0  0  2  0  0  0  0  0  0  0  0  0
   17.2780    9.2767    6.7374 O   0  0  0  0  0  0  0  0  0  0  0  0
   19.1391    8.5545   11.9286 C   0  0  1  0  0  0  0  0  0  0  0  0
   18.8484    9.1328   13.1757 O   0  0  0  0  0  0  0  0  0  0  0  0
   22.5418    6.8963    8.5800 C   0  0  2  0  0  0  0  0  0  0  0  0
   22.0075    5.8797    9.5351 N   0  0  0  0  0  0  0  0  0  0  0  0
   18.0303    9.3642    4.3299 C   0  0  2  0  0  0  0  0  0  0  0  0
   17.5314    7.9914    4.1746 O   0  0  0  0  0  0  0  0  0  0  0  0
   18.0193    7.6212   11.4999 C   0  0  2  0  0  0  0  0  0  0  0  0
   17.8162    6.6494   12.4747 O   0  0  0  0  0  0  0  0  0  0  0  0
   21.3962    7.8848    8.2199 C   0  0  2  0  0  0  0  0  0  0  0  0
   19.3809    9.5343    3.6443 C   0  0  2  0  0  0  0  0  0  0  0  0
   20.2429    8.9302    4.6047 O   0  0  0  0  0  0  0  0  0  0  0  0
   18.3761    6.9537   10.1417 C   0  0  2  0  0  0  0  0  0  0  0  0
   18.5993    7.9727    9.1434 O   0  0  0  0  0  0  0  0  0  0  0  0
   21.8275    8.9819    7.2266 C   0  0  2  0  0  0  0  0  0  0  0  0
   20.5796    9.6465    6.8206 O   0  0  0  0  0  0  0  0  0  0  0  0
   19.8042   11.0189    3.3795 C   0  0  0  0  0  0  0  0  0  0  0  0
   20.2635   11.6195    4.5871 N   0  0  0  0  0  0  0  0  0  0  0  0
   17.2897    6.0253    9.6507 C   0  0  0  0  0  0  0  0  0  0  0  0
   16.1196    6.7092    9.3840 O   0  0  0  0  0  0  0  0  0  0  0  0
   22.5482    8.3312    5.9645 C   0  0  1  0  0  0  0  0  0  0  0  0
   23.1531    9.3325    5.1321 O   0  0  0  0  0  0  0  0  0  0  0  0
  1  2  1  1  0  0  0
  1  6  1  0  0  0  0
  1 23  1  0  0  0  0
  3  4  1  6  0  0  0
  3  8  1  0  0  0  0
  3 30  1  0  0  0  0
  5  9  1  0  0  0  0
  5 21  1  0  0  0  0
  5 25  1  1  0  0  0
  6  7  1  1  0  0  0
  6 11  1  0  0  0  0
  8 13  1  0  0  0  0
  9 10  1  1  0  0  0
  9 15  1  0  0  0  0
 11 12  1  1  0  0  0
 11 17  1  0  0  0  0
 13 14  1  1  0  0  0
 13 19  1  0  0  0  0
 15 16  1  1  0  0  0
 15 20  1  0  0  0  0
 17 18  1  1  0  0  0
 17 22  1  0  0  0  0
 19  2  1  1  0  0  0
 19 24  1  0  0  0  0
 20 21  1  0  0  0  0
 20 26  1  1  0  0  0
 22 23  1  0  0  0  0
 22 28  1  6  0  0  0
 24 25  1  6  0  0  0
 24 30  1  0  0  0  0
 26 27  1  0  0  0  0
 28 29  1  0  0  0  0
 30 31  1  6  0  0  0
M  END
>  <CHROM.1>
-178.98929935,169.83152819,-157.31254524,76.88973117,63.83219638,-73.75940760
19.96160031,8.41751926,7.81367039,1.91366100,-0.20894637,1.84377204

>  <Name>
2o3x_lig

>  <RI>
0

>  <Rbt.Current_Directory>
/home/itssahil/PROJECTS/Mol_Feturizer/New_Systems/rnas/2o3x

>  <Rbt.Executable>
rbdock ($Id: //depot/dev/client3/rdock/2013.1/src/exe/rbdock.cxx#4 $)

>  <Rbt.Library>
libRbt.so (2013.1, Build901 2013/11/27)

>  <Rbt.Parameter_File>
/export/apps/rDock/src/rDock_2013.1_src/data/scripts/dock_solv.prm

>  <Rbt.Receptor>
prm/pocket_docking_4.prm

>  <SCORE>
-13.1118

>  <SCORE.INTER>
-12.7555

>  <SCORE.INTER.CONST>
1

>  <SCORE.INTER.POLAR>
-1.95947

>  <SCORE.INTER.ROT>
6

>  <SCORE.INTER.SOLV>
14.6265

>  <SCORE.INTER.VDW>
-14.4476

>  <SCORE.INTER.norm>
-0.411468

>  <SCORE.INTRA>
-0.356301

>  <SCORE.INTRA.DIHEDRAL>
-4.62226

>  <SCORE.INTRA.DIHEDRAL.0>
9.37739

>  <SCORE.INTRA.POLAR>
0

>  <SCORE.INTRA.POLAR.0>
0

>  <SCORE.INTRA.REPUL>
0

>  <SCORE.INTRA.REPUL.0>
0

>  <SCORE.INTRA.SOLV>
2.52597

>  <SCORE.INTRA.SOLV.lig_0>
-82.9274

>  <SCORE.INTRA.VDW>
0.691843

>  <SCORE.INTRA.VDW.0>
-3.84922

>  <SCORE.INTRA.norm>
-0.0114936

>  <SCORE.RESTR>
0

>  <SCORE.RESTR.CAVITY>
0

>  <SCORE.RESTR.norm>
0

>  <SCORE.SYSTEM>
0

>  <SCORE.SYSTEM.CONST>
0

>  <SCORE.SYSTEM.DIHEDRAL>
0

>  <SCORE.SYSTEM.SOLV>
0

>  <SCORE.SYSTEM.norm>
0

>  <SCORE.heavy>
31

>  <SCORE.norm>
-0.422962

>  <RMSD>
6.342

$$$$
2o3x_lig
 OpenBabel11021811463D
libRbt.so/2013.1/901 2013/11/27
 31 33  0  0  0  0  0  0  0  0999 V2000
   18.5876   10.0981    7.6580 C   0  0  2  0  0  0  0  0  0  0  0  0
   19.5064    9.1341    8.1890 O   0  0  0  0  0  0  0  0  0  0  0  0
   22.8031    6.9986    6.4951 C   0  0  2  0  0  0  0  0  0  0  0  0
   23.6675    6.2037    5.5948 N   0  0  0  0  0  0  0  0  0  0  0  0
   20.2172    9.7153    4.4188 C   0  0  1  0  0  0  0  0  0  0  0  0
   18.1700   11.0668    8.8093 C   0  0  2  0  0  0  0  0  0  0  0  0
   19.3423   11.5702    9.5696 N   0  0  0  0  0  0  0  0  0  0  0  0
   21.5990    6.1629    7.0439 C   0  0  0  0  0  0  0  0  0  0  0  0
   18.8536   10.3543    3.9965 C   0  0  2  0  0  0  0  0  0  0  0  0
   17.6600    9.6074    4.3594 O   0  0  0  0  0  0  0  0  0  0  0  0
   17.2128   10.3857    9.8056 C   0  0  1  0  0  0  0  0  0  0  0  0
   16.8109   11.2901   10.8030 O   0  0  0  0  0  0  0  0  0  0  0  0
   20.7626    7.0809    8.0083 C   0  0  2  0  0  0  0  0  0  0  0  0
   19.5992    6.3483    8.5925 N   0  0  0  0  0  0  0  0  0  0  0  0
   19.1287   10.4947    2.5087 C   0  0  2  0  0  0  0  0  0  0  0  0
   18.9443    9.2138    1.8138 O   0  0  0  0  0  0  0  0  0  0  0  0
   16.0047    9.8392    9.0635 C   0  0  2  0  0  0  0  0  0  0  0  0
   15.1275    9.2437    9.9644 O   0  0  0  0  0  0  0  0  0  0  0  0
   20.2284    8.3277    7.2472 C   0  0  2  0  0  0  0  0  0  0  0  0
   20.5804   10.9527    2.4315 C   0  0  2  0  0  0  0  0  0  0  0  0
   21.1712   10.1290    3.4330 O   0  0  0  0  0  0  0  0  0  0  0  0
   16.4615    8.8059    7.9953 C   0  0  2  0  0  0  0  0  0  0  0  0
   17.3826    9.4319    7.0764 O   0  0  0  0  0  0  0  0  0  0  0  0
   21.3436    9.1640    6.5889 C   0  0  2  0  0  0  0  0  0  0  0  0
   20.6440   10.1284    5.7262 O   0  0  0  0  0  0  0  0  0  0  0  0
   20.8126   12.4675    2.7554 C   0  0  0  0  0  0  0  0  0  0  0  0
   22.1973   12.7845    2.6467 N   0  0  0  0  0  0  0  0  0  0  0  0
   15.3035    8.2382    7.2078 C   0  0  0  0  0  0  0  0  0  0  0  0
   14.5808    9.2333    6.5789 O   0  0  0  0  0  0  0  0  0  0  0  0
   22.2955    8.2282    5.7206 C   0  0  1  0  0  0  0  0  0  0  0  0
   23.4631    8.9357    5.2765 O   0  0  0  0  0  0  0  0  0  0  0  0
  1  2  1  1  0  0  0
  1  6  1  0  0  0  0
  1 23  1  0  0  0  0
  3  4  1  6  0  0  0
  3  8  1  0  0  0  0
  3 30  1  0  0  0  0
  5  9  1  0  0  0  0
  5 21  1  0  0  0  0
  5 25  1  1  0  0  0
  6  7  1  1  0  0  0
  6 11  1  0  0  0  0
  8 13  1  0  0  0  0
  9 10  1  6  0  0  0
  9 15  1  0  0  0  0
 11 12  1  1  0  0  0
 11 17  1  0  0  0  0
 13 14  1  6  0  0  0
 13 19  1  0  0  0  0
 15 16  1  6  0  0  0
 15 20  1  0  0  0  0
 17 18  1  1  0  0  0
 17 22  1  0  0  0  0
 19  2  1  1  0  0  0
 19 24  1  0  0  0  0
 20 21  1  0  0  0  0
 20 26  1  1  0  0  0
 22 23  1  0  0  0  0
 22 28  1  6  0  0  0
 24 25  1  6  0  0  0
 24 30  1  0  0  0  0
 26 27  1  0  0  0  0
 28 29  1  0  0  0  0
 30 31  1  1  0  0  0
M  END
>  <CHROM.1>
-167.21112771,144.09511444,-161.12439556,-179.70682981,57.60578880,-82.51593570
19.32837751,9.41822779,6.36130663,2.44720052,-0.43544286,2.05012110

>  <Name>
2o3x_lig

>  <RI>
3.34184e+07

>  <Rbt.Current_Directory>
/home/itssahil/PROJECTS/Mol_Feturizer/New_Systems/rnas/2o3x

>  <Rbt.Executable>
rbdock ($Id: //depot/dev/client3/rdock/2013.1/src/exe/rbdock.cxx#4 $)

>  <Rbt.Library>
libRbt.so (2013.1, Build901 2013/11/27)

>  <Rbt.Parameter_File>
/export/apps/rDock/src/rDock_2013.1_src/data/scripts/dock_solv.prm

>  <Rbt.Receptor>
prm/pocket_docking_6.prm

>  <SCORE>
-15.1215

>  <SCORE.INTER>
-15.2462

>  <SCORE.INTER.CONST>
1

>  <SCORE.INTER.POLAR>
-1.53709

>  <SCORE.INTER.ROT>
6

>  <SCORE.INTER.SOLV>
14.8531

>  <SCORE.INTER.VDW>
-17.5915

>  <SCORE.INTER.norm>
-0.491811

>  <SCORE.INTRA>
0.124668

>  <SCORE.INTRA.DIHEDRAL>
0.108634

>  <SCORE.INTRA.DIHEDRAL.0>
9.37739

>  <SCORE.INTRA.POLAR>
0

>  <SCORE.INTRA.POLAR.0>
0

>  <SCORE.INTRA.REPUL>
0

>  <SCORE.INTRA.REPUL.0>
0

>  <SCORE.INTRA.SOLV>
-1.4432

>  <SCORE.INTRA.SOLV.lig_0>
-82.9274

>  <SCORE.INTRA.VDW>
0.791954

>  <SCORE.INTRA.VDW.0>
-3.84922

>  <SCORE.INTRA.norm>
0.00402155

>  <SCORE.RESTR>
0

>  <SCORE.RESTR.CAVITY>
0

>  <SCORE.RESTR.norm>
0

>  <SCORE.SYSTEM>
0

>  <SCORE.SYSTEM.CONST>
0

>  <SCORE.SYSTEM.DIHEDRAL>
0

>  <SCORE.SYSTEM.SOLV>
0

>  <SCORE.SYSTEM.norm>
0

>  <SCORE.heavy>
31

>  <SCORE.norm>
-0.48779

>  <RMSD>
6.346

$$$$
2o3x_lig
 OpenBabel11021811463D
libRbt.so/2013.1/901 2013/11/27
 31 33  0  0  0  0  0  0  0  0999 V2000
   19.5352    9.2927    9.1222 C   0  0  2  0  0  0  0  0  0  0  0  0
   20.8861    8.9180    9.4221 O   0  0  0  0  0  0  0  0  0  0  0  0
   23.8599    6.8967    7.1049 C   0  0  2  0  0  0  0  0  0  0  0  0
   24.5725    5.9233    6.2481 N   0  0  0  0  0  0  0  0  0  0  0  0
   20.1435    9.7136    5.7584 C   0  0  1  0  0  0  0  0  0  0  0  0
   19.1262   10.4627   10.0721 C   0  0  2  0  0  0  0  0  0  0  0  0
   20.1520   11.5359   10.1116 N   0  0  0  0  0  0  0  0  0  0  0  0
   23.4870    6.2909    8.4990 C   0  0  0  0  0  0  0  0  0  0  0  0
   20.9208    9.6567    4.4024 C   0  0  2  0  0  0  0  0  0  0  0  0
   22.2458   10.2558    4.4015 O   0  0  0  0  0  0  0  0  0  0  0  0
   18.8962    9.9702   11.5134 C   0  0  1  0  0  0  0  0  0  0  0  0
   18.4803   11.0292   12.3379 O   0  0  0  0  0  0  0  0  0  0  0  0
   22.7650    7.4048    9.3418 C   0  0  2  0  0  0  0  0  0  0  0  0
   22.3912    6.9100   10.7007 N   0  0  0  0  0  0  0  0  0  0  0  0
   19.8803   10.3321    3.5249 C   0  0  2  0  0  0  0  0  0  0  0  0
   19.9185   11.7915    3.6873 O   0  0  0  0  0  0  0  0  0  0  0  0
   17.8632    8.8559   11.5155 C   0  0  2  0  0  0  0  0  0  0  0  0
   17.6368    8.4251   12.8189 O   0  0  0  0  0  0  0  0  0  0  0  0
   21.4739    7.8844    8.6192 C   0  0  2  0  0  0  0  0  0  0  0  0
   18.5501    9.7647    4.0061 C   0  0  2  0  0  0  0  0  0  0  0  0
   18.7534    9.7737    5.4164 O   0  0  0  0  0  0  0  0  0  0  0  0
   18.3582    7.6725   10.6366 C   0  0  2  0  0  0  0  0  0  0  0  0
   18.6039    8.1360    9.2914 O   0  0  0  0  0  0  0  0  0  0  0  0
   21.7332    8.4123    7.1943 C   0  0  2  0  0  0  0  0  0  0  0  0
   20.3998    8.5748    6.5947 O   0  0  0  0  0  0  0  0  0  0  0  0
   18.2304    8.3158    3.5041 C   0  0  0  0  0  0  0  0  0  0  0  0
   16.9800    7.8805    4.0301 N   0  0  0  0  0  0  0  0  0  0  0  0
   17.3630    6.5367   10.5827 C   0  0  0  0  0  0  0  0  0  0  0  0
   17.8403    5.4785    9.8342 O   0  0  0  0  0  0  0  0  0  0  0  0
   22.5928    7.3601    6.3638 C   0  0  1  0  0  0  0  0  0  0  0  0
   23.0352    7.9134    5.1151 O   0  0  0  0  0  0  0  0  0  0  0  0
  1  2  1  1  0  0  0
  1  6  1  0  0  0  0
  1 23  1  0  0  0  0
  3  4  1  6  0  0  0
  3  8  1  0  0  0  0
  3 30  1  0  0  0  0
  5  9  1  0  0  0  0
  5 21  1  0  0  0  0
  5 25  1  1  0  0  0
  6  7  1  1  0  0  0
  6 11  1  0  0  0  0
  8 13  1  0  0  0  0
  9 10  1  1  0  0  0
  9 15  1  0  0  0  0
 11 12  1  1  0  0  0
 11 17  1  0  0  0  0
 13 14  1  1  0  0  0
 13 19  1  0  0  0  0
 15 16  1  1  0  0  0
 15 20  1  0  0  0  0
 17 18  1  1  0  0  0
 17 22  1  0  0  0  0
 19  2  1  1  0  0  0
 19 24  1  0  0  0  0
 20 21  1  0  0  0  0
 20 26  1  6  0  0  0
 22 23  1  0  0  0  0
 22 28  1  6  0  0  0
 24 25  1  6  0  0  0
 24 30  1  0  0  0  0
 26 27  1  0  0  0  0
 28 29  1  0  0  0  0
 30 31  1  6  0  0  0
M  END
>  <CHROM.1>
-177.70993301,68.91533910,-165.79055564,179.04996751,-177.99835843,140.70016090
20.18951386,8.63631852,7.80326777,1.90851787,-0.46820260,1.80625693

>  <Name>
2o3x_lig

>  <RI>
0

>  <Rbt.Current_Directory>
/home/itssahil/PROJECTS/Mol_Feturizer/New_Systems/rnas/2o3x

>  <Rbt.Executable>
rbdock ($Id: //depot/dev/client3/rdock/2013.1/src/exe/rbdock.cxx#4 $)

>  <Rbt.Library>
libRbt.so (2013.1, Build901 2013/11/27)

>  <Rbt.Parameter_File>
/export/apps/rDock/src/rDock_2013.1_src/data/scripts/dock_solv.prm

>  <Rbt.Receptor>
prm/pocket_docking_4.prm

>  <SCORE>
-13.7431

>  <SCORE.INTER>
-12.485

>  <SCORE.INTER.CONST>
1

>  <SCORE.INTER.POLAR>
-1.57342

>  <SCORE.INTER.ROT>
6

>  <SCORE.INTER.SOLV>
15.905

>  <SCORE.INTER.VDW>
-15.9803

>  <SCORE.INTER.norm>
-0.402742

>  <SCORE.INTRA>
-1.25806

>  <SCORE.INTRA.DIHEDRAL>
-2.54241

>  <SCORE.INTRA.DIHEDRAL.0>
9.37739

>  <SCORE.INTRA.POLAR>
0

>  <SCORE.INTRA.POLAR.0>
0

>  <SCORE.INTRA.REPUL>
0.00231804

>  <SCORE.INTRA.REPUL.0>
0

>  <SCORE.INTRA.SOLV>
-2.30473

>  <SCORE.INTRA.SOLV.lig_0>
-82.9274

>  <SCORE.INTRA.VDW>
1.15392

>  <SCORE.INTRA.VDW.0>
-3.84922

>  <SCORE.INTRA.norm>
-0.0405827

>  <SCORE.RESTR>
0

>  <SCORE.RESTR.CAVITY>
0

>  <SCORE.RESTR.norm>
0

>  <SCORE.SYSTEM>
0

>  <SCORE.SYSTEM.CONST>
0

>  <SCORE.SYSTEM.DIHEDRAL>
0

>  <SCORE.SYSTEM.SOLV>
0

>  <SCORE.SYSTEM.norm>
0

>  <SCORE.heavy>
31

>  <SCORE.norm>
-0.443324

>  <RMSD>
6.349

$$$$
2o3x_lig
 OpenBabel11021811463D
libRbt.so/2013.1/901 2013/11/27
 31 33  0  0  0  0  0  0  0  0999 V2000
   20.4797    8.1652   11.9798 C   0  0  2  0  0  0  0  0  0  0  0  0
   19.9151    7.3336   10.9574 O   0  0  0  0  0  0  0  0  0  0  0  0
   23.6149    6.4505    9.0004 C   0  0  2  0  0  0  0  0  0  0  0  0
   24.6499    5.8708    8.1159 N   0  0  0  0  0  0  0  0  0  0  0  0
   19.9875    9.0525    7.3576 C   0  0  1  0  0  0  0  0  0  0  0  0
   19.5764    8.0663   13.2497 C   0  0  2  0  0  0  0  0  0  0  0  0
   19.2538    6.6592   13.5986 N   0  0  0  0  0  0  0  0  0  0  0  0
   23.0679    5.4058   10.0293 C   0  0  0  0  0  0  0  0  0  0  0  0
   20.4804    8.8900    5.8822 C   0  0  2  0  0  0  0  0  0  0  0  0
   21.8899    9.1593    5.6476 O   0  0  0  0  0  0  0  0  0  0  0  0
   18.2500    8.8272   13.0639 C   0  0  1  0  0  0  0  0  0  0  0  0
   17.4767    8.7672   14.2355 O   0  0  0  0  0  0  0  0  0  0  0  0
   22.0024    6.1216   10.9375 C   0  0  2  0  0  0  0  0  0  0  0  0
   21.4427    5.1925   11.9645 N   0  0  0  0  0  0  0  0  0  0  0  0
   19.4979    9.8394    5.2171 C   0  0  2  0  0  0  0  0  0  0  0  0
   19.9153   11.2373    5.3880 O   0  0  0  0  0  0  0  0  0  0  0  0
   18.5359   10.2712   12.6874 C   0  0  2  0  0  0  0  0  0  0  0  0
   17.3396   10.9663   12.5415 O   0  0  0  0  0  0  0  0  0  0  0  0
   20.8291    6.6675   10.0746 C   0  0  2  0  0  0  0  0  0  0  0  0
   18.1743    9.5752    5.9252 C   0  0  2  0  0  0  0  0  0  0  0  0
   18.6155    9.4573    7.2750 O   0  0  0  0  0  0  0  0  0  0  0  0
   19.3521   10.3226   11.3649 C   0  0  2  0  0  0  0  0  0  0  0  0
   20.5831    9.5851   11.5247 O   0  0  0  0  0  0  0  0  0  0  0  0
   21.2868    7.6367    8.9667 C   0  0  2  0  0  0  0  0  0  0  0  0
   20.1020    7.8404    8.1190 O   0  0  0  0  0  0  0  0  0  0  0  0
   17.4318    8.2728    5.4717 C   0  0  0  0  0  0  0  0  0  0  0  0
   17.0751    8.3668    4.0955 N   0  0  0  0  0  0  0  0  0  0  0  0
   19.6856   11.7356   10.9460 C   0  0  0  0  0  0  0  0  0  0  0  0
   20.4620   11.7566    9.8037 O   0  0  0  0  0  0  0  0  0  0  0  0
   22.4714    6.9894    8.1220 C   0  0  1  0  0  0  0  0  0  0  0  0
   23.0638    7.9464    7.2307 O   0  0  0  0  0  0  0  0  0  0  0  0
  1  2  1  6  0  0  0
  1  6  1  0  0  0  0
  1 23  1  0  0  0  0
  3  4  1  6  0  0  0
  3  8  1  0  0  0  0
  3 30  1  0  0  0  0
  5  9  1  0  0  0  0
  5 21  1  0  0  0  0
  5 25  1  1  0  0  0
  6  7  1  6  0  0  0
  6 11  1  0  0  0  0
  8 13  1  0  0  0  0
  9 10  1  1  0  0  0
  9 15  1  0  0  0  0
 11 12  1  1  0  0  0
 11 17  1  0  0  0  0
 13 14  1  1  0  0  0
 13 19  1  0  0  0  0
 15 16  1  1  0  0  0
 15 20  1  0  0  0  0
 17 18  1  6  0  0  0
 17 22  1  0  0  0  0
 19  2  1  1  0  0  0
 19 24  1  0  0  0  0
 20 21  1  0  0  0  0
 20 26  1  6  0  0  0
 22 23  1  0  0  0  0
 22 28  1  1  0  0  0
 24 25  1  6  0  0  0
 24 30  1  0  0  0  0
 26 27  1  0  0  0  0
 28 29  1  0  0  0  0
 30 31  1  6  0  0  0
M  END
>  <CHROM.1>
-145.47261559,96.18992096,42.28121949,-62.93645655,177.24070882,154.44357564
20.19396312,8.51162078,9.36920767,-1.71183397,0.71909504,-1.41476443

>  <Name>
2o3x_lig

>  <RI>
0

>  <Rbt.Current_Directory>
/home/itssahil/PROJECTS/Mol_Feturizer/New_Systems/rnas/2o3x

>  <Rbt.Executable>
rbdock ($Id: //depot/dev/client3/rdock/2013.1/src/exe/rbdock.cxx#4 $)

>  <Rbt.Library>
libRbt.so (2013.1, Build901 2013/11/27)

>  <Rbt.Parameter_File>
/export/apps/rDock/src/rDock_2013.1_src/data/scripts/dock_solv.prm

>  <Rbt.Receptor>
prm/pocket_docking_5.prm

>  <SCORE>
-10.091

>  <SCORE.INTER>
-15.9728

>  <SCORE.INTER.CONST>
1

>  <SCORE.INTER.POLAR>
-2.59393

>  <SCORE.INTER.ROT>
6

>  <SCORE.INTER.SOLV>
17.3297

>  <SCORE.INTER.VDW>
-15.3787

>  <SCORE.INTER.norm>
-0.515252

>  <SCORE.INTRA>
5.88111

>  <SCORE.INTRA.DIHEDRAL>
4.23193

>  <SCORE.INTRA.DIHEDRAL.0>
9.37739

>  <SCORE.INTRA.POLAR>
0

>  <SCORE.INTRA.POLAR.0>
0

>  <SCORE.INTRA.REPUL>
0

>  <SCORE.INTRA.REPUL.0>
0

>  <SCORE.INTRA.SOLV>
0.968762

>  <SCORE.INTRA.SOLV.lig_0>
-82.9274

>  <SCORE.INTRA.VDW>
3.28076

>  <SCORE.INTRA.VDW.0>
-3.84922

>  <SCORE.INTRA.norm>
0.189713

>  <SCORE.RESTR>
0.000756009

>  <SCORE.RESTR.CAVITY>
0.000756009

>  <SCORE.RESTR.norm>
2.43874e-05

>  <SCORE.SYSTEM>
0

>  <SCORE.SYSTEM.CONST>
0

>  <SCORE.SYSTEM.DIHEDRAL>
0

>  <SCORE.SYSTEM.SOLV>
0

>  <SCORE.SYSTEM.norm>
0

>  <SCORE.heavy>
31

>  <SCORE.norm>
-0.325515

>  <RMSD>
6.357

$$$$
2o3x_lig
 OpenBabel11021811463D
libRbt.so/2013.1/901 2013/11/27
 31 33  0  0  0  0  0  0  0  0999 V2000
   19.2465    6.3207    7.0931 C   0  0  2  0  0  0  0  0  0  0  0  0
   19.6516    6.5740    5.7414 O   0  0  0  0  0  0  0  0  0  0  0  0
   19.3496    9.8895    3.0554 C   0  0  2  0  0  0  0  0  0  0  0  0
   18.8745   11.0839    2.3225 N   0  0  0  0  0  0  0  0  0  0  0  0
   18.2030    9.7381    7.2150 C   0  0  1  0  0  0  0  0  0  0  0  0
   20.1480    5.1850    7.6728 C   0  0  2  0  0  0  0  0  0  0  0  0
   21.5901    5.4284    7.4141 N   0  0  0  0  0  0  0  0  0  0  0  0
   18.4720    8.6285    2.7571 C   0  0  0  0  0  0  0  0  0  0  0  0
   17.0675    8.6789    7.0280 C   0  0  2  0  0  0  0  0  0  0  0  0
   16.4430    8.6386    5.7155 O   0  0  0  0  0  0  0  0  0  0  0  0
   19.7828    3.8112    7.0794 C   0  0  1  0  0  0  0  0  0  0  0  0
   20.5713    2.7992    7.6523 O   0  0  0  0  0  0  0  0  0  0  0  0
   19.0717    7.4125    3.5535 C   0  0  2  0  0  0  0  0  0  0  0  0
   18.2982    6.1588    3.3067 N   0  0  0  0  0  0  0  0  0  0  0  0
   16.1753    9.1083    8.1807 C   0  0  2  0  0  0  0  0  0  0  0  0
   15.3763   10.2869    7.8201 O   0  0  0  0  0  0  0  0  0  0  0  0
   18.3070    3.5304    7.3075 C   0  0  2  0  0  0  0  0  0  0  0  0
   17.9798    2.2800    6.7927 O   0  0  0  0  0  0  0  0  0  0  0  0
   19.0638    7.7042    5.0813 C   0  0  2  0  0  0  0  0  0  0  0  0
   17.1442    9.4318    9.3120 C   0  0  2  0  0  0  0  0  0  0  0  0
   18.1671   10.1184    8.5960 O   0  0  0  0  0  0  0  0  0  0  0  0
   17.4464    4.6332    6.6286 C   0  0  2  0  0  0  0  0  0  0  0  0
   17.8063    5.9265    7.1602 O   0  0  0  0  0  0  0  0  0  0  0  0
   19.8284    8.9878    5.4607 C   0  0  2  0  0  0  0  0  0  0  0  0
   19.5014    9.2276    6.8747 O   0  0  0  0  0  0  0  0  0  0  0  0
   17.7325    8.1841   10.0540 C   0  0  0  0  0  0  0  0  0  0  0  0
   18.4741    8.5995   11.1973 N   0  0  0  0  0  0  0  0  0  0  0  0
   15.9649    4.4200    6.8363 C   0  0  0  0  0  0  0  0  0  0  0  0
   15.5206    3.2812    6.1932 O   0  0  0  0  0  0  0  0  0  0  0  0
   19.3394   10.2076    4.5614 C   0  0  1  0  0  0  0  0  0  0  0  0
   20.1800   11.3583    4.7366 O   0  0  0  0  0  0  0  0  0  0  0  0
  1  2  1  6  0  0  0
  1  6  1  0  0  0  0
  1 23  1  0  0  0  0
  3  4  1  6  0  0  0
  3  8  1  0  0  0  0
  3 30  1  0  0  0  0
  5  9  1  0  0  0  0
  5 21  1  0  0  0  0
  5 25  1  1  0  0  0
  6  7  1  6  0  0  0
  6 11  1  0  0  0  0
  8 13  1  0  0  0  0
  9 10  1  6  0  0  0
  9 15  1  0  0  0  0
 11 12  1  1  0  0  0
 11 17  1  0  0  0  0
 13 14  1  1  0  0  0
 13 19  1  0  0  0  0
 15 16  1  6  0  0  0
 15 20  1  0  0  0  0
 17 18  1  6  0  0  0
 17 22  1  0  0  0  0
 19  2  1  1  0  0  0
 19 24  1  0  0  0  0
 20 21  1  0  0  0  0
 20 26  1  6  0  0  0
 22 23  1  0  0  0  0
 22 28  1  1  0  0  0
 24 25  1  1  0  0  0
 24 30  1  0  0  0  0
 26 27  1  0  0  0  0
 28 29  1  0  0  0  0
 30 31  1  6  0  0  0
M  END
>  <CHROM.1>
-172.10942285,71.73248863,-153.13128831,-172.12532947,-66.40093953,-74.75525728
18.39339852,7.32554391,6.47932339,1.61547800,-1.23645352,2.89654336

>  <Name>
2o3x_lig

>  <RI>
0

>  <Rbt.Current_Directory>
/home/itssahil/PROJECTS/Mol_Feturizer/New_Systems/rnas/2o3x

>  <Rbt.Executable>
rbdock ($Id: //depot/dev/client3/rdock/2013.1/src/exe/rbdock.cxx#4 $)

>  <Rbt.Library>
libRbt.so (2013.1, Build901 2013/11/27)

>  <Rbt.Parameter_File>
/export/apps/rDock/src/rDock_2013.1_src/data/scripts/dock_solv.prm

>  <Rbt.Receptor>
prm/pocket_docking_8.prm

>  <SCORE>
-8.55187

>  <SCORE.INTER>
-6.59382

>  <SCORE.INTER.CONST>
1

>  <SCORE.INTER.POLAR>
-0.894427

>  <SCORE.INTER.ROT>
6

>  <SCORE.INTER.SOLV>
13.8458

>  <SCORE.INTER.VDW>
-13.6297

>  <SCORE.INTER.norm>
-0.212704

>  <SCORE.INTRA>
-1.95805

>  <SCORE.INTRA.DIHEDRAL>
-3.89984

>  <SCORE.INTRA.DIHEDRAL.0>
9.37739

>  <SCORE.INTRA.POLAR>
0

>  <SCORE.INTRA.POLAR.0>
0

>  <SCORE.INTRA.REPUL>
0

>  <SCORE.INTRA.REPUL.0>
0

>  <SCORE.INTRA.SOLV>
-0.486349

>  <SCORE.INTRA.SOLV.lig_0>
-82.9274

>  <SCORE.INTRA.VDW>
0.23505

>  <SCORE.INTRA.VDW.0>
-3.84922

>  <SCORE.INTRA.norm>
-0.0631628

>  <SCORE.RESTR>
0

>  <SCORE.RESTR.CAVITY>
0

>  <SCORE.RESTR.norm>
0

>  <SCORE.SYSTEM>
0

>  <SCORE.SYSTEM.CONST>
0

>  <SCORE.SYSTEM.DIHEDRAL>
0

>  <SCORE.SYSTEM.SOLV>
0

>  <SCORE.SYSTEM.norm>
0

>  <SCORE.heavy>
31

>  <SCORE.norm>
-0.275867

>  <RMSD>
6.358

$$$$
2o3x_lig
 OpenBabel11021811463D
libRbt.so/2013.1/901 2013/11/27
 31 33  0  0  0  0  0  0  0  0999 V2000
   18.7419   10.2246    7.7177 C   0  0  2  0  0  0  0  0  0  0  0  0
   19.5221    9.1411    8.2400 O   0  0  0  0  0  0  0  0  0  0  0  0
   22.7235    6.8816    6.5244 C   0  0  2  0  0  0  0  0  0  0  0  0
   23.5514    6.0557    5.6179 N   0  0  0  0  0  0  0  0  0  0  0  0
   20.2571    9.7108    4.4599 C   0  0  1  0  0  0  0  0  0  0  0  0
   18.3624   11.1726    8.8991 C   0  0  2  0  0  0  0  0  0  0  0  0
   19.5351   11.5069    9.7470 N   0  0  0  0  0  0  0  0  0  0  0  0
   21.4897    6.0927    7.0767 C   0  0  0  0  0  0  0  0  0  0  0  0
   18.9227   10.4044    4.0305 C   0  0  2  0  0  0  0  0  0  0  0  0
   17.6983    9.7004    4.3762 O   0  0  0  0  0  0  0  0  0  0  0  0
   17.2829   10.5488    9.8036 C   0  0  1  0  0  0  0  0  0  0  0  0
   16.9211   11.4391   10.8287 O   0  0  0  0  0  0  0  0  0  0  0  0
   20.6949    7.0403    8.0476 C   0  0  2  0  0  0  0  0  0  0  0  0
   19.5061    6.3527    8.6353 N   0  0  0  0  0  0  0  0  0  0  0  0
   19.2171   10.5462    2.5466 C   0  0  2  0  0  0  0  0  0  0  0  0
   18.9908    9.2788    1.8392 O   0  0  0  0  0  0  0  0  0  0  0  0
   16.0691   10.1747    8.9697 C   0  0  2  0  0  0  0  0  0  0  0  0
   15.0835    9.6321    9.7882 O   0  0  0  0  0  0  0  0  0  0  0  0
   20.2071    8.3096    7.2926 C   0  0  2  0  0  0  0  0  0  0  0  0
   20.6857   10.9494    2.4865 C   0  0  2  0  0  0  0  0  0  0  0  0
   21.2354   10.0960    3.4864 O   0  0  0  0  0  0  0  0  0  0  0  0
   16.4759    9.1541    7.8695 C   0  0  2  0  0  0  0  0  0  0  0  0
   17.5093    9.7232    7.0370 O   0  0  0  0  0  0  0  0  0  0  0  0
   21.3515    9.1029    6.6313 C   0  0  2  0  0  0  0  0  0  0  0  0
   20.6868   10.0969    5.7746 O   0  0  0  0  0  0  0  0  0  0  0  0
   20.9719   12.4517    2.8252 C   0  0  0  0  0  0  0  0  0  0  0  0
   20.7735   13.2603    1.6691 N   0  0  0  0  0  0  0  0  0  0  0  0
   15.3123    8.7559    6.9916 C   0  0  0  0  0  0  0  0  0  0  0  0
   14.3312    8.1044    7.7134 O   0  0  0  0  0  0  0  0  0  0  0  0
   22.2616    8.1327    5.7558 C   0  0  1  0  0  0  0  0  0  0  0  0
   23.4543    8.7947    5.3081 O   0  0  0  0  0  0  0  0  0  0  0  0
  1  2  1  1  0  0  0
  1  6  1  0  0  0  0
  1 23  1  0  0  0  0
  3  4  1  6  0  0  0
  3  8  1  0  0  0  0
  3 30  1  0  0  0  0
  5  9  1  0  0  0  0
  5 21  1  0  0  0  0
  5 25  1  1  0  0  0
  6  7  1  1  0  0  0
  6 11  1  0  0  0  0
  8 13  1  0  0  0  0
  9 10  1  6  0  0  0
  9 15  1  0  0  0  0
 11 12  1  1  0  0  0
 11 17  1  0  0  0  0
 13 14  1  6  0  0  0
 13 19  1  0  0  0  0
 15 16  1  6  0  0  0
 15 20  1  0  0  0  0
 17 18  1  1  0  0  0
 17 22  1  0  0  0  0
 19  2  1  1  0  0  0
 19 24  1  0  0  0  0
 20 21  1  0  0  0  0
 20 26  1  1  0  0  0
 22 23  1  0  0  0  0
 22 28  1  6  0  0  0
 24 25  1  6  0  0  0
 24 30  1  0  0  0  0
 26 27  1  0  0  0  0
 28 29  1  0  0  0  0
 30 31  1  1  0  0  0
M  END
>  <CHROM.1>
-167.30064696,144.61514649,-167.01809140,-83.47608727,-63.26001859,-83.50616859
19.30743803,9.45300489,6.38538686,2.42584537,-0.49552241,2.08566450

>  <Name>
2o3x_lig

>  <RI>
0

>  <Rbt.Current_Directory>
/home/itssahil/PROJECTS/Mol_Feturizer/New_Systems/rnas/2o3x

>  <Rbt.Executable>
rbdock ($Id: //depot/dev/client3/rdock/2013.1/src/exe/rbdock.cxx#4 $)

>  <Rbt.Library>
libRbt.so (2013.1, Build901 2013/11/27)

>  <Rbt.Parameter_File>
/export/apps/rDock/src/rDock_2013.1_src/data/scripts/dock_solv.prm

>  <Rbt.Receptor>
prm/pocket_docking_4.prm

>  <SCORE>
-12.5815

>  <SCORE.INTER>
-13.4116

>  <SCORE.INTER.CONST>
1

>  <SCORE.INTER.POLAR>
-1.27082

>  <SCORE.INTER.ROT>
6

>  <SCORE.INTER.SOLV>
16.5178

>  <SCORE.INTER.VDW>
-17.811

>  <SCORE.INTER.norm>
-0.432633

>  <SCORE.INTRA>
0.830143

>  <SCORE.INTRA.DIHEDRAL>
1.10667

>  <SCORE.INTRA.DIHEDRAL.0>
9.37739

>  <SCORE.INTRA.POLAR>
0

>  <SCORE.INTRA.POLAR.0>
0

>  <SCORE.INTRA.REPUL>
0

>  <SCORE.INTRA.REPUL.0>
0

>  <SCORE.INTRA.SOLV>
-1.98506

>  <SCORE.INTRA.SOLV.lig_0>
-82.9274

>  <SCORE.INTRA.VDW>
1.26934

>  <SCORE.INTRA.VDW.0>
-3.84922

>  <SCORE.INTRA.norm>
0.0267788

>  <SCORE.RESTR>
0

>  <SCORE.RESTR.CAVITY>
0

>  <SCORE.RESTR.norm>
0

>  <SCORE.SYSTEM>
0

>  <SCORE.SYSTEM.CONST>
0

>  <SCORE.SYSTEM.DIHEDRAL>
0

>  <SCORE.SYSTEM.SOLV>
0

>  <SCORE.SYSTEM.norm>
0

>  <SCORE.heavy>
31

>  <SCORE.norm>
-0.405855

>  <RMSD>
6.375

$$$$
2o3x_lig
 OpenBabel11021811463D
libRbt.so/2013.1/901 2013/11/27
 31 33  0  0  0  0  0  0  0  0999 V2000
   18.4826   10.1398    7.7789 C   0  0  2  0  0  0  0  0  0  0  0  0
   19.3953    9.1877    8.3411 O   0  0  0  0  0  0  0  0  0  0  0  0
   22.5828    6.8250    6.7425 C   0  0  2  0  0  0  0  0  0  0  0  0
   23.4102    5.9595    5.8732 N   0  0  0  0  0  0  0  0  0  0  0  0
   20.1841    9.6327    4.5660 C   0  0  1  0  0  0  0  0  0  0  0  0
   18.1088   11.1764    8.8853 C   0  0  2  0  0  0  0  0  0  0  0  0
   19.3068   11.6966    9.5922 N   0  0  0  0  0  0  0  0  0  0  0  0
   21.3264    6.0737    7.2961 C   0  0  0  0  0  0  0  0  0  0  0  0
   18.8208   10.2727    4.1442 C   0  0  2  0  0  0  0  0  0  0  0  0
   17.6264    9.5313    4.5156 O   0  0  0  0  0  0  0  0  0  0  0  0
   17.1618   10.5680    9.9369 C   0  0  1  0  0  0  0  0  0  0  0  0
   16.7990   11.5319   10.8928 O   0  0  0  0  0  0  0  0  0  0  0  0
   20.5332    7.0621    8.2269 C   0  0  2  0  0  0  0  0  0  0  0  0
   19.3230    6.4122    8.8139 N   0  0  0  0  0  0  0  0  0  0  0  0
   19.0914   10.4031    2.6547 C   0  0  2  0  0  0  0  0  0  0  0  0
   18.9013    9.1184    1.9684 O   0  0  0  0  0  0  0  0  0  0  0  0
   15.9275   10.0065    9.2513 C   0  0  2  0  0  0  0  0  0  0  0  0
   15.0600    9.4770   10.2014 O   0  0  0  0  0  0  0  0  0  0  0  0
   20.0804    8.3178    7.4287 C   0  0  2  0  0  0  0  0  0  0  0  0
   20.5441   10.8567    2.5699 C   0  0  2  0  0  0  0  0  0  0  0  0
   21.1359   10.0377    3.5746 O   0  0  0  0  0  0  0  0  0  0  0  0
   16.3412    8.9091    8.2305 C   0  0  2  0  0  0  0  0  0  0  0  0
   17.2528    9.4673    7.2598 O   0  0  0  0  0  0  0  0  0  0  0  0
   21.2493    9.0720    6.7645 C   0  0  2  0  0  0  0  0  0  0  0  0
   20.6162   10.0528    5.8694 O   0  0  0  0  0  0  0  0  0  0  0  0
   20.7813   12.3729    2.8835 C   0  0  0  0  0  0  0  0  0  0  0  0
   22.1522   12.7053    2.6833 N   0  0  0  0  0  0  0  0  0  0  0  0
   15.1557    8.3230    7.4995 C   0  0  0  0  0  0  0  0  0  0  0  0
   14.4112    9.3027    6.8718 O   0  0  0  0  0  0  0  0  0  0  0  0
   22.1557    8.0617    5.9317 C   0  0  1  0  0  0  0  0  0  0  0  0
   23.3671    8.6899    5.4854 O   0  0  0  0  0  0  0  0  0  0  0  0
  1  2  1  1  0  0  0
  1  6  1  0  0  0  0
  1 23  1  0  0  0  0
  3  4  1  6  0  0  0
  3  8  1  0  0  0  0
  3 30  1  0  0  0  0
  5  9  1  0  0  0  0
  5 21  1  0  0  0  0
  5 25  1  1  0  0  0
  6  7  1  1  0  0  0
  6 11  1  0  0  0  0
  8 13  1  0  0  0  0
  9 10  1  6  0  0  0
  9 15  1  0  0  0  0
 11 12  1  1  0  0  0
 11 17  1  0  0  0  0
 13 14  1  6  0  0  0
 13 19  1  0  0  0  0
 15 16  1  6  0  0  0
 15 20  1  0  0  0  0
 17 18  1  1  0  0  0
 17 22  1  0  0  0  0
 19  2  1  1  0  0  0
 19 24  1  0  0  0  0
 20 21  1  0  0  0  0
 20 26  1  1  0  0  0
 22 23  1  0  0  0  0
 22 28  1  6  0  0  0
 24 25  1  6  0  0  0
 24 30  1  0  0  0  0
 26 27  1  0  0  0  0
 28 29  1  0  0  0  0
 30 31  1  1  0  0  0
M  END
>  <CHROM.1>
-167.24970982,140.73570122,-157.73656874,-175.91670258,55.53185768,-82.65353828
19.22711597,9.40646583,6.53433336,2.47320070,-0.48455136,2.06675060

>  <Name>
2o3x_lig

>  <RI>
0

>  <Rbt.Current_Directory>
/home/itssahil/PROJECTS/Mol_Feturizer/New_Systems/rnas/2o3x

>  <Rbt.Executable>
rbdock ($Id: //depot/dev/client3/rdock/2013.1/src/exe/rbdock.cxx#4 $)

>  <Rbt.Library>
libRbt.so (2013.1, Build901 2013/11/27)

>  <Rbt.Parameter_File>
/export/apps/rDock/src/rDock_2013.1_src/data/scripts/dock_solv.prm

>  <Rbt.Receptor>
prm/pocket_docking_8.prm

>  <SCORE>
-14.9999

>  <SCORE.INTER>
-15.648

>  <SCORE.INTER.CONST>
1

>  <SCORE.INTER.POLAR>
-1.55694

>  <SCORE.INTER.ROT>
6

>  <SCORE.INTER.SOLV>
14.4541

>  <SCORE.INTER.VDW>
-17.6602

>  <SCORE.INTER.norm>
-0.504775

>  <SCORE.INTRA>
0.648072

>  <SCORE.INTRA.DIHEDRAL>
1.36321

>  <SCORE.INTRA.DIHEDRAL.0>
9.37739

>  <SCORE.INTRA.POLAR>
0

>  <SCORE.INTRA.POLAR.0>
0

>  <SCORE.INTRA.REPUL>
0

>  <SCORE.INTRA.REPUL.0>
0

>  <SCORE.INTRA.SOLV>
-1.43926

>  <SCORE.INTRA.SOLV.lig_0>
-82.9274

>  <SCORE.INTRA.VDW>
0.686094

>  <SCORE.INTRA.VDW.0>
-3.84922

>  <SCORE.INTRA.norm>
0.0209056

>  <SCORE.RESTR>
0

>  <SCORE.RESTR.CAVITY>
0

>  <SCORE.RESTR.norm>
0

>  <SCORE.SYSTEM>
0

>  <SCORE.SYSTEM.CONST>
0

>  <SCORE.SYSTEM.DIHEDRAL>
0

>  <SCORE.SYSTEM.SOLV>
0

>  <SCORE.SYSTEM.norm>
0

>  <SCORE.heavy>
31

>  <SCORE.norm>
-0.483869

>  <RMSD>
6.377

$$$$
2o3x_lig
 OpenBabel11021811463D
libRbt.so/2013.1/901 2013/11/27
 31 33  0  0  0  0  0  0  0  0999 V2000
   19.8272    5.8510    8.3767 C   0  0  2  0  0  0  0  0  0  0  0  0
   18.9090    6.8475    8.8451 O   0  0  0  0  0  0  0  0  0  0  0  0
   18.5216    8.8401    5.0798 C   0  0  2  0  0  0  0  0  0  0  0  0
   18.1376    9.7818    4.0051 N   0  0  0  0  0  0  0  0  0  0  0  0
   18.9331   10.6059    9.0042 C   0  0  1  0  0  0  0  0  0  0  0  0
   20.0385    4.8024    9.5144 C   0  0  2  0  0  0  0  0  0  0  0  0
   18.7522    4.3423   10.0971 N   0  0  0  0  0  0  0  0  0  0  0  0
   17.3042    7.9969    5.5860 C   0  0  0  0  0  0  0  0  0  0  0  0
   17.7769   10.0948    9.9250 C   0  0  2  0  0  0  0  0  0  0  0  0
   16.5908    9.6005    9.2443 O   0  0  0  0  0  0  0  0  0  0  0  0
   20.9029    5.3695   10.6563 C   0  0  1  0  0  0  0  0  0  0  0  0
   21.1218    4.3935   11.6431 O   0  0  0  0  0  0  0  0  0  0  0  0
   17.8174    7.0113    6.6985 C   0  0  2  0  0  0  0  0  0  0  0  0
   16.7138    6.1524    7.2234 N   0  0  0  0  0  0  0  0  0  0  0  0
   17.5937   11.3488   10.7634 C   0  0  2  0  0  0  0  0  0  0  0  0
   16.8084   12.3579   10.0404 O   0  0  0  0  0  0  0  0  0  0  0  0
   22.2250    5.8692   10.0985 C   0  0  2  0  0  0  0  0  0  0  0  0
   23.0169    6.3609   11.1313 O   0  0  0  0  0  0  0  0  0  0  0  0
   18.4335    7.8035    7.8868 C   0  0  2  0  0  0  0  0  0  0  0  0
   19.0116   11.8442   11.0224 C   0  0  2  0  0  0  0  0  0  0  0  0
   19.6026   11.6352    9.7427 O   0  0  0  0  0  0  0  0  0  0  0  0
   21.9684    6.9808    9.0420 C   0  0  2  0  0  0  0  0  0  0  0  0
   21.1334    6.4624    7.9843 O   0  0  0  0  0  0  0  0  0  0  0  0
   19.5844    8.7382    7.4648 C   0  0  2  0  0  0  0  0  0  0  0  0
   19.8599    9.5687    8.6473 O   0  0  0  0  0  0  0  0  0  0  0  0
   19.7944   11.0564   12.1269 C   0  0  0  0  0  0  0  0  0  0  0  0
   19.1089   11.1489   13.3725 N   0  0  0  0  0  0  0  0  0  0  0  0
   23.2479    7.5071    8.4343 C   0  0  0  0  0  0  0  0  0  0  0  0
   23.9087    6.5295    7.7164 O   0  0  0  0  0  0  0  0  0  0  0  0
   19.1346    9.6481    6.2377 C   0  0  1  0  0  0  0  0  0  0  0  0
   20.2463   10.3680    5.6835 O   0  0  0  0  0  0  0  0  0  0  0  0
  1  2  1  1  0  0  0
  1  6  1  0  0  0  0
  1 23  1  0  0  0  0
  3  4  1  6  0  0  0
  3  8  1  0  0  0  0
  3 30  1  0  0  0  0
  5  9  1  0  0  0  0
  5 21  1  0  0  0  0
  5 25  1  1  0  0  0
  6  7  1  1  0  0  0
  6 11  1  0  0  0  0
  8 13  1  0  0  0  0
  9 10  1  6  0  0  0
  9 15  1  0  0  0  0
 11 12  1  1  0  0  0
 11 17  1  0  0  0  0
 13 14  1  1  0  0  0
 13 19  1  0  0  0  0
 15 16  1  6  0  0  0
 15 20  1  0  0  0  0
 17 18  1  1  0  0  0
 17 22  1  0  0  0  0
 19  2  1  1  0  0  0
 19 24  1  0  0  0  0
 20 21  1  0  0  0  0
 20 26  1  1  0  0  0
 22 23  1  0  0  0  0
 22 28  1  6  0  0  0
 24 25  1  1  0  0  0
 24 30  1  0  0  0  0
 26 27  1  0  0  0  0
 28 29  1  0  0  0  0
 30 31  1  6  0  0  0
M  END
>  <CHROM.1>
-171.50933513,87.27862252,54.85163383,-60.25311830,64.30799677,-73.49908575
19.57942087,8.29612578,8.83102784,0.35330161,0.94963200,-2.12196897

>  <Name>
2o3x_lig

>  <RI>
0

>  <Rbt.Current_Directory>
/home/itssahil/PROJECTS/Mol_Feturizer/New_Systems/rnas/2o3x

>  <Rbt.Executable>
rbdock ($Id: //depot/dev/client3/rdock/2013.1/src/exe/rbdock.cxx#4 $)

>  <Rbt.Library>
libRbt.so (2013.1, Build901 2013/11/27)

>  <Rbt.Parameter_File>
/export/apps/rDock/src/rDock_2013.1_src/data/scripts/dock_solv.prm

>  <Rbt.Receptor>
prm/pocket_docking_5.prm

>  <SCORE>
-10.6648

>  <SCORE.INTER>
-9.76064

>  <SCORE.INTER.CONST>
1

>  <SCORE.INTER.POLAR>
-1.8463

>  <SCORE.INTER.ROT>
6

>  <SCORE.INTER.SOLV>
12.5392

>  <SCORE.INTER.VDW>
-12.1325

>  <SCORE.INTER.norm>
-0.314859

>  <SCORE.INTRA>
-0.90412

>  <SCORE.INTRA.DIHEDRAL>
-4.70199

>  <SCORE.INTRA.DIHEDRAL.0>
9.37739

>  <SCORE.INTRA.POLAR>
0

>  <SCORE.INTRA.POLAR.0>
0

>  <SCORE.INTRA.REPUL>
0

>  <SCORE.INTRA.REPUL.0>
0

>  <SCORE.INTRA.SOLV>
-0.504052

>  <SCORE.INTRA.SOLV.lig_0>
-82.9274

>  <SCORE.INTRA.VDW>
1.6989

>  <SCORE.INTRA.VDW.0>
-3.84922

>  <SCORE.INTRA.norm>
-0.0291652

>  <SCORE.RESTR>
0

>  <SCORE.RESTR.CAVITY>
0

>  <SCORE.RESTR.norm>
0

>  <SCORE.SYSTEM>
0

>  <SCORE.SYSTEM.CONST>
0

>  <SCORE.SYSTEM.DIHEDRAL>
0

>  <SCORE.SYSTEM.SOLV>
0

>  <SCORE.SYSTEM.norm>
0

>  <SCORE.heavy>
31

>  <SCORE.norm>
-0.344024

>  <RMSD>
6.392

$$$$
2o3x_lig
 OpenBabel11021811463D
libRbt.so/2013.1/901 2013/11/27
 31 33  0  0  0  0  0  0  0  0999 V2000
   19.6107    9.5742    9.0215 C   0  0  2  0  0  0  0  0  0  0  0  0
   21.0017    9.2299    8.9775 O   0  0  0  0  0  0  0  0  0  0  0  0
   23.6911    7.8252    5.9622 C   0  0  2  0  0  0  0  0  0  0  0  0
   24.2753    7.1345    4.7912 N   0  0  0  0  0  0  0  0  0  0  0  0
   19.5635    9.0384    5.5145 C   0  0  1  0  0  0  0  0  0  0  0  0
   19.3987   10.6234   10.1584 C   0  0  2  0  0  0  0  0  0  0  0  0
   20.3863   11.7305   10.0892 N   0  0  0  0  0  0  0  0  0  0  0  0
   23.2710    6.8221    7.0877 C   0  0  0  0  0  0  0  0  0  0  0  0
   18.1143    9.6080    5.3678 C   0  0  2  0  0  0  0  0  0  0  0  0
   17.1868    9.2741    6.4367 O   0  0  0  0  0  0  0  0  0  0  0  0
   19.5033    9.9783   11.5533 C   0  0  1  0  0  0  0  0  0  0  0  0
   19.2591   10.9296   12.5582 O   0  0  0  0  0  0  0  0  0  0  0  0
   22.6934    7.6499    8.2934 C   0  0  2  0  0  0  0  0  0  0  0  0
   22.2845    6.7626    9.4233 N   0  0  0  0  0  0  0  0  0  0  0  0
   17.7913    9.0349    3.9980 C   0  0  2  0  0  0  0  0  0  0  0  0
   17.4137    7.6186    4.0931 O   0  0  0  0  0  0  0  0  0  0  0  0
   18.5188    8.8258   11.6600 C   0  0  2  0  0  0  0  0  0  0  0  0
   18.5951    8.2561   12.9270 O   0  0  0  0  0  0  0  0  0  0  0  0
   21.4557    8.4774    7.8434 C   0  0  2  0  0  0  0  0  0  0  0  0
   19.0797    9.2034    3.2013 C   0  0  2  0  0  0  0  0  0  0  0  0
   20.0465    8.8349    4.1809 O   0  0  0  0  0  0  0  0  0  0  0  0
   18.8305    7.7599   10.5718 C   0  0  2  0  0  0  0  0  0  0  0  0
   18.7632    8.3671    9.2635 O   0  0  0  0  0  0  0  0  0  0  0  0
   21.7537    9.4300    6.6686 C   0  0  2  0  0  0  0  0  0  0  0  0
   20.4394    9.9236    6.2296 O   0  0  0  0  0  0  0  0  0  0  0  0
   19.3481   10.6559    2.6801 C   0  0  0  0  0  0  0  0  0  0  0  0
   18.5946   10.8978    1.4955 N   0  0  0  0  0  0  0  0  0  0  0  0
   17.8709    6.5934   10.6136 C   0  0  0  0  0  0  0  0  0  0  0  0
   16.5783    6.9888   10.3297 O   0  0  0  0  0  0  0  0  0  0  0  0
   22.4753    8.6415    5.4882 C   0  0  1  0  0  0  0  0  0  0  0  0
   22.9605    9.5388    4.4780 O   0  0  0  0  0  0  0  0  0  0  0  0
  1  2  1  1  0  0  0
  1  6  1  0  0  0  0
  1 23  1  0  0  0  0
  3  4  1  6  0  0  0
  3  8  1  0  0  0  0
  3 30  1  0  0  0  0
  5  9  1  0  0  0  0
  5 21  1  0  0  0  0
  5 25  1  6  0  0  0
  6  7  1  1  0  0  0
  6 11  1  0  0  0  0
  8 13  1  0  0  0  0
  9 10  1  1  0  0  0
  9 15  1  0  0  0  0
 11 12  1  1  0  0  0
 11 17  1  0  0  0  0
 13 14  1  1  0  0  0
 13 19  1  0  0  0  0
 15 16  1  1  0  0  0
 15 20  1  0  0  0  0
 17 18  1  1  0  0  0
 17 22  1  0  0  0  0
 19  2  1  1  0  0  0
 19 24  1  0  0  0  0
 20 21  1  0  0  0  0
 20 26  1  1  0  0  0
 22 23  1  0  0  0  0
 22 28  1  6  0  0  0
 24 25  1  6  0  0  0
 24 30  1  0  0  0  0
 26 27  1  0  0  0  0
 28 29  1  0  0  0  0
 30 31  1  6  0  0  0
M  END
>  <CHROM.1>
-168.37761882,168.63383354,-152.62265195,-80.65270326,63.70136054,-72.96903670
19.98337321,8.87594735,7.47039885,1.75011075,-0.19814075,1.65216223

>  <Name>
2o3x_lig

>  <RI>
0

>  <Rbt.Current_Directory>
/home/itssahil/PROJECTS/Mol_Feturizer/New_Systems/rnas/2o3x

>  <Rbt.Executable>
rbdock ($Id: //depot/dev/client3/rdock/2013.1/src/exe/rbdock.cxx#4 $)

>  <Rbt.Library>
libRbt.so (2013.1, Build901 2013/11/27)

>  <Rbt.Parameter_File>
/export/apps/rDock/src/rDock_2013.1_src/data/scripts/dock_solv.prm

>  <Rbt.Receptor>
prm/pocket_docking_4.prm

>  <SCORE>
-15.6657

>  <SCORE.INTER>
-14.3931

>  <SCORE.INTER.CONST>
1

>  <SCORE.INTER.POLAR>
-1.91221

>  <SCORE.INTER.ROT>
6

>  <SCORE.INTER.SOLV>
20.8634

>  <SCORE.INTER.VDW>
-17.7759

>  <SCORE.INTER.norm>
-0.464294

>  <SCORE.INTRA>
-1.27258

>  <SCORE.INTRA.DIHEDRAL>
-2.63705

>  <SCORE.INTRA.DIHEDRAL.0>
9.37739

>  <SCORE.INTRA.POLAR>
0

>  <SCORE.INTRA.POLAR.0>
0

>  <SCORE.INTRA.REPUL>
0

>  <SCORE.INTRA.REPUL.0>
0

>  <SCORE.INTRA.SOLV>
-1.54924

>  <SCORE.INTRA.SOLV.lig_0>
-82.9274

>  <SCORE.INTRA.VDW>
0.820568

>  <SCORE.INTRA.VDW.0>
-3.84922

>  <SCORE.INTRA.norm>
-0.0410509

>  <SCORE.RESTR>
0

>  <SCORE.RESTR.CAVITY>
0

>  <SCORE.RESTR.norm>
0

>  <SCORE.SYSTEM>
0

>  <SCORE.SYSTEM.CONST>
0

>  <SCORE.SYSTEM.DIHEDRAL>
0

>  <SCORE.SYSTEM.SOLV>
0

>  <SCORE.SYSTEM.norm>
0

>  <SCORE.heavy>
31

>  <SCORE.norm>
-0.505345

>  <RMSD>
6.408

$$$$
2o3x_lig
 OpenBabel11021811463D
libRbt.so/2013.1/901 2013/11/27
 31 33  0  0  0  0  0  0  0  0999 V2000
   23.3213    6.1865   10.5771 C   0  0  2  0  0  0  0  0  0  0  0  0
   23.7862    7.1117    9.5854 O   0  0  0  0  0  0  0  0  0  0  0  0
   24.6269    6.8884    5.3971 C   0  0  2  0  0  0  0  0  0  0  0  0
   24.5506    6.6030    3.9472 N   0  0  0  0  0  0  0  0  0  0  0  0
   21.3012    9.4559    7.0316 C   0  0  1  0  0  0  0  0  0  0  0  0
   21.7608    6.2368   10.6044 C   0  0  2  0  0  0  0  0  0  0  0  0
   21.1743    6.1481    9.2428 N   0  0  0  0  0  0  0  0  0  0  0  0
   24.8001    5.5844    6.2451 C   0  0  0  0  0  0  0  0  0  0  0  0
   20.2744    8.9123    5.9845 C   0  0  2  0  0  0  0  0  0  0  0  0
   20.8011    8.6407    4.6567 O   0  0  0  0  0  0  0  0  0  0  0  0
   21.2456    7.5311   11.2617 C   0  0  1  0  0  0  0  0  0  0  0  0
   19.8418    7.5312   11.3211 O   0  0  0  0  0  0  0  0  0  0  0  0
   24.9011    5.9930    7.7601 C   0  0  2  0  0  0  0  0  0  0  0  0
   25.0879    4.8002    8.6397 N   0  0  0  0  0  0  0  0  0  0  0  0
   19.2494   10.0298    6.0823 C   0  0  2  0  0  0  0  0  0  0  0  0
   19.6759   11.2070    5.3142 O   0  0  0  0  0  0  0  0  0  0  0  0
   21.8379    7.6697   12.6541 C   0  0  2  0  0  0  0  0  0  0  0  0
   21.3560    8.8264   13.2587 O   0  0  0  0  0  0  0  0  0  0  0  0
   23.6137    6.7408    8.2102 C   0  0  2  0  0  0  0  0  0  0  0  0
   19.1740   10.3481    7.5709 C   0  0  2  0  0  0  0  0  0  0  0  0
   20.5533   10.2911    7.9238 O   0  0  0  0  0  0  0  0  0  0  0  0
   23.3897    7.7148   12.5680 C   0  0  2  0  0  0  0  0  0  0  0  0
   23.8757    6.5166   11.9253 O   0  0  0  0  0  0  0  0  0  0  0  0
   23.3093    7.9933    7.3646 C   0  0  2  0  0  0  0  0  0  0  0  0
   21.9559    8.4086    7.7642 O   0  0  0  0  0  0  0  0  0  0  0  0
   18.3440    9.3287    8.4225 C   0  0  0  0  0  0  0  0  0  0  0  0
   16.9618    9.4250    8.0906 N   0  0  0  0  0  0  0  0  0  0  0  0
   24.0409    7.8331   13.9264 C   0  0  0  0  0  0  0  0  0  0  0  0
   23.6692    8.9985   14.5679 O   0  0  0  0  0  0  0  0  0  0  0  0
   23.3465    7.6344    5.8136 C   0  0  1  0  0  0  0  0  0  0  0  0
   23.2852    8.8160    5.0003 O   0  0  0  0  0  0  0  0  0  0  0  0
  1  2  1  6  0  0  0
  1  6  1  0  0  0  0
  1 23  1  0  0  0  0
  3  4  1  6  0  0  0
  3  8  1  0  0  0  0
  3 30  1  0  0  0  0
  5  9  1  0  0  0  0
  5 21  1  0  0  0  0
  5 25  1  1  0  0  0
  6  7  1  6  0  0  0
  6 11  1  0  0  0  0
  8 13  1  0  0  0  0
  9 10  1  6  0  0  0
  9 15  1  0  0  0  0
 11 12  1  1  0  0  0
 11 17  1  0  0  0  0
 13 14  1  1  0  0  0
 13 19  1  0  0  0  0
 15 16  1  6  0  0  0
 15 20  1  0  0  0  0
 17 18  1  6  0  0  0
 17 22  1  0  0  0  0
 19  2  1  1  0  0  0
 19 24  1  0  0  0  0
 20 21  1  0  0  0  0
 20 26  1  1  0  0  0
 22 23  1  0  0  0  0
 22 28  1  1  0  0  0
 24 25  1  1  0  0  0
 24 30  1  0  0  0  0
 26 27  1  0  0  0  0
 28 29  1  0  0  0  0
 30 31  1  6  0  0  0
M  END
>  <CHROM.1>
-73.53375828,99.68521358,-91.36025957,-68.65360825,-61.46749286,-172.02534472
22.08609186,7.95211318,8.69478202,-1.30065124,0.56991773,-1.52389399

>  <Name>
2o3x_lig

>  <RI>
224

>  <Rbt.Current_Directory>
/home/itssahil/PROJECTS/Mol_Feturizer/New_Systems/rnas/2o3x

>  <Rbt.Executable>
rbdock ($Id: //depot/dev/client3/rdock/2013.1/src/exe/rbdock.cxx#4 $)

>  <Rbt.Library>
libRbt.so (2013.1, Build901 2013/11/27)

>  <Rbt.Parameter_File>
/export/apps/rDock/src/rDock_2013.1_src/data/scripts/dock_solv.prm

>  <Rbt.Receptor>
prm/blind_docking_100.prm

>  <SCORE>
5.03669

>  <SCORE.INTER>
-2.43482

>  <SCORE.INTER.CONST>
1

>  <SCORE.INTER.POLAR>
0

>  <SCORE.INTER.ROT>
6

>  <SCORE.INTER.SOLV>
15.7507

>  <SCORE.INTER.VDW>
-14.4735

>  <SCORE.INTER.norm>
-0.0785425

>  <SCORE.INTRA>
3.7493

>  <SCORE.INTRA.DIHEDRAL>
1.40433

>  <SCORE.INTRA.DIHEDRAL.0>
9.37739

>  <SCORE.INTRA.POLAR>
0

>  <SCORE.INTRA.POLAR.0>
0

>  <SCORE.INTRA.REPUL>
0

>  <SCORE.INTRA.REPUL.0>
0

>  <SCORE.INTRA.SOLV>
2.70516

>  <SCORE.INTRA.SOLV.lig_0>
-82.9274

>  <SCORE.INTRA.VDW>
1.69456

>  <SCORE.INTRA.VDW.0>
-3.84922

>  <SCORE.INTRA.norm>
0.120945

>  <SCORE.RESTR>
3.7222

>  <SCORE.RESTR.CAVITY>
3.7222

>  <SCORE.RESTR.norm>
0.120071

>  <SCORE.SYSTEM>
0

>  <SCORE.SYSTEM.CONST>
0

>  <SCORE.SYSTEM.DIHEDRAL>
0

>  <SCORE.SYSTEM.SOLV>
0

>  <SCORE.SYSTEM.norm>
0

>  <SCORE.heavy>
31

>  <SCORE.norm>
0.162474

>  <RMSD>
6.412

$$$$
2o3x_lig
 OpenBabel11021811463D
libRbt.so/2013.1/901 2013/11/27
 31 33  0  0  0  0  0  0  0  0999 V2000
   17.7333    7.2374   11.2499 C   0  0  2  0  0  0  0  0  0  0  0  0
   18.8850    6.4358   11.5439 O   0  0  0  0  0  0  0  0  0  0  0  0
   22.7304    7.4742   13.1036 C   0  0  2  0  0  0  0  0  0  0  0  0
   24.0455    8.1141   13.3282 N   0  0  0  0  0  0  0  0  0  0  0  0
   19.4211    9.8855   11.4284 C   0  0  1  0  0  0  0  0  0  0  0  0
   16.4821    6.3041   11.2046 C   0  0  2  0  0  0  0  0  0  0  0  0
   16.4165    5.3991   12.3804 N   0  0  0  0  0  0  0  0  0  0  0  0
   22.6811    6.6900   11.7501 C   0  0  0  0  0  0  0  0  0  0  0  0
   18.3050   10.9655   11.2438 C   0  0  2  0  0  0  0  0  0  0  0  0
   17.1301   10.5469   10.4964 O   0  0  0  0  0  0  0  0  0  0  0  0
   16.4676    5.4349    9.9330 C   0  0  1  0  0  0  0  0  0  0  0  0
   15.3089    4.6414    9.8890 O   0  0  0  0  0  0  0  0  0  0  0  0
   21.2624    6.0251   11.6185 C   0  0  2  0  0  0  0  0  0  0  0  0
   21.1396    5.2376   10.3552 N   0  0  0  0  0  0  0  0  0  0  0  0
   19.1540   12.0509   10.6034 C   0  0  2  0  0  0  0  0  0  0  0  0
   19.3718   11.7787    9.1764 O   0  0  0  0  0  0  0  0  0  0  0  0
   16.5517    6.3239    8.7036 C   0  0  2  0  0  0  0  0  0  0  0  0
   16.5156    5.5424    7.5531 O   0  0  0  0  0  0  0  0  0  0  0  0
   20.1482    7.1102   11.6335 C   0  0  2  0  0  0  0  0  0  0  0  0
   20.4689   12.0095   11.3731 C   0  0  2  0  0  0  0  0  0  0  0  0
   20.6597   10.6027   11.4953 O   0  0  0  0  0  0  0  0  0  0  0  0
   17.8612    7.1614    8.7435 C   0  0  2  0  0  0  0  0  0  0  0  0
   17.8934    7.9557    9.9489 O   0  0  0  0  0  0  0  0  0  0  0  0
   20.1791    7.9982   12.8932 C   0  0  2  0  0  0  0  0  0  0  0  0
   19.2405    9.0960   12.6142 O   0  0  0  0  0  0  0  0  0  0  0  0
   20.4283   12.6856   12.7854 C   0  0  0  0  0  0  0  0  0  0  0  0
   20.1483   14.0763   12.6544 N   0  0  0  0  0  0  0  0  0  0  0  0
   17.9946    8.0829    7.5534 C   0  0  0  0  0  0  0  0  0  0  0  0
   19.2141    8.7314    7.5475 O   0  0  0  0  0  0  0  0  0  0  0  0
   21.6471    8.5675   13.1312 C   0  0  1  0  0  0  0  0  0  0  0  0
   21.7583    9.2137   14.4084 O   0  0  0  0  0  0  0  0  0  0  0  0
  1  2  1  6  0  0  0
  1  6  1  0  0  0  0
  1 23  1  0  0  0  0
  3  4  1  6  0  0  0
  3  8  1  0  0  0  0
  3 30  1  0  0  0  0
  5  9  1  0  0  0  0
  5 21  1  0  0  0  0
  5 25  1  1  0  0  0
  6  7  1  1  0  0  0
  6 11  1  0  0  0  0
  8 13  1  0  0  0  0
  9 10  1  6  0  0  0
  9 15  1  0  0  0  0
 11 12  1  6  0  0  0
 11 17  1  0  0  0  0
 13 14  1  6  0  0  0
 13 19  1  0  0  0  0
 15 16  1  6  0  0  0
 15 20  1  0  0  0  0
 17 18  1  6  0  0  0
 17 22  1  0  0  0  0
 19  2  1  1  0  0  0
 19 24  1  0  0  0  0
 20 21  1  0  0  0  0
 20 26  1  1  0  0  0
 22 23  1  0  0  0  0
 22 28  1  6  0  0  0
 24 25  1  6  0  0  0
 24 30  1  0  0  0  0
 26 27  1  0  0  0  0
 28 29  1  0  0  0  0
 30 31  1  1  0  0  0
M  END
>  <CHROM.1>
-179.85793875,177.32952418,-166.81143561,-62.96243026,-174.80506762,-55.03925609
19.23876331,8.37693222,11.01216273,-2.41724699,-0.65543383,-0.04377326

>  <Name>
2o3x_lig

>  <RI>
2.78316e+07

>  <Rbt.Current_Directory>
/home/itssahil/PROJECTS/Mol_Feturizer/New_Systems/rnas/2o3x

>  <Rbt.Executable>
rbdock ($Id: //depot/dev/client3/rdock/2013.1/src/exe/rbdock.cxx#4 $)

>  <Rbt.Library>
libRbt.so (2013.1, Build901 2013/11/27)

>  <Rbt.Parameter_File>
/export/apps/rDock/src/rDock_2013.1_src/data/scripts/dock_solv.prm

>  <Rbt.Receptor>
prm/pocket_docking_7.prm

>  <SCORE>
-12.7298

>  <SCORE.INTER>
-8.9087

>  <SCORE.INTER.CONST>
1

>  <SCORE.INTER.POLAR>
-1.19043

>  <SCORE.INTER.ROT>
6

>  <SCORE.INTER.SOLV>
10.2579

>  <SCORE.INTER.VDW>
-12.9903

>  <SCORE.INTER.norm>
-0.287378

>  <SCORE.INTRA>
-3.82108

>  <SCORE.INTRA.DIHEDRAL>
-8.08544

>  <SCORE.INTRA.DIHEDRAL.0>
9.37739

>  <SCORE.INTRA.POLAR>
0

>  <SCORE.INTRA.POLAR.0>
0

>  <SCORE.INTRA.REPUL>
0

>  <SCORE.INTRA.REPUL.0>
0

>  <SCORE.INTRA.SOLV>
-1.36735

>  <SCORE.INTRA.SOLV.lig_0>
-82.9274

>  <SCORE.INTRA.VDW>
0.905321

>  <SCORE.INTRA.VDW.0>
-3.84922

>  <SCORE.INTRA.norm>
-0.123261

>  <SCORE.RESTR>
0

>  <SCORE.RESTR.CAVITY>
0

>  <SCORE.RESTR.norm>
0

>  <SCORE.SYSTEM>
0

>  <SCORE.SYSTEM.CONST>
0

>  <SCORE.SYSTEM.DIHEDRAL>
0

>  <SCORE.SYSTEM.SOLV>
0

>  <SCORE.SYSTEM.norm>
0

>  <SCORE.heavy>
31

>  <SCORE.norm>
-0.410638

>  <RMSD>
6.416

$$$$
2o3x_lig
 OpenBabel11021811463D
libRbt.so/2013.1/901 2013/11/27
 31 33  0  0  0  0  0  0  0  0999 V2000
   20.0979    8.3795    9.7383 C   0  0  2  0  0  0  0  0  0  0  0  0
   20.5900    9.5251   10.4460 O   0  0  0  0  0  0  0  0  0  0  0  0
   19.0315   11.9590   13.5996 C   0  0  2  0  0  0  0  0  0  0  0  0
   18.1376   12.7591   14.4658 N   0  0  0  0  0  0  0  0  0  0  0  0
   18.0791    7.5023   13.1474 C   0  0  1  0  0  0  0  0  0  0  0  0
   21.3153    7.6233    9.1181 C   0  0  2  0  0  0  0  0  0  0  0  0
   22.4057    7.4145   10.1046 N   0  0  0  0  0  0  0  0  0  0  0  0
   19.2536   12.6305   12.2034 C   0  0  0  0  0  0  0  0  0  0  0  0
   17.4010    6.2174   12.5682 C   0  0  2  0  0  0  0  0  0  0  0  0
   15.9649    6.2956   12.3545 O   0  0  0  0  0  0  0  0  0  0  0  0
   21.9020    8.3829    7.9133 C   0  0  1  0  0  0  0  0  0  0  0  0
   22.9623    7.6601    7.3410 O   0  0  0  0  0  0  0  0  0  0  0  0
   20.2352   11.7252   11.3732 C   0  0  2  0  0  0  0  0  0  0  0  0
   20.5152   12.3091   10.0271 N   0  0  0  0  0  0  0  0  0  0  0  0
   17.8677    5.2287   13.6235 C   0  0  2  0  0  0  0  0  0  0  0  0
   17.0483    5.3263   14.8386 O   0  0  0  0  0  0  0  0  0  0  0  0
   20.8116    8.6334    6.8851 C   0  0  2  0  0  0  0  0  0  0  0  0
   21.3441    9.2992    5.7856 O   0  0  0  0  0  0  0  0  0  0  0  0
   19.6337   10.3041   11.1788 C   0  0  2  0  0  0  0  0  0  0  0  0
   19.3116    5.6268   13.9061 C   0  0  2  0  0  0  0  0  0  0  0  0
   19.1964    7.0470   13.9202 O   0  0  0  0  0  0  0  0  0  0  0  0
   19.6674    9.4735    7.5198 C   0  0  2  0  0  0  0  0  0  0  0  0
   19.1342    8.7791    8.6680 O   0  0  0  0  0  0  0  0  0  0  0  0
   19.2925    9.5998   12.5070 C   0  0  2  0  0  0  0  0  0  0  0  0
   18.5200    8.4080   12.1240 O   0  0  0  0  0  0  0  0  0  0  0  0
   20.3466    5.1678   12.8238 C   0  0  0  0  0  0  0  0  0  0  0  0
   19.9847    5.6895   11.5484 N   0  0  0  0  0  0  0  0  0  0  0  0
   18.5401    9.7409    6.5497 C   0  0  0  0  0  0  0  0  0  0  0  0
   17.9715    8.5667    6.0959 O   0  0  0  0  0  0  0  0  0  0  0  0
   18.4177   10.5575   13.4307 C   0  0  1  0  0  0  0  0  0  0  0  0
   18.2705   10.0192   14.7534 O   0  0  0  0  0  0  0  0  0  0  0  0
  1  2  1  6  0  0  0
  1  6  1  0  0  0  0
  1 23  1  0  0  0  0
  3  4  1  1  0  0  0
  3  8  1  0  0  0  0
  3 30  1  0  0  0  0
  5  9  1  0  0  0  0
  5 21  1  0  0  0  0
  5 25  1  6  0  0  0
  6  7  1  1  0  0  0
  6 11  1  0  0  0  0
  8 13  1  0  0  0  0
  9 10  1  1  0  0  0
  9 15  1  0  0  0  0
 11 12  1  6  0  0  0
 11 17  1  0  0  0  0
 13 14  1  6  0  0  0
 13 19  1  0  0  0  0
 15 16  1  1  0  0  0
 15 20  1  0  0  0  0
 17 18  1  6  0  0  0
 17 22  1  0  0  0  0
 19  2  1  1  0  0  0
 19 24  1  0  0  0  0
 20 21  1  0  0  0  0
 20 26  1  6  0  0  0
 22 23  1  0  0  0  0
 22 28  1  6  0  0  0
 24 25  1  6  0  0  0
 24 30  1  0  0  0  0
 26 27  1  0  0  0  0
 28 29  1  0  0  0  0
 30 31  1  1  0  0  0
M  END
>  <CHROM.1>
-175.38392128,-174.14154631,-158.05476347,57.65444339,59.88623485,178.11641042
19.44198591,8.61508208,10.96366346,-0.08440149,-1.20411484,-3.02116955

>  <Name>
2o3x_lig

>  <RI>
2.78316e+07

>  <Rbt.Current_Directory>
/home/itssahil/PROJECTS/Mol_Feturizer/New_Systems/rnas/2o3x

>  <Rbt.Executable>
rbdock ($Id: //depot/dev/client3/rdock/2013.1/src/exe/rbdock.cxx#4 $)

>  <Rbt.Library>
libRbt.so (2013.1, Build901 2013/11/27)

>  <Rbt.Parameter_File>
/export/apps/rDock/src/rDock_2013.1_src/data/scripts/dock_solv.prm

>  <Rbt.Receptor>
prm/pocket_docking_7.prm

>  <SCORE>
-14.7273

>  <SCORE.INTER>
-13.9827

>  <SCORE.INTER.CONST>
1

>  <SCORE.INTER.POLAR>
-1.7098

>  <SCORE.INTER.ROT>
6

>  <SCORE.INTER.SOLV>
15.6236

>  <SCORE.INTER.VDW>
-16.4303

>  <SCORE.INTER.norm>
-0.451054

>  <SCORE.INTRA>
-0.744637

>  <SCORE.INTRA.DIHEDRAL>
-6.77891

>  <SCORE.INTRA.DIHEDRAL.0>
9.37739

>  <SCORE.INTRA.POLAR>
0

>  <SCORE.INTRA.POLAR.0>
0

>  <SCORE.INTRA.REPUL>
0

>  <SCORE.INTRA.REPUL.0>
0

>  <SCORE.INTRA.SOLV>
4.23445

>  <SCORE.INTRA.SOLV.lig_0>
-82.9274

>  <SCORE.INTRA.VDW>
0.527595

>  <SCORE.INTRA.VDW.0>
-3.84922

>  <SCORE.INTRA.norm>
-0.0240206

>  <SCORE.RESTR>
0

>  <SCORE.RESTR.CAVITY>
0

>  <SCORE.RESTR.norm>
0

>  <SCORE.SYSTEM>
0

>  <SCORE.SYSTEM.CONST>
0

>  <SCORE.SYSTEM.DIHEDRAL>
0

>  <SCORE.SYSTEM.SOLV>
0

>  <SCORE.SYSTEM.norm>
0

>  <SCORE.heavy>
31

>  <SCORE.norm>
-0.475075

>  <RMSD>
6.424

$$$$
2o3x_lig
 OpenBabel11021811463D
libRbt.so/2013.1/901 2013/11/27
 31 33  0  0  0  0  0  0  0  0999 V2000
   19.6489    6.4015    6.7694 C   0  0  2  0  0  0  0  0  0  0  0  0
   19.4778    7.0367    8.0433 O   0  0  0  0  0  0  0  0  0  0  0  0
   17.4902   10.6189    9.2743 C   0  0  2  0  0  0  0  0  0  0  0  0
   17.0033   12.0134    9.3629 N   0  0  0  0  0  0  0  0  0  0  0  0
   17.8769    9.1953    5.2483 C   0  0  1  0  0  0  0  0  0  0  0  0
   19.9974    4.8987    7.0113 C   0  0  2  0  0  0  0  0  0  0  0  0
   19.0772    4.2610    7.9871 N   0  0  0  0  0  0  0  0  0  0  0  0
   19.0308   10.5163    9.5301 C   0  0  0  0  0  0  0  0  0  0  0  0
   19.4153    9.3086    4.9905 C   0  0  2  0  0  0  0  0  0  0  0  0
   20.1340   10.2556    5.8278 O   0  0  0  0  0  0  0  0  0  0  0  0
   21.4372    4.7261    7.5312 C   0  0  1  0  0  0  0  0  0  0  0  0
   21.7451    3.3647    7.6929 O   0  0  0  0  0  0  0  0  0  0  0  0
   19.4434    9.0014    9.4451 C   0  0  2  0  0  0  0  0  0  0  0  0
   20.9037    8.8146    9.6979 N   0  0  0  0  0  0  0  0  0  0  0  0
   19.3657    9.6308    3.5063 C   0  0  2  0  0  0  0  0  0  0  0  0
   19.0462   11.0471    3.2832 O   0  0  0  0  0  0  0  0  0  0  0  0
   22.4120    5.3821    6.5678 C   0  0  2  0  0  0  0  0  0  0  0  0
   23.7149    5.2076    7.0235 O   0  0  0  0  0  0  0  0  0  0  0  0
   19.1081    8.4230    8.0407 C   0  0  2  0  0  0  0  0  0  0  0  0
   18.2648    8.7306    2.9579 C   0  0  2  0  0  0  0  0  0  0  0  0
   17.2882    8.8492    3.9886 O   0  0  0  0  0  0  0  0  0  0  0  0
   22.0875    6.8970    6.4350 C   0  0  2  0  0  0  0  0  0  0  0  0
   20.7286    7.0644    5.9764 O   0  0  0  0  0  0  0  0  0  0  0  0
   17.6210    8.5674    7.6612 C   0  0  2  0  0  0  0  0  0  0  0  0
   17.5498    8.2065    6.2370 O   0  0  0  0  0  0  0  0  0  0  0  0
   18.6761    7.2326    2.7572 C   0  0  0  0  0  0  0  0  0  0  0  0
   18.6707    6.5519    4.0088 N   0  0  0  0  0  0  0  0  0  0  0  0
   23.0133    7.6043    5.4727 C   0  0  0  0  0  0  0  0  0  0  0  0
   22.6973    8.9439    5.3560 O   0  0  0  0  0  0  0  0  0  0  0  0
   17.1390   10.0692    7.8801 C   0  0  1  0  0  0  0  0  0  0  0  0
   15.7144   10.1874    7.7468 O   0  0  0  0  0  0  0  0  0  0  0  0
  1  2  1  1  0  0  0
  1  6  1  0  0  0  0
  1 23  1  0  0  0  0
  3  4  1  6  0  0  0
  3  8  1  0  0  0  0
  3 30  1  0  0  0  0
  5  9  1  0  0  0  0
  5 21  1  0  0  0  0
  5 25  1  1  0  0  0
  6  7  1  1  0  0  0
  6 11  1  0  0  0  0
  8 13  1  0  0  0  0
  9 10  1  1  0  0  0
  9 15  1  0  0  0  0
 11 12  1  6  0  0  0
 11 17  1  0  0  0  0
 13 14  1  6  0  0  0
 13 19  1  0  0  0  0
 15 16  1  1  0  0  0
 15 20  1  0  0  0  0
 17 18  1  1  0  0  0
 17 22  1  0  0  0  0
 19  2  1  1  0  0  0
 19 24  1  0  0  0  0
 20 21  1  0  0  0  0
 20 26  1  1  0  0  0
 22 23  1  0  0  0  0
 22 28  1  6  0  0  0
 24 25  1  6  0  0  0
 24 30  1  0  0  0  0
 26 27  1  0  0  0  0
 28 29  1  0  0  0  0
 30 31  1  1  0  0  0
M  END
>  <CHROM.1>
-178.06293467,83.27114784,-161.31820139,78.08507146,179.20987041,-82.27746082
19.55858904,8.03318190,6.53502379,0.04519590,-0.86084638,1.63462357

>  <Name>
2o3x_lig

>  <RI>
0

>  <Rbt.Current_Directory>
/home/itssahil/PROJECTS/Mol_Feturizer/New_Systems/rnas/2o3x

>  <Rbt.Executable>
rbdock ($Id: //depot/dev/client3/rdock/2013.1/src/exe/rbdock.cxx#4 $)

>  <Rbt.Library>
libRbt.so (2013.1, Build901 2013/11/27)

>  <Rbt.Parameter_File>
/export/apps/rDock/src/rDock_2013.1_src/data/scripts/dock_solv.prm

>  <Rbt.Receptor>
prm/pocket_docking_5.prm

>  <SCORE>
-11.472

>  <SCORE.INTER>
-12.3879

>  <SCORE.INTER.CONST>
1

>  <SCORE.INTER.POLAR>
-1.61108

>  <SCORE.INTER.ROT>
6

>  <SCORE.INTER.SOLV>
13.5921

>  <SCORE.INTER.VDW>
-15.019

>  <SCORE.INTER.norm>
-0.399608

>  <SCORE.INTRA>
0.915883

>  <SCORE.INTRA.DIHEDRAL>
-2.05281

>  <SCORE.INTRA.DIHEDRAL.0>
9.37739

>  <SCORE.INTRA.POLAR>
0

>  <SCORE.INTRA.POLAR.0>
0

>  <SCORE.INTRA.REPUL>
0.00464167

>  <SCORE.INTRA.REPUL.0>
0

>  <SCORE.INTRA.SOLV>
4.83478

>  <SCORE.INTRA.SOLV.lig_0>
-82.9274

>  <SCORE.INTRA.VDW>
-0.498311

>  <SCORE.INTRA.VDW.0>
-3.84922

>  <SCORE.INTRA.norm>
0.0295446

>  <SCORE.RESTR>
0

>  <SCORE.RESTR.CAVITY>
0

>  <SCORE.RESTR.norm>
0

>  <SCORE.SYSTEM>
0

>  <SCORE.SYSTEM.CONST>
0

>  <SCORE.SYSTEM.DIHEDRAL>
0

>  <SCORE.SYSTEM.SOLV>
0

>  <SCORE.SYSTEM.norm>
0

>  <SCORE.heavy>
31

>  <SCORE.norm>
-0.370063

>  <RMSD>
6.440

$$$$
2o3x_lig
 OpenBabel11021811463D
libRbt.so/2013.1/901 2013/11/27
 31 33  0  0  0  0  0  0  0  0999 V2000
   19.6620    9.6199    8.9350 C   0  0  2  0  0  0  0  0  0  0  0  0
   21.0672    9.3506    8.8433 O   0  0  0  0  0  0  0  0  0  0  0  0
   23.7245    8.0111    5.7705 C   0  0  2  0  0  0  0  0  0  0  0  0
   24.3025    7.3278    4.5921 N   0  0  0  0  0  0  0  0  0  0  0  0
   19.5535    9.0654    5.3962 C   0  0  1  0  0  0  0  0  0  0  0  0
   19.4285   10.6242   10.1077 C   0  0  2  0  0  0  0  0  0  0  0  0
   20.3550   11.7833   10.0445 N   0  0  0  0  0  0  0  0  0  0  0  0
   23.3763    7.0081    6.9202 C   0  0  0  0  0  0  0  0  0  0  0  0
   18.0607    9.5299    5.3515 C   0  0  2  0  0  0  0  0  0  0  0  0
   17.2208    9.0831    6.4512 O   0  0  0  0  0  0  0  0  0  0  0  0
   19.6061    9.9467   11.4797 C   0  0  1  0  0  0  0  0  0  0  0  0
   19.3418   10.8554   12.5183 O   0  0  0  0  0  0  0  0  0  0  0  0
   22.8004    7.8291    8.1313 C   0  0  2  0  0  0  0  0  0  0  0  0
   22.4590    6.9421    9.2836 N   0  0  0  0  0  0  0  0  0  0  0  0
   17.7047    8.9916    3.9759 C   0  0  2  0  0  0  0  0  0  0  0  0
   17.4372    7.5481    4.0261 O   0  0  0  0  0  0  0  0  0  0  0  0
   18.6862    8.7415   11.5789 C   0  0  2  0  0  0  0  0  0  0  0  0
   18.8281    8.1414   12.8261 O   0  0  0  0  0  0  0  0  0  0  0  0
   21.5187    8.6010    7.7064 C   0  0  2  0  0  0  0  0  0  0  0  0
   18.9311    9.2894    3.1214 C   0  0  2  0  0  0  0  0  0  0  0  0
   19.9752    8.9544    4.0313 O   0  0  0  0  0  0  0  0  0  0  0  0
   19.0216    7.7243   10.4518 C   0  0  2  0  0  0  0  0  0  0  0  0
   18.8855    8.3635    9.1642 O   0  0  0  0  0  0  0  0  0  0  0  0
   21.7455    9.5481    6.5115 C   0  0  2  0  0  0  0  0  0  0  0  0
   20.4008    9.9836    6.1040 O   0  0  0  0  0  0  0  0  0  0  0  0
   19.0636   10.7784    2.6536 C   0  0  0  0  0  0  0  0  0  0  0  0
   20.3272   10.9843    2.0285 N   0  0  0  0  0  0  0  0  0  0  0  0
   18.1253    6.5082   10.4851 C   0  0  0  0  0  0  0  0  0  0  0  0
   18.3402    5.7500   11.6196 O   0  0  0  0  0  0  0  0  0  0  0  0
   22.4644    8.7723    5.3210 C   0  0  1  0  0  0  0  0  0  0  0  0
   22.8850    9.6739    4.2860 O   0  0  0  0  0  0  0  0  0  0  0  0
  1  2  1  1  0  0  0
  1  6  1  0  0  0  0
  1 23  1  0  0  0  0
  3  4  1  6  0  0  0
  3  8  1  0  0  0  0
  3 30  1  0  0  0  0
  5  9  1  0  0  0  0
  5 21  1  0  0  0  0
  5 25  1  1  0  0  0
  6  7  1  6  0  0  0
  6 11  1  0  0  0  0
  8 13  1  0  0  0  0
  9 10  1  1  0  0  0
  9 15  1  0  0  0  0
 11 12  1  1  0  0  0
 11 17  1  0  0  0  0
 13 14  1  1  0  0  0
 13 19  1  0  0  0  0
 15 16  1  1  0  0  0
 15 20  1  0  0  0  0
 17 18  1  1  0  0  0
 17 22  1  0  0  0  0
 19  2  1  1  0  0  0
 19 24  1  0  0  0  0
 20 21  1  0  0  0  0
 20 26  1  1  0  0  0
 22 23  1  0  0  0  0
 22 28  1  6  0  0  0
 24 25  1  6  0  0  0
 24 30  1  0  0  0  0
 26 27  1  0  0  0  0
 28 29  1  0  0  0  0
 30 31  1  6  0  0  0
M  END
>  <CHROM.1>
-171.19947831,165.51988876,-151.53154176,171.86798410,-66.44665786,-74.50896842
20.13661529,8.87211955,7.43600238,1.74231238,-0.19429015,1.69621083

>  <Name>
2o3x_lig

>  <RI>
0

>  <Rbt.Current_Directory>
/home/itssahil/PROJECTS/Mol_Feturizer/New_Systems/rnas/2o3x

>  <Rbt.Executable>
rbdock ($Id: //depot/dev/client3/rdock/2013.1/src/exe/rbdock.cxx#4 $)

>  <Rbt.Library>
libRbt.so (2013.1, Build901 2013/11/27)

>  <Rbt.Parameter_File>
/export/apps/rDock/src/rDock_2013.1_src/data/scripts/dock_solv.prm

>  <Rbt.Receptor>
prm/pocket_docking_5.prm

>  <SCORE>
-17.1987

>  <SCORE.INTER>
-16.0486

>  <SCORE.INTER.CONST>
1

>  <SCORE.INTER.POLAR>
-1.93755

>  <SCORE.INTER.ROT>
6

>  <SCORE.INTER.SOLV>
18.7251

>  <SCORE.INTER.VDW>
-18.0822

>  <SCORE.INTER.norm>
-0.517696

>  <SCORE.INTRA>
-1.15015

>  <SCORE.INTRA.DIHEDRAL>
-3.18701

>  <SCORE.INTRA.DIHEDRAL.0>
9.37739

>  <SCORE.INTRA.POLAR>
0

>  <SCORE.INTRA.POLAR.0>
0

>  <SCORE.INTRA.REPUL>
0

>  <SCORE.INTRA.REPUL.0>
0

>  <SCORE.INTRA.SOLV>
-0.488027

>  <SCORE.INTRA.SOLV.lig_0>
-82.9274

>  <SCORE.INTRA.VDW>
0.687372

>  <SCORE.INTRA.VDW.0>
-3.84922

>  <SCORE.INTRA.norm>
-0.0371015

>  <SCORE.RESTR>
0

>  <SCORE.RESTR.CAVITY>
0

>  <SCORE.RESTR.norm>
0

>  <SCORE.SYSTEM>
0

>  <SCORE.SYSTEM.CONST>
0

>  <SCORE.SYSTEM.DIHEDRAL>
0

>  <SCORE.SYSTEM.SOLV>
0

>  <SCORE.SYSTEM.norm>
0

>  <SCORE.heavy>
31

>  <SCORE.norm>
-0.554798

>  <RMSD>
6.443

$$$$
2o3x_lig
 OpenBabel11021811463D
libRbt.so/2013.1/901 2013/11/27
 31 33  0  0  0  0  0  0  0  0999 V2000
   22.4762    4.5566    6.5547 C   0  0  2  0  0  0  0  0  0  0  0  0
   21.0495    4.6954    6.5795 O   0  0  0  0  0  0  0  0  0  0  0  0
   20.4404    3.3246    2.5735 C   0  0  2  0  0  0  0  0  0  0  0  0
   19.8339    2.9711    1.2710 N   0  0  0  0  0  0  0  0  0  0  0  0
   18.7783    6.8166    4.5386 C   0  0  1  0  0  0  0  0  0  0  0  0
   22.9966    4.5558    8.0270 C   0  0  2  0  0  0  0  0  0  0  0  0
   22.2237    3.6293    8.8931 N   0  0  0  0  0  0  0  0  0  0  0  0
   19.8918    2.4354    3.7387 C   0  0  0  0  0  0  0  0  0  0  0  0
   18.2665    7.8841    5.5606 C   0  0  2  0  0  0  0  0  0  0  0  0
   17.8981    7.3831    6.8751 O   0  0  0  0  0  0  0  0  0  0  0  0
   22.9297    5.9613    8.6538 C   0  0  1  0  0  0  0  0  0  0  0  0
   23.4495    5.9464    9.9592 O   0  0  0  0  0  0  0  0  0  0  0  0
   20.6148    2.8650    5.0673 C   0  0  2  0  0  0  0  0  0  0  0  0
   20.1586    2.0465    6.2305 N   0  0  0  0  0  0  0  0  0  0  0  0
   17.1376    8.4640    4.7250 C   0  0  2  0  0  0  0  0  0  0  0  0
   15.9510    7.5992    4.7664 O   0  0  0  0  0  0  0  0  0  0  0  0
   23.6954    6.9462    7.7865 C   0  0  2  0  0  0  0  0  0  0  0  0
   23.6558    8.2120    8.3626 O   0  0  0  0  0  0  0  0  0  0  0  0
   20.3371    4.3632    5.3793 C   0  0  2  0  0  0  0  0  0  0  0  0
   17.7085    8.5392    3.3137 C   0  0  2  0  0  0  0  0  0  0  0  0
   18.4013    7.2961    3.2421 O   0  0  0  0  0  0  0  0  0  0  0  0
   23.0797    6.9858    6.3593 C   0  0  2  0  0  0  0  0  0  0  0  0
   23.1129    5.6641    5.7789 O   0  0  0  0  0  0  0  0  0  0  0  0
   20.7603    5.3116    4.2401 C   0  0  2  0  0  0  0  0  0  0  0  0
   20.1998    6.6227    4.6017 O   0  0  0  0  0  0  0  0  0  0  0  0
   18.6903    9.7333    3.0618 C   0  0  0  0  0  0  0  0  0  0  0  0
   18.9544    9.8639    1.6678 N   0  0  0  0  0  0  0  0  0  0  0  0
   23.8116    7.9361    5.4402 C   0  0  0  0  0  0  0  0  0  0  0  0
   23.3045    7.8921    4.1561 O   0  0  0  0  0  0  0  0  0  0  0  0
   20.1580    4.8117    2.8533 C   0  0  1  0  0  0  0  0  0  0  0  0
   20.7103    5.5424    1.7478 O   0  0  0  0  0  0  0  0  0  0  0  0
  1  2  1  1  0  0  0
  1  6  1  0  0  0  0
  1 23  1  0  0  0  0
  3  4  1  6  0  0  0
  3  8  1  0  0  0  0
  3 30  1  0  0  0  0
  5  9  1  0  0  0  0
  5 21  1  0  0  0  0
  5 25  1  6  0  0  0
  6  7  1  1  0  0  0
  6 11  1  0  0  0  0
  8 13  1  0  0  0  0
  9 10  1  1  0  0  0
  9 15  1  0  0  0  0
 11 12  1  1  0  0  0
 11 17  1  0  0  0  0
 13 14  1  1  0  0  0
 13 19  1  0  0  0  0
 15 16  1  6  0  0  0
 15 20  1  0  0  0  0
 17 18  1  1  0  0  0
 17 22  1  0  0  0  0
 19  2  1  1  0  0  0
 19 24  1  0  0  0  0
 20 21  1  0  0  0  0
 20 26  1  1  0  0  0
 22 23  1  0  0  0  0
 22 28  1  6  0  0  0
 24 25  1  1  0  0  0
 24 30  1  0  0  0  0
 26 27  1  0  0  0  0
 28 29  1  0  0  0  0
 30 31  1  6  0  0  0
M  END
>  <CHROM.1>
-163.66890920,151.11209433,60.87782193,-168.66549798,176.08767953,-70.32861937
20.67171182,6.06416615,5.23751933,0.04555080,0.81571895,-2.84013556

>  <Name>
2o3x_lig

>  <RI>
0

>  <Rbt.Current_Directory>
/home/itssahil/PROJECTS/Mol_Feturizer/New_Systems/rnas/2o3x

>  <Rbt.Executable>
rbdock ($Id: //depot/dev/client3/rdock/2013.1/src/exe/rbdock.cxx#4 $)

>  <Rbt.Library>
libRbt.so (2013.1, Build901 2013/11/27)

>  <Rbt.Parameter_File>
/export/apps/rDock/src/rDock_2013.1_src/data/scripts/dock_solv.prm

>  <Rbt.Receptor>
prm/pocket_docking_8.prm

>  <SCORE>
-6.57129

>  <SCORE.INTER>
-5.43886

>  <SCORE.INTER.CONST>
1

>  <SCORE.INTER.POLAR>
-0.280486

>  <SCORE.INTER.ROT>
6

>  <SCORE.INTER.SOLV>
13.7821

>  <SCORE.INTER.VDW>
-14.885

>  <SCORE.INTER.norm>
-0.175447

>  <SCORE.INTRA>
-1.13243

>  <SCORE.INTRA.DIHEDRAL>
-3.59606

>  <SCORE.INTRA.DIHEDRAL.0>
9.37739

>  <SCORE.INTRA.POLAR>
0

>  <SCORE.INTRA.POLAR.0>
0

>  <SCORE.INTRA.REPUL>
0

>  <SCORE.INTRA.REPUL.0>
0

>  <SCORE.INTRA.SOLV>
-1.29528

>  <SCORE.INTRA.SOLV.lig_0>
-82.9274

>  <SCORE.INTRA.VDW>
1.31324

>  <SCORE.INTRA.VDW.0>
-3.84922

>  <SCORE.INTRA.norm>
-0.0365299

>  <SCORE.RESTR>
0

>  <SCORE.RESTR.CAVITY>
0

>  <SCORE.RESTR.norm>
0

>  <SCORE.SYSTEM>
0

>  <SCORE.SYSTEM.CONST>
0

>  <SCORE.SYSTEM.DIHEDRAL>
0

>  <SCORE.SYSTEM.SOLV>
0

>  <SCORE.SYSTEM.norm>
0

>  <SCORE.heavy>
31

>  <SCORE.norm>
-0.211977

>  <RMSD>
6.446

$$$$
2o3x_lig
 OpenBabel11021811463D
libRbt.so/2013.1/901 2013/11/27
 31 33  0  0  0  0  0  0  0  0999 V2000
   22.0184    6.3816    7.7426 C   0  0  2  0  0  0  0  0  0  0  0  0
   21.7944    7.6986    8.2628 O   0  0  0  0  0  0  0  0  0  0  0  0
   17.5180    7.7320    8.3614 C   0  0  2  0  0  0  0  0  0  0  0  0
   16.0990    8.1398    8.2633 N   0  0  0  0  0  0  0  0  0  0  0  0
   20.3174    9.5124    5.5079 C   0  0  1  0  0  0  0  0  0  0  0  0
   23.3819    5.8589    8.2958 C   0  0  2  0  0  0  0  0  0  0  0  0
   23.5029    6.0558    9.7628 N   0  0  0  0  0  0  0  0  0  0  0  0
   18.2784    8.5130    9.4845 C   0  0  0  0  0  0  0  0  0  0  0  0
   21.2393    9.9498    4.3227 C   0  0  2  0  0  0  0  0  0  0  0  0
   22.5988   10.3247    4.6771 O   0  0  0  0  0  0  0  0  0  0  0  0
   24.5754    6.5609    7.6208 C   0  0  1  0  0  0  0  0  0  0  0  0
   25.7902    6.0394    8.0967 O   0  0  0  0  0  0  0  0  0  0  0  0
   19.7606    7.9901    9.5297 C   0  0  2  0  0  0  0  0  0  0  0  0
   20.5529    8.6757   10.5943 N   0  0  0  0  0  0  0  0  0  0  0  0
   20.3641   11.0581    3.7617 C   0  0  2  0  0  0  0  0  0  0  0  0
   20.4988   12.2891    4.5517 O   0  0  0  0  0  0  0  0  0  0  0  0
   24.4798    6.3982    6.1131 C   0  0  2  0  0  0  0  0  0  0  0  0
   25.5690    7.0119    5.5025 O   0  0  0  0  0  0  0  0  0  0  0  0
   20.4638    8.2260    8.1626 C   0  0  2  0  0  0  0  0  0  0  0  0
   18.9463   10.5057    3.8508 C   0  0  2  0  0  0  0  0  0  0  0  0
   18.9853    9.8826    5.1317 O   0  0  0  0  0  0  0  0  0  0  0  0
   23.1524    7.0211    5.5957 C   0  0  2  0  0  0  0  0  0  0  0  0
   22.0313    6.3865    6.2480 O   0  0  0  0  0  0  0  0  0  0  0  0
   19.7285    7.5693    6.9775 C   0  0  2  0  0  0  0  0  0  0  0  0
   20.3841    8.1027    5.7736 O   0  0  0  0  0  0  0  0  0  0  0  0
   18.5730    9.4644    2.7419 C   0  0  0  0  0  0  0  0  0  0  0  0
   19.0655    8.1751    3.0956 N   0  0  0  0  0  0  0  0  0  0  0  0
   22.9889    6.8739    4.1008 C   0  0  0  0  0  0  0  0  0  0  0  0
   23.9054    7.6438    3.4114 O   0  0  0  0  0  0  0  0  0  0  0  0
   18.1869    7.9680    6.9953 C   0  0  1  0  0  0  0  0  0  0  0  0
   17.4362    7.2023    6.0407 O   0  0  0  0  0  0  0  0  0  0  0  0
  1  2  1  1  0  0  0
  1  6  1  0  0  0  0
  1 23  1  0  0  0  0
  3  4  1  6  0  0  0
  3  8  1  0  0  0  0
  3 30  1  0  0  0  0
  5  9  1  0  0  0  0
  5 21  1  0  0  0  0
  5 25  1  6  0  0  0
  6  7  1  1  0  0  0
  6 11  1  0  0  0  0
  8 13  1  0  0  0  0
  9 10  1  1  0  0  0
  9 15  1  0  0  0  0
 11 12  1  1  0  0  0
 11 17  1  0  0  0  0
 13 14  1  1  0  0  0
 13 19  1  0  0  0  0
 15 16  1  1  0  0  0
 15 20  1  0  0  0  0
 17 18  1  6  0  0  0
 17 22  1  0  0  0  0
 19  2  1  1  0  0  0
 19 24  1  0  0  0  0
 20 21  1  0  0  0  0
 20 26  1  6  0  0  0
 22 23  1  0  0  0  0
 22 28  1  6  0  0  0
 24 25  1  6  0  0  0
 24 30  1  0  0  0  0
 26 27  1  0  0  0  0
 28 29  1  0  0  0  0
 30 31  1  6  0  0  0
M  END
>  <CHROM.1>
-164.52224473,171.18503872,97.60139907,81.64998486,-68.29674287,-63.10351850
21.07801120,8.11222063,6.36971385,0.40865826,-0.31259524,2.01326408

>  <Name>
2o3x_lig

>  <RI>
3.41138e+07

>  <Rbt.Current_Directory>
/home/itssahil/PROJECTS/Mol_Feturizer/New_Systems/rnas/2o3x

>  <Rbt.Executable>
rbdock ($Id: //depot/dev/client3/rdock/2013.1/src/exe/rbdock.cxx#4 $)

>  <Rbt.Library>
libRbt.so (2013.1, Build901 2013/11/27)

>  <Rbt.Parameter_File>
/export/apps/rDock/src/rDock_2013.1_src/data/scripts/dock_solv.prm

>  <Rbt.Receptor>
prm/pocket_docking_2.prm

>  <SCORE>
-6.00769

>  <SCORE.INTER>
-11.2183

>  <SCORE.INTER.CONST>
1

>  <SCORE.INTER.POLAR>
-1.29216

>  <SCORE.INTER.ROT>
6

>  <SCORE.INTER.SOLV>
16.1687

>  <SCORE.INTER.VDW>
-16.1613

>  <SCORE.INTER.norm>
-0.361882

>  <SCORE.INTRA>
4.66285

>  <SCORE.INTRA.DIHEDRAL>
-1.0614

>  <SCORE.INTRA.DIHEDRAL.0>
9.37739

>  <SCORE.INTRA.POLAR>
0

>  <SCORE.INTRA.POLAR.0>
0

>  <SCORE.INTRA.REPUL>
0

>  <SCORE.INTRA.REPUL.0>
0

>  <SCORE.INTRA.SOLV>
3.57349

>  <SCORE.INTRA.SOLV.lig_0>
-82.9274

>  <SCORE.INTRA.VDW>
3.40681

>  <SCORE.INTRA.VDW.0>
-3.84922

>  <SCORE.INTRA.norm>
0.150415

>  <SCORE.RESTR>
0.547795

>  <SCORE.RESTR.CAVITY>
0.547795

>  <SCORE.RESTR.norm>
0.0176708

>  <SCORE.SYSTEM>
0

>  <SCORE.SYSTEM.CONST>
0

>  <SCORE.SYSTEM.DIHEDRAL>
0

>  <SCORE.SYSTEM.SOLV>
0

>  <SCORE.SYSTEM.norm>
0

>  <SCORE.heavy>
31

>  <SCORE.norm>
-0.193796

>  <RMSD>
6.448

$$$$
2o3x_lig
 OpenBabel11021811463D
libRbt.so/2013.1/901 2013/11/27
 31 33  0  0  0  0  0  0  0  0999 V2000
   20.5569    6.3901    8.0635 C   0  0  2  0  0  0  0  0  0  0  0  0
   19.1792    6.7673    8.1865 O   0  0  0  0  0  0  0  0  0  0  0  0
   18.9150    9.1418    4.6382 C   0  0  2  0  0  0  0  0  0  0  0  0
   18.5330   10.1654    3.6404 N   0  0  0  0  0  0  0  0  0  0  0  0
   18.8545   10.5009    8.7329 C   0  0  1  0  0  0  0  0  0  0  0  0
   20.6444    4.8311    8.0842 C   0  0  2  0  0  0  0  0  0  0  0  0
   19.6673    4.2036    7.1582 N   0  0  0  0  0  0  0  0  0  0  0  0
   17.7456    8.1453    4.9363 C   0  0  0  0  0  0  0  0  0  0  0  0
   17.7171    9.8533    9.5890 C   0  0  2  0  0  0  0  0  0  0  0  0
   16.6034    9.2865    8.8455 O   0  0  0  0  0  0  0  0  0  0  0  0
   20.3936    4.2668    9.4954 C   0  0  1  0  0  0  0  0  0  0  0  0
   20.5274    2.8681    9.5001 O   0  0  0  0  0  0  0  0  0  0  0  0
   18.2568    7.0849    5.9786 C   0  0  2  0  0  0  0  0  0  0  0  0
   17.2002    6.0805    6.3039 N   0  0  0  0  0  0  0  0  0  0  0  0
   17.3952   11.0506   10.4675 C   0  0  2  0  0  0  0  0  0  0  0  0
   16.5490   12.0169    9.7548 O   0  0  0  0  0  0  0  0  0  0  0  0
   21.3637    4.8983   10.4796 C   0  0  2  0  0  0  0  0  0  0  0  0
   21.1544    4.3731   11.7509 O   0  0  0  0  0  0  0  0  0  0  0  0
   18.6955    7.7839    7.2970 C   0  0  2  0  0  0  0  0  0  0  0  0
   18.7541   11.6562   10.7987 C   0  0  2  0  0  0  0  0  0  0  0  0
   19.4047   11.5529    9.5352 O   0  0  0  0  0  0  0  0  0  0  0  0
   21.1718    6.4412   10.4972 C   0  0  2  0  0  0  0  0  0  0  0  0
   21.3765    6.9714    9.1699 O   0  0  0  0  0  0  0  0  0  0  0  0
   19.7833    8.8555    7.0861 C   0  0  2  0  0  0  0  0  0  0  0  0
   19.8810    9.5640    8.3715 O   0  0  0  0  0  0  0  0  0  0  0  0
   19.5652   10.8942   11.9009 C   0  0  0  0  0  0  0  0  0  0  0  0
   18.8088   10.8268   13.1063 N   0  0  0  0  0  0  0  0  0  0  0  0
   22.1242    7.1314   11.4459 C   0  0  0  0  0  0  0  0  0  0  0  0
   21.9524    8.5018   11.4301 O   0  0  0  0  0  0  0  0  0  0  0  0
   19.3516    9.8596    5.9280 C   0  0  1  0  0  0  0  0  0  0  0  0
   20.4318   10.7305    5.5594 O   0  0  0  0  0  0  0  0  0  0  0  0
  1  2  1  1  0  0  0
  1  6  1  0  0  0  0
  1 23  1  0  0  0  0
  3  4  1  6  0  0  0
  3  8  1  0  0  0  0
  3 30  1  0  0  0  0
  5  9  1  0  0  0  0
  5 21  1  0  0  0  0
  5 25  1  1  0  0  0
  6  7  1  6  0  0  0
  6 11  1  0  0  0  0
  8 13  1  0  0  0  0
  9 10  1  6  0  0  0
  9 15  1  0  0  0  0
 11 12  1  6  0  0  0
 11 17  1  0  0  0  0
 13 14  1  1  0  0  0
 13 19  1  0  0  0  0
 15 16  1  6  0  0  0
 15 20  1  0  0  0  0
 17 18  1  1  0  0  0
 17 22  1  0  0  0  0
 19  2  1  1  0  0  0
 19 24  1  0  0  0  0
 20 21  1  0  0  0  0
 20 26  1  1  0  0  0
 22 23  1  0  0  0  0
 22 28  1  1  0  0  0
 24 25  1  1  0  0  0
 24 30  1  0  0  0  0
 26 27  1  0  0  0  0
 28 29  1  0  0  0  0
 30 31  1  6  0  0  0
M  END
>  <CHROM.1>
-134.37910880,92.99592251,86.07093725,-57.87051234,179.00437878,-75.37298974
19.45015656,8.15992912,8.67105738,0.37623742,1.15046840,-2.21861566

>  <Name>
2o3x_lig

>  <RI>
0

>  <Rbt.Current_Directory>
/home/itssahil/PROJECTS/Mol_Feturizer/New_Systems/rnas/2o3x

>  <Rbt.Executable>
rbdock ($Id: //depot/dev/client3/rdock/2013.1/src/exe/rbdock.cxx#4 $)

>  <Rbt.Library>
libRbt.so (2013.1, Build901 2013/11/27)

>  <Rbt.Parameter_File>
/export/apps/rDock/src/rDock_2013.1_src/data/scripts/dock_solv.prm

>  <Rbt.Receptor>
prm/pocket_docking_4.prm

>  <SCORE>
-5.60612

>  <SCORE.INTER>
-10.1327

>  <SCORE.INTER.CONST>
1

>  <SCORE.INTER.POLAR>
-1.93682

>  <SCORE.INTER.ROT>
6

>  <SCORE.INTER.SOLV>
11.9252

>  <SCORE.INTER.VDW>
-11.8742

>  <SCORE.INTER.norm>
-0.326863

>  <SCORE.INTRA>
4.48831

>  <SCORE.INTRA.DIHEDRAL>
5.12078

>  <SCORE.INTRA.DIHEDRAL.0>
9.37739

>  <SCORE.INTRA.POLAR>
0

>  <SCORE.INTRA.POLAR.0>
0

>  <SCORE.INTRA.REPUL>
0

>  <SCORE.INTRA.REPUL.0>
0

>  <SCORE.INTRA.SOLV>
0.733769

>  <SCORE.INTRA.SOLV.lig_0>
-82.9274

>  <SCORE.INTRA.VDW>
1.56104

>  <SCORE.INTRA.VDW.0>
-3.84922

>  <SCORE.INTRA.norm>
0.144784

>  <SCORE.RESTR>
0.0383119

>  <SCORE.RESTR.CAVITY>
0.0383119

>  <SCORE.RESTR.norm>
0.00123587

>  <SCORE.SYSTEM>
0

>  <SCORE.SYSTEM.CONST>
0

>  <SCORE.SYSTEM.DIHEDRAL>
0

>  <SCORE.SYSTEM.SOLV>
0

>  <SCORE.SYSTEM.norm>
0

>  <SCORE.heavy>
31

>  <SCORE.norm>
-0.180842

>  <RMSD>
6.451

$$$$
2o3x_lig
 OpenBabel11021811463D
libRbt.so/2013.1/901 2013/11/27
 31 33  0  0  0  0  0  0  0  0999 V2000
   23.4739    7.5401    9.0405 C   0  0  2  0  0  0  0  0  0  0  0  0
   23.6292    6.1593    9.3936 O   0  0  0  0  0  0  0  0  0  0  0  0
   20.6798    5.6895   12.4560 C   0  0  2  0  0  0  0  0  0  0  0  0
   19.9818    5.3391   13.7128 N   0  0  0  0  0  0  0  0  0  0  0  0
   24.1836    8.3656   13.0437 C   0  0  1  0  0  0  0  0  0  0  0  0
   21.9696    7.7978    8.7102 C   0  0  2  0  0  0  0  0  0  0  0  0
   21.0654    7.2405    9.7483 N   0  0  0  0  0  0  0  0  0  0  0  0
   21.0849    4.4206   11.6344 C   0  0  0  0  0  0  0  0  0  0  0  0
   24.7078    7.6719   14.3437 C   0  0  2  0  0  0  0  0  0  0  0  0
   23.6942    7.0906   15.2092 O   0  0  0  0  0  0  0  0  0  0  0  0
   21.5728    7.1846    7.3539 C   0  0  1  0  0  0  0  0  0  0  0  0
   20.2305    7.4722    7.0544 O   0  0  0  0  0  0  0  0  0  0  0  0
   21.7885    4.8958   10.3110 C   0  0  2  0  0  0  0  0  0  0  0  0
   22.1913    3.7385    9.4568 N   0  0  0  0  0  0  0  0  0  0  0  0
   25.4869    8.8431   14.9182 C   0  0  2  0  0  0  0  0  0  0  0  0
   24.5906    9.8005   15.5800 O   0  0  0  0  0  0  0  0  0  0  0  0
   22.4878    7.7166    6.2637 C   0  0  2  0  0  0  0  0  0  0  0  0
   22.1168    7.1818    5.0341 O   0  0  0  0  0  0  0  0  0  0  0  0
   23.0582    5.7323   10.6387 C   0  0  2  0  0  0  0  0  0  0  0  0
   26.1663    9.4777   13.7104 C   0  0  2  0  0  0  0  0  0  0  0  0
   25.1135    9.4159   12.7521 O   0  0  0  0  0  0  0  0  0  0  0  0
   23.9643    7.3504    6.5855 C   0  0  2  0  0  0  0  0  0  0  0  0
   24.3318    7.8978    7.8701 O   0  0  0  0  0  0  0  0  0  0  0  0
   22.7682    6.9571   11.5287 C   0  0  2  0  0  0  0  0  0  0  0  0
   24.0897    7.4631   11.9307 O   0  0  0  0  0  0  0  0  0  0  0  0
   27.4319    8.7160   13.1895 C   0  0  0  0  0  0  0  0  0  0  0  0
   27.2024    8.2308   11.8698 N   0  0  0  0  0  0  0  0  0  0  0  0
   24.9287    7.8699    5.5446 C   0  0  0  0  0  0  0  0  0  0  0  0
   24.5042    7.5706    4.2647 O   0  0  0  0  0  0  0  0  0  0  0  0
   21.9255    6.5224   12.8081 C   0  0  1  0  0  0  0  0  0  0  0  0
   21.4541    7.6649   13.5385 O   0  0  0  0  0  0  0  0  0  0  0  0
  1  2  1  6  0  0  0
  1  6  1  0  0  0  0
  1 23  1  0  0  0  0
  3  4  1  1  0  0  0
  3  8  1  0  0  0  0
  3 30  1  0  0  0  0
  5  9  1  0  0  0  0
  5 21  1  0  0  0  0
  5 25  1  6  0  0  0
  6  7  1  1  0  0  0
  6 11  1  0  0  0  0
  8 13  1  0  0  0  0
  9 10  1  1  0  0  0
  9 15  1  0  0  0  0
 11 12  1  6  0  0  0
 11 17  1  0  0  0  0
 13 14  1  6  0  0  0
 13 19  1  0  0  0  0
 15 16  1  6  0  0  0
 15 20  1  0  0  0  0
 17 18  1  6  0  0  0
 17 22  1  0  0  0  0
 19  2  1  6  0  0  0
 19 24  1  0  0  0  0
 20 21  1  0  0  0  0
 20 26  1  6  0  0  0
 22 23  1  0  0  0  0
 22 28  1  6  0  0  0
 24 25  1  1  0  0  0
 24 30  1  0  0  0  0
 26 27  1  0  0  0  0
 28 29  1  0  0  0  0
 30 31  1  6  0  0  0
M  END
>  <CHROM.1>
-69.54802444,103.43139787,106.41317741,116.17965966,-48.15746047,-163.18838369
23.29443922,7.28152188,10.60574089,-1.81107361,0.55901617,1.57234958

>  <Name>
2o3x_lig

>  <RI>
0

>  <Rbt.Current_Directory>
/home/itssahil/PROJECTS/Mol_Feturizer/New_Systems/rnas/2o3x

>  <Rbt.Executable>
rbdock ($Id: //depot/dev/client3/rdock/2013.1/src/exe/rbdock.cxx#4 $)

>  <Rbt.Library>
libRbt.so (2013.1, Build901 2013/11/27)

>  <Rbt.Parameter_File>
/export/apps/rDock/src/rDock_2013.1_src/data/scripts/dock_solv.prm

>  <Rbt.Receptor>
prm/blind_docking_40.prm

>  <SCORE>
12.0844

>  <SCORE.INTER>
-11.3555

>  <SCORE.INTER.CONST>
1

>  <SCORE.INTER.POLAR>
-1.07956

>  <SCORE.INTER.ROT>
6

>  <SCORE.INTER.SOLV>
28.8575

>  <SCORE.INTER.VDW>
-21.1909

>  <SCORE.INTER.norm>
-0.366305

>  <SCORE.INTRA>
18.5106

>  <SCORE.INTRA.DIHEDRAL>
10.2029

>  <SCORE.INTRA.DIHEDRAL.0>
9.37739

>  <SCORE.INTRA.POLAR>
0

>  <SCORE.INTRA.POLAR.0>
0

>  <SCORE.INTRA.REPUL>
0

>  <SCORE.INTRA.REPUL.0>
0

>  <SCORE.INTRA.SOLV>
6.99267

>  <SCORE.INTRA.SOLV.lig_0>
-82.9274

>  <SCORE.INTRA.VDW>
9.91284

>  <SCORE.INTRA.VDW.0>
-3.84922

>  <SCORE.INTRA.norm>
0.597116

>  <SCORE.RESTR>
4.92927

>  <SCORE.RESTR.CAVITY>
4.92927

>  <SCORE.RESTR.norm>
0.159009

>  <SCORE.SYSTEM>
0

>  <SCORE.SYSTEM.CONST>
0

>  <SCORE.SYSTEM.DIHEDRAL>
0

>  <SCORE.SYSTEM.SOLV>
0

>  <SCORE.SYSTEM.norm>
0

>  <SCORE.heavy>
31

>  <SCORE.norm>
0.389819

>  <RMSD>
6.464

$$$$
2o3x_lig
 OpenBabel11021811463D
libRbt.so/2013.1/901 2013/11/27
 31 33  0  0  0  0  0  0  0  0999 V2000
   23.3401    6.3819    9.8245 C   0  0  2  0  0  0  0  0  0  0  0  0
   22.6503    7.3900    9.0740 O   0  0  0  0  0  0  0  0  0  0  0  0
   23.3525    8.5676    5.0220 C   0  0  2  0  0  0  0  0  0  0  0  0
   23.4172    8.6001    3.5441 N   0  0  0  0  0  0  0  0  0  0  0  0
   19.2332    8.1408    6.5493 C   0  0  1  0  0  0  0  0  0  0  0  0
   22.3495    5.7845   10.8734 C   0  0  2  0  0  0  0  0  0  0  0  0
   21.0419    5.4260   10.2672 N   0  0  0  0  0  0  0  0  0  0  0  0
   24.2725    7.4554    5.6269 C   0  0  0  0  0  0  0  0  0  0  0  0
   17.9014    7.4578    7.0033 C   0  0  2  0  0  0  0  0  0  0  0  0
   17.5968    6.1789    6.3820 O   0  0  0  0  0  0  0  0  0  0  0  0
   22.0851    6.7679   12.0293 C   0  0  1  0  0  0  0  0  0  0  0  0
   21.2324    6.1904   12.9852 O   0  0  0  0  0  0  0  0  0  0  0  0
   24.1582    7.5212    7.1938 C   0  0  2  0  0  0  0  0  0  0  0  0
   25.0256    6.4984    7.8515 N   0  0  0  0  0  0  0  0  0  0  0  0
   16.9503    8.5995    6.6860 C   0  0  2  0  0  0  0  0  0  0  0  0
   16.6419    8.6472    5.2506 O   0  0  0  0  0  0  0  0  0  0  0  0
   23.4027    7.1750   12.6673 C   0  0  2  0  0  0  0  0  0  0  0  0
   23.1649    8.0453   13.7264 O   0  0  0  0  0  0  0  0  0  0  0  0
   22.6883    7.2841    7.6437 C   0  0  2  0  0  0  0  0  0  0  0  0
   17.6995    9.8523    7.1246 C   0  0  2  0  0  0  0  0  0  0  0  0
   19.0121    9.5523    6.6583 O   0  0  0  0  0  0  0  0  0  0  0  0
   24.3169    7.8540   11.6086 C   0  0  2  0  0  0  0  0  0  0  0  0
   24.5432    6.9466   10.5084 O   0  0  0  0  0  0  0  0  0  0  0  0
   21.6914    8.2799    7.0185 C   0  0  2  0  0  0  0  0  0  0  0  0
   20.3593    7.7518    7.3509 O   0  0  0  0  0  0  0  0  0  0  0  0
   17.7080   10.1091    8.6697 C   0  0  0  0  0  0  0  0  0  0  0  0
   18.4416    9.0830    9.3322 N   0  0  0  0  0  0  0  0  0  0  0  0
   25.6542    8.2661   12.1786 C   0  0  0  0  0  0  0  0  0  0  0  0
   25.5114    9.2081   13.1786 O   0  0  0  0  0  0  0  0  0  0  0  0
   21.8884    8.3402    5.4395 C   0  0  1  0  0  0  0  0  0  0  0  0
   21.1314    9.4120    4.8570 O   0  0  0  0  0  0  0  0  0  0  0  0
  1  2  1  1  0  0  0
  1  6  1  0  0  0  0
  1 23  1  0  0  0  0
  3  4  1  6  0  0  0
  3  8  1  0  0  0  0
  3 30  1  0  0  0  0
  5  9  1  0  0  0  0
  5 21  1  0  0  0  0
  5 25  1  1  0  0  0
  6  7  1  6  0  0  0
  6 11  1  0  0  0  0
  8 13  1  0  0  0  0
  9 10  1  6  0  0  0
  9 15  1  0  0  0  0
 11 12  1  1  0  0  0
 11 17  1  0  0  0  0
 13 14  1  1  0  0  0
 13 19  1  0  0  0  0
 15 16  1  6  0  0  0
 15 20  1  0  0  0  0
 17 18  1  1  0  0  0
 17 22  1  0  0  0  0
 19  2  1  1  0  0  0
 19 24  1  0  0  0  0
 20 21  1  0  0  0  0
 20 26  1  1  0  0  0
 22 23  1  0  0  0  0
 22 28  1  1  0  0  0
 24 25  1  6  0  0  0
 24 30  1  0  0  0  0
 26 27  1  0  0  0  0
 28 29  1  0  0  0  0
 30 31  1  1  0  0  0
M  END
>  <CHROM.1>
-127.52153266,178.10066570,-66.78025453,65.75340519,-62.51597309,-157.88772660
21.54814655,7.83954919,8.54763467,-0.85288125,0.08721577,-1.45075068

>  <Name>
2o3x_lig

>  <RI>
3.34184e+07

>  <Rbt.Current_Directory>
/home/itssahil/PROJECTS/Mol_Feturizer/New_Systems/rnas/2o3x

>  <Rbt.Executable>
rbdock ($Id: //depot/dev/client3/rdock/2013.1/src/exe/rbdock.cxx#4 $)

>  <Rbt.Library>
libRbt.so (2013.1, Build901 2013/11/27)

>  <Rbt.Parameter_File>
/export/apps/rDock/src/rDock_2013.1_src/data/scripts/dock_solv.prm

>  <Rbt.Receptor>
prm/pocket_docking_6.prm

>  <SCORE>
-7.51475

>  <SCORE.INTER>
-12.8931

>  <SCORE.INTER.CONST>
1

>  <SCORE.INTER.POLAR>
0

>  <SCORE.INTER.ROT>
6

>  <SCORE.INTER.SOLV>
15.4084

>  <SCORE.INTER.VDW>
-21.3315

>  <SCORE.INTER.norm>
-0.415905

>  <SCORE.INTRA>
5.3783

>  <SCORE.INTRA.DIHEDRAL>
0.234485

>  <SCORE.INTRA.DIHEDRAL.0>
9.37739

>  <SCORE.INTRA.POLAR>
0

>  <SCORE.INTRA.POLAR.0>
0

>  <SCORE.INTRA.REPUL>
0

>  <SCORE.INTRA.REPUL.0>
0

>  <SCORE.INTRA.SOLV>
3.69462

>  <SCORE.INTRA.SOLV.lig_0>
-82.9274

>  <SCORE.INTRA.VDW>
3.41375

>  <SCORE.INTRA.VDW.0>
-3.84922

>  <SCORE.INTRA.norm>
0.173494

>  <SCORE.RESTR>
0

>  <SCORE.RESTR.CAVITY>
0

>  <SCORE.RESTR.norm>
0

>  <SCORE.SYSTEM>
0

>  <SCORE.SYSTEM.CONST>
0

>  <SCORE.SYSTEM.DIHEDRAL>
0

>  <SCORE.SYSTEM.SOLV>
0

>  <SCORE.SYSTEM.norm>
0

>  <SCORE.heavy>
31

>  <SCORE.norm>
-0.242411

>  <RMSD>
6.464

$$$$
2o3x_lig
 OpenBabel11021811463D
libRbt.so/2013.1/901 2013/11/27
 31 33  0  0  0  0  0  0  0  0999 V2000
   23.4109    6.3037   10.4816 C   0  0  2  0  0  0  0  0  0  0  0  0
   23.7494    7.2338    9.4444 O   0  0  0  0  0  0  0  0  0  0  0  0
   24.6236    6.8193    5.2777 C   0  0  2  0  0  0  0  0  0  0  0  0
   24.5641    6.4590    3.8438 N   0  0  0  0  0  0  0  0  0  0  0  0
   21.2545    9.4385    6.8099 C   0  0  1  0  0  0  0  0  0  0  0  0
   21.8560    6.2643   10.6196 C   0  0  2  0  0  0  0  0  0  0  0  0
   21.1813    6.1144    9.3050 N   0  0  0  0  0  0  0  0  0  0  0  0
   24.8231    5.5648    6.1918 C   0  0  0  0  0  0  0  0  0  0  0  0
   20.2001    8.8984    5.7888 C   0  0  2  0  0  0  0  0  0  0  0  0
   20.6995    8.5941    4.4575 O   0  0  0  0  0  0  0  0  0  0  0  0
   21.3128    7.5399   11.2910 C   0  0  1  0  0  0  0  0  0  0  0  0
   19.9191    7.4602   11.4506 O   0  0  0  0  0  0  0  0  0  0  0  0
   24.9038    6.0521    7.6846 C   0  0  2  0  0  0  0  0  0  0  0  0
   25.1140    4.9105    8.6247 N   0  0  0  0  0  0  0  0  0  0  0  0
   19.1992   10.0377    5.8840 C   0  0  2  0  0  0  0  0  0  0  0  0
   19.6363   11.1931    5.0892 O   0  0  0  0  0  0  0  0  0  0  0  0
   21.9925    7.7406   12.6351 C   0  0  2  0  0  0  0  0  0  0  0  0
   21.4869    8.8797   13.2538 O   0  0  0  0  0  0  0  0  0  0  0  0
   23.5954    6.7895    8.0889 C   0  0  2  0  0  0  0  0  0  0  0  0
   19.1544   10.3823    7.3680 C   0  0  2  0  0  0  0  0  0  0  0  0
   20.5380   10.3034    7.6996 O   0  0  0  0  0  0  0  0  0  0  0  0
   23.5290    7.8735   12.4376 C   0  0  2  0  0  0  0  0  0  0  0  0
   24.0384    6.6925   11.7812 O   0  0  0  0  0  0  0  0  0  0  0  0
   23.2660    7.9894    7.1791 C   0  0  2  0  0  0  0  0  0  0  0  0
   21.9001    8.3906    7.5496 O   0  0  0  0  0  0  0  0  0  0  0  0
   18.3185    9.3941    8.2500 C   0  0  0  0  0  0  0  0  0  0  0  0
   18.3025    9.8397    9.6031 N   0  0  0  0  0  0  0  0  0  0  0  0
   24.2661    8.0567   13.7439 C   0  0  0  0  0  0  0  0  0  0  0  0
   23.9718    7.0467   14.6390 O   0  0  0  0  0  0  0  0  0  0  0  0
   23.3225    7.5534    5.6486 C   0  0  1  0  0  0  0  0  0  0  0  0
   23.2376    8.6903    4.7759 O   0  0  0  0  0  0  0  0  0  0  0  0
  1  2  1  6  0  0  0
  1  6  1  0  0  0  0
  1 23  1  0  0  0  0
  3  4  1  6  0  0  0
  3  8  1  0  0  0  0
  3 30  1  0  0  0  0
  5  9  1  0  0  0  0
  5 21  1  0  0  0  0
  5 25  1  1  0  0  0
  6  7  1  6  0  0  0
  6 11  1  0  0  0  0
  8 13  1  0  0  0  0
  9 10  1  6  0  0  0
  9 15  1  0  0  0  0
 11 12  1  1  0  0  0
 11 17  1  0  0  0  0
 13 14  1  1  0  0  0
 13 19  1  0  0  0  0
 15 16  1  6  0  0  0
 15 20  1  0  0  0  0
 17 18  1  6  0  0  0
 17 22  1  0  0  0  0
 19  2  1  1  0  0  0
 19 24  1  0  0  0  0
 20 21  1  0  0  0  0
 20 26  1  1  0  0  0
 22 23  1  0  0  0  0
 22 28  1  1  0  0  0
 24 25  1  1  0  0  0
 24 30  1  0  0  0  0
 26 27  1  0  0  0  0
 28 29  1  0  0  0  0
 30 31  1  6  0  0  0
M  END
>  <CHROM.1>
-78.00385058,102.82548058,-86.00852321,-177.74944058,54.74530559,-175.67052158
22.15893372,7.91432427,8.63551172,-1.30464308,0.59576657,-1.50259163

>  <Name>
2o3x_lig

>  <RI>
224

>  <Rbt.Current_Directory>
/home/itssahil/PROJECTS/Mol_Feturizer/New_Systems/rnas/2o3x

>  <Rbt.Executable>
rbdock ($Id: //depot/dev/client3/rdock/2013.1/src/exe/rbdock.cxx#4 $)

>  <Rbt.Library>
libRbt.so (2013.1, Build901 2013/11/27)

>  <Rbt.Parameter_File>
/export/apps/rDock/src/rDock_2013.1_src/data/scripts/dock_solv.prm

>  <Rbt.Receptor>
prm/blind_docking_100.prm

>  <SCORE>
3.001

>  <SCORE.INTER>
-3.00338

>  <SCORE.INTER.CONST>
1

>  <SCORE.INTER.POLAR>
0

>  <SCORE.INTER.ROT>
6

>  <SCORE.INTER.SOLV>
15.5859

>  <SCORE.INTER.VDW>
-14.7976

>  <SCORE.INTER.norm>
-0.0968833

>  <SCORE.INTRA>
3.29523

>  <SCORE.INTRA.DIHEDRAL>
1.13254

>  <SCORE.INTRA.DIHEDRAL.0>
9.37739

>  <SCORE.INTRA.POLAR>
0

>  <SCORE.INTRA.POLAR.0>
0

>  <SCORE.INTRA.REPUL>
0

>  <SCORE.INTRA.REPUL.0>
0

>  <SCORE.INTRA.SOLV>
3.11584

>  <SCORE.INTRA.SOLV.lig_0>
-82.9274

>  <SCORE.INTRA.VDW>
1.17104

>  <SCORE.INTRA.VDW.0>
-3.84922

>  <SCORE.INTRA.norm>
0.106298

>  <SCORE.RESTR>
2.70915

>  <SCORE.RESTR.CAVITY>
2.70915

>  <SCORE.RESTR.norm>
0.0873919

>  <SCORE.SYSTEM>
0

>  <SCORE.SYSTEM.CONST>
0

>  <SCORE.SYSTEM.DIHEDRAL>
0

>  <SCORE.SYSTEM.SOLV>
0

>  <SCORE.SYSTEM.norm>
0

>  <SCORE.heavy>
31

>  <SCORE.norm>
0.0968065

>  <RMSD>
6.479

$$$$
2o3x_lig
 OpenBabel11021811463D
libRbt.so/2013.1/901 2013/11/27
 31 33  0  0  0  0  0  0  0  0999 V2000
   18.7094    9.9651    7.8628 C   0  0  2  0  0  0  0  0  0  0  0  0
   19.3253    8.8039    7.2902 O   0  0  0  0  0  0  0  0  0  0  0  0
   18.7247    9.9921    3.2250 C   0  0  2  0  0  0  0  0  0  0  0  0
   18.7013   10.0305    1.7460 N   0  0  0  0  0  0  0  0  0  0  0  0
   18.1172    6.0746    4.8986 C   0  0  1  0  0  0  0  0  0  0  0  0
   18.8216    9.8662    9.4172 C   0  0  2  0  0  0  0  0  0  0  0  0
   20.1973    9.5211    9.8579 N   0  0  0  0  0  0  0  0  0  0  0  0
   20.1823   10.0475    3.7921 C   0  0  0  0  0  0  0  0  0  0  0  0
   19.6398    5.8352    5.1637 C   0  0  2  0  0  0  0  0  0  0  0  0
   20.5588    6.5507    4.2930 O   0  0  0  0  0  0  0  0  0  0  0  0
   17.8586    8.8092    9.9900 C   0  0  1  0  0  0  0  0  0  0  0  0
   17.9401    8.7736   11.3923 O   0  0  0  0  0  0  0  0  0  0  0  0
   20.0999   10.0323    5.3622 C   0  0  2  0  0  0  0  0  0  0  0  0
   21.4561   10.1024    5.9843 N   0  0  0  0  0  0  0  0  0  0  0  0
   19.6475    4.3204    5.0447 C   0  0  2  0  0  0  0  0  0  0  0  0
   19.6470    3.9006    3.6371 O   0  0  0  0  0  0  0  0  0  0  0  0
   16.4381    9.1162    9.5465 C   0  0  2  0  0  0  0  0  0  0  0  0
   15.5633    8.1760   10.0816 O   0  0  0  0  0  0  0  0  0  0  0  0
   19.3959    8.7373    5.8587 C   0  0  2  0  0  0  0  0  0  0  0  0
   18.3692    3.8769    5.7464 C   0  0  2  0  0  0  0  0  0  0  0  0
   17.4536    4.8618    5.2753 O   0  0  0  0  0  0  0  0  0  0  0  0
   16.3537    9.1063    7.9939 C   0  0  2  0  0  0  0  0  0  0  0  0
   17.2768   10.0748    7.4510 O   0  0  0  0  0  0  0  0  0  0  0  0
   17.9824    8.5492    5.2732 C   0  0  2  0  0  0  0  0  0  0  0  0
   17.5896    7.1815    5.6460 O   0  0  0  0  0  0  0  0  0  0  0  0
   18.4368    3.8898    7.3112 C   0  0  0  0  0  0  0  0  0  0  0  0
   17.2136    3.4053    7.8578 N   0  0  0  0  0  0  0  0  0  0  0  0
   14.9658    9.4247    7.4884 C   0  0  0  0  0  0  0  0  0  0  0  0
   14.0580    8.4474    7.8474 O   0  0  0  0  0  0  0  0  0  0  0  0
   18.0158    8.7069    3.6890 C   0  0  1  0  0  0  0  0  0  0  0  0
   16.6907    8.7556    3.1388 O   0  0  0  0  0  0  0  0  0  0  0  0
  1  2  1  6  0  0  0
  1  6  1  0  0  0  0
  1 23  1  0  0  0  0
  3  4  1  6  0  0  0
  3  8  1  0  0  0  0
  3 30  1  0  0  0  0
  5  9  1  0  0  0  0
  5 21  1  0  0  0  0
  5 25  1  1  0  0  0
  6  7  1  6  0  0  0
  6 11  1  0  0  0  0
  8 13  1  0  0  0  0
  9 10  1  6  0  0  0
  9 15  1  0  0  0  0
 11 12  1  1  0  0  0
 11 17  1  0  0  0  0
 13 14  1  1  0  0  0
 13 19  1  0  0  0  0
 15 16  1  6  0  0  0
 15 20  1  0  0  0  0
 17 18  1  1  0  0  0
 17 22  1  0  0  0  0
 19  2  1  1  0  0  0
 19 24  1  0  0  0  0
 20 21  1  0  0  0  0
 20 26  1  1  0  0  0
 22 23  1  0  0  0  0
 22 28  1  1  0  0  0
 24 25  1  6  0  0  0
 24 30  1  0  0  0  0
 26 27  1  0  0  0  0
 28 29  1  0  0  0  0
 30 31  1  1  0  0  0
M  END
>  <CHROM.1>
-176.55635779,70.92091457,54.64626416,-177.53119483,-65.23275607,-78.18341092
18.20483432,7.88002178,6.43469142,-2.53965125,-1.17242534,-2.94311276

>  <Name>
2o3x_lig

>  <RI>
3.34184e+07

>  <Rbt.Current_Directory>
/home/itssahil/PROJECTS/Mol_Feturizer/New_Systems/rnas/2o3x

>  <Rbt.Executable>
rbdock ($Id: //depot/dev/client3/rdock/2013.1/src/exe/rbdock.cxx#4 $)

>  <Rbt.Library>
libRbt.so (2013.1, Build901 2013/11/27)

>  <Rbt.Parameter_File>
/export/apps/rDock/src/rDock_2013.1_src/data/scripts/dock_solv.prm

>  <Rbt.Receptor>
prm/pocket_docking_6.prm

>  <SCORE>
-8.73054

>  <SCORE.INTER>
-6.90481

>  <SCORE.INTER.CONST>
1

>  <SCORE.INTER.POLAR>
-0.815599

>  <SCORE.INTER.ROT>
6

>  <SCORE.INTER.SOLV>
18.0413

>  <SCORE.INTER.VDW>
-15.4983

>  <SCORE.INTER.norm>
-0.222736

>  <SCORE.INTRA>
-1.82572

>  <SCORE.INTRA.DIHEDRAL>
-6.80191

>  <SCORE.INTRA.DIHEDRAL.0>
9.37739

>  <SCORE.INTRA.POLAR>
0

>  <SCORE.INTRA.POLAR.0>
0

>  <SCORE.INTRA.REPUL>
0

>  <SCORE.INTRA.REPUL.0>
0

>  <SCORE.INTRA.SOLV>
-0.889224

>  <SCORE.INTRA.SOLV.lig_0>
-82.9274

>  <SCORE.INTRA.VDW>
2.01984

>  <SCORE.INTRA.VDW.0>
-3.84922

>  <SCORE.INTRA.norm>
-0.0588944

>  <SCORE.RESTR>
0

>  <SCORE.RESTR.CAVITY>
0

>  <SCORE.RESTR.norm>
0

>  <SCORE.SYSTEM>
0

>  <SCORE.SYSTEM.CONST>
0

>  <SCORE.SYSTEM.DIHEDRAL>
0

>  <SCORE.SYSTEM.SOLV>
0

>  <SCORE.SYSTEM.norm>
0

>  <SCORE.heavy>
31

>  <SCORE.norm>
-0.28163

>  <RMSD>
6.493

$$$$
2o3x_lig
 OpenBabel11021811463D
libRbt.so/2013.1/901 2013/11/27
 31 33  0  0  0  0  0  0  0  0999 V2000
   19.7351    8.8335    9.4847 C   0  0  2  0  0  0  0  0  0  0  0  0
   21.1461    8.8835    9.2355 O   0  0  0  0  0  0  0  0  0  0  0  0
   23.7620    7.2382    6.2778 C   0  0  2  0  0  0  0  0  0  0  0  0
   24.3982    6.3449    5.2845 N   0  0  0  0  0  0  0  0  0  0  0  0
   19.5546    8.5152    5.2937 C   0  0  1  0  0  0  0  0  0  0  0  0
   19.3503   10.0509   10.3836 C   0  0  2  0  0  0  0  0  0  0  0  0
   19.9209   11.3243    9.8752 N   0  0  0  0  0  0  0  0  0  0  0  0
   23.8497    6.6607    7.7298 C   0  0  0  0  0  0  0  0  0  0  0  0
   19.2089    7.1784    4.5591 C   0  0  2  0  0  0  0  0  0  0  0  0
   20.2910    6.5676    3.8039 O   0  0  0  0  0  0  0  0  0  0  0  0
   19.8303    9.8596   11.8348 C   0  0  1  0  0  0  0  0  0  0  0  0
   19.4291   10.9423   12.6356 O   0  0  0  0  0  0  0  0  0  0  0  0
   23.1772    7.6901    8.7098 C   0  0  2  0  0  0  0  0  0  0  0  0
   23.2366    7.2197   10.1263 N   0  0  0  0  0  0  0  0  0  0  0  0
   18.0234    7.6742    3.7482 C   0  0  2  0  0  0  0  0  0  0  0  0
   18.4681    8.4161    2.5610 O   0  0  0  0  0  0  0  0  0  0  0  0
   19.2816    8.5553   12.3883 C   0  0  2  0  0  0  0  0  0  0  0  0
   19.6949    8.3914   13.7066 O   0  0  0  0  0  0  0  0  0  0  0  0
   21.6865    7.9139    8.3265 C   0  0  2  0  0  0  0  0  0  0  0  0
   17.2609    8.5831    4.7051 C   0  0  2  0  0  0  0  0  0  0  0  0
   18.3395    9.2735    5.3300 O   0  0  0  0  0  0  0  0  0  0  0  0
   19.7718    7.3628   11.5193 C   0  0  2  0  0  0  0  0  0  0  0  0
   19.3498    7.5525   10.1515 O   0  0  0  0  0  0  0  0  0  0  0  0
   21.4961    8.3947    6.8744 C   0  0  2  0  0  0  0  0  0  0  0  0
   20.0489    8.3063    6.6256 O   0  0  0  0  0  0  0  0  0  0  0  0
   16.3915    7.8363    5.7727 C   0  0  0  0  0  0  0  0  0  0  0  0
   15.6835    8.7786    6.5732 N   0  0  0  0  0  0  0  0  0  0  0  0
   19.2426    6.0347   12.0088 C   0  0  0  0  0  0  0  0  0  0  0  0
   19.7544    5.7107   13.2502 O   0  0  0  0  0  0  0  0  0  0  0  0
   22.2925    7.4489    5.8709 C   0  0  1  0  0  0  0  0  0  0  0  0
   22.3155    7.9942    4.5430 O   0  0  0  0  0  0  0  0  0  0  0  0
  1  2  1  1  0  0  0
  1  6  1  0  0  0  0
  1 23  1  0  0  0  0
  3  4  1  6  0  0  0
  3  8  1  0  0  0  0
  3 30  1  0  0  0  0
  5  9  1  0  0  0  0
  5 21  1  0  0  0  0
  5 25  1  1  0  0  0
  6  7  1  6  0  0  0
  6 11  1  0  0  0  0
  8 13  1  0  0  0  0
  9 10  1  6  0  0  0
  9 15  1  0  0  0  0
 11 12  1  1  0  0  0
 11 17  1  0  0  0  0
 13 14  1  1  0  0  0
 13 19  1  0  0  0  0
 15 16  1  6  0  0  0
 15 20  1  0  0  0  0
 17 18  1  1  0  0  0
 17 22  1  0  0  0  0
 19  2  1  1  0  0  0
 19 24  1  0  0  0  0
 20 21  1  0  0  0  0
 20 26  1  1  0  0  0
 22 23  1  0  0  0  0
 22 28  1  1  0  0  0
 24 25  1  6  0  0  0
 24 30  1  0  0  0  0
 26 27  1  0  0  0  0
 28 29  1  0  0  0  0
 30 31  1  6  0  0  0
M  END
>  <CHROM.1>
-174.62817826,101.43944420,-153.28314127,-177.59885937,-66.23936815,-171.67170342
20.17535137,8.11413034,8.05078499,1.54628650,-0.29375136,1.49157403

>  <Name>
2o3x_lig

>  <RI>
0

>  <Rbt.Current_Directory>
/home/itssahil/PROJECTS/Mol_Feturizer/New_Systems/rnas/2o3x

>  <Rbt.Executable>
rbdock ($Id: //depot/dev/client3/rdock/2013.1/src/exe/rbdock.cxx#4 $)

>  <Rbt.Library>
libRbt.so (2013.1, Build901 2013/11/27)

>  <Rbt.Parameter_File>
/export/apps/rDock/src/rDock_2013.1_src/data/scripts/dock_solv.prm

>  <Rbt.Receptor>
prm/pocket_docking_4.prm

>  <SCORE>
-9.94524

>  <SCORE.INTER>
-10.3801

>  <SCORE.INTER.CONST>
1

>  <SCORE.INTER.POLAR>
-1.34126

>  <SCORE.INTER.ROT>
6

>  <SCORE.INTER.SOLV>
15.4928

>  <SCORE.INTER.VDW>
-15.2134

>  <SCORE.INTER.norm>
-0.334841

>  <SCORE.INTRA>
0.434833

>  <SCORE.INTRA.DIHEDRAL>
-0.00187066

>  <SCORE.INTRA.DIHEDRAL.0>
9.37739

>  <SCORE.INTRA.POLAR>
0

>  <SCORE.INTRA.POLAR.0>
0

>  <SCORE.INTRA.REPUL>
0

>  <SCORE.INTRA.REPUL.0>
0

>  <SCORE.INTRA.SOLV>
-1.49275

>  <SCORE.INTRA.SOLV.lig_0>
-82.9274

>  <SCORE.INTRA.VDW>
1.18214

>  <SCORE.INTRA.VDW.0>
-3.84922

>  <SCORE.INTRA.norm>
0.0140269

>  <SCORE.RESTR>
0

>  <SCORE.RESTR.CAVITY>
0

>  <SCORE.RESTR.norm>
0

>  <SCORE.SYSTEM>
0

>  <SCORE.SYSTEM.CONST>
0

>  <SCORE.SYSTEM.DIHEDRAL>
0

>  <SCORE.SYSTEM.SOLV>
0

>  <SCORE.SYSTEM.norm>
0

>  <SCORE.heavy>
31

>  <SCORE.norm>
-0.320814

>  <RMSD>
6.496

$$$$
2o3x_lig
 OpenBabel11021811463D
libRbt.so/2013.1/901 2013/11/27
 31 33  0  0  0  0  0  0  0  0999 V2000
   19.9499    6.3954    8.9762 C   0  0  2  0  0  0  0  0  0  0  0  0
   21.0395    7.2411    8.5849 O   0  0  0  0  0  0  0  0  0  0  0  0
   25.0013    6.2669    7.2992 C   0  0  2  0  0  0  0  0  0  0  0  0
   26.1592    5.7437    6.5409 N   0  0  0  0  0  0  0  0  0  0  0  0
   22.2885    9.5188    5.3737 C   0  0  1  0  0  0  0  0  0  0  0  0
   18.6156    7.1737    8.7475 C   0  0  2  0  0  0  0  0  0  0  0  0
   18.5583    7.8029    7.4034 N   0  0  0  0  0  0  0  0  0  0  0  0
   24.1313    5.1187    7.9109 C   0  0  0  0  0  0  0  0  0  0  0  0
   22.5019    9.3146    3.8378 C   0  0  2  0  0  0  0  0  0  0  0  0
   23.8540    8.9797    3.4209 O   0  0  0  0  0  0  0  0  0  0  0  0
   18.4159    8.2802    9.8004 C   0  0  1  0  0  0  0  0  0  0  0  0
   17.1867    8.9326    9.6058 O   0  0  0  0  0  0  0  0  0  0  0  0
   22.9507    5.7729    8.7176 C   0  0  2  0  0  0  0  0  0  0  0  0
   22.0795    4.7388    9.3522 N   0  0  0  0  0  0  0  0  0  0  0  0
   21.9677   10.6553    3.3622 C   0  0  2  0  0  0  0  0  0  0  0  0
   22.9686   11.7159    3.5384 O   0  0  0  0  0  0  0  0  0  0  0  0
   18.4856    7.6798   11.1944 C   0  0  2  0  0  0  0  0  0  0  0  0
   18.2826    8.6736   12.1467 O   0  0  0  0  0  0  0  0  0  0  0  0
   22.0721    6.6515    7.7821 C   0  0  2  0  0  0  0  0  0  0  0  0
   20.7447   10.9094    4.2356 C   0  0  2  0  0  0  0  0  0  0  0  0
   21.2303   10.4761    5.5032 O   0  0  0  0  0  0  0  0  0  0  0  0
   19.8682    7.0022   11.4112 C   0  0  2  0  0  0  0  0  0  0  0  0
   20.0730    5.9842   10.4079 O   0  0  0  0  0  0  0  0  0  0  0  0
   22.8677    7.7561    7.0588 C   0  0  2  0  0  0  0  0  0  0  0  0
   21.9427    8.3022    6.0538 O   0  0  0  0  0  0  0  0  0  0  0  0
   19.4650   10.1024    3.8299 C   0  0  0  0  0  0  0  0  0  0  0  0
   19.0821   10.4298    2.4972 N   0  0  0  0  0  0  0  0  0  0  0  0
   19.9932    6.3675   12.7768 C   0  0  0  0  0  0  0  0  0  0  0  0
   19.0119    5.4184   12.9873 O   0  0  0  0  0  0  0  0  0  0  0  0
   24.1545    7.1376    6.3536 C   0  0  1  0  0  0  0  0  0  0  0  0
   25.0276    8.1655    5.8612 O   0  0  0  0  0  0  0  0  0  0  0  0
  1  2  1  1  0  0  0
  1  6  1  0  0  0  0
  1 23  1  0  0  0  0
  3  4  1  6  0  0  0
  3  8  1  0  0  0  0
  3 30  1  0  0  0  0
  5  9  1  0  0  0  0
  5 21  1  0  0  0  0
  5 25  1  1  0  0  0
  6  7  1  6  0  0  0
  6 11  1  0  0  0  0
  8 13  1  0  0  0  0
  9 10  1  1  0  0  0
  9 15  1  0  0  0  0
 11 12  1  6  0  0  0
 11 17  1  0  0  0  0
 13 14  1  6  0  0  0
 13 19  1  0  0  0  0
 15 16  1  1  0  0  0
 15 20  1  0  0  0  0
 17 18  1  1  0  0  0
 17 22  1  0  0  0  0
 19  2  1  1  0  0  0
 19 24  1  0  0  0  0
 20 21  1  0  0  0  0
 20 26  1  6  0  0  0
 22 23  1  0  0  0  0
 22 28  1  1  0  0  0
 24 25  1  6  0  0  0
 24 30  1  0  0  0  0
 26 27  1  0  0  0  0
 28 29  1  0  0  0  0
 30 31  1  1  0  0  0
M  END
>  <CHROM.1>
-134.70014384,115.61239336,-75.92486408,-59.92970674,58.28976624,168.46537614
21.27491341,7.91609463,7.51835831,2.01656403,-0.44254525,2.16214993

>  <Name>
2o3x_lig

>  <RI>
3.41138e+07

>  <Rbt.Current_Directory>
/home/itssahil/PROJECTS/Mol_Feturizer/New_Systems/rnas/2o3x

>  <Rbt.Executable>
rbdock ($Id: //depot/dev/client3/rdock/2013.1/src/exe/rbdock.cxx#4 $)

>  <Rbt.Library>
libRbt.so (2013.1, Build901 2013/11/27)

>  <Rbt.Parameter_File>
/export/apps/rDock/src/rDock_2013.1_src/data/scripts/dock_solv.prm

>  <Rbt.Receptor>
prm/pocket_docking_2.prm

>  <SCORE>
-1.33179

>  <SCORE.INTER>
-7.00106

>  <SCORE.INTER.CONST>
1

>  <SCORE.INTER.POLAR>
-0.72358

>  <SCORE.INTER.ROT>
6

>  <SCORE.INTER.SOLV>
15.1337

>  <SCORE.INTER.VDW>
-14.9

>  <SCORE.INTER.norm>
-0.225841

>  <SCORE.INTRA>
4.96046

>  <SCORE.INTRA.DIHEDRAL>
5.88016

>  <SCORE.INTRA.DIHEDRAL.0>
9.37739

>  <SCORE.INTRA.POLAR>
0

>  <SCORE.INTRA.POLAR.0>
0

>  <SCORE.INTRA.REPUL>
0

>  <SCORE.INTRA.REPUL.0>
0

>  <SCORE.INTRA.SOLV>
1.30292

>  <SCORE.INTRA.SOLV.lig_0>
-82.9274

>  <SCORE.INTRA.VDW>
1.36891

>  <SCORE.INTRA.VDW.0>
-3.84922

>  <SCORE.INTRA.norm>
0.160015

>  <SCORE.RESTR>
0.708817

>  <SCORE.RESTR.CAVITY>
0.708817

>  <SCORE.RESTR.norm>
0.0228651

>  <SCORE.SYSTEM>
0

>  <SCORE.SYSTEM.CONST>
0

>  <SCORE.SYSTEM.DIHEDRAL>
0

>  <SCORE.SYSTEM.SOLV>
0

>  <SCORE.SYSTEM.norm>
0

>  <SCORE.heavy>
31

>  <SCORE.norm>
-0.0429608

>  <RMSD>
6.499

$$$$
2o3x_lig
 OpenBabel11021811463D
libRbt.so/2013.1/901 2013/11/27
 31 33  0  0  0  0  0  0  0  0999 V2000
   22.3294    6.2630    7.5174 C   0  0  2  0  0  0  0  0  0  0  0  0
   22.0511    7.5643    8.0509 O   0  0  0  0  0  0  0  0  0  0  0  0
   17.7877    7.3216    8.3019 C   0  0  2  0  0  0  0  0  0  0  0  0
   16.3434    7.6414    8.2694 N   0  0  0  0  0  0  0  0  0  0  0  0
   20.3776    9.3788    5.4292 C   0  0  1  0  0  0  0  0  0  0  0  0
   23.5313    5.6539    8.3066 C   0  0  2  0  0  0  0  0  0  0  0  0
   23.3566    5.7792    9.7762 N   0  0  0  0  0  0  0  0  0  0  0  0
   18.5396    8.1096    9.4258 C   0  0  0  0  0  0  0  0  0  0  0  0
   21.2442    9.9164    4.2434 C   0  0  2  0  0  0  0  0  0  0  0  0
   22.5907   10.3483    4.5823 O   0  0  0  0  0  0  0  0  0  0  0  0
   24.8620    6.3300    7.9257 C   0  0  1  0  0  0  0  0  0  0  0  0
   25.9343    5.7324    8.6094 O   0  0  0  0  0  0  0  0  0  0  0  0
   20.0522    7.6811    9.3989 C   0  0  2  0  0  0  0  0  0  0  0  0
   20.8397    8.3780   10.4597 N   0  0  0  0  0  0  0  0  0  0  0  0
   20.2975   10.9991    3.7532 C   0  0  2  0  0  0  0  0  0  0  0  0
   20.3874   12.2002    4.5940 O   0  0  0  0  0  0  0  0  0  0  0  0
   25.0711    6.2396    6.4235 C   0  0  2  0  0  0  0  0  0  0  0  0
   26.2835    6.8294    6.0798 O   0  0  0  0  0  0  0  0  0  0  0  0
   20.6874    8.0090    8.0175 C   0  0  2  0  0  0  0  0  0  0  0  0
   18.9137   10.3677    3.8507 C   0  0  2  0  0  0  0  0  0  0  0  0
   19.0186    9.6927    5.1012 O   0  0  0  0  0  0  0  0  0  0  0  0
   23.9008    6.9454    5.6819 C   0  0  2  0  0  0  0  0  0  0  0  0
   22.6480    6.3344    6.0588 O   0  0  0  0  0  0  0  0  0  0  0  0
   19.9504    7.3486    6.8356 C   0  0  2  0  0  0  0  0  0  0  0  0
   20.5256    7.9647    5.6300 O   0  0  0  0  0  0  0  0  0  0  0  0
   18.5674    9.3569    2.7054 C   0  0  0  0  0  0  0  0  0  0  0  0
   18.9482    8.0376    3.0854 N   0  0  0  0  0  0  0  0  0  0  0  0
   24.0414    6.8730    4.1791 C   0  0  0  0  0  0  0  0  0  0  0  0
   23.2174    7.7841    3.5476 O   0  0  0  0  0  0  0  0  0  0  0  0
   18.3887    7.6474    6.9227 C   0  0  1  0  0  0  0  0  0  0  0  0
   17.6518    6.8694    5.9673 O   0  0  0  0  0  0  0  0  0  0  0  0
  1  2  1  1  0  0  0
  1  6  1  0  0  0  0
  1 23  1  0  0  0  0
  3  4  1  6  0  0  0
  3  8  1  0  0  0  0
  3 30  1  0  0  0  0
  5  9  1  0  0  0  0
  5 21  1  0  0  0  0
  5 25  1  6  0  0  0
  6  7  1  1  0  0  0
  6 11  1  0  0  0  0
  8 13  1  0  0  0  0
  9 10  1  1  0  0  0
  9 15  1  0  0  0  0
 11 12  1  1  0  0  0
 11 17  1  0  0  0  0
 13 14  1  1  0  0  0
 13 19  1  0  0  0  0
 15 16  1  1  0  0  0
 15 20  1  0  0  0  0
 17 18  1  1  0  0  0
 17 22  1  0  0  0  0
 19  2  1  1  0  0  0
 19 24  1  0  0  0  0
 20 21  1  0  0  0  0
 20 26  1  6  0  0  0
 22 23  1  0  0  0  0
 22 28  1  6  0  0  0
 24 25  1  6  0  0  0
 24 30  1  0  0  0  0
 26 27  1  0  0  0  0
 28 29  1  0  0  0  0
 30 31  1  6  0  0  0
M  END
>  <CHROM.1>
-148.55231962,170.13822711,95.43171308,90.89744930,-163.97210514,-62.21695011
21.27237739,7.93382645,6.37748693,0.52601926,-0.25907220,2.05477028

>  <Name>
2o3x_lig

>  <RI>
3.41138e+07

>  <Rbt.Current_Directory>
/home/itssahil/PROJECTS/Mol_Feturizer/New_Systems/rnas/2o3x

>  <Rbt.Executable>
rbdock ($Id: //depot/dev/client3/rdock/2013.1/src/exe/rbdock.cxx#4 $)

>  <Rbt.Library>
libRbt.so (2013.1, Build901 2013/11/27)

>  <Rbt.Parameter_File>
/export/apps/rDock/src/rDock_2013.1_src/data/scripts/dock_solv.prm

>  <Rbt.Receptor>
prm/pocket_docking_2.prm

>  <SCORE>
-4.41214

>  <SCORE.INTER>
-11.0401

>  <SCORE.INTER.CONST>
1

>  <SCORE.INTER.POLAR>
-1.4902

>  <SCORE.INTER.ROT>
6

>  <SCORE.INTER.SOLV>
16.2109

>  <SCORE.INTER.VDW>
-15.3963

>  <SCORE.INTER.norm>
-0.356131

>  <SCORE.INTRA>
5.77383

>  <SCORE.INTRA.DIHEDRAL>
3.20184

>  <SCORE.INTRA.DIHEDRAL.0>
9.37739

>  <SCORE.INTRA.POLAR>
0

>  <SCORE.INTRA.POLAR.0>
0

>  <SCORE.INTRA.REPUL>
0

>  <SCORE.INTRA.REPUL.0>
0

>  <SCORE.INTRA.SOLV>
4.09451

>  <SCORE.INTRA.SOLV.lig_0>
-82.9274

>  <SCORE.INTRA.VDW>
2.12566

>  <SCORE.INTRA.VDW.0>
-3.84922

>  <SCORE.INTRA.norm>
0.186253

>  <SCORE.RESTR>
0.854081

>  <SCORE.RESTR.CAVITY>
0.854081

>  <SCORE.RESTR.norm>
0.027551

>  <SCORE.SYSTEM>
0

>  <SCORE.SYSTEM.CONST>
0

>  <SCORE.SYSTEM.DIHEDRAL>
0

>  <SCORE.SYSTEM.SOLV>
0

>  <SCORE.SYSTEM.norm>
0

>  <SCORE.heavy>
31

>  <SCORE.norm>
-0.142327

>  <RMSD>
6.501

$$$$
2o3x_lig
 OpenBabel11021811463D
libRbt.so/2013.1/901 2013/11/27
 31 33  0  0  0  0  0  0  0  0999 V2000
   22.9498    6.3998   10.0410 C   0  0  2  0  0  0  0  0  0  0  0  0
   22.5067    7.6622    9.5257 O   0  0  0  0  0  0  0  0  0  0  0  0
   22.5547    9.0150    5.4680 C   0  0  2  0  0  0  0  0  0  0  0  0
   22.2634    9.1966    4.0287 N   0  0  0  0  0  0  0  0  0  0  0  0
   19.3224   10.1158    8.6466 C   0  0  1  0  0  0  0  0  0  0  0  0
   21.7418    5.4104   10.0262 C   0  0  2  0  0  0  0  0  0  0  0  0
   21.0291    5.4171    8.7232 N   0  0  0  0  0  0  0  0  0  0  0  0
   23.1600    7.6042    5.7724 C   0  0  0  0  0  0  0  0  0  0  0  0
   17.9867    9.8415    9.4127 C   0  0  2  0  0  0  0  0  0  0  0  0
   16.8479    9.4612    8.5924 O   0  0  0  0  0  0  0  0  0  0  0  0
   20.7203    5.7447   11.1296 C   0  0  1  0  0  0  0  0  0  0  0  0
   19.6691    4.8123   11.1299 O   0  0  0  0  0  0  0  0  0  0  0  0
   23.4613    7.5206    7.3133 C   0  0  2  0  0  0  0  0  0  0  0  0
   24.0621    6.2045    7.6851 N   0  0  0  0  0  0  0  0  0  0  0  0
   17.8738   11.1712   10.1394 C   0  0  2  0  0  0  0  0  0  0  0  0
   17.3533   12.2175    9.2494 O   0  0  0  0  0  0  0  0  0  0  0  0
   21.4143    5.7657   12.4811 C   0  0  2  0  0  0  0  0  0  0  0  0
   20.4892    6.0448   13.4821 O   0  0  0  0  0  0  0  0  0  0  0  0
   22.1558    7.7167    8.1357 C   0  0  2  0  0  0  0  0  0  0  0  0
   19.2988   11.4877   10.5779 C   0  0  2  0  0  0  0  0  0  0  0  0
   20.0256   11.0994    9.4154 O   0  0  0  0  0  0  0  0  0  0  0  0
   22.5440    6.8341   12.4804 C   0  0  2  0  0  0  0  0  0  0  0  0
   23.4884    6.5419   11.4279 O   0  0  0  0  0  0  0  0  0  0  0  0
   21.4361    9.0450    7.8293 C   0  0  2  0  0  0  0  0  0  0  0  0
   20.1281    8.9370    8.4935 O   0  0  0  0  0  0  0  0  0  0  0  0
   19.7959   10.6906   11.8312 C   0  0  0  0  0  0  0  0  0  0  0  0
   19.0354   11.0586   12.9784 N   0  0  0  0  0  0  0  0  0  0  0  0
   23.2870    6.8908   13.7949 C   0  0  0  0  0  0  0  0  0  0  0  0
   24.3152    7.8124   13.7578 O   0  0  0  0  0  0  0  0  0  0  0  0
   21.2498    9.2220    6.2577 C   0  0  1  0  0  0  0  0  0  0  0  0
   20.7843   10.5400    5.9300 O   0  0  0  0  0  0  0  0  0  0  0  0
  1  2  1  1  0  0  0
  1  6  1  0  0  0  0
  1 23  1  0  0  0  0
  3  4  1  6  0  0  0
  3  8  1  0  0  0  0
  3 30  1  0  0  0  0
  5  9  1  0  0  0  0
  5 21  1  0  0  0  0
  5 25  1  1  0  0  0
  6  7  1  6  0  0  0
  6 11  1  0  0  0  0
  8 13  1  0  0  0  0
  9 10  1  6  0  0  0
  9 15  1  0  0  0  0
 11 12  1  1  0  0  0
 11 17  1  0  0  0  0
 13 14  1  6  0  0  0
 13 19  1  0  0  0  0
 15 16  1  6  0  0  0
 15 20  1  0  0  0  0
 17 18  1  1  0  0  0
 17 22  1  0  0  0  0
 19  2  1  1  0  0  0
 19 24  1  0  0  0  0
 20 21  1  0  0  0  0
 20 26  1  1  0  0  0
 22 23  1  0  0  0  0
 22 28  1  1  0  0  0
 24 25  1  1  0  0  0
 24 30  1  0  0  0  0
 26 27  1  0  0  0  0
 28 29  1  0  0  0  0
 30 31  1  1  0  0  0
M  END
>  <CHROM.1>
-67.82457535,-178.10547946,-67.92872932,-65.11505561,177.90407276,166.73944550
21.04072209,8.31745146,9.57415412,-1.01170700,0.76495038,-1.27322735

>  <Name>
2o3x_lig

>  <RI>
0

>  <Rbt.Current_Directory>
/home/itssahil/PROJECTS/Mol_Feturizer/New_Systems/rnas/2o3x

>  <Rbt.Executable>
rbdock ($Id: //depot/dev/client3/rdock/2013.1/src/exe/rbdock.cxx#4 $)

>  <Rbt.Library>
libRbt.so (2013.1, Build901 2013/11/27)

>  <Rbt.Parameter_File>
/export/apps/rDock/src/rDock_2013.1_src/data/scripts/dock_solv.prm

>  <Rbt.Receptor>
prm/pocket_docking_5.prm

>  <SCORE>
-14.0167

>  <SCORE.INTER>
-14.5851

>  <SCORE.INTER.CONST>
1

>  <SCORE.INTER.POLAR>
-0.946221

>  <SCORE.INTER.ROT>
6

>  <SCORE.INTER.SOLV>
13.4827

>  <SCORE.INTER.VDW>
-18.6636

>  <SCORE.INTER.norm>
-0.470488

>  <SCORE.INTRA>
0.56695

>  <SCORE.INTRA.DIHEDRAL>
-7.62642

>  <SCORE.INTRA.DIHEDRAL.0>
9.37739

>  <SCORE.INTRA.POLAR>
0

>  <SCORE.INTRA.POLAR.0>
0

>  <SCORE.INTRA.REPUL>
0

>  <SCORE.INTRA.REPUL.0>
0

>  <SCORE.INTRA.SOLV>
2.26331

>  <SCORE.INTRA.SOLV.lig_0>
-82.9274

>  <SCORE.INTRA.VDW>
3.24851

>  <SCORE.INTRA.VDW.0>
-3.84922

>  <SCORE.INTRA.norm>
0.0182887

>  <SCORE.RESTR>
0.00152264

>  <SCORE.RESTR.CAVITY>
0.00152264

>  <SCORE.RESTR.norm>
4.91174e-05

>  <SCORE.SYSTEM>
0

>  <SCORE.SYSTEM.CONST>
0

>  <SCORE.SYSTEM.DIHEDRAL>
0

>  <SCORE.SYSTEM.SOLV>
0

>  <SCORE.SYSTEM.norm>
0

>  <SCORE.heavy>
31

>  <SCORE.norm>
-0.45215

>  <RMSD>
6.501

$$$$
2o3x_lig
 OpenBabel11021811463D
libRbt.so/2013.1/901 2013/11/27
 31 33  0  0  0  0  0  0  0  0999 V2000
   23.5222    6.0841   10.5075 C   0  0  2  0  0  0  0  0  0  0  0  0
   23.4578    7.1304    9.5294 O   0  0  0  0  0  0  0  0  0  0  0  0
   24.7028    6.8935    5.4438 C   0  0  2  0  0  0  0  0  0  0  0  0
   24.7762    6.5893    3.9976 N   0  0  0  0  0  0  0  0  0  0  0  0
   21.1747    9.4207    6.7903 C   0  0  1  0  0  0  0  0  0  0  0  0
   22.1332    5.3725   10.5596 C   0  0  2  0  0  0  0  0  0  0  0  0
   21.6302    5.0273    9.2055 N   0  0  0  0  0  0  0  0  0  0  0  0
   24.8432    5.6067    6.3236 C   0  0  0  0  0  0  0  0  0  0  0  0
   20.1324    8.9404    5.7278 C   0  0  2  0  0  0  0  0  0  0  0  0
   20.6593    8.6484    4.4044 O   0  0  0  0  0  0  0  0  0  0  0  0
   21.0722    6.2480   11.2529 C   0  0  1  0  0  0  0  0  0  0  0  0
   19.8452    5.5681   11.3336 O   0  0  0  0  0  0  0  0  0  0  0  0
   24.7835    6.0357    7.8351 C   0  0  2  0  0  0  0  0  0  0  0  0
   24.9302    4.8610    8.7459 N   0  0  0  0  0  0  0  0  0  0  0  0
   19.1688   10.1117    5.8211 C   0  0  2  0  0  0  0  0  0  0  0  0
   19.6681   11.2684    5.0659 O   0  0  0  0  0  0  0  0  0  0  0  0
   21.5567    6.6394   12.6388 C   0  0  2  0  0  0  0  0  0  0  0  0
   20.5902    7.4111   13.2759 O   0  0  0  0  0  0  0  0  0  0  0  0
   23.4317    6.7378    8.1496 C   0  0  2  0  0  0  0  0  0  0  0  0
   19.0931   10.4247    7.3108 C   0  0  2  0  0  0  0  0  0  0  0  0
   20.4629   10.2902    7.6793 O   0  0  0  0  0  0  0  0  0  0  0  0
   22.8907    7.4309   12.5302 C   0  0  2  0  0  0  0  0  0  0  0  0
   23.8799    6.6252   11.8540 O   0  0  0  0  0  0  0  0  0  0  0  0
   23.1624    7.9680    7.2605 C   0  0  2  0  0  0  0  0  0  0  0  0
   21.7624    8.3347    7.5235 O   0  0  0  0  0  0  0  0  0  0  0  0
   18.1985    9.4470    8.1459 C   0  0  0  0  0  0  0  0  0  0  0  0
   18.2297    9.8108    9.5230 N   0  0  0  0  0  0  0  0  0  0  0  0
   23.4357    7.8334   13.8808 C   0  0  0  0  0  0  0  0  0  0  0  0
   24.5988    8.5687   13.7604 O   0  0  0  0  0  0  0  0  0  0  0  0
   23.3613    7.5937    5.7256 C   0  0  1  0  0  0  0  0  0  0  0  0
   23.3334    8.7629    4.8928 O   0  0  0  0  0  0  0  0  0  0  0  0
  1  2  1  6  0  0  0
  1  6  1  0  0  0  0
  1 23  1  0  0  0  0
  3  4  1  6  0  0  0
  3  8  1  0  0  0  0
  3 30  1  0  0  0  0
  5  9  1  0  0  0  0
  5 21  1  0  0  0  0
  5 25  1  1  0  0  0
  6  7  1  6  0  0  0
  6 11  1  0  0  0  0
  8 13  1  0  0  0  0
  9 10  1  6  0  0  0
  9 15  1  0  0  0  0
 11 12  1  1  0  0  0
 11 17  1  0  0  0  0
 13 14  1  1  0  0  0
 13 19  1  0  0  0  0
 15 16  1  6  0  0  0
 15 20  1  0  0  0  0
 17 18  1  6  0  0  0
 17 22  1  0  0  0  0
 19  2  1  1  0  0  0
 19 24  1  0  0  0  0
 20 21  1  0  0  0  0
 20 26  1  1  0  0  0
 22 23  1  0  0  0  0
 22 28  1  1  0  0  0
 24 25  1  6  0  0  0
 24 30  1  0  0  0  0
 26 27  1  0  0  0  0
 28 29  1  0  0  0  0
 30 31  1  6  0  0  0
M  END
>  <CHROM.1>
-72.55896680,107.91883578,-64.22744590,178.42760804,-178.21508848,-177.00447774
22.06635160,7.69733703,8.62455705,-1.32057963,0.58431384,-1.38033369

>  <Name>
2o3x_lig

>  <RI>
224

>  <Rbt.Current_Directory>
/home/itssahil/PROJECTS/Mol_Feturizer/New_Systems/rnas/2o3x

>  <Rbt.Executable>
rbdock ($Id: //depot/dev/client3/rdock/2013.1/src/exe/rbdock.cxx#4 $)

>  <Rbt.Library>
libRbt.so (2013.1, Build901 2013/11/27)

>  <Rbt.Parameter_File>
/export/apps/rDock/src/rDock_2013.1_src/data/scripts/dock_solv.prm

>  <Rbt.Receptor>
prm/blind_docking_100.prm

>  <SCORE>
5.25083

>  <SCORE.INTER>
-1.17054

>  <SCORE.INTER.CONST>
1

>  <SCORE.INTER.POLAR>
0

>  <SCORE.INTER.ROT>
6

>  <SCORE.INTER.SOLV>
14.5039

>  <SCORE.INTER.VDW>
-13.215

>  <SCORE.INTER.norm>
-0.0377592

>  <SCORE.INTRA>
3.82579

>  <SCORE.INTRA.DIHEDRAL>
-1.80044

>  <SCORE.INTRA.DIHEDRAL.0>
9.37739

>  <SCORE.INTRA.POLAR>
0

>  <SCORE.INTRA.POLAR.0>
0

>  <SCORE.INTRA.REPUL>
0

>  <SCORE.INTRA.REPUL.0>
0

>  <SCORE.INTRA.SOLV>
2.5932

>  <SCORE.INTRA.SOLV.lig_0>
-82.9274

>  <SCORE.INTRA.VDW>
3.42941

>  <SCORE.INTRA.VDW.0>
-3.84922

>  <SCORE.INTRA.norm>
0.123413

>  <SCORE.RESTR>
2.59557

>  <SCORE.RESTR.CAVITY>
2.59557

>  <SCORE.RESTR.norm>
0.0837282

>  <SCORE.SYSTEM>
0

>  <SCORE.SYSTEM.CONST>
0

>  <SCORE.SYSTEM.DIHEDRAL>
0

>  <SCORE.SYSTEM.SOLV>
0

>  <SCORE.SYSTEM.norm>
0

>  <SCORE.heavy>
31

>  <SCORE.norm>
0.169382

>  <RMSD>
6.504

$$$$
2o3x_lig
 OpenBabel11021811463D
libRbt.so/2013.1/901 2013/11/27
 31 33  0  0  0  0  0  0  0  0999 V2000
   21.8150    6.7118    8.0037 C   0  0  2  0  0  0  0  0  0  0  0  0
   21.7038    8.0652    8.4636 O   0  0  0  0  0  0  0  0  0  0  0  0
   17.6025    7.8137    9.6527 C   0  0  2  0  0  0  0  0  0  0  0  0
   16.2132    8.1469   10.0379 N   0  0  0  0  0  0  0  0  0  0  0  0
   19.3359    8.6501    5.3039 C   0  0  1  0  0  0  0  0  0  0  0  0
   23.1642    6.1236    8.5255 C   0  0  2  0  0  0  0  0  0  0  0  0
   23.3648    6.3835    9.9740 N   0  0  0  0  0  0  0  0  0  0  0  0
   18.6410    8.2992   10.7181 C   0  0  0  0  0  0  0  0  0  0  0  0
   18.0284    9.3418    4.7960 C   0  0  2  0  0  0  0  0  0  0  0  0
   16.7848    8.6471    5.0880 O   0  0  0  0  0  0  0  0  0  0  0  0
   24.3701    6.7073    7.7653 C   0  0  1  0  0  0  0  0  0  0  0  0
   25.5676    6.1269    8.2163 O   0  0  0  0  0  0  0  0  0  0  0  0
   20.0758    7.8740   10.2354 C   0  0  2  0  0  0  0  0  0  0  0  0
   21.1285    8.2859   11.2118 N   0  0  0  0  0  0  0  0  0  0  0  0
   18.3997    9.4609    3.3274 C   0  0  2  0  0  0  0  0  0  0  0  0
   18.2052    8.1841    2.6277 O   0  0  0  0  0  0  0  0  0  0  0  0
   24.1953    6.4778    6.2735 C   0  0  2  0  0  0  0  0  0  0  0  0
   25.2943    6.9838    5.5866 O   0  0  0  0  0  0  0  0  0  0  0  0
   20.4011    8.5190    8.8580 C   0  0  2  0  0  0  0  0  0  0  0  0
   19.8711    9.8583    3.3377 C   0  0  2  0  0  0  0  0  0  0  0  0
   20.3648    9.0177    4.3770 O   0  0  0  0  0  0  0  0  0  0  0  0
   22.8905    7.1651    5.7807 C   0  0  2  0  0  0  0  0  0  0  0  0
   21.7603    6.6426    6.5116 O   0  0  0  0  0  0  0  0  0  0  0  0
   19.3724    8.1712    7.7639 C   0  0  2  0  0  0  0  0  0  0  0  0
   19.6986    9.0540    6.6334 O   0  0  0  0  0  0  0  0  0  0  0  0
   20.1455   11.3644    3.6689 C   0  0  0  0  0  0  0  0  0  0  0  0
   20.1887   11.5550    5.0802 N   0  0  0  0  0  0  0  0  0  0  0  0
   22.6496    6.9564    4.3036 C   0  0  0  0  0  0  0  0  0  0  0  0
   23.6355    7.5498    3.5395 O   0  0  0  0  0  0  0  0  0  0  0  0
   17.8949    8.4564    8.2849 C   0  0  1  0  0  0  0  0  0  0  0  0
   16.9098    7.9397    7.3773 O   0  0  0  0  0  0  0  0  0  0  0  0
  1  2  1  6  0  0  0
  1  6  1  0  0  0  0
  1 23  1  0  0  0  0
  3  4  1  1  0  0  0
  3  8  1  0  0  0  0
  3 30  1  0  0  0  0
  5  9  1  0  0  0  0
  5 21  1  0  0  0  0
  5 25  1  1  0  0  0
  6  7  1  1  0  0  0
  6 11  1  0  0  0  0
  8 13  1  0  0  0  0
  9 10  1  6  0  0  0
  9 15  1  0  0  0  0
 11 12  1  1  0  0  0
 11 17  1  0  0  0  0
 13 14  1  1  0  0  0
 13 19  1  0  0  0  0
 15 16  1  6  0  0  0
 15 20  1  0  0  0  0
 17 18  1  6  0  0  0
 17 22  1  0  0  0  0
 19  2  1  6  0  0  0
 19 24  1  0  0  0  0
 20 21  1  0  0  0  0
 20 26  1  1  0  0  0
 22 23  1  0  0  0  0
 22 28  1  6  0  0  0
 24 25  1  6  0  0  0
 24 30  1  0  0  0  0
 26 27  1  0  0  0  0
 28 29  1  0  0  0  0
 30 31  1  6  0  0  0
M  END
>  <CHROM.1>
-142.27541894,100.08491014,74.30859151,85.02380056,-64.17093439,154.59928999
20.65407360,8.07409022,6.76716283,0.38416005,-0.31146762,1.80418784

>  <Name>
2o3x_lig

>  <RI>
3.41138e+07

>  <Rbt.Current_Directory>
/home/itssahil/PROJECTS/Mol_Feturizer/New_Systems/rnas/2o3x

>  <Rbt.Executable>
rbdock ($Id: //depot/dev/client3/rdock/2013.1/src/exe/rbdock.cxx#4 $)

>  <Rbt.Library>
libRbt.so (2013.1, Build901 2013/11/27)

>  <Rbt.Parameter_File>
/export/apps/rDock/src/rDock_2013.1_src/data/scripts/dock_solv.prm

>  <Rbt.Receptor>
prm/pocket_docking_2.prm

>  <SCORE>
-2.2572

>  <SCORE.INTER>
-9.58566

>  <SCORE.INTER.CONST>
1

>  <SCORE.INTER.POLAR>
-1.41665

>  <SCORE.INTER.ROT>
6

>  <SCORE.INTER.SOLV>
17.8557

>  <SCORE.INTER.VDW>
-15.2202

>  <SCORE.INTER.norm>
-0.309215

>  <SCORE.INTRA>
6.69939

>  <SCORE.INTRA.DIHEDRAL>
6.80092

>  <SCORE.INTRA.DIHEDRAL.0>
9.37739

>  <SCORE.INTRA.POLAR>
0

>  <SCORE.INTRA.POLAR.0>
0

>  <SCORE.INTRA.REPUL>
0

>  <SCORE.INTRA.REPUL.0>
0

>  <SCORE.INTRA.SOLV>
4.06576

>  <SCORE.INTRA.SOLV.lig_0>
-82.9274

>  <SCORE.INTRA.VDW>
1.26604

>  <SCORE.INTRA.VDW.0>
-3.84922

>  <SCORE.INTRA.norm>
0.216109

>  <SCORE.RESTR>
0.629068

>  <SCORE.RESTR.CAVITY>
0.629068

>  <SCORE.RESTR.norm>
0.0202925

>  <SCORE.SYSTEM>
0

>  <SCORE.SYSTEM.CONST>
0

>  <SCORE.SYSTEM.DIHEDRAL>
0

>  <SCORE.SYSTEM.SOLV>
0

>  <SCORE.SYSTEM.norm>
0

>  <SCORE.heavy>
31

>  <SCORE.norm>
-0.072813

>  <RMSD>
6.506

$$$$
2o3x_lig
 OpenBabel11021811463D
libRbt.so/2013.1/901 2013/11/27
 31 33  0  0  0  0  0  0  0  0999 V2000
   24.1320    5.4312    8.0759 C   0  0  2  0  0  0  0  0  0  0  0  0
   24.3733    6.1195    9.3102 O   0  0  0  0  0  0  0  0  0  0  0  0
   20.6472    5.6453   11.3570 C   0  0  2  0  0  0  0  0  0  0  0  0
   19.6157    5.4234   12.3944 N   0  0  0  0  0  0  0  0  0  0  0  0
   24.2503    7.6776   12.6736 C   0  0  1  0  0  0  0  0  0  0  0  0
   25.5068    5.1566    7.3881 C   0  0  2  0  0  0  0  0  0  0  0  0
   26.4955    4.5702    8.3285 N   0  0  0  0  0  0  0  0  0  0  0  0
   21.5010    4.3607   11.0918 C   0  0  0  0  0  0  0  0  0  0  0  0
   25.0870    8.8363   13.3087 C   0  0  2  0  0  0  0  0  0  0  0  0
   26.5055    8.8476   12.9893 O   0  0  0  0  0  0  0  0  0  0  0  0
   26.1145    6.4438    6.7995 C   0  0  1  0  0  0  0  0  0  0  0  0
   27.3246    6.1643    6.1424 O   0  0  0  0  0  0  0  0  0  0  0  0
   22.5421    4.6874    9.9597 C   0  0  2  0  0  0  0  0  0  0  0  0
   23.3882    3.5008    9.6322 N   0  0  0  0  0  0  0  0  0  0  0  0
   24.7310    8.5907   14.7654 C   0  0  2  0  0  0  0  0  0  0  0  0
   25.5171    7.4818   15.3221 O   0  0  0  0  0  0  0  0  0  0  0  0
   25.1247    7.0868    5.8426 C   0  0  2  0  0  0  0  0  0  0  0  0
   25.6803    8.2374    5.2920 O   0  0  0  0  0  0  0  0  0  0  0  0
   23.4750    5.8528   10.3966 C   0  0  2  0  0  0  0  0  0  0  0  0
   23.2459    8.2483   14.7419 C   0  0  2  0  0  0  0  0  0  0  0  0
   23.1871    7.4052   13.5947 O   0  0  0  0  0  0  0  0  0  0  0  0
   23.8084    7.4325    6.5947 C   0  0  2  0  0  0  0  0  0  0  0  0
   23.2505    6.2333    7.1739 O   0  0  0  0  0  0  0  0  0  0  0  0
   22.7104    7.1379   10.7710 C   0  0  2  0  0  0  0  0  0  0  0  0
   23.7153    8.0191   11.3854 O   0  0  0  0  0  0  0  0  0  0  0  0
   22.2882    9.4762   14.5738 C   0  0  0  0  0  0  0  0  0  0  0  0
   20.9391    9.0325   14.4597 N   0  0  0  0  0  0  0  0  0  0  0  0
   22.7732    8.0594    5.6899 C   0  0  0  0  0  0  0  0  0  0  0  0
   23.2166    9.2576    5.1648 O   0  0  0  0  0  0  0  0  0  0  0  0
   21.5500    6.8068   11.8101 C   0  0  1  0  0  0  0  0  0  0  0  0
   20.6859    7.9360   12.0086 O   0  0  0  0  0  0  0  0  0  0  0  0
  1  2  1  1  0  0  0
  1  6  1  0  0  0  0
  1 23  1  0  0  0  0
  3  4  1  1  0  0  0
  3  8  1  0  0  0  0
  3 30  1  0  0  0  0
  5  9  1  0  0  0  0
  5 21  1  0  0  0  0
  5 25  1  6  0  0  0
  6  7  1  1  0  0  0
  6 11  1  0  0  0  0
  8 13  1  0  0  0  0
  9 10  1  1  0  0  0
  9 15  1  0  0  0  0
 11 12  1  6  0  0  0
 11 17  1  0  0  0  0
 13 14  1  1  0  0  0
 13 19  1  0  0  0  0
 15 16  1  6  0  0  0
 15 20  1  0  0  0  0
 17 18  1  1  0  0  0
 17 22  1  0  0  0  0
 19  2  1  6  0  0  0
 19 24  1  0  0  0  0
 20 21  1  0  0  0  0
 20 26  1  6  0  0  0
 22 23  1  0  0  0  0
 22 28  1  6  0  0  0
 24 25  1  1  0  0  0
 24 30  1  0  0  0  0
 26 27  1  0  0  0  0
 28 29  1  0  0  0  0
 30 31  1  6  0  0  0
M  END
>  <CHROM.1>
-147.00823433,-168.92798774,7.43387173,175.45446759,-61.99648236,-69.67978252
23.68458115,6.97394067,10.27015986,1.29788053,-0.36796291,-1.82425733

>  <Name>
2o3x_lig

>  <RI>
0

>  <Rbt.Current_Directory>
/home/itssahil/PROJECTS/Mol_Feturizer/New_Systems/rnas/2o3x

>  <Rbt.Executable>
rbdock ($Id: //depot/dev/client3/rdock/2013.1/src/exe/rbdock.cxx#4 $)

>  <Rbt.Library>
libRbt.so (2013.1, Build901 2013/11/27)

>  <Rbt.Parameter_File>
/export/apps/rDock/src/rDock_2013.1_src/data/scripts/dock_solv.prm

>  <Rbt.Receptor>
prm/blind_docking_60.prm

>  <SCORE>
14.5631

>  <SCORE.INTER>
-3.17251

>  <SCORE.INTER.CONST>
1

>  <SCORE.INTER.POLAR>
-0.0697968

>  <SCORE.INTER.ROT>
6

>  <SCORE.INTER.SOLV>
26.3673

>  <SCORE.INTER.VDW>
-18.2714

>  <SCORE.INTER.norm>
-0.102339

>  <SCORE.INTRA>
11.4553

>  <SCORE.INTRA.DIHEDRAL>
2.93765

>  <SCORE.INTRA.DIHEDRAL.0>
9.37739

>  <SCORE.INTRA.POLAR>
0

>  <SCORE.INTRA.POLAR.0>
0

>  <SCORE.INTRA.REPUL>
0

>  <SCORE.INTRA.REPUL.0>
0

>  <SCORE.INTRA.SOLV>
2.91456

>  <SCORE.INTRA.SOLV.lig_0>
-82.9274

>  <SCORE.INTRA.VDW>
8.52919

>  <SCORE.INTRA.VDW.0>
-3.84922

>  <SCORE.INTRA.norm>
0.369526

>  <SCORE.RESTR>
6.28034

>  <SCORE.RESTR.CAVITY>
6.28034

>  <SCORE.RESTR.norm>
0.202592

>  <SCORE.SYSTEM>
0

>  <SCORE.SYSTEM.CONST>
0

>  <SCORE.SYSTEM.DIHEDRAL>
0

>  <SCORE.SYSTEM.SOLV>
0

>  <SCORE.SYSTEM.norm>
0

>  <SCORE.heavy>
31

>  <SCORE.norm>
0.469778

>  <RMSD>
6.507

$$$$
2o3x_lig
 OpenBabel11021811463D
libRbt.so/2013.1/901 2013/11/27
 31 33  0  0  0  0  0  0  0  0999 V2000
   19.9422    8.4348    9.7620 C   0  0  2  0  0  0  0  0  0  0  0  0
   20.4433    9.6005   10.4294 O   0  0  0  0  0  0  0  0  0  0  0  0
   18.9811   11.9808   13.6689 C   0  0  2  0  0  0  0  0  0  0  0  0
   18.1135   12.7644   14.5759 N   0  0  0  0  0  0  0  0  0  0  0  0
   18.0754    7.4998   13.1718 C   0  0  1  0  0  0  0  0  0  0  0  0
   21.0842    7.8466    8.8741 C   0  0  2  0  0  0  0  0  0  0  0  0
   22.3644    7.7251    9.6172 N   0  0  0  0  0  0  0  0  0  0  0  0
   19.1553   12.6741   12.2767 C   0  0  0  0  0  0  0  0  0  0  0  0
   17.4052    6.2130   12.5875 C   0  0  2  0  0  0  0  0  0  0  0  0
   15.9579    6.2527   12.4535 O   0  0  0  0  0  0  0  0  0  0  0  0
   21.3380    8.7143    7.6268 C   0  0  1  0  0  0  0  0  0  0  0  0
   22.3329    8.1395    6.8180 O   0  0  0  0  0  0  0  0  0  0  0  0
   20.1120   11.7851   11.4011 C   0  0  2  0  0  0  0  0  0  0  0  0
   20.3460   12.3903   10.0556 N   0  0  0  0  0  0  0  0  0  0  0  0
   17.9579    5.2068   13.5829 C   0  0  2  0  0  0  0  0  0  0  0  0
   17.2033    5.2403   14.8427 O   0  0  0  0  0  0  0  0  0  0  0  0
   20.0453    8.8789    6.8454 C   0  0  2  0  0  0  0  0  0  0  0  0
   20.2769    9.6431    5.7061 O   0  0  0  0  0  0  0  0  0  0  0  0
   19.5090   10.3649   11.2048 C   0  0  2  0  0  0  0  0  0  0  0  0
   19.4025    5.6410   13.8010 C   0  0  2  0  0  0  0  0  0  0  0  0
   19.2462    7.0557   13.8682 O   0  0  0  0  0  0  0  0  0  0  0  0
   18.9688    9.5581    7.7385 C   0  0  2  0  0  0  0  0  0  0  0  0
   18.7491    8.7635    8.9239 O   0  0  0  0  0  0  0  0  0  0  0  0
   19.2137    9.6393   12.5325 C   0  0  2  0  0  0  0  0  0  0  0  0
   18.4327    8.4507   12.1568 O   0  0  0  0  0  0  0  0  0  0  0  0
   20.3903    5.2491   12.6503 C   0  0  0  0  0  0  0  0  0  0  0  0
   21.6912    5.7598   12.9270 N   0  0  0  0  0  0  0  0  0  0  0  0
   17.6499    9.7330    7.0222 C   0  0  0  0  0  0  0  0  0  0  0  0
   16.7123   10.3492    7.8278 O   0  0  0  0  0  0  0  0  0  0  0  0
   18.3665   10.5798   13.4988 C   0  0  1  0  0  0  0  0  0  0  0  0
   18.2644   10.0210   14.8173 O   0  0  0  0  0  0  0  0  0  0  0  0
  1  2  1  6  0  0  0
  1  6  1  0  0  0  0
  1 23  1  0  0  0  0
  3  4  1  1  0  0  0
  3  8  1  0  0  0  0
  3 30  1  0  0  0  0
  5  9  1  0  0  0  0
  5 21  1  0  0  0  0
  5 25  1  6  0  0  0
  6  7  1  1  0  0  0
  6 11  1  0  0  0  0
  8 13  1  0  0  0  0
  9 10  1  1  0  0  0
  9 15  1  0  0  0  0
 11 12  1  6  0  0  0
 11 17  1  0  0  0  0
 13 14  1  6  0  0  0
 13 19  1  0  0  0  0
 15 16  1  1  0  0  0
 15 20  1  0  0  0  0
 17 18  1  6  0  0  0
 17 22  1  0  0  0  0
 19  2  1  6  0  0  0
 19 24  1  0  0  0  0
 20 21  1  0  0  0  0
 20 26  1  6  0  0  0
 22 23  1  0  0  0  0
 22 28  1  6  0  0  0
 24 25  1  6  0  0  0
 24 30  1  0  0  0  0
 26 27  1  0  0  0  0
 28 29  1  0  0  0  0
 30 31  1  1  0  0  0
M  END
>  <CHROM.1>
174.45033341,-172.86527915,-160.37459003,177.13717221,-179.41742080,175.58668965
19.25707407,8.76117553,11.05707817,-0.58809543,-1.24932203,2.86094645

>  <Name>
2o3x_lig

>  <RI>
2.78316e+07

>  <Rbt.Current_Directory>
/home/itssahil/PROJECTS/Mol_Feturizer/New_Systems/rnas/2o3x

>  <Rbt.Executable>
rbdock ($Id: //depot/dev/client3/rdock/2013.1/src/exe/rbdock.cxx#4 $)

>  <Rbt.Library>
libRbt.so (2013.1, Build901 2013/11/27)

>  <Rbt.Parameter_File>
/export/apps/rDock/src/rDock_2013.1_src/data/scripts/dock_solv.prm

>  <Rbt.Receptor>
prm/pocket_docking_7.prm

>  <SCORE>
-16.3738

>  <SCORE.INTER>
-12.6315

>  <SCORE.INTER.CONST>
1

>  <SCORE.INTER.POLAR>
-1.741

>  <SCORE.INTER.ROT>
6

>  <SCORE.INTER.SOLV>
20.9264

>  <SCORE.INTER.VDW>
-17.1931

>  <SCORE.INTER.norm>
-0.407467

>  <SCORE.INTRA>
-3.74229

>  <SCORE.INTRA.DIHEDRAL>
-6.94478

>  <SCORE.INTRA.DIHEDRAL.0>
9.37739

>  <SCORE.INTRA.POLAR>
0

>  <SCORE.INTRA.POLAR.0>
0

>  <SCORE.INTRA.REPUL>
0

>  <SCORE.INTRA.REPUL.0>
0

>  <SCORE.INTRA.SOLV>
-1.79482

>  <SCORE.INTRA.SOLV.lig_0>
-82.9274

>  <SCORE.INTRA.VDW>
0.627516

>  <SCORE.INTRA.VDW.0>
-3.84922

>  <SCORE.INTRA.norm>
-0.120719

>  <SCORE.RESTR>
0

>  <SCORE.RESTR.CAVITY>
0

>  <SCORE.RESTR.norm>
0

>  <SCORE.SYSTEM>
0

>  <SCORE.SYSTEM.CONST>
0

>  <SCORE.SYSTEM.DIHEDRAL>
0

>  <SCORE.SYSTEM.SOLV>
0

>  <SCORE.SYSTEM.norm>
0

>  <SCORE.heavy>
31

>  <SCORE.norm>
-0.528186

>  <RMSD>
6.508

$$$$
2o3x_lig
 OpenBabel11021811463D
libRbt.so/2013.1/901 2013/11/27
 31 33  0  0  0  0  0  0  0  0999 V2000
   23.8239    6.3821   10.2547 C   0  0  2  0  0  0  0  0  0  0  0  0
   23.5463    7.3802    9.2636 O   0  0  0  0  0  0  0  0  0  0  0  0
   24.4715    7.2717    5.0887 C   0  0  2  0  0  0  0  0  0  0  0  0
   24.4848    6.9442    3.6458 N   0  0  0  0  0  0  0  0  0  0  0  0
   20.5786    8.8909    6.5547 C   0  0  1  0  0  0  0  0  0  0  0  0
   22.4732    5.7293   10.6881 C   0  0  2  0  0  0  0  0  0  0  0  0
   21.6417    5.3372    9.5217 N   0  0  0  0  0  0  0  0  0  0  0  0
   24.9403    6.0663    5.9699 C   0  0  0  0  0  0  0  0  0  0  0  0
   19.1374    8.2835    6.5426 C   0  0  2  0  0  0  0  0  0  0  0  0
   18.8809    7.2704    5.5316 O   0  0  0  0  0  0  0  0  0  0  0  0
   21.6401    6.6793   11.5692 C   0  0  1  0  0  0  0  0  0  0  0  0
   20.4542    6.0530   11.9885 O   0  0  0  0  0  0  0  0  0  0  0  0
   24.9206    6.5208    7.4751 C   0  0  2  0  0  0  0  0  0  0  0  0
   25.3756    5.4273    8.3853 N   0  0  0  0  0  0  0  0  0  0  0  0
   18.3548    9.5788    6.4057 C   0  0  2  0  0  0  0  0  0  0  0  0
   18.3564   10.0531    5.0155 O   0  0  0  0  0  0  0  0  0  0  0  0
   22.4629    7.1196   12.7683 C   0  0  2  0  0  0  0  0  0  0  0  0
   21.7047    7.9596   13.5778 O   0  0  0  0  0  0  0  0  0  0  0  0
   23.4858    6.9483    7.8968 C   0  0  2  0  0  0  0  0  0  0  0  0
   19.0812   10.5607    7.3175 C   0  0  2  0  0  0  0  0  0  0  0  0
   20.4381   10.2358    7.0284 O   0  0  0  0  0  0  0  0  0  0  0  0
   23.7483    7.8516   12.2891 C   0  0  2  0  0  0  0  0  0  0  0  0
   24.5180    6.9750   11.4382 O   0  0  0  0  0  0  0  0  0  0  0  0
   22.9018    8.0723    7.0182 C   0  0  2  0  0  0  0  0  0  0  0  0
   21.4832    8.1602    7.3972 O   0  0  0  0  0  0  0  0  0  0  0  0
   18.7854   10.3850    8.8456 C   0  0  0  0  0  0  0  0  0  0  0  0
   19.4883   11.3707    9.5966 N   0  0  0  0  0  0  0  0  0  0  0  0
   24.6213    8.2990   13.4385 C   0  0  0  0  0  0  0  0  0  0  0  0
   23.9209    9.0863   14.3316 O   0  0  0  0  0  0  0  0  0  0  0  0
   23.0443    7.6985    5.4769 C   0  0  1  0  0  0  0  0  0  0  0  0
   22.7129    8.8126    4.6342 O   0  0  0  0  0  0  0  0  0  0  0  0
  1  2  1  6  0  0  0
  1  6  1  0  0  0  0
  1 23  1  0  0  0  0
  3  4  1  6  0  0  0
  3  8  1  0  0  0  0
  3 30  1  0  0  0  0
  5  9  1  0  0  0  0
  5 21  1  0  0  0  0
  5 25  1  1  0  0  0
  6  7  1  6  0  0  0
  6 11  1  0  0  0  0
  8 13  1  0  0  0  0
  9 10  1  6  0  0  0
  9 15  1  0  0  0  0
 11 12  1  1  0  0  0
 11 17  1  0  0  0  0
 13 14  1  1  0  0  0
 13 19  1  0  0  0  0
 15 16  1  6  0  0  0
 15 20  1  0  0  0  0
 17 18  1  1  0  0  0
 17 22  1  0  0  0  0
 19  2  1  1  0  0  0
 19 24  1  0  0  0  0
 20 21  1  0  0  0  0
 20 26  1  1  0  0  0
 22 23  1  0  0  0  0
 22 28  1  1  0  0  0
 24 25  1  1  0  0  0
 24 30  1  0  0  0  0
 26 27  1  0  0  0  0
 28 29  1  0  0  0  0
 30 31  1  6  0  0  0
M  END
>  <CHROM.1>
-87.14136351,146.93668655,-67.77121695,-178.60312282,-55.16927745,-165.59567505
22.08791066,7.87271042,8.63731039,-1.15525595,0.52860865,-1.58160785

>  <Name>
2o3x_lig

>  <RI>
224

>  <Rbt.Current_Directory>
/home/itssahil/PROJECTS/Mol_Feturizer/New_Systems/rnas/2o3x

>  <Rbt.Executable>
rbdock ($Id: //depot/dev/client3/rdock/2013.1/src/exe/rbdock.cxx#4 $)

>  <Rbt.Library>
libRbt.so (2013.1, Build901 2013/11/27)

>  <Rbt.Parameter_File>
/export/apps/rDock/src/rDock_2013.1_src/data/scripts/dock_solv.prm

>  <Rbt.Receptor>
prm/blind_docking_100.prm

>  <SCORE>
2.70257

>  <SCORE.INTER>
-5.47713

>  <SCORE.INTER.CONST>
1

>  <SCORE.INTER.POLAR>
-0.886973

>  <SCORE.INTER.ROT>
6

>  <SCORE.INTER.SOLV>
18.548

>  <SCORE.INTER.VDW>
-14.4775

>  <SCORE.INTER.norm>
-0.176682

>  <SCORE.INTRA>
3.45556

>  <SCORE.INTRA.DIHEDRAL>
-0.614709

>  <SCORE.INTRA.DIHEDRAL.0>
9.37739

>  <SCORE.INTRA.POLAR>
0

>  <SCORE.INTRA.POLAR.0>
0

>  <SCORE.INTRA.REPUL>
0

>  <SCORE.INTRA.REPUL.0>
0

>  <SCORE.INTRA.SOLV>
1.14692

>  <SCORE.INTRA.SOLV.lig_0>
-82.9274

>  <SCORE.INTRA.VDW>
3.18945

>  <SCORE.INTRA.VDW.0>
-3.84922

>  <SCORE.INTRA.norm>
0.11147

>  <SCORE.RESTR>
4.72414

>  <SCORE.RESTR.CAVITY>
4.72414

>  <SCORE.RESTR.norm>
0.152392

>  <SCORE.SYSTEM>
0

>  <SCORE.SYSTEM.CONST>
0

>  <SCORE.SYSTEM.DIHEDRAL>
0

>  <SCORE.SYSTEM.SOLV>
0

>  <SCORE.SYSTEM.norm>
0

>  <SCORE.heavy>
31

>  <SCORE.norm>
0.0871797

>  <RMSD>
6.520

$$$$
2o3x_lig
 OpenBabel11021811463D
libRbt.so/2013.1/901 2013/11/27
 31 33  0  0  0  0  0  0  0  0999 V2000
   19.8002    4.6361    6.0613 C   0  0  2  0  0  0  0  0  0  0  0  0
   19.4690    4.7262    7.4533 O   0  0  0  0  0  0  0  0  0  0  0  0
   20.3982    7.5277   10.5494 C   0  0  2  0  0  0  0  0  0  0  0  0
   21.0997    8.4808   11.4377 N   0  0  0  0  0  0  0  0  0  0  0  0
   20.1434    8.7427    6.2069 C   0  0  1  0  0  0  0  0  0  0  0  0
   18.8099    3.6373    5.3830 C   0  0  2  0  0  0  0  0  0  0  0  0
   17.3970    3.9186    5.7438 N   0  0  0  0  0  0  0  0  0  0  0  0
   20.9514    6.0710   10.6955 C   0  0  0  0  0  0  0  0  0  0  0  0
   20.8924    8.9889    4.8561 C   0  0  2  0  0  0  0  0  0  0  0  0
   22.2799    9.4101    4.9639 O   0  0  0  0  0  0  0  0  0  0  0  0
   19.1194    2.1790    5.7710 C   0  0  1  0  0  0  0  0  0  0  0  0
   18.2493    1.2957    5.1100 O   0  0  0  0  0  0  0  0  0  0  0  0
   20.1266    5.1338    9.7397 C   0  0  2  0  0  0  0  0  0  0  0  0
   20.5825    3.7144    9.8341 N   0  0  0  0  0  0  0  0  0  0  0  0
   19.9310    9.9997    4.2535 C   0  0  2  0  0  0  0  0  0  0  0  0
   20.1473   11.3377    4.8198 O   0  0  0  0  0  0  0  0  0  0  0  0
   20.5651    1.8549    5.4339 C   0  0  2  0  0  0  0  0  0  0  0  0
   20.8406    0.5312    5.7623 O   0  0  0  0  0  0  0  0  0  0  0  0
   20.2687    5.6001    8.2627 C   0  0  2  0  0  0  0  0  0  0  0  0
   18.5476    9.4718    4.6150 C   0  0  2  0  0  0  0  0  0  0  0  0
   18.7669    9.0542    5.9596 O   0  0  0  0  0  0  0  0  0  0  0  0
   21.5170    2.8099    6.2082 C   0  0  2  0  0  0  0  0  0  0  0  0
   21.2107    4.1800    5.8705 O   0  0  0  0  0  0  0  0  0  0  0  0
   19.8342    7.0624    8.0408 C   0  0  2  0  0  0  0  0  0  0  0  0
   20.2698    7.3910    6.6747 O   0  0  0  0  0  0  0  0  0  0  0  0
   18.0493    8.2727    3.7392 C   0  0  0  0  0  0  0  0  0  0  0  0
   18.0474    8.6398    2.3626 N   0  0  0  0  0  0  0  0  0  0  0  0
   22.9732    2.5497    5.8999 C   0  0  0  0  0  0  0  0  0  0  0  0
   23.8016    3.3999    6.6063 O   0  0  0  0  0  0  0  0  0  0  0  0
   20.5476    8.0165    9.0975 C   0  0  1  0  0  0  0  0  0  0  0  0
   19.9998    9.3431    9.0598 O   0  0  0  0  0  0  0  0  0  0  0  0
  1  2  1  1  0  0  0
  1  6  1  0  0  0  0
  1 23  1  0  0  0  0
  3  4  1  1  0  0  0
  3  8  1  0  0  0  0
  3 30  1  0  0  0  0
  5  9  1  0  0  0  0
  5 21  1  0  0  0  0
  5 25  1  6  0  0  0
  6  7  1  1  0  0  0
  6 11  1  0  0  0  0
  8 13  1  0  0  0  0
  9 10  1  1  0  0  0
  9 15  1  0  0  0  0
 11 12  1  6  0  0  0
 11 17  1  0  0  0  0
 13 14  1  6  0  0  0
 13 19  1  0  0  0  0
 15 16  1  1  0  0  0
 15 20  1  0  0  0  0
 17 18  1  1  0  0  0
 17 22  1  0  0  0  0
 19  2  1  6  0  0  0
 19 24  1  0  0  0  0
 20 21  1  0  0  0  0
 20 26  1  6  0  0  0
 22 23  1  0  0  0  0
 22 28  1  6  0  0  0
 24 25  1  6  0  0  0
 24 30  1  0  0  0  0
 26 27  1  0  0  0  0
 28 29  1  0  0  0  0
 30 31  1  1  0  0  0
M  END
>  <CHROM.1>
179.95606046,168.97210758,-158.00765914,-57.16330440,-179.46120863,-173.20120137
20.16922814,6.06213114,6.63806336,1.25831539,1.27725417,-2.90127749

>  <Name>
2o3x_lig

>  <RI>
0

>  <Rbt.Current_Directory>
/home/itssahil/PROJECTS/Mol_Feturizer/New_Systems/rnas/2o3x

>  <Rbt.Executable>
rbdock ($Id: //depot/dev/client3/rdock/2013.1/src/exe/rbdock.cxx#4 $)

>  <Rbt.Library>
libRbt.so (2013.1, Build901 2013/11/27)

>  <Rbt.Parameter_File>
/export/apps/rDock/src/rDock_2013.1_src/data/scripts/dock_solv.prm

>  <Rbt.Receptor>
prm/pocket_docking_8.prm

>  <SCORE>
-10.2273

>  <SCORE.INTER>
-7.00681

>  <SCORE.INTER.CONST>
1

>  <SCORE.INTER.POLAR>
-1.4871

>  <SCORE.INTER.ROT>
6

>  <SCORE.INTER.SOLV>
14.8663

>  <SCORE.INTER.VDW>
-12.2696

>  <SCORE.INTER.norm>
-0.226026

>  <SCORE.INTRA>
-3.22046

>  <SCORE.INTRA.DIHEDRAL>
-6.254

>  <SCORE.INTRA.DIHEDRAL.0>
9.37739

>  <SCORE.INTRA.POLAR>
0

>  <SCORE.INTRA.POLAR.0>
0

>  <SCORE.INTRA.REPUL>
0

>  <SCORE.INTRA.REPUL.0>
0

>  <SCORE.INTRA.SOLV>
-2.41853

>  <SCORE.INTRA.SOLV.lig_0>
-82.9274

>  <SCORE.INTRA.VDW>
1.11581

>  <SCORE.INTRA.VDW.0>
-3.84922

>  <SCORE.INTRA.norm>
-0.103886

>  <SCORE.RESTR>
0

>  <SCORE.RESTR.CAVITY>
0

>  <SCORE.RESTR.norm>
0

>  <SCORE.SYSTEM>
0

>  <SCORE.SYSTEM.CONST>
0

>  <SCORE.SYSTEM.DIHEDRAL>
0

>  <SCORE.SYSTEM.SOLV>
0

>  <SCORE.SYSTEM.norm>
0

>  <SCORE.heavy>
31

>  <SCORE.norm>
-0.329912

>  <RMSD>
6.522

$$$$
2o3x_lig
 OpenBabel11021811463D
libRbt.so/2013.1/901 2013/11/27
 31 33  0  0  0  0  0  0  0  0999 V2000
   22.6064    2.7464   10.1320 C   0  0  2  0  0  0  0  0  0  0  0  0
   23.5514    3.5059    9.3669 O   0  0  0  0  0  0  0  0  0  0  0  0
   23.6227    6.9407    6.8182 C   0  0  2  0  0  0  0  0  0  0  0  0
   23.2336    8.1243    6.0200 N   0  0  0  0  0  0  0  0  0  0  0  0
   23.4829    6.4343   11.6854 C   0  0  1  0  0  0  0  0  0  0  0  0
   21.6929    1.9563    9.1422 C   0  0  2  0  0  0  0  0  0  0  0  0
   22.4790    1.2427    8.1037 N   0  0  0  0  0  0  0  0  0  0  0  0
   23.0205    5.6170    6.2397 C   0  0  0  0  0  0  0  0  0  0  0  0
   23.9856    7.9146   11.6380 C   0  0  2  0  0  0  0  0  0  0  0  0
   25.3088    8.1207   11.0715 O   0  0  0  0  0  0  0  0  0  0  0  0
   20.6925    2.8848    8.4282 C   0  0  1  0  0  0  0  0  0  0  0  0
   19.8485    2.1460    7.5820 O   0  0  0  0  0  0  0  0  0  0  0  0
   23.5131    4.4209    7.1336 C   0  0  2  0  0  0  0  0  0  0  0  0
   22.9948    3.1120    6.6343 N   0  0  0  0  0  0  0  0  0  0  0  0
   23.8298    8.2463   13.1126 C   0  0  2  0  0  0  0  0  0  0  0  0
   24.9485    7.7068   13.8969 O   0  0  0  0  0  0  0  0  0  0  0  0
   19.8778    3.6492    9.4581 C   0  0  2  0  0  0  0  0  0  0  0  0
   18.9577    4.4716    8.8157 O   0  0  0  0  0  0  0  0  0  0  0  0
   23.0423    4.6092    8.6040 C   0  0  2  0  0  0  0  0  0  0  0  0
   22.5150    7.5881   13.5141 C   0  0  2  0  0  0  0  0  0  0  0  0
   22.6209    6.3446   12.8264 O   0  0  0  0  0  0  0  0  0  0  0  0
   20.8213    4.4977   10.3567 C   0  0  2  0  0  0  0  0  0  0  0  0
   21.7804    3.6348   11.0052 O   0  0  0  0  0  0  0  0  0  0  0  0
   23.5113    5.9382    9.2287 C   0  0  2  0  0  0  0  0  0  0  0  0
   22.7746    6.0490   10.4971 O   0  0  0  0  0  0  0  0  0  0  0  0
   21.2273    8.3587   13.0655 C   0  0  0  0  0  0  0  0  0  0  0  0
   21.0955    9.5664   13.8098 N   0  0  0  0  0  0  0  0  0  0  0  0
   20.0704    5.2692   11.4170 C   0  0  0  0  0  0  0  0  0  0  0  0
   19.5268    6.4329   10.9090 O   0  0  0  0  0  0  0  0  0  0  0  0
   23.1527    7.1565    8.2680 C   0  0  1  0  0  0  0  0  0  0  0  0
   23.7671    8.3748    8.7145 O   0  0  0  0  0  0  0  0  0  0  0  0
  1  2  1  6  0  0  0
  1  6  1  0  0  0  0
  1 23  1  0  0  0  0
  3  4  1  6  0  0  0
  3  8  1  0  0  0  0
  3 30  1  0  0  0  0
  5  9  1  0  0  0  0
  5 21  1  0  0  0  0
  5 25  1  6  0  0  0
  6  7  1  6  0  0  0
  6 11  1  0  0  0  0
  8 13  1  0  0  0  0
  9 10  1  1  0  0  0
  9 15  1  0  0  0  0
 11 12  1  1  0  0  0
 11 17  1  0  0  0  0
 13 14  1  6  0  0  0
 13 19  1  0  0  0  0
 15 16  1  1  0  0  0
 15 20  1  0  0  0  0
 17 18  1  6  0  0  0
 17 22  1  0  0  0  0
 19  2  1  1  0  0  0
 19 24  1  0  0  0  0
 20 21  1  0  0  0  0
 20 26  1  6  0  0  0
 22 23  1  0  0  0  0
 22 28  1  1  0  0  0
 24 25  1  1  0  0  0
 24 30  1  0  0  0  0
 26 27  1  0  0  0  0
 28 29  1  0  0  0  0
 30 31  1  1  0  0  0
M  END
>  <CHROM.1>
69.19609651,67.79926491,-126.28964945,-69.85283644,-81.14339924,134.33627218
22.36259360,5.59418596,9.94712656,1.88969034,-0.83132396,-2.13287785

>  <Name>
2o3x_lig

>  <RI>
0

>  <Rbt.Current_Directory>
/home/itssahil/PROJECTS/Mol_Feturizer/New_Systems/rnas/2o3x

>  <Rbt.Executable>
rbdock ($Id: //depot/dev/client3/rdock/2013.1/src/exe/rbdock.cxx#4 $)

>  <Rbt.Library>
libRbt.so (2013.1, Build901 2013/11/27)

>  <Rbt.Parameter_File>
/export/apps/rDock/src/rDock_2013.1_src/data/scripts/dock_solv.prm

>  <Rbt.Receptor>
prm/blind_docking_40.prm

>  <SCORE>
14.175

>  <SCORE.INTER>
-2.51169

>  <SCORE.INTER.CONST>
1

>  <SCORE.INTER.POLAR>
-0.157279

>  <SCORE.INTER.ROT>
6

>  <SCORE.INTER.SOLV>
17.7134

>  <SCORE.INTER.VDW>
-14.6547

>  <SCORE.INTER.norm>
-0.0810221

>  <SCORE.INTRA>
8.97612

>  <SCORE.INTRA.DIHEDRAL>
6.45208

>  <SCORE.INTRA.DIHEDRAL.0>
9.37739

>  <SCORE.INTRA.POLAR>
0

>  <SCORE.INTRA.POLAR.0>
0

>  <SCORE.INTRA.REPUL>
0.0521398

>  <SCORE.INTRA.REPUL.0>
0

>  <SCORE.INTRA.SOLV>
5.48172

>  <SCORE.INTRA.SOLV.lig_0>
-82.9274

>  <SCORE.INTRA.VDW>
2.74852

>  <SCORE.INTRA.VDW.0>
-3.84922

>  <SCORE.INTRA.norm>
0.289552

>  <SCORE.RESTR>
7.71054

>  <SCORE.RESTR.CAVITY>
7.71054

>  <SCORE.RESTR.norm>
0.248727

>  <SCORE.SYSTEM>
0

>  <SCORE.SYSTEM.CONST>
0

>  <SCORE.SYSTEM.DIHEDRAL>
0

>  <SCORE.SYSTEM.SOLV>
0

>  <SCORE.SYSTEM.norm>
0

>  <SCORE.heavy>
31

>  <SCORE.norm>
0.457257

>  <RMSD>
6.527

$$$$
2o3x_lig
 OpenBabel11021811463D
libRbt.so/2013.1/901 2013/11/27
 31 33  0  0  0  0  0  0  0  0999 V2000
   21.4176    4.7429    5.4067 C   0  0  2  0  0  0  0  0  0  0  0  0
   20.4290    5.6975    4.9982 O   0  0  0  0  0  0  0  0  0  0  0  0
   20.6317    9.9525    4.6086 C   0  0  2  0  0  0  0  0  0  0  0  0
   20.8382   11.3939    4.8721 N   0  0  0  0  0  0  0  0  0  0  0  0
   23.5035    7.3674    6.5112 C   0  0  1  0  0  0  0  0  0  0  0  0
   21.1511    3.4033    4.6498 C   0  0  2  0  0  0  0  0  0  0  0  0
   20.9494    3.6141    3.1936 N   0  0  0  0  0  0  0  0  0  0  0  0
   19.4755    9.3552    5.4779 C   0  0  0  0  0  0  0  0  0  0  0  0
   22.5585    6.9337    7.6796 C   0  0  2  0  0  0  0  0  0  0  0  0
   21.5133    7.8787    8.0384 O   0  0  0  0  0  0  0  0  0  0  0  0
   19.9108    2.6759    5.2022 C   0  0  1  0  0  0  0  0  0  0  0  0
   19.7204    1.4506    4.5414 O   0  0  0  0  0  0  0  0  0  0  0  0
   19.3148    7.8361    5.1055 C   0  0  2  0  0  0  0  0  0  0  0  0
   18.2126    7.1935    5.8822 N   0  0  0  0  0  0  0  0  0  0  0  0
   23.6200    6.6768    8.7361 C   0  0  2  0  0  0  0  0  0  0  0  0
   24.0796    7.9343    9.3405 O   0  0  0  0  0  0  0  0  0  0  0  0
   20.0692    2.4560    6.6973 C   0  0  2  0  0  0  0  0  0  0  0  0
   18.9602    1.7786    7.1945 O   0  0  0  0  0  0  0  0  0  0  0  0
   20.6341    7.0626    5.3894 C   0  0  2  0  0  0  0  0  0  0  0  0
   24.7512    5.9898    7.9802 C   0  0  2  0  0  0  0  0  0  0  0  0
   24.7720    6.7578    6.7802 O   0  0  0  0  0  0  0  0  0  0  0  0
   20.2323    3.8231    7.4199 C   0  0  2  0  0  0  0  0  0  0  0  0
   21.3766    4.5222    6.8844 O   0  0  0  0  0  0  0  0  0  0  0  0
   21.8530    7.6428    4.6452 C   0  0  2  0  0  0  0  0  0  0  0  0
   23.0194    6.9575    5.2229 O   0  0  0  0  0  0  0  0  0  0  0  0
   24.5081    4.4755    7.6620 C   0  0  0  0  0  0  0  0  0  0  0  0
   25.6452    3.9252    7.0032 N   0  0  0  0  0  0  0  0  0  0  0  0
   20.4137    3.6702    8.9122 C   0  0  0  0  0  0  0  0  0  0  0  0
   20.5692    4.8944    9.5329 O   0  0  0  0  0  0  0  0  0  0  0  0
   21.9524    9.2132    4.8892 C   0  0  1  0  0  0  0  0  0  0  0  0
   22.9403    9.8146    4.0386 O   0  0  0  0  0  0  0  0  0  0  0  0
  1  2  1  1  0  0  0
  1  6  1  0  0  0  0
  1 23  1  0  0  0  0
  3  4  1  1  0  0  0
  3  8  1  0  0  0  0
  3 30  1  0  0  0  0
  5  9  1  0  0  0  0
  5 21  1  0  0  0  0
  5 25  1  6  0  0  0
  6  7  1  6  0  0  0
  6 11  1  0  0  0  0
  8 13  1  0  0  0  0
  9 10  1  1  0  0  0
  9 15  1  0  0  0  0
 11 12  1  6  0  0  0
 11 17  1  0  0  0  0
 13 14  1  1  0  0  0
 13 19  1  0  0  0  0
 15 16  1  6  0  0  0
 15 20  1  0  0  0  0
 17 18  1  1  0  0  0
 17 22  1  0  0  0  0
 19  2  1  6  0  0  0
 19 24  1  0  0  0  0
 20 21  1  0  0  0  0
 20 26  1  6  0  0  0
 22 23  1  0  0  0  0
 22 28  1  1  0  0  0
 24 25  1  1  0  0  0
 24 30  1  0  0  0  0
 26 27  1  0  0  0  0
 28 29  1  0  0  0  0
 30 31  1  6  0  0  0
M  END
>  <CHROM.1>
-169.03617363,72.28340255,-168.18626817,-177.75089637,179.43434449,-77.20622096
21.58966357,6.02018808,6.29809389,1.86663412,0.60393554,2.85941988

>  <Name>
2o3x_lig

>  <RI>
2.78316e+07

>  <Rbt.Current_Directory>
/home/itssahil/PROJECTS/Mol_Feturizer/New_Systems/rnas/2o3x

>  <Rbt.Executable>
rbdock ($Id: //depot/dev/client3/rdock/2013.1/src/exe/rbdock.cxx#4 $)

>  <Rbt.Library>
libRbt.so (2013.1, Build901 2013/11/27)

>  <Rbt.Parameter_File>
/export/apps/rDock/src/rDock_2013.1_src/data/scripts/dock_solv.prm

>  <Rbt.Receptor>
prm/pocket_docking_7.prm

>  <SCORE>
-6.65329

>  <SCORE.INTER>
-3.30944

>  <SCORE.INTER.CONST>
1

>  <SCORE.INTER.POLAR>
-0.894427

>  <SCORE.INTER.ROT>
6

>  <SCORE.INTER.SOLV>
10.8902

>  <SCORE.INTER.VDW>
-10.4549

>  <SCORE.INTER.norm>
-0.106756

>  <SCORE.INTRA>
-3.34385

>  <SCORE.INTRA.DIHEDRAL>
-5.86301

>  <SCORE.INTRA.DIHEDRAL.0>
9.37739

>  <SCORE.INTRA.POLAR>
0

>  <SCORE.INTRA.POLAR.0>
0

>  <SCORE.INTRA.REPUL>
0

>  <SCORE.INTRA.REPUL.0>
0

>  <SCORE.INTRA.SOLV>
-0.805515

>  <SCORE.INTRA.SOLV.lig_0>
-82.9274

>  <SCORE.INTRA.VDW>
-0.00958768

>  <SCORE.INTRA.VDW.0>
-3.84922

>  <SCORE.INTRA.norm>
-0.107866

>  <SCORE.RESTR>
0

>  <SCORE.RESTR.CAVITY>
0

>  <SCORE.RESTR.norm>
0

>  <SCORE.SYSTEM>
0

>  <SCORE.SYSTEM.CONST>
0

>  <SCORE.SYSTEM.DIHEDRAL>
0

>  <SCORE.SYSTEM.SOLV>
0

>  <SCORE.SYSTEM.norm>
0

>  <SCORE.heavy>
31

>  <SCORE.norm>
-0.214622

>  <RMSD>
6.527

$$$$
2o3x_lig
 OpenBabel11021811463D
libRbt.so/2013.1/901 2013/11/27
 31 33  0  0  0  0  0  0  0  0999 V2000
   24.1763    6.6269   10.1873 C   0  0  2  0  0  0  0  0  0  0  0  0
   23.8847    7.5581    9.1369 O   0  0  0  0  0  0  0  0  0  0  0  0
   24.5291    6.9487    4.9522 C   0  0  2  0  0  0  0  0  0  0  0  0
   24.4081    6.4971    3.5484 N   0  0  0  0  0  0  0  0  0  0  0  0
   21.0526    9.3642    6.5124 C   0  0  1  0  0  0  0  0  0  0  0  0
   22.8292    6.1855   10.8422 C   0  0  2  0  0  0  0  0  0  0  0  0
   21.8162    5.7944    9.8289 N   0  0  0  0  0  0  0  0  0  0  0  0
   24.8761    5.7700    5.9216 C   0  0  0  0  0  0  0  0  0  0  0  0
   19.9286    8.6346    5.7059 C   0  0  2  0  0  0  0  0  0  0  0  0
   20.2960    8.1698    4.3780 O   0  0  0  0  0  0  0  0  0  0  0  0
   22.2262    7.3055   11.7110 C   0  0  1  0  0  0  0  0  0  0  0  0
   21.0426    6.8690   12.3298 O   0  0  0  0  0  0  0  0  0  0  0  0
   25.0124    6.3531    7.3755 C   0  0  2  0  0  0  0  0  0  0  0  0
   25.3633    5.2892    8.3636 N   0  0  0  0  0  0  0  0  0  0  0  0
   18.8731    9.7261    5.7646 C   0  0  2  0  0  0  0  0  0  0  0  0
   19.1441   10.7774    4.7751 O   0  0  0  0  0  0  0  0  0  0  0  0
   23.2401    7.7483   12.7525 C   0  0  2  0  0  0  0  0  0  0  0  0
   22.6895    8.7439   13.5533 O   0  0  0  0  0  0  0  0  0  0  0  0
   23.6807    7.0212    7.8222 C   0  0  2  0  0  0  0  0  0  0  0  0
   18.9709   10.2745    7.1833 C   0  0  2  0  0  0  0  0  0  0  0  0
   20.3848   10.3104    7.3561 O   0  0  0  0  0  0  0  0  0  0  0  0
   24.5257    8.2717   12.0518 C   0  0  2  0  0  0  0  0  0  0  0  0
   25.0781    7.2347   11.2126 O   0  0  0  0  0  0  0  0  0  0  0  0
   23.2086    8.1367    6.8688 C   0  0  2  0  0  0  0  0  0  0  0  0
   21.8424    8.4639    7.3048 O   0  0  0  0  0  0  0  0  0  0  0  0
   18.3032    9.3815    8.2834 C   0  0  0  0  0  0  0  0  0  0  0  0
   18.4940    9.9646    9.5693 N   0  0  0  0  0  0  0  0  0  0  0  0
   25.5833    8.7108   13.0377 C   0  0  0  0  0  0  0  0  0  0  0  0
   26.7250    9.1494   12.3957 O   0  0  0  0  0  0  0  0  0  0  0  0
   23.2028    7.6119    5.3653 C   0  0  1  0  0  0  0  0  0  0  0  0
   22.9811    8.6840    4.4365 O   0  0  0  0  0  0  0  0  0  0  0  0
  1  2  1  6  0  0  0
  1  6  1  0  0  0  0
  1 23  1  0  0  0  0
  3  4  1  6  0  0  0
  3  8  1  0  0  0  0
  3 30  1  0  0  0  0
  5  9  1  0  0  0  0
  5 21  1  0  0  0  0
  5 25  1  1  0  0  0
  6  7  1  6  0  0  0
  6 11  1  0  0  0  0
  8 13  1  0  0  0  0
  9 10  1  6  0  0  0
  9 15  1  0  0  0  0
 11 12  1  1  0  0  0
 11 17  1  0  0  0  0
 13 14  1  1  0  0  0
 13 19  1  0  0  0  0
 15 16  1  6  0  0  0
 15 20  1  0  0  0  0
 17 18  1  6  0  0  0
 17 22  1  0  0  0  0
 19  2  1  1  0  0  0
 19 24  1  0  0  0  0
 20 21  1  0  0  0  0
 20 26  1  1  0  0  0
 22 23  1  0  0  0  0
 22 28  1  1  0  0  0
 24 25  1  1  0  0  0
 24 30  1  0  0  0  0
 26 27  1  0  0  0  0
 28 29  1  0  0  0  0
 30 31  1  6  0  0  0
M  END
>  <CHROM.1>
-90.79036614,106.02591900,-63.30584121,178.01848508,178.91902137,-172.50934641
22.52245567,8.01754501,8.42276904,-1.01910048,0.46960904,-1.64504345

>  <Name>
2o3x_lig

>  <RI>
224

>  <Rbt.Current_Directory>
/home/itssahil/PROJECTS/Mol_Feturizer/New_Systems/rnas/2o3x

>  <Rbt.Executable>
rbdock ($Id: //depot/dev/client3/rdock/2013.1/src/exe/rbdock.cxx#4 $)

>  <Rbt.Library>
libRbt.so (2013.1, Build901 2013/11/27)

>  <Rbt.Parameter_File>
/export/apps/rDock/src/rDock_2013.1_src/data/scripts/dock_solv.prm

>  <Rbt.Receptor>
prm/blind_docking_100.prm

>  <SCORE>
-3.20485

>  <SCORE.INTER>
-10.4891

>  <SCORE.INTER.CONST>
1

>  <SCORE.INTER.POLAR>
-1.20202

>  <SCORE.INTER.ROT>
6

>  <SCORE.INTER.SOLV>
17.8335

>  <SCORE.INTER.VDW>
-16.5305

>  <SCORE.INTER.norm>
-0.338358

>  <SCORE.INTRA>
4.29891

>  <SCORE.INTRA.DIHEDRAL>
1.16023

>  <SCORE.INTRA.DIHEDRAL.0>
9.37739

>  <SCORE.INTRA.POLAR>
0

>  <SCORE.INTRA.POLAR.0>
0

>  <SCORE.INTRA.REPUL>
0

>  <SCORE.INTRA.REPUL.0>
0

>  <SCORE.INTRA.SOLV>
1.36317

>  <SCORE.INTRA.SOLV.lig_0>
-82.9274

>  <SCORE.INTRA.VDW>
3.03721

>  <SCORE.INTRA.VDW.0>
-3.84922

>  <SCORE.INTRA.norm>
0.138675

>  <SCORE.RESTR>
2.98534

>  <SCORE.RESTR.CAVITY>
2.98534

>  <SCORE.RESTR.norm>
0.0963014

>  <SCORE.SYSTEM>
0

>  <SCORE.SYSTEM.CONST>
0

>  <SCORE.SYSTEM.DIHEDRAL>
0

>  <SCORE.SYSTEM.SOLV>
0

>  <SCORE.SYSTEM.norm>
0

>  <SCORE.heavy>
31

>  <SCORE.norm>
-0.103382

>  <RMSD>
6.532

$$$$
2o3x_lig
 OpenBabel11021811463D
libRbt.so/2013.1/901 2013/11/27
 31 33  0  0  0  0  0  0  0  0999 V2000
   23.9004    6.6829   10.2592 C   0  0  2  0  0  0  0  0  0  0  0  0
   23.2532    7.6823    9.4605 O   0  0  0  0  0  0  0  0  0  0  0  0
   23.6987    8.1354    5.2303 C   0  0  2  0  0  0  0  0  0  0  0  0
   23.5802    7.9699    3.7647 N   0  0  0  0  0  0  0  0  0  0  0  0
   20.1915    9.6050    8.2562 C   0  0  1  0  0  0  0  0  0  0  0  0
   22.8226    5.9942   11.1550 C   0  0  2  0  0  0  0  0  0  0  0  0
   21.6228    5.5920   10.3774 N   0  0  0  0  0  0  0  0  0  0  0  0
   24.3891    6.9049    5.9076 C   0  0  0  0  0  0  0  0  0  0  0  0
   18.6640    9.3435    8.4671 C   0  0  2  0  0  0  0  0  0  0  0  0
   17.8287    9.4539    7.2821 O   0  0  0  0  0  0  0  0  0  0  0  0
   22.3614    6.9166   12.2993 C   0  0  1  0  0  0  0  0  0  0  0  0
   21.4307    6.2585   13.1209 O   0  0  0  0  0  0  0  0  0  0  0  0
   24.4951    7.1883    7.4505 C   0  0  2  0  0  0  0  0  0  0  0  0
   25.1635    6.0635    8.1712 N   0  0  0  0  0  0  0  0  0  0  0  0
   18.4148   10.3697    9.5597 C   0  0  2  0  0  0  0  0  0  0  0  0
   18.2849   11.7202    8.9967 O   0  0  0  0  0  0  0  0  0  0  0  0
   23.5644    7.3666   13.1112 C   0  0  2  0  0  0  0  0  0  0  0  0
   23.1480    8.1813   14.1593 O   0  0  0  0  0  0  0  0  0  0  0  0
   23.0815    7.3968    8.0650 C   0  0  2  0  0  0  0  0  0  0  0  0
   19.6394   10.2705   10.4617 C   0  0  2  0  0  0  0  0  0  0  0  0
   20.6746   10.1502    9.4900 O   0  0  0  0  0  0  0  0  0  0  0  0
   24.5631    8.1331   12.1987 C   0  0  2  0  0  0  0  0  0  0  0  0
   24.9753    7.2824   11.1073 O   0  0  0  0  0  0  0  0  0  0  0  0
   22.2861    8.5332    7.3924 C   0  0  2  0  0  0  0  0  0  0  0  0
   20.9191    8.4129    7.9221 O   0  0  0  0  0  0  0  0  0  0  0  0
   19.6469    9.0403   11.4312 C   0  0  0  0  0  0  0  0  0  0  0  0
   20.5835    9.2524   12.4836 N   0  0  0  0  0  0  0  0  0  0  0  0
   25.7938    8.5918   12.9459 C   0  0  0  0  0  0  0  0  0  0  0  0
   26.7302    9.1422   12.0926 O   0  0  0  0  0  0  0  0  0  0  0  0
   22.2889    8.3477    5.8108 C   0  0  1  0  0  0  0  0  0  0  0  0
   21.7482    9.4999    5.1467 O   0  0  0  0  0  0  0  0  0  0  0  0
  1  2  1  1  0  0  0
  1  6  1  0  0  0  0
  1 23  1  0  0  0  0
  3  4  1  6  0  0  0
  3  8  1  0  0  0  0
  3 30  1  0  0  0  0
  5  9  1  0  0  0  0
  5 21  1  0  0  0  0
  5 25  1  1  0  0  0
  6  7  1  6  0  0  0
  6 11  1  0  0  0  0
  8 13  1  0  0  0  0
  9 10  1  6  0  0  0
  9 15  1  0  0  0  0
 11 12  1  1  0  0  0
 11 17  1  0  0  0  0
 13 14  1  1  0  0  0
 13 19  1  0  0  0  0
 15 16  1  6  0  0  0
 15 20  1  0  0  0  0
 17 18  1  1  0  0  0
 17 22  1  0  0  0  0
 19  2  1  1  0  0  0
 19 24  1  0  0  0  0
 20 21  1  0  0  0  0
 20 26  1  1  0  0  0
 22 23  1  0  0  0  0
 22 28  1  1  0  0  0
 24 25  1  1  0  0  0
 24 30  1  0  0  0  0
 26 27  1  0  0  0  0
 28 29  1  0  0  0  0
 30 31  1  6  0  0  0
M  END
>  <CHROM.1>
-106.76469116,165.96699409,-60.16363409,-162.20009181,173.54340312,139.84571687
22.23751708,8.26811640,9.49519022,-1.01979352,0.42746067,-1.54709638

>  <Name>
2o3x_lig

>  <RI>
224

>  <Rbt.Current_Directory>
/home/itssahil/PROJECTS/Mol_Feturizer/New_Systems/rnas/2o3x

>  <Rbt.Executable>
rbdock ($Id: //depot/dev/client3/rdock/2013.1/src/exe/rbdock.cxx#4 $)

>  <Rbt.Library>
libRbt.so (2013.1, Build901 2013/11/27)

>  <Rbt.Parameter_File>
/export/apps/rDock/src/rDock_2013.1_src/data/scripts/dock_solv.prm

>  <Rbt.Receptor>
prm/blind_docking_100.prm

>  <SCORE>
-10.3137

>  <SCORE.INTER>
-20.3205

>  <SCORE.INTER.CONST>
1

>  <SCORE.INTER.POLAR>
-1.54922

>  <SCORE.INTER.ROT>
6

>  <SCORE.INTER.SOLV>
21.2868

>  <SCORE.INTER.VDW>
-23.0785

>  <SCORE.INTER.norm>
-0.655499

>  <SCORE.INTRA>
6.46349

>  <SCORE.INTRA.DIHEDRAL>
4.64415

>  <SCORE.INTRA.DIHEDRAL.0>
9.37739

>  <SCORE.INTRA.POLAR>
0

>  <SCORE.INTRA.POLAR.0>
0

>  <SCORE.INTRA.REPUL>
0.00198874

>  <SCORE.INTRA.REPUL.0>
0

>  <SCORE.INTRA.SOLV>
3.92001

>  <SCORE.INTRA.SOLV.lig_0>
-82.9274

>  <SCORE.INTRA.VDW>
2.17147

>  <SCORE.INTRA.VDW.0>
-3.84922

>  <SCORE.INTRA.norm>
0.2085

>  <SCORE.RESTR>
3.54325

>  <SCORE.RESTR.CAVITY>
3.54325

>  <SCORE.RESTR.norm>
0.114298

>  <SCORE.SYSTEM>
0

>  <SCORE.SYSTEM.CONST>
0

>  <SCORE.SYSTEM.DIHEDRAL>
0

>  <SCORE.SYSTEM.SOLV>
0

>  <SCORE.SYSTEM.norm>
0

>  <SCORE.heavy>
31

>  <SCORE.norm>
-0.332701

>  <RMSD>
6.534

$$$$
2o3x_lig
 OpenBabel11021811463D
libRbt.so/2013.1/901 2013/11/27
 31 33  0  0  0  0  0  0  0  0999 V2000
   16.3897    6.5121    7.2681 C   0  0  2  0  0  0  0  0  0  0  0  0
   16.0001    7.8903    7.2033 O   0  0  0  0  0  0  0  0  0  0  0  0
   19.0461    9.1246    4.4654 C   0  0  2  0  0  0  0  0  0  0  0  0
   19.8545    9.8942    3.4940 N   0  0  0  0  0  0  0  0  0  0  0  0
   18.4094   10.4718    9.0012 C   0  0  1  0  0  0  0  0  0  0  0  0
   15.2410    5.7072    7.9545 C   0  0  2  0  0  0  0  0  0  0  0  0
   13.9110    6.0264    7.3757 N   0  0  0  0  0  0  0  0  0  0  0  0
   17.6631    8.6959    3.8712 C   0  0  0  0  0  0  0  0  0  0  0  0
   18.1628   11.8685    9.6606 C   0  0  2  0  0  0  0  0  0  0  0  0
   18.9520   12.9704    9.1339 O   0  0  0  0  0  0  0  0  0  0  0  0
   15.1802    5.9834    9.4688 C   0  0  1  0  0  0  0  0  0  0  0  0
   14.1736    5.2111   10.0727 O   0  0  0  0  0  0  0  0  0  0  0  0
   16.8962    7.8630    4.9623 C   0  0  2  0  0  0  0  0  0  0  0  0
   15.5670    7.3975    4.4645 N   0  0  0  0  0  0  0  0  0  0  0  0
   18.4350   11.4804   11.1043 C   0  0  2  0  0  0  0  0  0  0  0  0
   19.8780   11.4135   11.3706 O   0  0  0  0  0  0  0  0  0  0  0  0
   16.5305    5.6857   10.0986 C   0  0  2  0  0  0  0  0  0  0  0  0
   16.4715    5.9124   11.4700 O   0  0  0  0  0  0  0  0  0  0  0  0
   16.6717    8.7174    6.2424 C   0  0  2  0  0  0  0  0  0  0  0  0
   17.7881   10.1090   11.2584 C   0  0  2  0  0  0  0  0  0  0  0  0
   18.1609    9.5006   10.0249 O   0  0  0  0  0  0  0  0  0  0  0  0
   17.6257    6.5806    9.4526 C   0  0  2  0  0  0  0  0  0  0  0  0
   17.6661    6.3471    8.0282 O   0  0  0  0  0  0  0  0  0  0  0  0
   17.9797    9.2651    6.8468 C   0  0  2  0  0  0  0  0  0  0  0  0
   17.5559   10.2315    7.8717 O   0  0  0  0  0  0  0  0  0  0  0  0
   16.2297   10.1284   11.4152 C   0  0  0  0  0  0  0  0  0  0  0  0
   15.8562   10.9936   12.4837 N   0  0  0  0  0  0  0  0  0  0  0  0
   18.9991    6.3174   10.0249 C   0  0  0  0  0  0  0  0  0  0  0  0
   19.3807    5.0021    9.8450 O   0  0  0  0  0  0  0  0  0  0  0  0
   18.8461    9.9886    5.7236 C   0  0  1  0  0  0  0  0  0  0  0  0
   20.1598   10.3139    6.2028 O   0  0  0  0  0  0  0  0  0  0  0  0
  1  2  1  1  0  0  0
  1  6  1  0  0  0  0
  1 23  1  0  0  0  0
  3  4  1  6  0  0  0
  3  8  1  0  0  0  0
  3 30  1  0  0  0  0
  5  9  1  0  0  0  0
  5 21  1  0  0  0  0
  5 25  1  6  0  0  0
  6  7  1  6  0  0  0
  6 11  1  0  0  0  0
  8 13  1  0  0  0  0
  9 10  1  6  0  0  0
  9 15  1  0  0  0  0
 11 12  1  1  0  0  0
 11 17  1  0  0  0  0
 13 14  1  6  0  0  0
 13 19  1  0  0  0  0
 15 16  1  6  0  0  0
 15 20  1  0  0  0  0
 17 18  1  1  0  0  0
 17 22  1  0  0  0  0
 19  2  1  1  0  0  0
 19 24  1  0  0  0  0
 20 21  1  0  0  0  0
 20 26  1  6  0  0  0
 22 23  1  0  0  0  0
 22 28  1  1  0  0  0
 24 25  1  1  0  0  0
 24 30  1  0  0  0  0
 26 27  1  0  0  0  0
 28 29  1  0  0  0  0
 30 31  1  1  0  0  0
M  END
>  <CHROM.1>
-159.72163777,156.26284361,37.98435422,-53.71979274,59.19958704,152.04529665
17.42977562,8.50153790,8.36108183,-3.10425127,1.04760074,1.35023932

>  <Name>
2o3x_lig

>  <RI>
0

>  <Rbt.Current_Directory>
/home/itssahil/PROJECTS/Mol_Feturizer/New_Systems/rnas/2o3x

>  <Rbt.Executable>
rbdock ($Id: //depot/dev/client3/rdock/2013.1/src/exe/rbdock.cxx#4 $)

>  <Rbt.Library>
libRbt.so (2013.1, Build901 2013/11/27)

>  <Rbt.Parameter_File>
/export/apps/rDock/src/rDock_2013.1_src/data/scripts/dock_solv.prm

>  <Rbt.Receptor>
prm/pocket_docking_8.prm

>  <SCORE>
-5.95281

>  <SCORE.INTER>
-7.3398

>  <SCORE.INTER.CONST>
1

>  <SCORE.INTER.POLAR>
-1.23741

>  <SCORE.INTER.ROT>
6

>  <SCORE.INTER.SOLV>
11.8499

>  <SCORE.INTER.VDW>
-12.3185

>  <SCORE.INTER.norm>
-0.236768

>  <SCORE.INTRA>
1.38698

>  <SCORE.INTRA.DIHEDRAL>
0.531661

>  <SCORE.INTRA.DIHEDRAL.0>
9.37739

>  <SCORE.INTRA.POLAR>
0

>  <SCORE.INTRA.POLAR.0>
0

>  <SCORE.INTRA.REPUL>
0

>  <SCORE.INTRA.REPUL.0>
0

>  <SCORE.INTRA.SOLV>
-0.00527596

>  <SCORE.INTRA.SOLV.lig_0>
-82.9274

>  <SCORE.INTRA.VDW>
1.12379

>  <SCORE.INTRA.VDW.0>
-3.84922

>  <SCORE.INTRA.norm>
0.0447414

>  <SCORE.RESTR>
0

>  <SCORE.RESTR.CAVITY>
0

>  <SCORE.RESTR.norm>
0

>  <SCORE.SYSTEM>
0

>  <SCORE.SYSTEM.CONST>
0

>  <SCORE.SYSTEM.DIHEDRAL>
0

>  <SCORE.SYSTEM.SOLV>
0

>  <SCORE.SYSTEM.norm>
0

>  <SCORE.heavy>
31

>  <SCORE.norm>
-0.192026

>  <RMSD>
6.543

$$$$
2o3x_lig
 OpenBabel11021811463D
libRbt.so/2013.1/901 2013/11/27
 31 33  0  0  0  0  0  0  0  0999 V2000
   19.6944    9.1468    9.4730 C   0  0  2  0  0  0  0  0  0  0  0  0
   20.9918    9.4383    8.9371 O   0  0  0  0  0  0  0  0  0  0  0  0
   23.6685    7.9099    5.9710 C   0  0  2  0  0  0  0  0  0  0  0  0
   24.2492    7.1670    4.8306 N   0  0  0  0  0  0  0  0  0  0  0  0
   19.5396    9.0700    5.4697 C   0  0  1  0  0  0  0  0  0  0  0  0
   19.2584   10.3385   10.3830 C   0  0  2  0  0  0  0  0  0  0  0  0
   19.4560   11.6517    9.7180 N   0  0  0  0  0  0  0  0  0  0  0  0
   23.2682    6.9605    7.1490 C   0  0  0  0  0  0  0  0  0  0  0  0
   18.0512    9.5483    5.4255 C   0  0  2  0  0  0  0  0  0  0  0  0
   17.2115    9.1226    6.5336 O   0  0  0  0  0  0  0  0  0  0  0  0
   20.0392   10.3546   11.7108 C   0  0  1  0  0  0  0  0  0  0  0  0
   19.5951   11.4035   12.5335 O   0  0  0  0  0  0  0  0  0  0  0  0
   22.6930    7.8421    8.3171 C   0  0  2  0  0  0  0  0  0  0  0  0
   22.3029    7.0086    9.4937 N   0  0  0  0  0  0  0  0  0  0  0  0
   17.6844    8.9973    4.0577 C   0  0  2  0  0  0  0  0  0  0  0  0
   17.4033    7.5571    4.1260 O   0  0  0  0  0  0  0  0  0  0  0  0
   19.8775    9.0187   12.4165 C   0  0  2  0  0  0  0  0  0  0  0  0
   20.5631    9.0388   13.6270 O   0  0  0  0  0  0  0  0  0  0  0  0
   21.4433    8.6343    7.8378 C   0  0  2  0  0  0  0  0  0  0  0  0
   18.9101    9.2732    3.1948 C   0  0  2  0  0  0  0  0  0  0  0  0
   19.9546    8.9389    4.1046 O   0  0  0  0  0  0  0  0  0  0  0  0
   20.4157    7.8733   11.5131 C   0  0  2  0  0  0  0  0  0  0  0  0
   19.7071    7.8731   10.2550 O   0  0  0  0  0  0  0  0  0  0  0  0
   21.7215    9.5296    6.6142 C   0  0  2  0  0  0  0  0  0  0  0  0
   20.3986    9.9882    6.1633 O   0  0  0  0  0  0  0  0  0  0  0  0
   19.0550   10.7552    2.7090 C   0  0  0  0  0  0  0  0  0  0  0  0
   20.3133   10.9387    2.0663 N   0  0  0  0  0  0  0  0  0  0  0  0
   20.2651    6.5129   12.1532 C   0  0  0  0  0  0  0  0  0  0  0  0
   20.7877    5.5149   11.3540 O   0  0  0  0  0  0  0  0  0  0  0  0
   22.4405    8.6899    5.4680 C   0  0  1  0  0  0  0  0  0  0  0  0
   22.9079    9.5401    4.4098 O   0  0  0  0  0  0  0  0  0  0  0  0
  1  2  1  1  0  0  0
  1  6  1  0  0  0  0
  1 23  1  0  0  0  0
  3  4  1  6  0  0  0
  3  8  1  0  0  0  0
  3 30  1  0  0  0  0
  5  9  1  0  0  0  0
  5 21  1  0  0  0  0
  5 25  1  1  0  0  0
  6  7  1  6  0  0  0
  6 11  1  0  0  0  0
  8 13  1  0  0  0  0
  9 10  1  1  0  0  0
  9 15  1  0  0  0  0
 11 12  1  1  0  0  0
 11 17  1  0  0  0  0
 13 14  1  1  0  0  0
 13 19  1  0  0  0  0
 15 16  1  1  0  0  0
 15 20  1  0  0  0  0
 17 18  1  1  0  0  0
 17 22  1  0  0  0  0
 19  2  1  1  0  0  0
 19 24  1  0  0  0  0
 20 21  1  0  0  0  0
 20 26  1  1  0  0  0
 22 23  1  0  0  0  0
 22 28  1  1  0  0  0
 24 25  1  6  0  0  0
 24 30  1  0  0  0  0
 26 27  1  0  0  0  0
 28 29  1  0  0  0  0
 30 31  1  6  0  0  0
M  END
>  <CHROM.1>
-165.69369590,163.28941991,-115.89518221,172.36479865,-178.05663109,-74.62401208
20.42683688,8.88521936,7.70089957,1.52914960,-0.49661737,1.62961869

>  <Name>
2o3x_lig

>  <RI>
3.34184e+07

>  <Rbt.Current_Directory>
/home/itssahil/PROJECTS/Mol_Feturizer/New_Systems/rnas/2o3x

>  <Rbt.Executable>
rbdock ($Id: //depot/dev/client3/rdock/2013.1/src/exe/rbdock.cxx#4 $)

>  <Rbt.Library>
libRbt.so (2013.1, Build901 2013/11/27)

>  <Rbt.Parameter_File>
/export/apps/rDock/src/rDock_2013.1_src/data/scripts/dock_solv.prm

>  <Rbt.Receptor>
prm/pocket_docking_6.prm

>  <SCORE>
-16.6699

>  <SCORE.INTER>
-18.8472

>  <SCORE.INTER.CONST>
1

>  <SCORE.INTER.POLAR>
-1.96746

>  <SCORE.INTER.ROT>
6

>  <SCORE.INTER.SOLV>
16.3336

>  <SCORE.INTER.VDW>
-19.0511

>  <SCORE.INTER.norm>
-0.607974

>  <SCORE.INTRA>
2.17727

>  <SCORE.INTRA.DIHEDRAL>
1.3197

>  <SCORE.INTRA.DIHEDRAL.0>
9.37739

>  <SCORE.INTRA.POLAR>
0

>  <SCORE.INTRA.POLAR.0>
0

>  <SCORE.INTRA.REPUL>
0

>  <SCORE.INTRA.REPUL.0>
0

>  <SCORE.INTRA.SOLV>
2.02255

>  <SCORE.INTRA.SOLV.lig_0>
-82.9274

>  <SCORE.INTRA.VDW>
0.506146

>  <SCORE.INTRA.VDW.0>
-3.84922

>  <SCORE.INTRA.norm>
0.0702346

>  <SCORE.RESTR>
0

>  <SCORE.RESTR.CAVITY>
0

>  <SCORE.RESTR.norm>
0

>  <SCORE.SYSTEM>
0

>  <SCORE.SYSTEM.CONST>
0

>  <SCORE.SYSTEM.DIHEDRAL>
0

>  <SCORE.SYSTEM.SOLV>
0

>  <SCORE.SYSTEM.norm>
0

>  <SCORE.heavy>
31

>  <SCORE.norm>
-0.53774

>  <RMSD>
6.572

$$$$
2o3x_lig
 OpenBabel11021811463D
libRbt.so/2013.1/901 2013/11/27
 31 33  0  0  0  0  0  0  0  0999 V2000
   20.5372    6.8678    9.0055 C   0  0  2  0  0  0  0  0  0  0  0  0
   20.6117    6.7984    7.5754 O   0  0  0  0  0  0  0  0  0  0  0  0
   19.2055    9.2207    4.3423 C   0  0  2  0  0  0  0  0  0  0  0  0
   18.3934   10.1140    3.4867 N   0  0  0  0  0  0  0  0  0  0  0  0
   19.0368   10.2822    8.4795 C   0  0  1  0  0  0  0  0  0  0  0  0
   21.7384    6.0670    9.6007 C   0  0  2  0  0  0  0  0  0  0  0  0
   23.0261    6.4270    8.9541 N   0  0  0  0  0  0  0  0  0  0  0  0
   18.5155    7.8340    4.5669 C   0  0  0  0  0  0  0  0  0  0  0  0
   18.0984    9.3531    9.3176 C   0  0  2  0  0  0  0  0  0  0  0  0
   17.1260    8.5801    8.5617 O   0  0  0  0  0  0  0  0  0  0  0  0
   21.5382    4.5471    9.4499 C   0  0  1  0  0  0  0  0  0  0  0  0
   22.6055    3.8467   10.0369 O   0  0  0  0  0  0  0  0  0  0  0  0
   19.4643    6.9513    5.4573 C   0  0  2  0  0  0  0  0  0  0  0  0
   18.8839    5.5971    5.7036 N   0  0  0  0  0  0  0  0  0  0  0  0
   17.5326   10.4041   10.2580 C   0  0  2  0  0  0  0  0  0  0  0  0
   16.4712   11.1815    9.6049 O   0  0  0  0  0  0  0  0  0  0  0  0
   20.2195    4.1385   10.0844 C   0  0  2  0  0  0  0  0  0  0  0  0
   20.0473    2.7626    9.9698 O   0  0  0  0  0  0  0  0  0  0  0  0
   19.7168    7.6367    6.8305 C   0  0  2  0  0  0  0  0  0  0  0  0
   18.7248   11.2897   10.6008 C   0  0  2  0  0  0  0  0  0  0  0  0
   19.3513   11.3951    9.3253 O   0  0  0  0  0  0  0  0  0  0  0  0
   19.0445    4.8866    9.3936 C   0  0  2  0  0  0  0  0  0  0  0  0
   19.2431    6.3123    9.5062 O   0  0  0  0  0  0  0  0  0  0  0  0
   20.3104    9.0538    6.7043 C   0  0  2  0  0  0  0  0  0  0  0  0
   20.2412    9.6228    8.0590 O   0  0  0  0  0  0  0  0  0  0  0  0
   19.7148   10.6853   11.6534 C   0  0  0  0  0  0  0  0  0  0  0  0
   20.4434    9.6055   11.0763 N   0  0  0  0  0  0  0  0  0  0  0  0
   17.7031    4.5361    9.9945 C   0  0  0  0  0  0  0  0  0  0  0  0
   17.6270    4.9129   11.3213 O   0  0  0  0  0  0  0  0  0  0  0  0
   19.4469    9.9255    5.6893 C   0  0  1  0  0  0  0  0  0  0  0  0
   20.0950   11.1695    5.3835 O   0  0  0  0  0  0  0  0  0  0  0  0
  1  2  1  6  0  0  0
  1  6  1  0  0  0  0
  1 23  1  0  0  0  0
  3  4  1  6  0  0  0
  3  8  1  0  0  0  0
  3 30  1  0  0  0  0
  5  9  1  0  0  0  0
  5 21  1  0  0  0  0
  5 25  1  1  0  0  0
  6  7  1  6  0  0  0
  6 11  1  0  0  0  0
  8 13  1  0  0  0  0
  9 10  1  6  0  0  0
  9 15  1  0  0  0  0
 11 12  1  1  0  0  0
 11 17  1  0  0  0  0
 13 14  1  1  0  0  0
 13 19  1  0  0  0  0
 15 16  1  6  0  0  0
 15 20  1  0  0  0  0
 17 18  1  6  0  0  0
 17 22  1  0  0  0  0
 19  2  1  1  0  0  0
 19 24  1  0  0  0  0
 20 21  1  0  0  0  0
 20 26  1  1  0  0  0
 22 23  1  0  0  0  0
 22 28  1  1  0  0  0
 24 25  1  1  0  0  0
 24 30  1  0  0  0  0
 26 27  1  0  0  0  0
 28 29  1  0  0  0  0
 30 31  1  6  0  0  0
M  END
>  <CHROM.1>
-170.80317284,97.37874064,-152.99578608,71.08659325,62.66576543,-86.43738845
19.49590545,7.79688455,8.41663890,0.66762720,-1.26472045,1.83526845

>  <Name>
2o3x_lig

>  <RI>
2.78316e+07

>  <Rbt.Current_Directory>
/home/itssahil/PROJECTS/Mol_Feturizer/New_Systems/rnas/2o3x

>  <Rbt.Executable>
rbdock ($Id: //depot/dev/client3/rdock/2013.1/src/exe/rbdock.cxx#4 $)

>  <Rbt.Library>
libRbt.so (2013.1, Build901 2013/11/27)

>  <Rbt.Parameter_File>
/export/apps/rDock/src/rDock_2013.1_src/data/scripts/dock_solv.prm

>  <Rbt.Receptor>
prm/pocket_docking_7.prm

>  <SCORE>
-8.5343

>  <SCORE.INTER>
-11.4031

>  <SCORE.INTER.CONST>
1

>  <SCORE.INTER.POLAR>
-2.33675

>  <SCORE.INTER.ROT>
6

>  <SCORE.INTER.SOLV>
13.8729

>  <SCORE.INTER.VDW>
-12.0372

>  <SCORE.INTER.norm>
-0.367843

>  <SCORE.INTRA>
2.86882

>  <SCORE.INTRA.DIHEDRAL>
2.50704

>  <SCORE.INTRA.DIHEDRAL.0>
9.37739

>  <SCORE.INTRA.POLAR>
0

>  <SCORE.INTRA.POLAR.0>
0

>  <SCORE.INTRA.REPUL>
0

>  <SCORE.INTRA.REPUL.0>
0

>  <SCORE.INTRA.SOLV>
3.25602

>  <SCORE.INTRA.SOLV.lig_0>
-82.9274

>  <SCORE.INTRA.VDW>
-0.0127087

>  <SCORE.INTRA.VDW.0>
-3.84922

>  <SCORE.INTRA.norm>
0.0925427

>  <SCORE.RESTR>
0

>  <SCORE.RESTR.CAVITY>
0

>  <SCORE.RESTR.norm>
0

>  <SCORE.SYSTEM>
0

>  <SCORE.SYSTEM.CONST>
0

>  <SCORE.SYSTEM.DIHEDRAL>
0

>  <SCORE.SYSTEM.SOLV>
0

>  <SCORE.SYSTEM.norm>
0

>  <SCORE.heavy>
31

>  <SCORE.norm>
-0.2753

>  <RMSD>
6.592

$$$$
2o3x_lig
 OpenBabel11021811463D
libRbt.so/2013.1/901 2013/11/27
 31 33  0  0  0  0  0  0  0  0999 V2000
   22.8433    4.5957    8.5452 C   0  0  2  0  0  0  0  0  0  0  0  0
   23.0224    5.4418    7.4018 O   0  0  0  0  0  0  0  0  0  0  0  0
   21.1874    9.1967    6.4900 C   0  0  2  0  0  0  0  0  0  0  0  0
   20.2018   10.2632    6.2061 N   0  0  0  0  0  0  0  0  0  0  0  0
   20.6991    7.3116   10.4962 C   0  0  1  0  0  0  0  0  0  0  0  0
   23.9240    3.4694    8.4986 C   0  0  2  0  0  0  0  0  0  0  0  0
   25.2834    4.0088    8.2401 N   0  0  0  0  0  0  0  0  0  0  0  0
   21.2177    8.1089    5.3652 C   0  0  0  0  0  0  0  0  0  0  0  0
   20.3011    6.3581   11.6703 C   0  0  2  0  0  0  0  0  0  0  0  0
   18.9520    5.8176   11.6234 O   0  0  0  0  0  0  0  0  0  0  0  0
   23.6104    2.4260    7.4097 C   0  0  1  0  0  0  0  0  0  0  0  0
   24.5670    1.3969    7.4201 O   0  0  0  0  0  0  0  0  0  0  0  0
   22.3105    7.0429    5.7417 C   0  0  2  0  0  0  0  0  0  0  0  0
   22.4162    5.9741    4.7034 N   0  0  0  0  0  0  0  0  0  0  0  0
   20.6068    7.2951   12.8268 C   0  0  2  0  0  0  0  0  0  0  0  0
   19.5243    8.2694   13.0182 O   0  0  0  0  0  0  0  0  0  0  0  0
   22.2170    1.8607    7.6277 C   0  0  2  0  0  0  0  0  0  0  0  0
   21.9404    0.9013    6.6588 O   0  0  0  0  0  0  0  0  0  0  0  0
   21.9733    6.3744    7.1050 C   0  0  2  0  0  0  0  0  0  0  0  0
   21.9010    7.9907   12.4215 C   0  0  2  0  0  0  0  0  0  0  0  0
   21.6476    8.2370   11.0410 O   0  0  0  0  0  0  0  0  0  0  0  0
   21.1654    3.0044    7.5672 C   0  0  2  0  0  0  0  0  0  0  0  0
   21.4725    4.0002    8.5667 O   0  0  0  0  0  0  0  0  0  0  0  0
   21.8290    7.3848    8.2601 C   0  0  2  0  0  0  0  0  0  0  0  0
   21.2729    6.6118    9.3813 O   0  0  0  0  0  0  0  0  0  0  0  0
   23.1969    7.1292   12.5994 C   0  0  0  0  0  0  0  0  0  0  0  0
   24.3451    7.8926   12.2407 N   0  0  0  0  0  0  0  0  0  0  0  0
   19.7569    2.5074    7.7965 C   0  0  0  0  0  0  0  0  0  0  0  0
   19.6141    1.9471    9.0509 O   0  0  0  0  0  0  0  0  0  0  0  0
   20.8357    8.5585    7.8459 C   0  0  1  0  0  0  0  0  0  0  0  0
   20.8510    9.6229    8.8092 O   0  0  0  0  0  0  0  0  0  0  0  0
  1  2  1  6  0  0  0
  1  6  1  0  0  0  0
  1 23  1  0  0  0  0
  3  4  1  6  0  0  0
  3  8  1  0  0  0  0
  3 30  1  0  0  0  0
  5  9  1  0  0  0  0
  5 21  1  0  0  0  0
  5 25  1  6  0  0  0
  6  7  1  6  0  0  0
  6 11  1  0  0  0  0
  8 13  1  0  0  0  0
  9 10  1  6  0  0  0
  9 15  1  0  0  0  0
 11 12  1  1  0  0  0
 11 17  1  0  0  0  0
 13 14  1  6  0  0  0
 13 19  1  0  0  0  0
 15 16  1  6  0  0  0
 15 20  1  0  0  0  0
 17 18  1  6  0  0  0
 17 22  1  0  0  0  0
 19  2  1  1  0  0  0
 19 24  1  0  0  0  0
 20 21  1  0  0  0  0
 20 26  1  6  0  0  0
 22 23  1  0  0  0  0
 22 28  1  1  0  0  0
 24 25  1  1  0  0  0
 24 30  1  0  0  0  0
 26 27  1  0  0  0  0
 28 29  1  0  0  0  0
 30 31  1  1  0  0  0
M  END
>  <CHROM.1>
167.66569104,-173.51969237,-173.10657031,-177.77448316,61.92011064,-164.18491963
21.74082434,5.80837310,8.81857971,0.01940182,-1.34079927,2.14505702

>  <Name>
2o3x_lig

>  <RI>
3.34184e+07

>  <Rbt.Current_Directory>
/home/itssahil/PROJECTS/Mol_Feturizer/New_Systems/rnas/2o3x

>  <Rbt.Executable>
rbdock ($Id: //depot/dev/client3/rdock/2013.1/src/exe/rbdock.cxx#4 $)

>  <Rbt.Library>
libRbt.so (2013.1, Build901 2013/11/27)

>  <Rbt.Parameter_File>
/export/apps/rDock/src/rDock_2013.1_src/data/scripts/dock_solv.prm

>  <Rbt.Receptor>
prm/pocket_docking_6.prm

>  <SCORE>
-15.3708

>  <SCORE.INTER>
-12.7638

>  <SCORE.INTER.CONST>
1

>  <SCORE.INTER.POLAR>
-2.10697

>  <SCORE.INTER.ROT>
6

>  <SCORE.INTER.SOLV>
17.9909

>  <SCORE.INTER.VDW>
-15.0829

>  <SCORE.INTER.norm>
-0.411735

>  <SCORE.INTRA>
-2.60698

>  <SCORE.INTRA.DIHEDRAL>
-6.8437

>  <SCORE.INTRA.DIHEDRAL.0>
9.37739

>  <SCORE.INTRA.POLAR>
0

>  <SCORE.INTRA.POLAR.0>
0

>  <SCORE.INTRA.REPUL>
0

>  <SCORE.INTRA.REPUL.0>
0

>  <SCORE.INTRA.SOLV>
-2.65149

>  <SCORE.INTRA.SOLV.lig_0>
-82.9274

>  <SCORE.INTRA.VDW>
2.14062

>  <SCORE.INTRA.VDW.0>
-3.84922

>  <SCORE.INTRA.norm>
-0.084096

>  <SCORE.RESTR>
0

>  <SCORE.RESTR.CAVITY>
0

>  <SCORE.RESTR.norm>
0

>  <SCORE.SYSTEM>
0

>  <SCORE.SYSTEM.CONST>
0

>  <SCORE.SYSTEM.DIHEDRAL>
0

>  <SCORE.SYSTEM.SOLV>
0

>  <SCORE.SYSTEM.norm>
0

>  <SCORE.heavy>
31

>  <SCORE.norm>
-0.495831

>  <RMSD>
6.598

$$$$
2o3x_lig
 OpenBabel11021811463D
libRbt.so/2013.1/901 2013/11/27
 31 33  0  0  0  0  0  0  0  0999 V2000
   19.3410    9.0077    8.6396 C   0  0  2  0  0  0  0  0  0  0  0  0
   19.5589   10.2830    9.2573 O   0  0  0  0  0  0  0  0  0  0  0  0
   16.4065   12.5640   11.0343 C   0  0  2  0  0  0  0  0  0  0  0  0
   15.2340   13.4417   11.2446 N   0  0  0  0  0  0  0  0  0  0  0  0
   15.6380    8.7465    8.7130 C   0  0  1  0  0  0  0  0  0  0  0  0
   20.5912    8.1111    8.9067 C   0  0  2  0  0  0  0  0  0  0  0  0
   20.9988    8.1304   10.3347 N   0  0  0  0  0  0  0  0  0  0  0  0
   17.6285   13.3453   10.4463 C   0  0  0  0  0  0  0  0  0  0  0  0
   15.3239    8.0089    7.3701 C   0  0  2  0  0  0  0  0  0  0  0  0
   14.5022    8.7395    6.4185 O   0  0  0  0  0  0  0  0  0  0  0  0
   21.7995    8.5546    8.0604 C   0  0  1  0  0  0  0  0  0  0  0  0
   22.8960    7.7035    8.2790 O   0  0  0  0  0  0  0  0  0  0  0  0
   18.8260   12.3386   10.2886 C   0  0  2  0  0  0  0  0  0  0  0  0
   20.0438   13.0137    9.7477 N   0  0  0  0  0  0  0  0  0  0  0  0
   14.7115    6.7458    7.9518 C   0  0  2  0  0  0  0  0  0  0  0  0
   13.3179    6.9721    8.3572 O   0  0  0  0  0  0  0  0  0  0  0  0
   21.4185    8.5658    6.5896 C   0  0  2  0  0  0  0  0  0  0  0  0
   22.5150    8.9439    5.8212 O   0  0  0  0  0  0  0  0  0  0  0  0
   18.4390   11.1770    9.3294 C   0  0  2  0  0  0  0  0  0  0  0  0
   15.5842    6.4203    9.1582 C   0  0  2  0  0  0  0  0  0  0  0  0
   15.7753    7.7221    9.7053 O   0  0  0  0  0  0  0  0  0  0  0  0
   20.2348    9.5465    6.3560 C   0  0  2  0  0  0  0  0  0  0  0  0
   19.1093    9.1522    7.1701 O   0  0  0  0  0  0  0  0  0  0  0  0
   17.1826   10.4064    9.7812 C   0  0  2  0  0  0  0  0  0  0  0  0
   16.8352    9.5367    8.6468 O   0  0  0  0  0  0  0  0  0  0  0  0
   16.9618    5.7577    8.8167 C   0  0  0  0  0  0  0  0  0  0  0  0
   16.7725    4.3913    8.4603 N   0  0  0  0  0  0  0  0  0  0  0  0
   19.7952    9.5884    4.9109 C   0  0  0  0  0  0  0  0  0  0  0  0
   18.7224   10.4396    4.7309 O   0  0  0  0  0  0  0  0  0  0  0  0
   15.9944   11.4207   10.0896 C   0  0  1  0  0  0  0  0  0  0  0  0
   14.8879   10.7564   10.7186 O   0  0  0  0  0  0  0  0  0  0  0  0
  1  2  1  6  0  0  0
  1  6  1  0  0  0  0
  1 23  1  0  0  0  0
  3  4  1  6  0  0  0
  3  8  1  0  0  0  0
  3 30  1  0  0  0  0
  5  9  1  0  0  0  0
  5 21  1  0  0  0  0
  5 25  1  6  0  0  0
  6  7  1  1  0  0  0
  6 11  1  0  0  0  0
  8 13  1  0  0  0  0
  9 10  1  6  0  0  0
  9 15  1  0  0  0  0
 11 12  1  6  0  0  0
 11 17  1  0  0  0  0
 13 14  1  6  0  0  0
 13 19  1  0  0  0  0
 15 16  1  1  0  0  0
 15 20  1  0  0  0  0
 17 18  1  6  0  0  0
 17 22  1  0  0  0  0
 19  2  1  1  0  0  0
 19 24  1  0  0  0  0
 20 21  1  0  0  0  0
 20 26  1  6  0  0  0
 22 23  1  0  0  0  0
 22 28  1  6  0  0  0
 24 25  1  6  0  0  0
 24 30  1  0  0  0  0
 26 27  1  0  0  0  0
 28 29  1  0  0  0  0
 30 31  1  1  0  0  0
M  END
>  <CHROM.1>
-169.53294896,173.29189885,168.15369160,-75.45342967,178.50600777,-175.56942608
17.96230679,9.32358255,8.52428005,0.16594665,-0.27131068,-2.68252379

>  <Name>
2o3x_lig

>  <RI>
2.78316e+07

>  <Rbt.Current_Directory>
/home/itssahil/PROJECTS/Mol_Feturizer/New_Systems/rnas/2o3x

>  <Rbt.Executable>
rbdock ($Id: //depot/dev/client3/rdock/2013.1/src/exe/rbdock.cxx#4 $)

>  <Rbt.Library>
libRbt.so (2013.1, Build901 2013/11/27)

>  <Rbt.Parameter_File>
/export/apps/rDock/src/rDock_2013.1_src/data/scripts/dock_solv.prm

>  <Rbt.Receptor>
prm/pocket_docking_7.prm

>  <SCORE>
-9.05181

>  <SCORE.INTER>
-6.91266

>  <SCORE.INTER.CONST>
1

>  <SCORE.INTER.POLAR>
-1.30905

>  <SCORE.INTER.ROT>
6

>  <SCORE.INTER.SOLV>
21.0246

>  <SCORE.INTER.VDW>
-14.8531

>  <SCORE.INTER.norm>
-0.222989

>  <SCORE.INTRA>
-2.13915

>  <SCORE.INTRA.DIHEDRAL>
-6.86755

>  <SCORE.INTRA.DIHEDRAL.0>
9.37739

>  <SCORE.INTRA.POLAR>
0

>  <SCORE.INTRA.POLAR.0>
0

>  <SCORE.INTRA.REPUL>
0

>  <SCORE.INTRA.REPUL.0>
0

>  <SCORE.INTRA.SOLV>
-3.3232

>  <SCORE.INTRA.SOLV.lig_0>
-82.9274

>  <SCORE.INTRA.VDW>
2.95623

>  <SCORE.INTRA.VDW.0>
-3.84922

>  <SCORE.INTRA.norm>
-0.0690049

>  <SCORE.RESTR>
0

>  <SCORE.RESTR.CAVITY>
0

>  <SCORE.RESTR.norm>
0

>  <SCORE.SYSTEM>
0

>  <SCORE.SYSTEM.CONST>
0

>  <SCORE.SYSTEM.DIHEDRAL>
0

>  <SCORE.SYSTEM.SOLV>
0

>  <SCORE.SYSTEM.norm>
0

>  <SCORE.heavy>
31

>  <SCORE.norm>
-0.291994

>  <RMSD>
6.603

$$$$
2o3x_lig
 OpenBabel11021811463D
libRbt.so/2013.1/901 2013/11/27
 31 33  0  0  0  0  0  0  0  0999 V2000
   16.5568    5.1206    6.3651 C   0  0  2  0  0  0  0  0  0  0  0  0
   17.7440    5.5095    5.6617 O   0  0  0  0  0  0  0  0  0  0  0  0
   19.5273    9.3915    5.4438 C   0  0  2  0  0  0  0  0  0  0  0  0
   19.7772   10.8262    5.1815 N   0  0  0  0  0  0  0  0  0  0  0  0
   16.0191    8.5860    8.0996 C   0  0  1  0  0  0  0  0  0  0  0  0
   16.7905    3.7046    6.9806 C   0  0  2  0  0  0  0  0  0  0  0  0
   18.0858    3.6150    7.7017 N   0  0  0  0  0  0  0  0  0  0  0  0
   19.4295    8.5599    4.1216 C   0  0  0  0  0  0  0  0  0  0  0  0
   14.5289    8.3565    8.5153 C   0  0  2  0  0  0  0  0  0  0  0  0
   13.5340    9.0974    7.7567 O   0  0  0  0  0  0  0  0  0  0  0  0
   16.7690    2.6056    5.9015 C   0  0  1  0  0  0  0  0  0  0  0  0
   16.9303    1.3370    6.4837 O   0  0  0  0  0  0  0  0  0  0  0  0
   19.1949    7.0531    4.5048 C   0  0  2  0  0  0  0  0  0  0  0  0
   19.1087    6.1848    3.2924 N   0  0  0  0  0  0  0  0  0  0  0  0
   14.6538    8.7167    9.9862 C   0  0  2  0  0  0  0  0  0  0  0  0
   14.6656   10.1734   10.1746 O   0  0  0  0  0  0  0  0  0  0  0  0
   15.4640    2.6742    5.1263 C   0  0  2  0  0  0  0  0  0  0  0  0
   15.4324    1.6678    4.1661 O   0  0  0  0  0  0  0  0  0  0  0  0
   17.8786    6.8961    5.3184 C   0  0  2  0  0  0  0  0  0  0  0  0
   15.9793    8.1004   10.4180 C   0  0  2  0  0  0  0  0  0  0  0  0
   16.7948    8.4112    9.2915 O   0  0  0  0  0  0  0  0  0  0  0  0
   15.3217    4.0670    4.4499 C   0  0  2  0  0  0  0  0  0  0  0  0
   15.3714    5.1025    5.4548 O   0  0  0  0  0  0  0  0  0  0  0  0
   17.8457    7.7572    6.5966 C   0  0  2  0  0  0  0  0  0  0  0  0
   16.4599    7.6729    7.0826 O   0  0  0  0  0  0  0  0  0  0  0  0
   15.9398    6.5535   10.6606 C   0  0  0  0  0  0  0  0  0  0  0  0
   15.5912    5.8780    9.4556 N   0  0  0  0  0  0  0  0  0  0  0  0
   14.0308    4.2050    3.6767 C   0  0  0  0  0  0  0  0  0  0  0  0
   13.9623    5.4153    3.0147 O   0  0  0  0  0  0  0  0  0  0  0  0
   18.2256    9.2655    6.2557 C   0  0  1  0  0  0  0  0  0  0  0  0
   18.4176   10.0405    7.4490 O   0  0  0  0  0  0  0  0  0  0  0  0
  1  2  1  6  0  0  0
  1  6  1  0  0  0  0
  1 23  1  0  0  0  0
  3  4  1  6  0  0  0
  3  8  1  0  0  0  0
  3 30  1  0  0  0  0
  5  9  1  0  0  0  0
  5 21  1  0  0  0  0
  5 25  1  6  0  0  0
  6  7  1  6  0  0  0
  6 11  1  0  0  0  0
  8 13  1  0  0  0  0
  9 10  1  6  0  0  0
  9 15  1  0  0  0  0
 11 12  1  1  0  0  0
 11 17  1  0  0  0  0
 13 14  1  6  0  0  0
 13 19  1  0  0  0  0
 15 16  1  6  0  0  0
 15 20  1  0  0  0  0
 17 18  1  6  0  0  0
 17 22  1  0  0  0  0
 19  2  1  1  0  0  0
 19 24  1  0  0  0  0
 20 21  1  0  0  0  0
 20 26  1  6  0  0  0
 22 23  1  0  0  0  0
 22 28  1  1  0  0  0
 24 25  1  6  0  0  0
 24 30  1  0  0  0  0
 26 27  1  0  0  0  0
 28 29  1  0  0  0  0
 30 31  1  1  0  0  0
M  END
>  <CHROM.1>
-164.27199666,-179.42299655,-177.05372102,61.58388612,-176.17151785,-166.98497465
16.60993148,6.52773611,6.59845876,1.68045628,-0.83957892,-2.53194779

>  <Name>
2o3x_lig

>  <RI>
2.78316e+07

>  <Rbt.Current_Directory>
/home/itssahil/PROJECTS/Mol_Feturizer/New_Systems/rnas/2o3x

>  <Rbt.Executable>
rbdock ($Id: //depot/dev/client3/rdock/2013.1/src/exe/rbdock.cxx#4 $)

>  <Rbt.Library>
libRbt.so (2013.1, Build901 2013/11/27)

>  <Rbt.Parameter_File>
/export/apps/rDock/src/rDock_2013.1_src/data/scripts/dock_solv.prm

>  <Rbt.Receptor>
prm/pocket_docking_7.prm

>  <SCORE>
-3.74892

>  <SCORE.INTER>
-3.37633

>  <SCORE.INTER.CONST>
1

>  <SCORE.INTER.POLAR>
-0.894427

>  <SCORE.INTER.ROT>
6

>  <SCORE.INTER.SOLV>
11.942

>  <SCORE.INTER.VDW>
-10.8501

>  <SCORE.INTER.norm>
-0.108914

>  <SCORE.INTRA>
-0.372592

>  <SCORE.INTRA.DIHEDRAL>
-7.13372

>  <SCORE.INTRA.DIHEDRAL.0>
9.37739

>  <SCORE.INTRA.POLAR>
0

>  <SCORE.INTRA.POLAR.0>
0

>  <SCORE.INTRA.REPUL>
0

>  <SCORE.INTRA.REPUL.0>
0

>  <SCORE.INTRA.SOLV>
2.47244

>  <SCORE.INTRA.SOLV.lig_0>
-82.9274

>  <SCORE.INTRA.VDW>
1.95805

>  <SCORE.INTRA.VDW.0>
-3.84922

>  <SCORE.INTRA.norm>
-0.0120191

>  <SCORE.RESTR>
0

>  <SCORE.RESTR.CAVITY>
0

>  <SCORE.RESTR.norm>
0

>  <SCORE.SYSTEM>
0

>  <SCORE.SYSTEM.CONST>
0

>  <SCORE.SYSTEM.DIHEDRAL>
0

>  <SCORE.SYSTEM.SOLV>
0

>  <SCORE.SYSTEM.norm>
0

>  <SCORE.heavy>
31

>  <SCORE.norm>
-0.120933

>  <RMSD>
6.611

$$$$
2o3x_lig
 OpenBabel11021811463D
libRbt.so/2013.1/901 2013/11/27
 31 33  0  0  0  0  0  0  0  0999 V2000
   19.6515    9.0855    9.3571 C   0  0  2  0  0  0  0  0  0  0  0  0
   21.0062    9.3043    8.9419 O   0  0  0  0  0  0  0  0  0  0  0  0
   23.7012    7.9885    5.8917 C   0  0  2  0  0  0  0  0  0  0  0  0
   24.2929    7.3165    4.7137 N   0  0  0  0  0  0  0  0  0  0  0  0
   19.5329    9.0608    5.4885 C   0  0  1  0  0  0  0  0  0  0  0  0
   19.2497   10.2245   10.3469 C   0  0  2  0  0  0  0  0  0  0  0  0
   19.6085   11.5690    9.8280 N   0  0  0  0  0  0  0  0  0  0  0  0
   23.3316    6.9735    7.0241 C   0  0  0  0  0  0  0  0  0  0  0  0
   18.0445    9.5377    5.4316 C   0  0  2  0  0  0  0  0  0  0  0  0
   17.1925    9.1000    6.5256 O   0  0  0  0  0  0  0  0  0  0  0  0
   19.9251   10.0480   11.7201 C   0  0  1  0  0  0  0  0  0  0  0  0
   19.5099   11.0541   12.6088 O   0  0  0  0  0  0  0  0  0  0  0  0
   22.7422    7.7828    8.2366 C   0  0  2  0  0  0  0  0  0  0  0  0
   22.3799    6.8838    9.3731 N   0  0  0  0  0  0  0  0  0  0  0  0
   17.6945    8.9997    4.0543 C   0  0  2  0  0  0  0  0  0  0  0  0
   17.4146    7.5586    4.1050 O   0  0  0  0  0  0  0  0  0  0  0  0
   19.5971    8.6740   12.2797 C   0  0  2  0  0  0  0  0  0  0  0  0
   20.1871    8.5210   13.5304 O   0  0  0  0  0  0  0  0  0  0  0  0
   21.4704    8.5660    7.8026 C   0  0  2  0  0  0  0  0  0  0  0  0
   18.9298    9.2857    3.2086 C   0  0  2  0  0  0  0  0  0  0  0  0
   19.9641    8.9437    4.1271 O   0  0  0  0  0  0  0  0  0  0  0  0
   20.1037    7.5710   11.3079 C   0  0  2  0  0  0  0  0  0  0  0  0
   19.4960    7.7502   10.0104 O   0  0  0  0  0  0  0  0  0  0  0  0
   21.7191    9.5263    6.6226 C   0  0  2  0  0  0  0  0  0  0  0  0
   20.3825    9.9732    6.2011 O   0  0  0  0  0  0  0  0  0  0  0  0
   19.0783   10.7726    2.7391 C   0  0  0  0  0  0  0  0  0  0  0  0
   20.3334   10.9580    2.0909 N   0  0  0  0  0  0  0  0  0  0  0  0
   19.7895    6.1776   11.8008 C   0  0  0  0  0  0  0  0  0  0  0  0
   20.4451    5.8976   12.9839 O   0  0  0  0  0  0  0  0  0  0  0  0
   22.4513    8.7613    5.4334 C   0  0  1  0  0  0  0  0  0  0  0  0
   22.8912    9.6731    4.4154 O   0  0  0  0  0  0  0  0  0  0  0  0
  1  2  1  1  0  0  0
  1  6  1  0  0  0  0
  1 23  1  0  0  0  0
  3  4  1  6  0  0  0
  3  8  1  0  0  0  0
  3 30  1  0  0  0  0
  5  9  1  0  0  0  0
  5 21  1  0  0  0  0
  5 25  1  1  0  0  0
  6  7  1  6  0  0  0
  6 11  1  0  0  0  0
  8 13  1  0  0  0  0
  9 10  1  1  0  0  0
  9 15  1  0  0  0  0
 11 12  1  1  0  0  0
 11 17  1  0  0  0  0
 13 14  1  1  0  0  0
 13 19  1  0  0  0  0
 15 16  1  1  0  0  0
 15 20  1  0  0  0  0
 17 18  1  1  0  0  0
 17 22  1  0  0  0  0
 19  2  1  1  0  0  0
 19 24  1  0  0  0  0
 20 21  1  0  0  0  0
 20 26  1  1  0  0  0
 22 23  1  0  0  0  0
 22 28  1  1  0  0  0
 24 25  1  6  0  0  0
 24 30  1  0  0  0  0
 26 27  1  0  0  0  0
 28 29  1  0  0  0  0
 30 31  1  6  0  0  0
M  END
>  <CHROM.1>
-165.66715739,165.36623491,-124.22369043,173.44236512,-63.93074677,-73.53629746
20.36785231,8.81808038,7.71463368,1.57721914,-0.40445814,1.69298339

>  <Name>
2o3x_lig

>  <RI>
0

>  <Rbt.Current_Directory>
/home/itssahil/PROJECTS/Mol_Feturizer/New_Systems/rnas/2o3x

>  <Rbt.Executable>
rbdock ($Id: //depot/dev/client3/rdock/2013.1/src/exe/rbdock.cxx#4 $)

>  <Rbt.Library>
libRbt.so (2013.1, Build901 2013/11/27)

>  <Rbt.Parameter_File>
/export/apps/rDock/src/rDock_2013.1_src/data/scripts/dock_solv.prm

>  <Rbt.Receptor>
prm/pocket_docking_4.prm

>  <SCORE>
-16.7636

>  <SCORE.INTER>
-18.3342

>  <SCORE.INTER.CONST>
1

>  <SCORE.INTER.POLAR>
-1.96634

>  <SCORE.INTER.ROT>
6

>  <SCORE.INTER.SOLV>
17.0986

>  <SCORE.INTER.VDW>
-18.9679

>  <SCORE.INTER.norm>
-0.591426

>  <SCORE.INTRA>
1.57063

>  <SCORE.INTRA.DIHEDRAL>
0.880018

>  <SCORE.INTRA.DIHEDRAL.0>
9.37739

>  <SCORE.INTRA.POLAR>
0

>  <SCORE.INTRA.POLAR.0>
0

>  <SCORE.INTRA.REPUL>
0

>  <SCORE.INTRA.REPUL.0>
0

>  <SCORE.INTRA.SOLV>
1.11985

>  <SCORE.INTRA.SOLV.lig_0>
-82.9274

>  <SCORE.INTRA.VDW>
0.570693

>  <SCORE.INTRA.VDW.0>
-3.84922

>  <SCORE.INTRA.norm>
0.0506654

>  <SCORE.RESTR>
0

>  <SCORE.RESTR.CAVITY>
0

>  <SCORE.RESTR.norm>
0

>  <SCORE.SYSTEM>
0

>  <SCORE.SYSTEM.CONST>
0

>  <SCORE.SYSTEM.DIHEDRAL>
0

>  <SCORE.SYSTEM.SOLV>
0

>  <SCORE.SYSTEM.norm>
0

>  <SCORE.heavy>
31

>  <SCORE.norm>
-0.540761

>  <RMSD>
6.613

$$$$
2o3x_lig
 OpenBabel11021811463D
libRbt.so/2013.1/901 2013/11/27
 31 33  0  0  0  0  0  0  0  0999 V2000
   22.5971    4.3987    8.8080 C   0  0  2  0  0  0  0  0  0  0  0  0
   22.4916    5.2654    7.6708 O   0  0  0  0  0  0  0  0  0  0  0  0
   20.2069    8.7429    6.6785 C   0  0  2  0  0  0  0  0  0  0  0  0
   19.1291    9.7514    6.5753 N   0  0  0  0  0  0  0  0  0  0  0  0
   20.5147    6.4495   10.4086 C   0  0  1  0  0  0  0  0  0  0  0  0
   23.7574    3.3861    8.5495 C   0  0  2  0  0  0  0  0  0  0  0  0
   24.9922    4.0598    8.0729 N   0  0  0  0  0  0  0  0  0  0  0  0
   19.8197    7.3948    5.9842 C   0  0  0  0  0  0  0  0  0  0  0  0
   20.7047    6.0870   11.9181 C   0  0  2  0  0  0  0  0  0  0  0  0
   21.2013    4.7486   12.1948 O   0  0  0  0  0  0  0  0  0  0  0  0
   23.3620    2.3232    7.5070 C   0  0  1  0  0  0  0  0  0  0  0  0
   24.4011    1.3945    7.3284 O   0  0  0  0  0  0  0  0  0  0  0  0
   21.0338    6.4050    6.1209 C   0  0  2  0  0  0  0  0  0  0  0  0
   20.7505    5.0939    5.4637 N   0  0  0  0  0  0  0  0  0  0  0  0
   19.2941    6.3894   12.3953 C   0  0  2  0  0  0  0  0  0  0  0  0
   18.3774    5.2901   12.0655 O   0  0  0  0  0  0  0  0  0  0  0  0
   22.0894    1.6205    7.9489 C   0  0  2  0  0  0  0  0  0  0  0  0
   21.7429    0.6442    7.0202 O   0  0  0  0  0  0  0  0  0  0  0  0
   21.3596    6.1454    7.6194 C   0  0  2  0  0  0  0  0  0  0  0  0
   18.9064    7.6635   11.6542 C   0  0  2  0  0  0  0  0  0  0  0  0
   19.4318    7.3864   10.3590 O   0  0  0  0  0  0  0  0  0  0  0  0
   20.9372    2.6541    8.0973 C   0  0  2  0  0  0  0  0  0  0  0  0
   21.3154    3.6695    9.0517 O   0  0  0  0  0  0  0  0  0  0  0  0
   21.6622    7.4339    8.4095 C   0  0  2  0  0  0  0  0  0  0  0  0
   21.6934    7.0221    9.8214 O   0  0  0  0  0  0  0  0  0  0  0  0
   19.5296    8.9790   12.2326 C   0  0  0  0  0  0  0  0  0  0  0  0
   20.8538    9.1525   11.7362 N   0  0  0  0  0  0  0  0  0  0  0  0
   19.6452    2.0178    8.5545 C   0  0  0  0  0  0  0  0  0  0  0  0
   19.7700    1.4627    9.8132 O   0  0  0  0  0  0  0  0  0  0  0  0
   20.5145    8.5112    8.1688 C   0  0  1  0  0  0  0  0  0  0  0  0
   20.8747    9.7911    8.7104 O   0  0  0  0  0  0  0  0  0  0  0  0
  1  2  1  6  0  0  0
  1  6  1  0  0  0  0
  1 23  1  0  0  0  0
  3  4  1  1  0  0  0
  3  8  1  0  0  0  0
  3 30  1  0  0  0  0
  5  9  1  0  0  0  0
  5 21  1  0  0  0  0
  5 25  1  1  0  0  0
  6  7  1  6  0  0  0
  6 11  1  0  0  0  0
  8 13  1  0  0  0  0
  9 10  1  6  0  0  0
  9 15  1  0  0  0  0
 11 12  1  1  0  0  0
 11 17  1  0  0  0  0
 13 14  1  1  0  0  0
 13 19  1  0  0  0  0
 15 16  1  6  0  0  0
 15 20  1  0  0  0  0
 17 18  1  6  0  0  0
 17 22  1  0  0  0  0
 19  2  1  6  0  0  0
 19 24  1  0  0  0  0
 20 21  1  0  0  0  0
 20 26  1  1  0  0  0
 22 23  1  0  0  0  0
 22 28  1  1  0  0  0
 24 25  1  1  0  0  0
 24 30  1  0  0  0  0
 26 27  1  0  0  0  0
 28 29  1  0  0  0  0
 30 31  1  6  0  0  0
M  END
>  <CHROM.1>
171.12711207,-179.09156473,-151.12870075,82.58991867,63.17148763,-60.70986345
21.06143276,5.48622786,8.95654795,0.50310490,-1.14957437,2.46601030

>  <Name>
2o3x_lig

>  <RI>
2.78316e+07

>  <Rbt.Current_Directory>
/home/itssahil/PROJECTS/Mol_Feturizer/New_Systems/rnas/2o3x

>  <Rbt.Executable>
rbdock ($Id: //depot/dev/client3/rdock/2013.1/src/exe/rbdock.cxx#4 $)

>  <Rbt.Library>
libRbt.so (2013.1, Build901 2013/11/27)

>  <Rbt.Parameter_File>
/export/apps/rDock/src/rDock_2013.1_src/data/scripts/dock_solv.prm

>  <Rbt.Receptor>
prm/pocket_docking_7.prm

>  <SCORE>
-8.12271

>  <SCORE.INTER>
-8.56578

>  <SCORE.INTER.CONST>
1

>  <SCORE.INTER.POLAR>
-1.80471

>  <SCORE.INTER.ROT>
6

>  <SCORE.INTER.SOLV>
13.8599

>  <SCORE.INTER.VDW>
-11.9148

>  <SCORE.INTER.norm>
-0.276315

>  <SCORE.INTRA>
0.44307

>  <SCORE.INTRA.DIHEDRAL>
-3.89072

>  <SCORE.INTRA.DIHEDRAL.0>
9.37739

>  <SCORE.INTRA.POLAR>
0

>  <SCORE.INTRA.POLAR.0>
0

>  <SCORE.INTRA.REPUL>
0

>  <SCORE.INTRA.REPUL.0>
0

>  <SCORE.INTRA.SOLV>
3.77821

>  <SCORE.INTRA.SOLV.lig_0>
-82.9274

>  <SCORE.INTRA.VDW>
0.49933

>  <SCORE.INTRA.VDW.0>
-3.84922

>  <SCORE.INTRA.norm>
0.0142926

>  <SCORE.RESTR>
0

>  <SCORE.RESTR.CAVITY>
0

>  <SCORE.RESTR.norm>
0

>  <SCORE.SYSTEM>
0

>  <SCORE.SYSTEM.CONST>
0

>  <SCORE.SYSTEM.DIHEDRAL>
0

>  <SCORE.SYSTEM.SOLV>
0

>  <SCORE.SYSTEM.norm>
0

>  <SCORE.heavy>
31

>  <SCORE.norm>
-0.262023

>  <RMSD>
6.630

$$$$
2o3x_lig
 OpenBabel11021811463D
libRbt.so/2013.1/901 2013/11/27
 31 33  0  0  0  0  0  0  0  0999 V2000
   22.0544    6.7641    7.9009 C   0  0  2  0  0  0  0  0  0  0  0  0
   22.0040    8.1082    8.3972 O   0  0  0  0  0  0  0  0  0  0  0  0
   17.8317    8.0763    9.3399 C   0  0  2  0  0  0  0  0  0  0  0  0
   16.4488    8.4829    9.6741 N   0  0  0  0  0  0  0  0  0  0  0  0
   19.9210    9.0718    5.1651 C   0  0  1  0  0  0  0  0  0  0  0  0
   23.3893    6.1115    8.3810 C   0  0  2  0  0  0  0  0  0  0  0  0
   23.6267    6.3255    9.8314 N   0  0  0  0  0  0  0  0  0  0  0  0
   18.8365    8.4035   10.4942 C   0  0  0  0  0  0  0  0  0  0  0  0
   18.6991    9.8637    4.5941 C   0  0  2  0  0  0  0  0  0  0  0  0
   17.4016    9.2227    4.7353 O   0  0  0  0  0  0  0  0  0  0  0  0
   24.6025    6.6685    7.6124 C   0  0  1  0  0  0  0  0  0  0  0  0
   25.7849    6.0313    8.0249 O   0  0  0  0  0  0  0  0  0  0  0  0
   20.2640    7.9092   10.0583 C   0  0  2  0  0  0  0  0  0  0  0  0
   21.2831    8.1688   11.1191 N   0  0  0  0  0  0  0  0  0  0  0  0
   19.2030   10.0491    3.1726 C   0  0  2  0  0  0  0  0  0  0  0  0
   19.0068    8.8287    2.3789 O   0  0  0  0  0  0  0  0  0  0  0  0
   24.3913    6.4850    6.1190 C   0  0  2  0  0  0  0  0  0  0  0  0
   25.4960    6.9666    5.4237 O   0  0  0  0  0  0  0  0  0  0  0  0
   20.7152    8.6276    8.7546 C   0  0  2  0  0  0  0  0  0  0  0  0
   20.6859   10.3631    3.3322 C   0  0  2  0  0  0  0  0  0  0  0  0
   21.0441    9.4363    4.3535 O   0  0  0  0  0  0  0  0  0  0  0  0
   23.1050    7.2341    5.6695 C   0  0  2  0  0  0  0  0  0  0  0  0
   21.9692    6.7360    6.4089 O   0  0  0  0  0  0  0  0  0  0  0  0
   19.7316    8.4387    7.5829 C   0  0  2  0  0  0  0  0  0  0  0  0
   20.1857    9.3753    6.5435 O   0  0  0  0  0  0  0  0  0  0  0  0
   21.0053   11.8294    3.7810 C   0  0  0  0  0  0  0  0  0  0  0  0
   21.0567   12.6884    2.6455 N   0  0  0  0  0  0  0  0  0  0  0  0
   22.8288    7.0735    4.1926 C   0  0  0  0  0  0  0  0  0  0  0  0
   23.7404    7.7734    3.4264 O   0  0  0  0  0  0  0  0  0  0  0  0
   18.2494    8.7942    8.0438 C   0  0  1  0  0  0  0  0  0  0  0  0
   17.2863    8.4203    7.0469 O   0  0  0  0  0  0  0  0  0  0  0  0
  1  2  1  6  0  0  0
  1  6  1  0  0  0  0
  1 23  1  0  0  0  0
  3  4  1  1  0  0  0
  3  8  1  0  0  0  0
  3 30  1  0  0  0  0
  5  9  1  0  0  0  0
  5 21  1  0  0  0  0
  5 25  1  1  0  0  0
  6  7  1  1  0  0  0
  6 11  1  0  0  0  0
  8 13  1  0  0  0  0
  9 10  1  6  0  0  0
  9 15  1  0  0  0  0
 11 12  1  1  0  0  0
 11 17  1  0  0  0  0
 13 14  1  1  0  0  0
 13 19  1  0  0  0  0
 15 16  1  6  0  0  0
 15 20  1  0  0  0  0
 17 18  1  6  0  0  0
 17 22  1  0  0  0  0
 19  2  1  6  0  0  0
 19 24  1  0  0  0  0
 20 21  1  0  0  0  0
 20 26  1  1  0  0  0
 22 23  1  0  0  0  0
 22 28  1  6  0  0  0
 24 25  1  6  0  0  0
 24 30  1  0  0  0  0
 26 27  1  0  0  0  0
 28 29  1  0  0  0  0
 30 31  1  6  0  0  0
M  END
>  <CHROM.1>
-145.84532330,100.78107378,71.37218100,-85.36883099,-70.83302587,152.18097186
21.04729392,8.32719368,6.53795664,0.78967729,-0.36667768,1.92815285

>  <Name>
2o3x_lig

>  <RI>
3.41138e+07

>  <Rbt.Current_Directory>
/home/itssahil/PROJECTS/Mol_Feturizer/New_Systems/rnas/2o3x

>  <Rbt.Executable>
rbdock ($Id: //depot/dev/client3/rdock/2013.1/src/exe/rbdock.cxx#4 $)

>  <Rbt.Library>
libRbt.so (2013.1, Build901 2013/11/27)

>  <Rbt.Parameter_File>
/export/apps/rDock/src/rDock_2013.1_src/data/scripts/dock_solv.prm

>  <Rbt.Receptor>
prm/pocket_docking_2.prm

>  <SCORE>
-0.621867

>  <SCORE.INTER>
-5.47684

>  <SCORE.INTER.CONST>
1

>  <SCORE.INTER.POLAR>
-0.364708

>  <SCORE.INTER.ROT>
6

>  <SCORE.INTER.SOLV>
17.4134

>  <SCORE.INTER.VDW>
-15.84

>  <SCORE.INTER.norm>
-0.176672

>  <SCORE.INTRA>
4.46305

>  <SCORE.INTRA.DIHEDRAL>
6.85438

>  <SCORE.INTRA.DIHEDRAL.0>
9.37739

>  <SCORE.INTRA.POLAR>
0

>  <SCORE.INTRA.POLAR.0>
0

>  <SCORE.INTRA.REPUL>
0

>  <SCORE.INTRA.REPUL.0>
0

>  <SCORE.INTRA.SOLV>
0.626485

>  <SCORE.INTRA.SOLV.lig_0>
-82.9274

>  <SCORE.INTRA.VDW>
0.722615

>  <SCORE.INTRA.VDW.0>
-3.84922

>  <SCORE.INTRA.norm>
0.143969

>  <SCORE.RESTR>
0.391923

>  <SCORE.RESTR.CAVITY>
0.391923

>  <SCORE.RESTR.norm>
0.0126427

>  <SCORE.SYSTEM>
0

>  <SCORE.SYSTEM.CONST>
0

>  <SCORE.SYSTEM.DIHEDRAL>
0

>  <SCORE.SYSTEM.SOLV>
0

>  <SCORE.SYSTEM.norm>
0

>  <SCORE.heavy>
31

>  <SCORE.norm>
-0.0200602

>  <RMSD>
6.631

$$$$
2o3x_lig
 OpenBabel11021811463D
libRbt.so/2013.1/901 2013/11/27
 31 33  0  0  0  0  0  0  0  0999 V2000
   19.2999    9.3319    9.9699 C   0  0  2  0  0  0  0  0  0  0  0  0
   20.5670    9.1125    9.3361 O   0  0  0  0  0  0  0  0  0  0  0  0
   21.1998    7.4336    5.4529 C   0  0  2  0  0  0  0  0  0  0  0  0
   21.2717    6.5069    4.3016 N   0  0  0  0  0  0  0  0  0  0  0  0
   17.0563    8.6043    7.2904 C   0  0  1  0  0  0  0  0  0  0  0  0
   19.4172   10.5943   10.8816 C   0  0  2  0  0  0  0  0  0  0  0  0
   20.0473   11.7383   10.1746 N   0  0  0  0  0  0  0  0  0  0  0  0
   22.2022    7.0400    6.5886 C   0  0  0  0  0  0  0  0  0  0  0  0
   15.7698    8.0046    7.9472 C   0  0  2  0  0  0  0  0  0  0  0  0
   15.2796    6.7627    7.3712 O   0  0  0  0  0  0  0  0  0  0  0  0
   20.2428   10.3046   12.1493 C   0  0  1  0  0  0  0  0  0  0  0  0
   20.2921   11.4384   12.9778 O   0  0  0  0  0  0  0  0  0  0  0  0
   22.0723    8.0956    7.7466 C   0  0  2  0  0  0  0  0  0  0  0  0
   23.0147    7.8006    8.8674 N   0  0  0  0  0  0  0  0  0  0  0  0
   14.8633    9.2150    7.7984 C   0  0  2  0  0  0  0  0  0  0  0  0
   14.3327    9.3134    6.4322 O   0  0  0  0  0  0  0  0  0  0  0  0
   19.6404    9.1256   12.8949 C   0  0  2  0  0  0  0  0  0  0  0  0
   20.3709    8.8766   14.0525 O   0  0  0  0  0  0  0  0  0  0  0  0
   20.6232    8.1097    8.3116 C   0  0  2  0  0  0  0  0  0  0  0  0
   15.7599   10.4043    8.1219 C   0  0  2  0  0  0  0  0  0  0  0  0
   16.9562   10.0250    7.4470 O   0  0  0  0  0  0  0  0  0  0  0  0
   19.6353    7.8673   11.9815 C   0  0  2  0  0  0  0  0  0  0  0  0
   18.8875    8.1439   10.7776 O   0  0  0  0  0  0  0  0  0  0  0  0
   19.5536    8.3966    7.2392 C   0  0  2  0  0  0  0  0  0  0  0  0
   18.2661    8.1226    7.8958 O   0  0  0  0  0  0  0  0  0  0  0  0
   16.0346   10.6279    9.6477 C   0  0  0  0  0  0  0  0  0  0  0  0
   14.8034   10.7648   10.3515 N   0  0  0  0  0  0  0  0  0  0  0  0
   19.0288    6.6619   12.6614 C   0  0  0  0  0  0  0  0  0  0  0  0
   19.8531    6.1713   13.6553 O   0  0  0  0  0  0  0  0  0  0  0  0
   19.7560    7.4344    5.9866 C   0  0  1  0  0  0  0  0  0  0  0  0
   18.9192    7.8225    4.8865 O   0  0  0  0  0  0  0  0  0  0  0  0
  1  2  1  1  0  0  0
  1  6  1  0  0  0  0
  1 23  1  0  0  0  0
  3  4  1  6  0  0  0
  3  8  1  0  0  0  0
  3 30  1  0  0  0  0
  5  9  1  0  0  0  0
  5 21  1  0  0  0  0
  5 25  1  1  0  0  0
  6  7  1  6  0  0  0
  6 11  1  0  0  0  0
  8 13  1  0  0  0  0
  9 10  1  6  0  0  0
  9 15  1  0  0  0  0
 11 12  1  1  0  0  0
 11 17  1  0  0  0  0
 13 14  1  1  0  0  0
 13 19  1  0  0  0  0
 15 16  1  6  0  0  0
 15 20  1  0  0  0  0
 17 18  1  1  0  0  0
 17 22  1  0  0  0  0
 19  2  1  1  0  0  0
 19 24  1  0  0  0  0
 20 21  1  0  0  0  0
 20 26  1  1  0  0  0
 22 23  1  0  0  0  0
 22 28  1  1  0  0  0
 24 25  1  1  0  0  0
 24 30  1  0  0  0  0
 26 27  1  0  0  0  0
 28 29  1  0  0  0  0
 30 31  1  6  0  0  0
M  END
>  <CHROM.1>
-171.55062921,168.89963850,177.93347256,-56.25309817,-71.13055018,164.58402965
18.84741367,8.69673159,9.09682874,1.22409796,-0.28125753,1.32860703

>  <Name>
2o3x_lig

>  <RI>
3.34184e+07

>  <Rbt.Current_Directory>
/home/itssahil/PROJECTS/Mol_Feturizer/New_Systems/rnas/2o3x

>  <Rbt.Executable>
rbdock ($Id: //depot/dev/client3/rdock/2013.1/src/exe/rbdock.cxx#4 $)

>  <Rbt.Library>
libRbt.so (2013.1, Build901 2013/11/27)

>  <Rbt.Parameter_File>
/export/apps/rDock/src/rDock_2013.1_src/data/scripts/dock_solv.prm

>  <Rbt.Receptor>
prm/pocket_docking_6.prm

>  <SCORE>
-12.2719

>  <SCORE.INTER>
-9.22994

>  <SCORE.INTER.CONST>
1

>  <SCORE.INTER.POLAR>
-1.59096

>  <SCORE.INTER.ROT>
6

>  <SCORE.INTER.SOLV>
17.1897

>  <SCORE.INTER.VDW>
-14.18

>  <SCORE.INTER.norm>
-0.29774

>  <SCORE.INTRA>
-3.04192

>  <SCORE.INTRA.DIHEDRAL>
-6.65675

>  <SCORE.INTRA.DIHEDRAL.0>
9.37739

>  <SCORE.INTRA.POLAR>
0

>  <SCORE.INTRA.POLAR.0>
0

>  <SCORE.INTRA.REPUL>
0

>  <SCORE.INTRA.REPUL.0>
0

>  <SCORE.INTRA.SOLV>
-2.26037

>  <SCORE.INTRA.SOLV.lig_0>
-82.9274

>  <SCORE.INTRA.VDW>
1.41664

>  <SCORE.INTRA.VDW.0>
-3.84922

>  <SCORE.INTRA.norm>
-0.0981265

>  <SCORE.RESTR>
0

>  <SCORE.RESTR.CAVITY>
0

>  <SCORE.RESTR.norm>
0

>  <SCORE.SYSTEM>
0

>  <SCORE.SYSTEM.CONST>
0

>  <SCORE.SYSTEM.DIHEDRAL>
0

>  <SCORE.SYSTEM.SOLV>
0

>  <SCORE.SYSTEM.norm>
0

>  <SCORE.heavy>
31

>  <SCORE.norm>
-0.395866

>  <RMSD>
6.632

$$$$
2o3x_lig
 OpenBabel11021811463D
libRbt.so/2013.1/901 2013/11/27
 31 33  0  0  0  0  0  0  0  0999 V2000
   22.3852    7.3108   10.4425 C   0  0  2  0  0  0  0  0  0  0  0  0
   23.2091    6.3253    9.8059 O   0  0  0  0  0  0  0  0  0  0  0  0
   24.3646    5.7745    5.7243 C   0  0  2  0  0  0  0  0  0  0  0  0
   24.3485    5.6242    4.2523 N   0  0  0  0  0  0  0  0  0  0  0  0
   21.4769    8.5813    7.2296 C   0  0  1  0  0  0  0  0  0  0  0  0
   22.9306    7.5509   11.8859 C   0  0  2  0  0  0  0  0  0  0  0  0
   24.4009    7.7603   11.9007 N   0  0  0  0  0  0  0  0  0  0  0  0
   23.6480    4.5844    6.4451 C   0  0  0  0  0  0  0  0  0  0  0  0
   20.4033    7.5590    7.7281 C   0  0  2  0  0  0  0  0  0  0  0  0
   20.4081    6.2600    7.0748 O   0  0  0  0  0  0  0  0  0  0  0  0
   22.6084    6.3683   12.8188 C   0  0  1  0  0  0  0  0  0  0  0  0
   23.0633    6.6282   14.1226 O   0  0  0  0  0  0  0  0  0  0  0  0
   23.7445    4.8197    7.9968 C   0  0  2  0  0  0  0  0  0  0  0  0
   23.0972    3.7120    8.7618 N   0  0  0  0  0  0  0  0  0  0  0  0
   19.1670    8.4145    7.5076 C   0  0  2  0  0  0  0  0  0  0  0  0
   18.7677    8.4122    6.0939 O   0  0  0  0  0  0  0  0  0  0  0  0
   21.1114    6.1085   12.8186 C   0  0  2  0  0  0  0  0  0  0  0  0
   20.8153    5.0555   13.6784 O   0  0  0  0  0  0  0  0  0  0  0  0
   23.0559    6.1580    8.3892 C   0  0  2  0  0  0  0  0  0  0  0  0
   19.5855    9.8106    7.9535 C   0  0  2  0  0  0  0  0  0  0  0  0
   20.8990    9.8806    7.4055 O   0  0  0  0  0  0  0  0  0  0  0  0
   20.6310    5.7769   11.3774 C   0  0  2  0  0  0  0  0  0  0  0  0
   20.9578    6.8703   10.4928 O   0  0  0  0  0  0  0  0  0  0  0  0
   23.6364    7.3811    7.6521 C   0  0  2  0  0  0  0  0  0  0  0  0
   22.7136    8.4864    7.9533 O   0  0  0  0  0  0  0  0  0  0  0  0
   19.6228   10.0244    9.5047 C   0  0  0  0  0  0  0  0  0  0  0  0
   19.8969   11.3901    9.8040 N   0  0  0  0  0  0  0  0  0  0  0  0
   19.1425    5.5265   11.3074 C   0  0  0  0  0  0  0  0  0  0  0  0
   18.7396    5.2167   10.0231 O   0  0  0  0  0  0  0  0  0  0  0  0
   23.6855    7.1083    6.0840 C   0  0  1  0  0  0  0  0  0  0  0  0
   24.4190    8.1330    5.3961 O   0  0  0  0  0  0  0  0  0  0  0  0
  1  2  1  1  0  0  0
  1  6  1  0  0  0  0
  1 23  1  0  0  0  0
  3  4  1  6  0  0  0
  3  8  1  0  0  0  0
  3 30  1  0  0  0  0
  5  9  1  0  0  0  0
  5 21  1  0  0  0  0
  5 25  1  1  0  0  0
  6  7  1  6  0  0  0
  6 11  1  0  0  0  0
  8 13  1  0  0  0  0
  9 10  1  6  0  0  0
  9 15  1  0  0  0  0
 11 12  1  1  0  0  0
 11 17  1  0  0  0  0
 13 14  1  1  0  0  0
 13 19  1  0  0  0  0
 15 16  1  6  0  0  0
 15 20  1  0  0  0  0
 17 18  1  1  0  0  0
 17 22  1  0  0  0  0
 19  2  1  1  0  0  0
 19 24  1  0  0  0  0
 20 21  1  0  0  0  0
 20 26  1  1  0  0  0
 22 23  1  0  0  0  0
 22 28  1  1  0  0  0
 24 25  1  6  0  0  0
 24 30  1  0  0  0  0
 26 27  1  0  0  0  0
 28 29  1  0  0  0  0
 30 31  1  6  0  0  0
M  END
>  <CHROM.1>
-167.42143292,76.80670448,-165.23549650,-174.34698747,-179.20612485,-79.16757993
21.80979260,7.05537633,9.03020733,-1.82220230,0.69267770,-1.27821636

>  <Name>
2o3x_lig

>  <RI>
0

>  <Rbt.Current_Directory>
/home/itssahil/PROJECTS/Mol_Feturizer/New_Systems/rnas/2o3x

>  <Rbt.Executable>
rbdock ($Id: //depot/dev/client3/rdock/2013.1/src/exe/rbdock.cxx#4 $)

>  <Rbt.Library>
libRbt.so (2013.1, Build901 2013/11/27)

>  <Rbt.Parameter_File>
/export/apps/rDock/src/rDock_2013.1_src/data/scripts/dock_solv.prm

>  <Rbt.Receptor>
prm/pocket_docking_5.prm

>  <SCORE>
-11.6806

>  <SCORE.INTER>
-8.89084

>  <SCORE.INTER.CONST>
1

>  <SCORE.INTER.POLAR>
-0.988559

>  <SCORE.INTER.ROT>
6

>  <SCORE.INTER.SOLV>
20.0409

>  <SCORE.INTER.VDW>
-16.9123

>  <SCORE.INTER.norm>
-0.286801

>  <SCORE.INTRA>
-2.80833

>  <SCORE.INTRA.DIHEDRAL>
-4.36262

>  <SCORE.INTRA.DIHEDRAL.0>
9.37739

>  <SCORE.INTRA.POLAR>
0

>  <SCORE.INTRA.POLAR.0>
0

>  <SCORE.INTRA.REPUL>
0

>  <SCORE.INTRA.REPUL.0>
0

>  <SCORE.INTRA.SOLV>
-1.17407

>  <SCORE.INTRA.SOLV.lig_0>
-82.9274

>  <SCORE.INTRA.VDW>
-0.039986

>  <SCORE.INTRA.VDW.0>
-3.84922

>  <SCORE.INTRA.norm>
-0.0905914

>  <SCORE.RESTR>
0.0186202

>  <SCORE.RESTR.CAVITY>
0.0186202

>  <SCORE.RESTR.norm>
0.000600651

>  <SCORE.SYSTEM>
0

>  <SCORE.SYSTEM.CONST>
0

>  <SCORE.SYSTEM.DIHEDRAL>
0

>  <SCORE.SYSTEM.SOLV>
0

>  <SCORE.SYSTEM.norm>
0

>  <SCORE.heavy>
31

>  <SCORE.norm>
-0.376792

>  <RMSD>
6.643

$$$$
2o3x_lig
 OpenBabel11021811463D
libRbt.so/2013.1/901 2013/11/27
 31 33  0  0  0  0  0  0  0  0999 V2000
   21.2044    4.2297    5.6725 C   0  0  2  0  0  0  0  0  0  0  0  0
   20.4877    4.5595    6.8696 O   0  0  0  0  0  0  0  0  0  0  0  0
   20.8859    7.1627   10.2404 C   0  0  2  0  0  0  0  0  0  0  0  0
   21.4027    8.1304   11.2334 N   0  0  0  0  0  0  0  0  0  0  0  0
   20.4997    8.7446    6.0390 C   0  0  1  0  0  0  0  0  0  0  0  0
   20.2393    3.4587    4.7172 C   0  0  2  0  0  0  0  0  0  0  0  0
   18.9282    4.1420    4.5757 N   0  0  0  0  0  0  0  0  0  0  0  0
   21.6810    5.8148   10.2634 C   0  0  0  0  0  0  0  0  0  0  0  0
   21.0663    9.1834    4.6489 C   0  0  2  0  0  0  0  0  0  0  0  0
   22.4024    9.7571    4.6572 O   0  0  0  0  0  0  0  0  0  0  0  0
   19.9775    2.0234    5.2116 C   0  0  1  0  0  0  0  0  0  0  0  0
   19.1486    1.3332    4.3112 O   0  0  0  0  0  0  0  0  0  0  0  0
   21.0407    4.8482    9.2013 C   0  0  2  0  0  0  0  0  0  0  0  0
   21.7339    3.5254    9.1738 N   0  0  0  0  0  0  0  0  0  0  0  0
   19.9398   10.1166    4.2377 C   0  0  2  0  0  0  0  0  0  0  0  0
   20.0672   11.4223    4.8986 O   0  0  0  0  0  0  0  0  0  0  0  0
   21.2983    1.2930    5.3872 C   0  0  2  0  0  0  0  0  0  0  0  0
   21.0633   -0.0109    5.8117 O   0  0  0  0  0  0  0  0  0  0  0  0
   21.1157    5.4740    7.7793 C   0  0  2  0  0  0  0  0  0  0  0  0
   18.6703    9.4011    4.6845 C   0  0  2  0  0  0  0  0  0  0  0  0
   19.0786    8.9084    5.9576 O   0  0  0  0  0  0  0  0  0  0  0  0
   22.1855    2.0430    6.4206 C   0  0  2  0  0  0  0  0  0  0  0  0
   22.4089    3.3985    5.9761 O   0  0  0  0  0  0  0  0  0  0  0  0
   20.4375    6.8550    7.6846 C   0  0  2  0  0  0  0  0  0  0  0  0
   20.8242    7.3850    6.3680 O   0  0  0  0  0  0  0  0  0  0  0  0
   18.2155    8.2236    3.7571 C   0  0  0  0  0  0  0  0  0  0  0  0
   16.9801    7.6855    4.2198 N   0  0  0  0  0  0  0  0  0  0  0  0
   23.5250    1.3743    6.6257 C   0  0  0  0  0  0  0  0  0  0  0  0
   24.2526    1.9909    7.6249 O   0  0  0  0  0  0  0  0  0  0  0  0
   20.9640    7.8092    8.8456 C   0  0  1  0  0  0  0  0  0  0  0  0
   20.1957    9.0199    8.9184 O   0  0  0  0  0  0  0  0  0  0  0  0
  1  2  1  1  0  0  0
  1  6  1  0  0  0  0
  1 23  1  0  0  0  0
  3  4  1  1  0  0  0
  3  8  1  0  0  0  0
  3 30  1  0  0  0  0
  5  9  1  0  0  0  0
  5 21  1  0  0  0  0
  5 25  1  6  0  0  0
  6  7  1  1  0  0  0
  6 11  1  0  0  0  0
  8 13  1  0  0  0  0
  9 10  1  1  0  0  0
  9 15  1  0  0  0  0
 11 12  1  6  0  0  0
 11 17  1  0  0  0  0
 13 14  1  6  0  0  0
 13 19  1  0  0  0  0
 15 16  1  1  0  0  0
 15 20  1  0  0  0  0
 17 18  1  1  0  0  0
 17 22  1  0  0  0  0
 19  2  1  6  0  0  0
 19 24  1  0  0  0  0
 20 21  1  0  0  0  0
 20 26  1  6  0  0  0
 22 23  1  0  0  0  0
 22 28  1  6  0  0  0
 24 25  1  6  0  0  0
 24 30  1  0  0  0  0
 26 27  1  0  0  0  0
 28 29  1  0  0  0  0
 30 31  1  1  0  0  0
M  END
>  <CHROM.1>
-169.18709961,175.93334885,-131.05231164,-176.32224598,-175.05269532,-171.70388305
20.72094487,5.77978314,6.50055337,1.05932140,1.10966303,-2.73835508

>  <Name>
2o3x_lig

>  <RI>
0

>  <Rbt.Current_Directory>
/home/itssahil/PROJECTS/Mol_Feturizer/New_Systems/rnas/2o3x

>  <Rbt.Executable>
rbdock ($Id: //depot/dev/client3/rdock/2013.1/src/exe/rbdock.cxx#4 $)

>  <Rbt.Library>
libRbt.so (2013.1, Build901 2013/11/27)

>  <Rbt.Parameter_File>
/export/apps/rDock/src/rDock_2013.1_src/data/scripts/dock_solv.prm

>  <Rbt.Receptor>
prm/pocket_docking_8.prm

>  <SCORE>
-11.6838

>  <SCORE.INTER>
-11.5942

>  <SCORE.INTER.CONST>
1

>  <SCORE.INTER.POLAR>
-2.02657

>  <SCORE.INTER.ROT>
6

>  <SCORE.INTER.SOLV>
12.7437

>  <SCORE.INTER.VDW>
-12.8221

>  <SCORE.INTER.norm>
-0.374005

>  <SCORE.INTRA>
-0.0895897

>  <SCORE.INTRA.DIHEDRAL>
-1.55724

>  <SCORE.INTRA.DIHEDRAL.0>
9.37739

>  <SCORE.INTRA.POLAR>
0

>  <SCORE.INTRA.POLAR.0>
0

>  <SCORE.INTRA.REPUL>
0

>  <SCORE.INTRA.REPUL.0>
0

>  <SCORE.INTRA.SOLV>
0.444838

>  <SCORE.INTRA.SOLV.lig_0>
-82.9274

>  <SCORE.INTRA.VDW>
0.466611

>  <SCORE.INTRA.VDW.0>
-3.84922

>  <SCORE.INTRA.norm>
-0.00288999

>  <SCORE.RESTR>
0

>  <SCORE.RESTR.CAVITY>
0

>  <SCORE.RESTR.norm>
0

>  <SCORE.SYSTEM>
0

>  <SCORE.SYSTEM.CONST>
0

>  <SCORE.SYSTEM.DIHEDRAL>
0

>  <SCORE.SYSTEM.SOLV>
0

>  <SCORE.SYSTEM.norm>
0

>  <SCORE.heavy>
31

>  <SCORE.norm>
-0.376895

>  <RMSD>
6.647

$$$$
2o3x_lig
 OpenBabel11021811463D
libRbt.so/2013.1/901 2013/11/27
 31 33  0  0  0  0  0  0  0  0999 V2000
   17.3682    6.3801    8.0823 C   0  0  2  0  0  0  0  0  0  0  0  0
   17.7787    6.2462    6.7151 O   0  0  0  0  0  0  0  0  0  0  0  0
   18.9419    9.1770    3.8247 C   0  0  2  0  0  0  0  0  0  0  0  0
   18.9758   10.3620    2.9391 N   0  0  0  0  0  0  0  0  0  0  0  0
   19.0484    9.8416    8.3949 C   0  0  1  0  0  0  0  0  0  0  0  0
   17.6307    5.0239    8.8104 C   0  0  2  0  0  0  0  0  0  0  0  0
   18.9944    4.5001    8.5430 N   0  0  0  0  0  0  0  0  0  0  0  0
   17.7978    8.1832    3.4340 C   0  0  0  0  0  0  0  0  0  0  0  0
   18.2422   10.6449    9.4677 C   0  0  2  0  0  0  0  0  0  0  0  0
   17.6913   11.9175    9.0303 O   0  0  0  0  0  0  0  0  0  0  0  0
   16.6148    3.9461    8.3872 C   0  0  1  0  0  0  0  0  0  0  0  0
   16.8385    2.7512    9.0918 O   0  0  0  0  0  0  0  0  0  0  0  0
   17.8636    6.9505    4.4080 C   0  0  2  0  0  0  0  0  0  0  0  0
   16.8104    5.9407    4.0882 N   0  0  0  0  0  0  0  0  0  0  0  0
   19.3149   10.7138   10.5417 C   0  0  2  0  0  0  0  0  0  0  0  0
   20.2983   11.7625   10.2403 O   0  0  0  0  0  0  0  0  0  0  0  0
   15.2020    4.4506    8.6284 C   0  0  2  0  0  0  0  0  0  0  0  0
   14.2831    3.4699    8.2683 O   0  0  0  0  0  0  0  0  0  0  0  0
   17.6751    7.4097    5.8821 C   0  0  2  0  0  0  0  0  0  0  0  0
   19.9644    9.3350   10.5201 C   0  0  2  0  0  0  0  0  0  0  0  0
   20.0393    9.1000    9.1167 O   0  0  0  0  0  0  0  0  0  0  0  0
   14.9544    5.7469    7.8064 C   0  0  2  0  0  0  0  0  0  0  0  0
   15.9234    6.7506    8.1783 O   0  0  0  0  0  0  0  0  0  0  0  0
   18.7054    8.4660    6.3279 C   0  0  2  0  0  0  0  0  0  0  0  0
   18.2218    8.9509    7.6298 O   0  0  0  0  0  0  0  0  0  0  0  0
   19.1393    8.2058   11.2254 C   0  0  0  0  0  0  0  0  0  0  0  0
   19.9345    7.0316   11.3622 N   0  0  0  0  0  0  0  0  0  0  0  0
   13.5685    6.3104    8.0190 C   0  0  0  0  0  0  0  0  0  0  0  0
   13.3252    6.5700    9.3537 O   0  0  0  0  0  0  0  0  0  0  0  0
   18.7629    9.6595    5.2754 C   0  0  1  0  0  0  0  0  0  0  0  0
   19.8612   10.5441    5.5450 O   0  0  0  0  0  0  0  0  0  0  0  0
  1  2  1  6  0  0  0
  1  6  1  0  0  0  0
  1 23  1  0  0  0  0
  3  4  1  6  0  0  0
  3  8  1  0  0  0  0
  3 30  1  0  0  0  0
  5  9  1  0  0  0  0
  5 21  1  0  0  0  0
  5 25  1  1  0  0  0
  6  7  1  6  0  0  0
  6 11  1  0  0  0  0
  8 13  1  0  0  0  0
  9 10  1  6  0  0  0
  9 15  1  0  0  0  0
 11 12  1  1  0  0  0
 11 17  1  0  0  0  0
 13 14  1  6  0  0  0
 13 19  1  0  0  0  0
 15 16  1  6  0  0  0
 15 20  1  0  0  0  0
 17 18  1  6  0  0  0
 17 22  1  0  0  0  0
 19  2  1  1  0  0  0
 19 24  1  0  0  0  0
 20 21  1  0  0  0  0
 20 26  1  1  0  0  0
 22 23  1  0  0  0  0
 22 28  1  1  0  0  0
 24 25  1  1  0  0  0
 24 30  1  0  0  0  0
 26 27  1  0  0  0  0
 28 29  1  0  0  0  0
 30 31  1  1  0  0  0
M  END
>  <CHROM.1>
-177.28223834,160.11022877,-167.55322458,-169.42447058,57.09906406,172.79697084
17.71594812,7.62992477,7.74504758,-2.98323252,-0.98514803,-1.45141443

>  <Name>
2o3x_lig

>  <RI>
2.78316e+07

>  <Rbt.Current_Directory>
/home/itssahil/PROJECTS/Mol_Feturizer/New_Systems/rnas/2o3x

>  <Rbt.Executable>
rbdock ($Id: //depot/dev/client3/rdock/2013.1/src/exe/rbdock.cxx#4 $)

>  <Rbt.Library>
libRbt.so (2013.1, Build901 2013/11/27)

>  <Rbt.Parameter_File>
/export/apps/rDock/src/rDock_2013.1_src/data/scripts/dock_solv.prm

>  <Rbt.Receptor>
prm/pocket_docking_7.prm

>  <SCORE>
-12.0851

>  <SCORE.INTER>
-9.08857

>  <SCORE.INTER.CONST>
1

>  <SCORE.INTER.POLAR>
-1.83672

>  <SCORE.INTER.ROT>
6

>  <SCORE.INTER.SOLV>
12.8468

>  <SCORE.INTER.VDW>
-11.8189

>  <SCORE.INTER.norm>
-0.29318

>  <SCORE.INTRA>
-2.99657

>  <SCORE.INTRA.DIHEDRAL>
-6.01267

>  <SCORE.INTRA.DIHEDRAL.0>
9.37739

>  <SCORE.INTRA.POLAR>
0

>  <SCORE.INTRA.POLAR.0>
0

>  <SCORE.INTRA.REPUL>
0

>  <SCORE.INTRA.REPUL.0>
0

>  <SCORE.INTRA.SOLV>
-1.62199

>  <SCORE.INTRA.SOLV.lig_0>
-82.9274

>  <SCORE.INTRA.VDW>
0.820759

>  <SCORE.INTRA.VDW.0>
-3.84922

>  <SCORE.INTRA.norm>
-0.0966635

>  <SCORE.RESTR>
0

>  <SCORE.RESTR.CAVITY>
0

>  <SCORE.RESTR.norm>
0

>  <SCORE.SYSTEM>
0

>  <SCORE.SYSTEM.CONST>
0

>  <SCORE.SYSTEM.DIHEDRAL>
0

>  <SCORE.SYSTEM.SOLV>
0

>  <SCORE.SYSTEM.norm>
0

>  <SCORE.heavy>
31

>  <SCORE.norm>
-0.389843

>  <RMSD>
6.653

$$$$
2o3x_lig
 OpenBabel11021811463D
libRbt.so/2013.1/901 2013/11/27
 31 33  0  0  0  0  0  0  0  0999 V2000
   23.5819    7.0243    9.5539 C   0  0  2  0  0  0  0  0  0  0  0  0
   23.0091    8.2075    8.9817 O   0  0  0  0  0  0  0  0  0  0  0  0
   20.7725    8.7696    5.3790 C   0  0  2  0  0  0  0  0  0  0  0  0
   19.7323    8.7020    4.3288 N   0  0  0  0  0  0  0  0  0  0  0  0
   19.3131   10.3769    9.2734 C   0  0  1  0  0  0  0  0  0  0  0  0
   22.4830    6.3031   10.3969 C   0  0  2  0  0  0  0  0  0  0  0  0
   21.2060    6.1657    9.6511 N   0  0  0  0  0  0  0  0  0  0  0  0
   21.4952    7.3961    5.5806 C   0  0  0  0  0  0  0  0  0  0  0  0
   18.3802   10.0857   10.4945 C   0  0  2  0  0  0  0  0  0  0  0  0
   17.2778    9.1695   10.2504 O   0  0  0  0  0  0  0  0  0  0  0  0
   22.1896    7.0544   11.7093 C   0  0  1  0  0  0  0  0  0  0  0  0
   21.2361    6.3613   12.4739 O   0  0  0  0  0  0  0  0  0  0  0  0
   22.5961    7.5778    6.6884 C   0  0  2  0  0  0  0  0  0  0  0  0
   23.3487    6.3101    6.9284 N   0  0  0  0  0  0  0  0  0  0  0  0
   17.9987   11.5188   10.8255 C   0  0  2  0  0  0  0  0  0  0  0  0
   16.9523   12.0101    9.9192 O   0  0  0  0  0  0  0  0  0  0  0  0
   23.4769    7.2324   12.4966 C   0  0  2  0  0  0  0  0  0  0  0  0
   23.2108    7.8905   13.6932 O   0  0  0  0  0  0  0  0  0  0  0  0
   21.9507    8.0295    8.0296 C   0  0  2  0  0  0  0  0  0  0  0  0
   19.2903   12.3079   10.6457 C   0  0  2  0  0  0  0  0  0  0  0  0
   19.8011   11.7115    9.4566 O   0  0  0  0  0  0  0  0  0  0  0  0
   24.5051    8.0408   11.6558 C   0  0  2  0  0  0  0  0  0  0  0  0
   24.7608    7.3554   10.4110 O   0  0  0  0  0  0  0  0  0  0  0  0
   21.1343    9.3312    7.9052 C   0  0  2  0  0  0  0  0  0  0  0  0
   20.4108    9.4558    9.1799 O   0  0  0  0  0  0  0  0  0  0  0  0
   20.3183   12.1673   11.8190 C   0  0  0  0  0  0  0  0  0  0  0  0
   21.0819   13.3633   11.9465 N   0  0  0  0  0  0  0  0  0  0  0  0
   25.8175    8.2356   12.3790 C   0  0  0  0  0  0  0  0  0  0  0  0
   25.6552    8.9723   13.5361 O   0  0  0  0  0  0  0  0  0  0  0  0
   20.1093    9.2259    6.6911 C   0  0  1  0  0  0  0  0  0  0  0  0
   19.4938   10.4928    6.4130 O   0  0  0  0  0  0  0  0  0  0  0  0
  1  2  1  1  0  0  0
  1  6  1  0  0  0  0
  1 23  1  0  0  0  0
  3  4  1  6  0  0  0
  3  8  1  0  0  0  0
  3 30  1  0  0  0  0
  5  9  1  0  0  0  0
  5 21  1  0  0  0  0
  5 25  1  1  0  0  0
  6  7  1  6  0  0  0
  6 11  1  0  0  0  0
  8 13  1  0  0  0  0
  9 10  1  6  0  0  0
  9 15  1  0  0  0  0
 11 12  1  1  0  0  0
 11 17  1  0  0  0  0
 13 14  1  1  0  0  0
 13 19  1  0  0  0  0
 15 16  1  6  0  0  0
 15 20  1  0  0  0  0
 17 18  1  1  0  0  0
 17 22  1  0  0  0  0
 19  2  1  1  0  0  0
 19 24  1  0  0  0  0
 20 21  1  0  0  0  0
 20 26  1  1  0  0  0
 22 23  1  0  0  0  0
 22 28  1  1  0  0  0
 24 25  1  1  0  0  0
 24 30  1  0  0  0  0
 26 27  1  0  0  0  0
 28 29  1  0  0  0  0
 30 31  1  6  0  0  0
M  END
>  <CHROM.1>
-64.57353097,161.92363351,-76.38972913,-149.45072898,-62.70226875,-164.82576044
21.36853097,8.94585539,9.67841420,-0.32561052,0.67357950,-1.94558293

>  <Name>
2o3x_lig

>  <RI>
3.34184e+07

>  <Rbt.Current_Directory>
/home/itssahil/PROJECTS/Mol_Feturizer/New_Systems/rnas/2o3x

>  <Rbt.Executable>
rbdock ($Id: //depot/dev/client3/rdock/2013.1/src/exe/rbdock.cxx#4 $)

>  <Rbt.Library>
libRbt.so (2013.1, Build901 2013/11/27)

>  <Rbt.Parameter_File>
/export/apps/rDock/src/rDock_2013.1_src/data/scripts/dock_solv.prm

>  <Rbt.Receptor>
prm/pocket_docking_6.prm

>  <SCORE>
-15.2944

>  <SCORE.INTER>
-18.5863

>  <SCORE.INTER.CONST>
1

>  <SCORE.INTER.POLAR>
-1.28859

>  <SCORE.INTER.ROT>
6

>  <SCORE.INTER.SOLV>
15.4765

>  <SCORE.INTER.VDW>
-20.8544

>  <SCORE.INTER.norm>
-0.599558

>  <SCORE.INTRA>
3.19173

>  <SCORE.INTRA.DIHEDRAL>
-2.7087

>  <SCORE.INTRA.DIHEDRAL.0>
9.37739

>  <SCORE.INTRA.POLAR>
0

>  <SCORE.INTRA.POLAR.0>
0

>  <SCORE.INTRA.REPUL>
0

>  <SCORE.INTRA.REPUL.0>
0

>  <SCORE.INTRA.SOLV>
1.91711

>  <SCORE.INTRA.SOLV.lig_0>
-82.9274

>  <SCORE.INTRA.VDW>
3.58752

>  <SCORE.INTRA.VDW.0>
-3.84922

>  <SCORE.INTRA.norm>
0.102959

>  <SCORE.RESTR>
0.100161

>  <SCORE.RESTR.CAVITY>
0.100161

>  <SCORE.RESTR.norm>
0.00323101

>  <SCORE.SYSTEM>
0

>  <SCORE.SYSTEM.CONST>
0

>  <SCORE.SYSTEM.DIHEDRAL>
0

>  <SCORE.SYSTEM.SOLV>
0

>  <SCORE.SYSTEM.norm>
0

>  <SCORE.heavy>
31

>  <SCORE.norm>
-0.493368

>  <RMSD>
6.665

$$$$
2o3x_lig
 OpenBabel11021811463D
libRbt.so/2013.1/901 2013/11/27
 31 33  0  0  0  0  0  0  0  0999 V2000
   20.7190    7.9852    9.3302 C   0  0  2  0  0  0  0  0  0  0  0  0
   19.6615    7.7854    8.3829 O   0  0  0  0  0  0  0  0  0  0  0  0
   18.7171    8.8485    4.3486 C   0  0  2  0  0  0  0  0  0  0  0  0
   18.8027    9.3062    2.9441 N   0  0  0  0  0  0  0  0  0  0  0  0
   22.1727    6.6702    5.6618 C   0  0  1  0  0  0  0  0  0  0  0  0
   20.5017    7.0037   10.5251 C   0  0  2  0  0  0  0  0  0  0  0  0
   20.2319    5.6167   10.0679 N   0  0  0  0  0  0  0  0  0  0  0  0
   18.9876   10.0091    5.3631 C   0  0  0  0  0  0  0  0  0  0  0  0
   22.7333    8.0125    6.2365 C   0  0  2  0  0  0  0  0  0  0  0  0
   22.3135    9.2242    5.5511 O   0  0  0  0  0  0  0  0  0  0  0  0
   19.3280    7.4476   11.4186 C   0  0  1  0  0  0  0  0  0  0  0  0
   19.1838    6.5793   12.5138 O   0  0  0  0  0  0  0  0  0  0  0  0
   18.8447    9.4326    6.8190 C   0  0  2  0  0  0  0  0  0  0  0  0
   19.0703   10.4874    7.8523 N   0  0  0  0  0  0  0  0  0  0  0  0
   24.2143    7.6808    6.1629 C   0  0  2  0  0  0  0  0  0  0  0  0
   24.7263    7.8482    4.7963 O   0  0  0  0  0  0  0  0  0  0  0  0
   19.5567    8.8723   11.8946 C   0  0  2  0  0  0  0  0  0  0  0  0
   18.5091    9.2675   12.7205 O   0  0  0  0  0  0  0  0  0  0  0  0
   19.8681    8.2852    7.0540 C   0  0  2  0  0  0  0  0  0  0  0  0
   24.3006    6.2239    6.6026 C   0  0  2  0  0  0  0  0  0  0  0  0
   23.1702    5.6770    5.9291 O   0  0  0  0  0  0  0  0  0  0  0  0
   19.6679    9.8280   10.6731 C   0  0  2  0  0  0  0  0  0  0  0  0
   20.7481    9.3982    9.8167 O   0  0  0  0  0  0  0  0  0  0  0  0
   19.7383    7.1347    6.0362 C   0  0  2  0  0  0  0  0  0  0  0  0
   20.9221    6.2898    6.2564 O   0  0  0  0  0  0  0  0  0  0  0  0
   24.1872    5.9932    8.1477 C   0  0  0  0  0  0  0  0  0  0  0  0
   24.3011    4.6045    8.4447 N   0  0  0  0  0  0  0  0  0  0  0  0
   19.9156   11.2616   11.0814 C   0  0  0  0  0  0  0  0  0  0  0  0
   20.1383   12.0708    9.9843 O   0  0  0  0  0  0  0  0  0  0  0  0
   19.7327    7.7096    4.5512 C   0  0  1  0  0  0  0  0  0  0  0  0
   19.3943    6.6924    3.5963 O   0  0  0  0  0  0  0  0  0  0  0  0
  1  2  1  6  0  0  0
  1  6  1  0  0  0  0
  1 23  1  0  0  0  0
  3  4  1  6  0  0  0
  3  8  1  0  0  0  0
  3 30  1  0  0  0  0
  5  9  1  0  0  0  0
  5 21  1  0  0  0  0
  5 25  1  1  0  0  0
  6  7  1  6  0  0  0
  6 11  1  0  0  0  0
  8 13  1  0  0  0  0
  9 10  1  6  0  0  0
  9 15  1  0  0  0  0
 11 12  1  1  0  0  0
 11 17  1  0  0  0  0
 13 14  1  1  0  0  0
 13 19  1  0  0  0  0
 15 16  1  6  0  0  0
 15 20  1  0  0  0  0
 17 18  1  1  0  0  0
 17 22  1  0  0  0  0
 19  2  1  1  0  0  0
 19 24  1  0  0  0  0
 20 21  1  0  0  0  0
 20 26  1  1  0  0  0
 22 23  1  0  0  0  0
 22 28  1  1  0  0  0
 24 25  1  6  0  0  0
 24 30  1  0  0  0  0
 26 27  1  0  0  0  0
 28 29  1  0  0  0  0
 30 31  1  6  0  0  0
M  END
>  <CHROM.1>
-162.19907141,65.18504428,-113.95537217,-179.09714631,174.23171904,-81.45569864
20.79193665,8.04549863,7.77831037,-2.05870319,0.69922076,-1.50484902

>  <Name>
2o3x_lig

>  <RI>
3.34184e+07

>  <Rbt.Current_Directory>
/home/itssahil/PROJECTS/Mol_Feturizer/New_Systems/rnas/2o3x

>  <Rbt.Executable>
rbdock ($Id: //depot/dev/client3/rdock/2013.1/src/exe/rbdock.cxx#4 $)

>  <Rbt.Library>
libRbt.so (2013.1, Build901 2013/11/27)

>  <Rbt.Parameter_File>
/export/apps/rDock/src/rDock_2013.1_src/data/scripts/dock_solv.prm

>  <Rbt.Receptor>
prm/pocket_docking_6.prm

>  <SCORE>
-7.70149

>  <SCORE.INTER>
-9.70382

>  <SCORE.INTER.CONST>
1

>  <SCORE.INTER.POLAR>
-1.7075

>  <SCORE.INTER.ROT>
6

>  <SCORE.INTER.SOLV>
13.3622

>  <SCORE.INTER.VDW>
-12.8316

>  <SCORE.INTER.norm>
-0.313027

>  <SCORE.INTRA>
2.00234

>  <SCORE.INTRA.DIHEDRAL>
1.48027

>  <SCORE.INTRA.DIHEDRAL.0>
9.37739

>  <SCORE.INTRA.POLAR>
0

>  <SCORE.INTRA.POLAR.0>
0

>  <SCORE.INTRA.REPUL>
0

>  <SCORE.INTRA.REPUL.0>
0

>  <SCORE.INTRA.SOLV>
2.24369

>  <SCORE.INTRA.SOLV.lig_0>
-82.9274

>  <SCORE.INTRA.VDW>
0.14036

>  <SCORE.INTRA.VDW.0>
-3.84922

>  <SCORE.INTRA.norm>
0.0645915

>  <SCORE.RESTR>
0

>  <SCORE.RESTR.CAVITY>
0

>  <SCORE.RESTR.norm>
0

>  <SCORE.SYSTEM>
0

>  <SCORE.SYSTEM.CONST>
0

>  <SCORE.SYSTEM.DIHEDRAL>
0

>  <SCORE.SYSTEM.SOLV>
0

>  <SCORE.SYSTEM.norm>
0

>  <SCORE.heavy>
31

>  <SCORE.norm>
-0.248435

>  <RMSD>
6.677

$$$$
2o3x_lig
 OpenBabel11021811463D
libRbt.so/2013.1/901 2013/11/27
 31 33  0  0  0  0  0  0  0  0999 V2000
   18.6630   11.0491    9.8427 C   0  0  2  0  0  0  0  0  0  0  0  0
   19.7241   10.6285    8.9751 O   0  0  0  0  0  0  0  0  0  0  0  0
   19.8575    8.3463    5.3596 C   0  0  2  0  0  0  0  0  0  0  0  0
   19.6257    7.3194    4.3198 N   0  0  0  0  0  0  0  0  0  0  0  0
   16.3154    9.3519    7.5382 C   0  0  1  0  0  0  0  0  0  0  0  0
   19.2077   12.1759   10.7764 C   0  0  2  0  0  0  0  0  0  0  0  0
   19.9428   13.2220   10.0208 N   0  0  0  0  0  0  0  0  0  0  0  0
   20.5736    7.7563    6.6199 C   0  0  0  0  0  0  0  0  0  0  0  0
   16.6755    8.2965    8.6347 C   0  0  2  0  0  0  0  0  0  0  0  0
   17.4789    7.1676    8.1936 O   0  0  0  0  0  0  0  0  0  0  0  0
   20.1538   11.6129   11.8538 C   0  0  1  0  0  0  0  0  0  0  0  0
   20.5908   12.6359   12.7123 O   0  0  0  0  0  0  0  0  0  0  0  0
   20.8012    8.9242    7.6479 C   0  0  2  0  0  0  0  0  0  0  0  0
   21.5006    8.4452    8.8777 N   0  0  0  0  0  0  0  0  0  0  0  0
   15.2654    7.9734    9.0995 C   0  0  2  0  0  0  0  0  0  0  0  0
   14.6034    7.0448    8.1737 O   0  0  0  0  0  0  0  0  0  0  0  0
   19.4442   10.5238   12.6405 C   0  0  2  0  0  0  0  0  0  0  0  0
   20.2891   10.0296   13.6293 O   0  0  0  0  0  0  0  0  0  0  0  0
   19.4422    9.5540    8.0671 C   0  0  2  0  0  0  0  0  0  0  0  0
   14.5537    9.3210    9.1217 C   0  0  2  0  0  0  0  0  0  0  0  0
   15.0472    9.9006    7.9173 O   0  0  0  0  0  0  0  0  0  0  0  0
   19.0080    9.3779   11.6844 C   0  0  2  0  0  0  0  0  0  0  0  0
   18.1446    9.9064   10.6547 O   0  0  0  0  0  0  0  0  0  0  0  0
   18.6200   10.0795    6.8737 C   0  0  2  0  0  0  0  0  0  0  0  0
   17.2948   10.3963    7.4282 O   0  0  0  0  0  0  0  0  0  0  0  0
   14.8968   10.2282   10.3516 C   0  0  0  0  0  0  0  0  0  0  0  0
   14.3936    9.6410   11.5483 N   0  0  0  0  0  0  0  0  0  0  0  0
   18.2775    8.2693   12.4061 C   0  0  0  0  0  0  0  0  0  0  0  0
   17.9734    7.2240   11.5560 O   0  0  0  0  0  0  0  0  0  0  0  0
   18.4999    8.9579    5.7497 C   0  0  1  0  0  0  0  0  0  0  0  0
   17.9325    9.4854    4.5410 O   0  0  0  0  0  0  0  0  0  0  0  0
  1  2  1  6  0  0  0
  1  6  1  0  0  0  0
  1 23  1  0  0  0  0
  3  4  1  6  0  0  0
  3  8  1  0  0  0  0
  3 30  1  0  0  0  0
  5  9  1  0  0  0  0
  5 21  1  0  0  0  0
  5 25  1  1  0  0  0
  6  7  1  6  0  0  0
  6 11  1  0  0  0  0
  8 13  1  0  0  0  0
  9 10  1  6  0  0  0
  9 15  1  0  0  0  0
 11 12  1  1  0  0  0
 11 17  1  0  0  0  0
 13 14  1  1  0  0  0
 13 19  1  0  0  0  0
 15 16  1  6  0  0  0
 15 20  1  0  0  0  0
 17 18  1  1  0  0  0
 17 22  1  0  0  0  0
 19  2  1  1  0  0  0
 19 24  1  0  0  0  0
 20 21  1  0  0  0  0
 20 26  1  1  0  0  0
 22 23  1  0  0  0  0
 22 28  1  1  0  0  0
 24 25  1  1  0  0  0
 24 30  1  0  0  0  0
 26 27  1  0  0  0  0
 28 29  1  0  0  0  0
 30 31  1  6  0  0  0
M  END
>  <CHROM.1>
177.59825818,69.87967375,-158.79954362,-67.06880510,-176.19734423,-85.17188655
18.20189916,9.50252725,9.14106287,-1.31395576,-0.27231386,-1.89315217

>  <Name>
2o3x_lig

>  <RI>
2.78316e+07

>  <Rbt.Current_Directory>
/home/itssahil/PROJECTS/Mol_Feturizer/New_Systems/rnas/2o3x

>  <Rbt.Executable>
rbdock ($Id: //depot/dev/client3/rdock/2013.1/src/exe/rbdock.cxx#4 $)

>  <Rbt.Library>
libRbt.so (2013.1, Build901 2013/11/27)

>  <Rbt.Parameter_File>
/export/apps/rDock/src/rDock_2013.1_src/data/scripts/dock_solv.prm

>  <Rbt.Receptor>
prm/pocket_docking_7.prm

>  <SCORE>
-12.0886

>  <SCORE.INTER>
-9.2865

>  <SCORE.INTER.CONST>
1

>  <SCORE.INTER.POLAR>
-1.27205

>  <SCORE.INTER.ROT>
6

>  <SCORE.INTER.SOLV>
15.2123

>  <SCORE.INTER.VDW>
-14.6216

>  <SCORE.INTER.norm>
-0.299565

>  <SCORE.INTRA>
-2.80206

>  <SCORE.INTRA.DIHEDRAL>
-3.78234

>  <SCORE.INTRA.DIHEDRAL.0>
9.37739

>  <SCORE.INTRA.POLAR>
0

>  <SCORE.INTRA.POLAR.0>
0

>  <SCORE.INTRA.REPUL>
0

>  <SCORE.INTRA.REPUL.0>
0

>  <SCORE.INTRA.SOLV>
-0.11512

>  <SCORE.INTRA.SOLV.lig_0>
-82.9274

>  <SCORE.INTRA.VDW>
-0.85333

>  <SCORE.INTRA.VDW.0>
-3.84922

>  <SCORE.INTRA.norm>
-0.0903891

>  <SCORE.RESTR>
0

>  <SCORE.RESTR.CAVITY>
0

>  <SCORE.RESTR.norm>
0

>  <SCORE.SYSTEM>
0

>  <SCORE.SYSTEM.CONST>
0

>  <SCORE.SYSTEM.DIHEDRAL>
0

>  <SCORE.SYSTEM.SOLV>
0

>  <SCORE.SYSTEM.norm>
0

>  <SCORE.heavy>
31

>  <SCORE.norm>
-0.389954

>  <RMSD>
6.684

$$$$
2o3x_lig
 OpenBabel11021811463D
libRbt.so/2013.1/901 2013/11/27
 31 33  0  0  0  0  0  0  0  0999 V2000
   20.8688    6.9674    9.1807 C   0  0  2  0  0  0  0  0  0  0  0  0
   22.1777    7.4399    8.8359 O   0  0  0  0  0  0  0  0  0  0  0  0
   25.1206    6.8511    5.7878 C   0  0  2  0  0  0  0  0  0  0  0  0
   25.8521    6.3702    4.5949 N   0  0  0  0  0  0  0  0  0  0  0  0
   20.9764    9.4098    5.8313 C   0  0  1  0  0  0  0  0  0  0  0  0
   20.3707    7.7632   10.4285 C   0  0  2  0  0  0  0  0  0  0  0  0
   20.5611    9.2276   10.2706 N   0  0  0  0  0  0  0  0  0  0  0  0
   24.9587    5.7318    6.8696 C   0  0  0  0  0  0  0  0  0  0  0  0
   21.6077   10.0212    4.5375 C   0  0  2  0  0  0  0  0  0  0  0  0
   22.8411   10.7689    4.7220 O   0  0  0  0  0  0  0  0  0  0  0  0
   21.1013    7.3233   11.7113 C   0  0  1  0  0  0  0  0  0  0  0  0
   20.6019    8.0156   12.8274 O   0  0  0  0  0  0  0  0  0  0  0  0
   24.2004    6.3457    8.1026 C   0  0  2  0  0  0  0  0  0  0  0  0
   24.0214    5.3411    9.1934 N   0  0  0  0  0  0  0  0  0  0  0  0
   20.4052   10.8201    4.0634 C   0  0  2  0  0  0  0  0  0  0  0  0
   20.2800   12.0795    4.8089 O   0  0  0  0  0  0  0  0  0  0  0  0
   20.9460    5.8238   11.9010 C   0  0  2  0  0  0  0  0  0  0  0  0
   21.5856    5.4277   13.0714 O   0  0  0  0  0  0  0  0  0  0  0  0
   22.7980    6.8661    7.6764 C   0  0  2  0  0  0  0  0  0  0  0  0
   19.2133    9.9082    4.3295 C   0  0  2  0  0  0  0  0  0  0  0  0
   19.5613    9.3844    5.6082 O   0  0  0  0  0  0  0  0  0  0  0  0
   21.5447    5.0702   10.6799 C   0  0  2  0  0  0  0  0  0  0  0  0
   20.8833    5.5012    9.4709 O   0  0  0  0  0  0  0  0  0  0  0  0
   22.8536    7.9089    6.5425 C   0  0  2  0  0  0  0  0  0  0  0  0
   21.4578    8.0866    6.1134 O   0  0  0  0  0  0  0  0  0  0  0  0
   19.0238    8.7502    3.2920 C   0  0  0  0  0  0  0  0  0  0  0  0
   17.6366    8.4925    3.0943 N   0  0  0  0  0  0  0  0  0  0  0  0
   21.4034    3.5705   10.8001 C   0  0  0  0  0  0  0  0  0  0  0  0
   22.0032    2.9175    9.7410 O   0  0  0  0  0  0  0  0  0  0  0  0
   23.7420    7.3669    5.3373 C   0  0  1  0  0  0  0  0  0  0  0  0
   23.9930    8.3949    4.3670 O   0  0  0  0  0  0  0  0  0  0  0  0
  1  2  1  1  0  0  0
  1  6  1  0  0  0  0
  1 23  1  0  0  0  0
  3  4  1  6  0  0  0
  3  8  1  0  0  0  0
  3 30  1  0  0  0  0
  5  9  1  0  0  0  0
  5 21  1  0  0  0  0
  5 25  1  6  0  0  0
  6  7  1  6  0  0  0
  6 11  1  0  0  0  0
  8 13  1  0  0  0  0
  9 10  1  1  0  0  0
  9 15  1  0  0  0  0
 11 12  1  1  0  0  0
 11 17  1  0  0  0  0
 13 14  1  1  0  0  0
 13 19  1  0  0  0  0
 15 16  1  1  0  0  0
 15 20  1  0  0  0  0
 17 18  1  1  0  0  0
 17 22  1  0  0  0  0
 19  2  1  1  0  0  0
 19 24  1  0  0  0  0
 20 21  1  0  0  0  0
 20 26  1  6  0  0  0
 22 23  1  0  0  0  0
 22 28  1  1  0  0  0
 24 25  1  6  0  0  0
 24 30  1  0  0  0  0
 26 27  1  0  0  0  0
 28 29  1  0  0  0  0
 30 31  1  6  0  0  0
M  END
>  <CHROM.1>
-177.75834235,69.42355021,-126.88792494,-145.35574957,-176.81654838,138.17457762
21.74846806,7.55170558,7.55916459,1.46809908,-0.56774092,2.05433135

>  <Name>
2o3x_lig

>  <RI>
224

>  <Rbt.Current_Directory>
/home/itssahil/PROJECTS/Mol_Feturizer/New_Systems/rnas/2o3x

>  <Rbt.Executable>
rbdock ($Id: //depot/dev/client3/rdock/2013.1/src/exe/rbdock.cxx#4 $)

>  <Rbt.Library>
libRbt.so (2013.1, Build901 2013/11/27)

>  <Rbt.Parameter_File>
/export/apps/rDock/src/rDock_2013.1_src/data/scripts/dock_solv.prm

>  <Rbt.Receptor>
prm/blind_docking_100.prm

>  <SCORE>
-7.09891

>  <SCORE.INTER>
-12.5342

>  <SCORE.INTER.CONST>
1

>  <SCORE.INTER.POLAR>
-1.36394

>  <SCORE.INTER.ROT>
6

>  <SCORE.INTER.SOLV>
21.6567

>  <SCORE.INTER.VDW>
-18.6286

>  <SCORE.INTER.norm>
-0.404329

>  <SCORE.INTRA>
3.88215

>  <SCORE.INTRA.DIHEDRAL>
6.95687

>  <SCORE.INTRA.DIHEDRAL.0>
9.37739

>  <SCORE.INTRA.POLAR>
0

>  <SCORE.INTRA.POLAR.0>
0

>  <SCORE.INTRA.REPUL>
0

>  <SCORE.INTRA.REPUL.0>
0

>  <SCORE.INTRA.SOLV>
0.470112

>  <SCORE.INTRA.SOLV.lig_0>
-82.9274

>  <SCORE.INTRA.VDW>
0.16866

>  <SCORE.INTRA.VDW.0>
-3.84922

>  <SCORE.INTRA.norm>
0.125231

>  <SCORE.RESTR>
1.55312

>  <SCORE.RESTR.CAVITY>
1.55312

>  <SCORE.RESTR.norm>
0.0501006

>  <SCORE.SYSTEM>
0

>  <SCORE.SYSTEM.CONST>
0

>  <SCORE.SYSTEM.DIHEDRAL>
0

>  <SCORE.SYSTEM.SOLV>
0

>  <SCORE.SYSTEM.norm>
0

>  <SCORE.heavy>
31

>  <SCORE.norm>
-0.228997

>  <RMSD>
6.707

$$$$
2o3x_lig
 OpenBabel11021811463D
libRbt.so/2013.1/901 2013/11/27
 31 33  0  0  0  0  0  0  0  0999 V2000
   20.8418    7.0027    9.2043 C   0  0  2  0  0  0  0  0  0  0  0  0
   22.1440    7.4905    8.8553 O   0  0  0  0  0  0  0  0  0  0  0  0
   25.0975    6.9178    5.8144 C   0  0  2  0  0  0  0  0  0  0  0  0
   25.8311    6.4466    4.6189 N   0  0  0  0  0  0  0  0  0  0  0  0
   20.9835    9.5045    5.8358 C   0  0  1  0  0  0  0  0  0  0  0  0
   20.3583    7.7597   10.4816 C   0  0  2  0  0  0  0  0  0  0  0  0
   20.5410    9.2289   10.3640 N   0  0  0  0  0  0  0  0  0  0  0  0
   24.9213    5.7859    6.8808 C   0  0  0  0  0  0  0  0  0  0  0  0
   21.4396    9.9964    4.4229 C   0  0  2  0  0  0  0  0  0  0  0  0
   22.7186   10.6862    4.3702 O   0  0  0  0  0  0  0  0  0  0  0  0
   21.1084    7.2857   11.7408 C   0  0  1  0  0  0  0  0  0  0  0  0
   20.6221    7.9431   12.8835 O   0  0  0  0  0  0  0  0  0  0  0  0
   24.1617    6.3899    8.1179 C   0  0  2  0  0  0  0  0  0  0  0  0
   23.9694    5.3728    9.1948 N   0  0  0  0  0  0  0  0  0  0  0  0
   20.2161   10.8275    4.0747 C   0  0  2  0  0  0  0  0  0  0  0  0
   20.2602   12.1371    4.7385 O   0  0  0  0  0  0  0  0  0  0  0  0
   20.9613    5.7807   11.8888 C   0  0  2  0  0  0  0  0  0  0  0  0
   21.6188    5.3533   13.0381 O   0  0  0  0  0  0  0  0  0  0  0  0
   22.7656    6.9268    7.6916 C   0  0  2  0  0  0  0  0  0  0  0  0
   19.0385   10.0008    4.5776 C   0  0  2  0  0  0  0  0  0  0  0  0
   19.5512    9.5420    5.8254 O   0  0  0  0  0  0  0  0  0  0  0  0
   21.5457    5.0654   10.6379 C   0  0  2  0  0  0  0  0  0  0  0  0
   20.8659    5.5288    9.4514 O   0  0  0  0  0  0  0  0  0  0  0  0
   22.8350    7.9837    6.5715 C   0  0  2  0  0  0  0  0  0  0  0  0
   21.4428    8.1779    6.1379 O   0  0  0  0  0  0  0  0  0  0  0  0
   18.6441    8.7907    3.6647 C   0  0  0  0  0  0  0  0  0  0  0  0
   19.6311    7.7672    3.7553 N   0  0  0  0  0  0  0  0  0  0  0  0
   21.4117    3.5623   10.7162 C   0  0  0  0  0  0  0  0  0  0  0  0
   20.1806    3.1376   10.2560 O   0  0  0  0  0  0  0  0  0  0  0  0
   23.7252    7.4502    5.3638 C   0  0  1  0  0  0  0  0  0  0  0  0
   23.9891    8.4886    4.4081 O   0  0  0  0  0  0  0  0  0  0  0  0
  1  2  1  1  0  0  0
  1  6  1  0  0  0  0
  1 23  1  0  0  0  0
  3  4  1  6  0  0  0
  3  8  1  0  0  0  0
  3 30  1  0  0  0  0
  5  9  1  0  0  0  0
  5 21  1  0  0  0  0
  5 25  1  6  0  0  0
  6  7  1  6  0  0  0
  6 11  1  0  0  0  0
  8 13  1  0  0  0  0
  9 10  1  1  0  0  0
  9 15  1  0  0  0  0
 11 12  1  1  0  0  0
 11 17  1  0  0  0  0
 13 14  1  1  0  0  0
 13 19  1  0  0  0  0
 15 16  1  1  0  0  0
 15 20  1  0  0  0  0
 17 18  1  1  0  0  0
 17 22  1  0  0  0  0
 19  2  1  1  0  0  0
 19 24  1  0  0  0  0
 20 21  1  0  0  0  0
 20 26  1  6  0  0  0
 22 23  1  0  0  0  0
 22 28  1  1  0  0  0
 24 25  1  6  0  0  0
 24 30  1  0  0  0  0
 26 27  1  0  0  0  0
 28 29  1  0  0  0  0
 30 31  1  6  0  0  0
M  END
>  <CHROM.1>
-179.41518145,78.77739759,-125.55679128,71.56924922,85.58577142,139.84308834
21.70375011,7.56509545,7.61726551,1.55705222,-0.56924450,2.09883026

>  <Name>
2o3x_lig

>  <RI>
224

>  <Rbt.Current_Directory>
/home/itssahil/PROJECTS/Mol_Feturizer/New_Systems/rnas/2o3x

>  <Rbt.Executable>
rbdock ($Id: //depot/dev/client3/rdock/2013.1/src/exe/rbdock.cxx#4 $)

>  <Rbt.Library>
libRbt.so (2013.1, Build901 2013/11/27)

>  <Rbt.Parameter_File>
/export/apps/rDock/src/rDock_2013.1_src/data/scripts/dock_solv.prm

>  <Rbt.Receptor>
prm/blind_docking_100.prm

>  <SCORE>
-3.15831

>  <SCORE.INTER>
-11.7627

>  <SCORE.INTER.CONST>
1

>  <SCORE.INTER.POLAR>
-1.1478

>  <SCORE.INTER.ROT>
6

>  <SCORE.INTER.SOLV>
16.9935

>  <SCORE.INTER.VDW>
-17.2803

>  <SCORE.INTER.norm>
-0.37944

>  <SCORE.INTRA>
6.31612

>  <SCORE.INTRA.DIHEDRAL>
7.2553

>  <SCORE.INTRA.DIHEDRAL.0>
9.37739

>  <SCORE.INTRA.POLAR>
0

>  <SCORE.INTRA.POLAR.0>
0

>  <SCORE.INTRA.REPUL>
0

>  <SCORE.INTRA.REPUL.0>
0

>  <SCORE.INTRA.SOLV>
4.12335

>  <SCORE.INTRA.SOLV.lig_0>
-82.9274

>  <SCORE.INTRA.VDW>
0.626799

>  <SCORE.INTRA.VDW.0>
-3.84922

>  <SCORE.INTRA.norm>
0.203746

>  <SCORE.RESTR>
2.28822

>  <SCORE.RESTR.CAVITY>
2.28822

>  <SCORE.RESTR.norm>
0.0738136

>  <SCORE.SYSTEM>
0

>  <SCORE.SYSTEM.CONST>
0

>  <SCORE.SYSTEM.DIHEDRAL>
0

>  <SCORE.SYSTEM.SOLV>
0

>  <SCORE.SYSTEM.norm>
0

>  <SCORE.heavy>
31

>  <SCORE.norm>
-0.101881

>  <RMSD>
6.732

$$$$
2o3x_lig
 OpenBabel11021811463D
libRbt.so/2013.1/901 2013/11/27
 31 33  0  0  0  0  0  0  0  0999 V2000
   20.8518    9.3468   13.2205 C   0  0  2  0  0  0  0  0  0  0  0  0
   21.1743    7.9601   13.3896 O   0  0  0  0  0  0  0  0  0  0  0  0
   25.2008    8.2933   11.9845 C   0  0  2  0  0  0  0  0  0  0  0  0
   26.6011    8.0006   11.6063 N   0  0  0  0  0  0  0  0  0  0  0  0
   21.9811    6.0334    9.7047 C   0  0  1  0  0  0  0  0  0  0  0  0
   19.4774    9.6203   13.9095 C   0  0  2  0  0  0  0  0  0  0  0  0
   19.4174    9.0556   15.2818 N   0  0  0  0  0  0  0  0  0  0  0  0
   24.9750    8.1906   13.5298 C   0  0  0  0  0  0  0  0  0  0  0  0
   21.3270    4.6442    9.4073 C   0  0  2  0  0  0  0  0  0  0  0  0
   22.2160    3.4950    9.4673 O   0  0  0  0  0  0  0  0  0  0  0  0
   18.3083    9.0289   13.0994 C   0  0  1  0  0  0  0  0  0  0  0  0
   17.0798    9.3307   13.7109 O   0  0  0  0  0  0  0  0  0  0  0  0
   23.4735    8.5466   13.8319 C   0  0  2  0  0  0  0  0  0  0  0  0
   23.1791    8.4901   15.2952 N   0  0  0  0  0  0  0  0  0  0  0  0
   20.7401    4.9658    8.0431 C   0  0  2  0  0  0  0  0  0  0  0  0
   21.7690    4.9023    6.9966 O   0  0  0  0  0  0  0  0  0  0  0  0
   18.3438    9.5689   11.6796 C   0  0  2  0  0  0  0  0  0  0  0  0
   17.2753    9.0539   10.9524 O   0  0  0  0  0  0  0  0  0  0  0  0
   22.5210    7.5596   13.0987 C   0  0  2  0  0  0  0  0  0  0  0  0
   20.1957    6.3821    8.1871 C   0  0  2  0  0  0  0  0  0  0  0  0
   21.2411    6.9921    8.9390 O   0  0  0  0  0  0  0  0  0  0  0  0
   19.6895    9.1872   11.0007 C   0  0  2  0  0  0  0  0  0  0  0  0
   20.7899    9.7141   11.7730 O   0  0  0  0  0  0  0  0  0  0  0  0
   22.7381    7.5229   11.5730 C   0  0  2  0  0  0  0  0  0  0  0  0
   21.9459    6.3779   11.0983 O   0  0  0  0  0  0  0  0  0  0  0  0
   18.8319    6.4904    8.9499 C   0  0  0  0  0  0  0  0  0  0  0  0
   17.8167    5.7874    8.2393 N   0  0  0  0  0  0  0  0  0  0  0  0
   19.7942    9.7137    9.5882 C   0  0  0  0  0  0  0  0  0  0  0  0
   19.9063   11.0902    9.5664 O   0  0  0  0  0  0  0  0  0  0  0  0
   24.2806    7.3092   11.2401 C   0  0  1  0  0  0  0  0  0  0  0  0
   24.5449    7.4894    9.8405 O   0  0  0  0  0  0  0  0  0  0  0  0
  1  2  1  6  0  0  0
  1  6  1  0  0  0  0
  1 23  1  0  0  0  0
  3  4  1  1  0  0  0
  3  8  1  0  0  0  0
  3 30  1  0  0  0  0
  5  9  1  0  0  0  0
  5 21  1  0  0  0  0
  5 25  1  1  0  0  0
  6  7  1  1  0  0  0
  6 11  1  0  0  0  0
  8 13  1  0  0  0  0
  9 10  1  6  0  0  0
  9 15  1  0  0  0  0
 11 12  1  1  0  0  0
 11 17  1  0  0  0  0
 13 14  1  1  0  0  0
 13 19  1  0  0  0  0
 15 16  1  6  0  0  0
 15 20  1  0  0  0  0
 17 18  1  6  0  0  0
 17 22  1  0  0  0  0
 19  2  1  6  0  0  0
 19 24  1  0  0  0  0
 20 21  1  0  0  0  0
 20 26  1  1  0  0  0
 22 23  1  0  0  0  0
 22 28  1  6  0  0  0
 24 25  1  1  0  0  0
 24 30  1  0  0  0  0
 26 27  1  0  0  0  0
 28 29  1  0  0  0  0
 30 31  1  6  0  0  0
M  END
>  <CHROM.1>
-166.38301815,168.57410850,48.78211214,-62.31077703,68.98513277,-177.37462413
21.19189753,7.74282097,11.19640313,-1.90108004,0.23639658,-2.17793421

>  <Name>
2o3x_lig

>  <RI>
3.34184e+07

>  <Rbt.Current_Directory>
/home/itssahil/PROJECTS/Mol_Feturizer/New_Systems/rnas/2o3x

>  <Rbt.Executable>
rbdock ($Id: //depot/dev/client3/rdock/2013.1/src/exe/rbdock.cxx#4 $)

>  <Rbt.Library>
libRbt.so (2013.1, Build901 2013/11/27)

>  <Rbt.Parameter_File>
/export/apps/rDock/src/rDock_2013.1_src/data/scripts/dock_solv.prm

>  <Rbt.Receptor>
prm/pocket_docking_6.prm

>  <SCORE>
-19.9122

>  <SCORE.INTER>
-16.8779

>  <SCORE.INTER.CONST>
1

>  <SCORE.INTER.POLAR>
-2.45741

>  <SCORE.INTER.ROT>
6

>  <SCORE.INTER.SOLV>
24.9107

>  <SCORE.INTER.VDW>
-18.9642

>  <SCORE.INTER.norm>
-0.544449

>  <SCORE.INTRA>
-3.03433

>  <SCORE.INTRA.DIHEDRAL>
-6.74915

>  <SCORE.INTRA.DIHEDRAL.0>
9.37739

>  <SCORE.INTRA.POLAR>
0

>  <SCORE.INTRA.POLAR.0>
0

>  <SCORE.INTRA.REPUL>
0

>  <SCORE.INTRA.REPUL.0>
0

>  <SCORE.INTRA.SOLV>
-0.459561

>  <SCORE.INTRA.SOLV.lig_0>
-82.9274

>  <SCORE.INTRA.VDW>
0.570023

>  <SCORE.INTRA.VDW.0>
-3.84922

>  <SCORE.INTRA.norm>
-0.0978816

>  <SCORE.RESTR>
0

>  <SCORE.RESTR.CAVITY>
0

>  <SCORE.RESTR.norm>
0

>  <SCORE.SYSTEM>
0

>  <SCORE.SYSTEM.CONST>
0

>  <SCORE.SYSTEM.DIHEDRAL>
0

>  <SCORE.SYSTEM.SOLV>
0

>  <SCORE.SYSTEM.norm>
0

>  <SCORE.heavy>
31

>  <SCORE.norm>
-0.64233

>  <RMSD>
6.734

$$$$
2o3x_lig
 OpenBabel11021811463D
libRbt.so/2013.1/901 2013/11/27
 31 33  0  0  0  0  0  0  0  0999 V2000
   19.6597    9.0217   10.3122 C   0  0  2  0  0  0  0  0  0  0  0  0
   21.0532    8.6989   10.2153 O   0  0  0  0  0  0  0  0  0  0  0  0
   23.4720    5.8175    8.1793 C   0  0  2  0  0  0  0  0  0  0  0  0
   23.9458    4.6052    7.4756 N   0  0  0  0  0  0  0  0  0  0  0  0
   20.1754    9.2328    6.7665 C   0  0  1  0  0  0  0  0  0  0  0  0
   19.5282   10.4748   10.8687 C   0  0  2  0  0  0  0  0  0  0  0  0
   20.4141   11.4295   10.1549 N   0  0  0  0  0  0  0  0  0  0  0  0
   23.0808    5.5202    9.6652 C   0  0  0  0  0  0  0  0  0  0  0  0
   20.9810    9.2515    5.4260 C   0  0  2  0  0  0  0  0  0  0  0  0
   22.3381    9.7676    5.5050 O   0  0  0  0  0  0  0  0  0  0  0  0
   19.8677   10.5410   12.3698 C   0  0  1  0  0  0  0  0  0  0  0  0
   19.6936   11.8464   12.8595 O   0  0  0  0  0  0  0  0  0  0  0  0
   22.6220    6.8683   10.3320 C   0  0  2  0  0  0  0  0  0  0  0  0
   22.2477    6.6731   11.7648 N   0  0  0  0  0  0  0  0  0  0  0  0
   20.0033   10.0642    4.5939 C   0  0  2  0  0  0  0  0  0  0  0  0
   20.1221   11.4981    4.8895 O   0  0  0  0  0  0  0  0  0  0  0  0
   18.9932    9.5632   13.1366 C   0  0  2  0  0  0  0  0  0  0  0  0
   19.2820    9.6377   14.4955 O   0  0  0  0  0  0  0  0  0  0  0  0
   21.3968    7.4601    9.5784 C   0  0  2  0  0  0  0  0  0  0  0  0
   18.6310    9.5366    4.9959 C   0  0  2  0  0  0  0  0  0  0  0  0
   18.7999    9.4067    6.4048 O   0  0  0  0  0  0  0  0  0  0  0  0
   19.2311    8.1178   12.6151 C   0  0  2  0  0  0  0  0  0  0  0  0
   18.9429    8.0576   11.2015 O   0  0  0  0  0  0  0  0  0  0  0  0
   21.6608    7.6983    8.0784 C   0  0  2  0  0  0  0  0  0  0  0  0
   20.3446    8.0100    7.5002 O   0  0  0  0  0  0  0  0  0  0  0  0
   18.2402    8.1606    4.3579 C   0  0  0  0  0  0  0  0  0  0  0  0
   16.9183    7.7985    4.7472 N   0  0  0  0  0  0  0  0  0  0  0  0
   18.3735    7.0978   13.3274 C   0  0  0  0  0  0  0  0  0  0  0  0
   18.6310    5.8166   12.8800 O   0  0  0  0  0  0  0  0  0  0  0  0
   22.2664    6.3863    7.4095 C   0  0  1  0  0  0  0  0  0  0  0  0
   22.7252    6.6428    6.0735 O   0  0  0  0  0  0  0  0  0  0  0  0
  1  2  1  1  0  0  0
  1  6  1  0  0  0  0
  1 23  1  0  0  0  0
  3  4  1  6  0  0  0
  3  8  1  0  0  0  0
  3 30  1  0  0  0  0
  5  9  1  0  0  0  0
  5 21  1  0  0  0  0
  5 25  1  6  0  0  0
  6  7  1  6  0  0  0
  6 11  1  0  0  0  0
  8 13  1  0  0  0  0
  9 10  1  1  0  0  0
  9 15  1  0  0  0  0
 11 12  1  1  0  0  0
 11 17  1  0  0  0  0
 13 14  1  1  0  0  0
 13 19  1  0  0  0  0
 15 16  1  1  0  0  0
 15 20  1  0  0  0  0
 17 18  1  1  0  0  0
 17 22  1  0  0  0  0
 19  2  1  1  0  0  0
 19 24  1  0  0  0  0
 20 21  1  0  0  0  0
 20 26  1  6  0  0  0
 22 23  1  0  0  0  0
 22 28  1  1  0  0  0
 24 25  1  6  0  0  0
 24 30  1  0  0  0  0
 26 27  1  0  0  0  0
 28 29  1  0  0  0  0
 30 31  1  6  0  0  0
M  END
>  <CHROM.1>
-172.98777121,67.35937357,-143.37332563,-177.08514935,-178.05149228,124.79392216
20.42358191,8.42828078,8.98610604,1.73919210,-0.86828499,1.68848172

>  <Name>
2o3x_lig

>  <RI>
3.34184e+07

>  <Rbt.Current_Directory>
/home/itssahil/PROJECTS/Mol_Feturizer/New_Systems/rnas/2o3x

>  <Rbt.Executable>
rbdock ($Id: //depot/dev/client3/rdock/2013.1/src/exe/rbdock.cxx#4 $)

>  <Rbt.Library>
libRbt.so (2013.1, Build901 2013/11/27)

>  <Rbt.Parameter_File>
/export/apps/rDock/src/rDock_2013.1_src/data/scripts/dock_solv.prm

>  <Rbt.Receptor>
prm/pocket_docking_6.prm

>  <SCORE>
-17.0051

>  <SCORE.INTER>
-17.9918

>  <SCORE.INTER.CONST>
1

>  <SCORE.INTER.POLAR>
-2.53383

>  <SCORE.INTER.ROT>
6

>  <SCORE.INTER.SOLV>
14.5557

>  <SCORE.INTER.VDW>
-16.0003

>  <SCORE.INTER.norm>
-0.580379

>  <SCORE.INTRA>
0.986694

>  <SCORE.INTRA.DIHEDRAL>
3.19208

>  <SCORE.INTRA.DIHEDRAL.0>
9.37739

>  <SCORE.INTRA.POLAR>
0

>  <SCORE.INTRA.POLAR.0>
0

>  <SCORE.INTRA.REPUL>
0

>  <SCORE.INTRA.REPUL.0>
0

>  <SCORE.INTRA.SOLV>
-0.783171

>  <SCORE.INTRA.SOLV.lig_0>
-82.9274

>  <SCORE.INTRA.VDW>
-0.217761

>  <SCORE.INTRA.VDW.0>
-3.84922

>  <SCORE.INTRA.norm>
0.0318288

>  <SCORE.RESTR>
0

>  <SCORE.RESTR.CAVITY>
0

>  <SCORE.RESTR.norm>
0

>  <SCORE.SYSTEM>
0

>  <SCORE.SYSTEM.CONST>
0

>  <SCORE.SYSTEM.DIHEDRAL>
0

>  <SCORE.SYSTEM.SOLV>
0

>  <SCORE.SYSTEM.norm>
0

>  <SCORE.heavy>
31

>  <SCORE.norm>
-0.54855

>  <RMSD>
6.745

$$$$
2o3x_lig
 OpenBabel11021811463D
libRbt.so/2013.1/901 2013/11/27
 31 33  0  0  0  0  0  0  0  0999 V2000
   20.8891    6.9702    9.1402 C   0  0  2  0  0  0  0  0  0  0  0  0
   22.1999    7.4513    8.8148 O   0  0  0  0  0  0  0  0  0  0  0  0
   25.1665    6.9235    5.7786 C   0  0  2  0  0  0  0  0  0  0  0  0
   25.9106    6.4610    4.5861 N   0  0  0  0  0  0  0  0  0  0  0  0
   20.9866    9.4282    5.8261 C   0  0  1  0  0  0  0  0  0  0  0  0
   20.3889    7.7257   10.4120 C   0  0  2  0  0  0  0  0  0  0  0  0
   20.5823    9.1942   10.3026 N   0  0  0  0  0  0  0  0  0  0  0  0
   25.0135    5.7941    6.8512 C   0  0  0  0  0  0  0  0  0  0  0  0
   21.5352   10.0246    4.4884 C   0  0  2  0  0  0  0  0  0  0  0  0
   22.7769   10.7749    4.5868 O   0  0  0  0  0  0  0  0  0  0  0  0
   21.1150    7.2429   11.6818 C   0  0  1  0  0  0  0  0  0  0  0  0
   20.6136    7.8993   12.8185 O   0  0  0  0  0  0  0  0  0  0  0  0
   24.2406    6.3890    8.0845 C   0  0  2  0  0  0  0  0  0  0  0  0
   24.0689    5.3741    9.1670 N   0  0  0  0  0  0  0  0  0  0  0  0
   20.3047   10.8173    4.0809 C   0  0  2  0  0  0  0  0  0  0  0  0
   20.2247   12.0854    4.8179 O   0  0  0  0  0  0  0  0  0  0  0  0
   20.9565    5.7383   11.8220 C   0  0  2  0  0  0  0  0  0  0  0  0
   21.5921    5.3030   12.9806 O   0  0  0  0  0  0  0  0  0  0  0  0
   22.8338    6.8942    7.6545 C   0  0  2  0  0  0  0  0  0  0  0  0
   19.1327    9.9082    4.4315 C   0  0  2  0  0  0  0  0  0  0  0  0
   19.5603    9.3997    5.6921 O   0  0  0  0  0  0  0  0  0  0  0  0
   21.5574    5.0238   10.5786 C   0  0  2  0  0  0  0  0  0  0  0  0
   20.9002    5.4953    9.3825 O   0  0  0  0  0  0  0  0  0  0  0  0
   22.8818    7.9460    6.5286 C   0  0  2  0  0  0  0  0  0  0  0  0
   21.4862    8.1087    6.0932 O   0  0  0  0  0  0  0  0  0  0  0  0
   18.8801    8.7379    3.4215 C   0  0  0  0  0  0  0  0  0  0  0  0
   18.5768    9.2617    2.1317 N   0  0  0  0  0  0  0  0  0  0  0  0
   21.4132    3.5213   10.6493 C   0  0  0  0  0  0  0  0  0  0  0  0
   20.1426    3.1156   10.2900 O   0  0  0  0  0  0  0  0  0  0  0  0
   23.7837    7.4245    5.3243 C   0  0  1  0  0  0  0  0  0  0  0  0
   24.0264    8.4628    4.3630 O   0  0  0  0  0  0  0  0  0  0  0  0
  1  2  1  1  0  0  0
  1  6  1  0  0  0  0
  1 23  1  0  0  0  0
  3  4  1  6  0  0  0
  3  8  1  0  0  0  0
  3 30  1  0  0  0  0
  5  9  1  0  0  0  0
  5 21  1  0  0  0  0
  5 25  1  6  0  0  0
  6  7  1  6  0  0  0
  6 11  1  0  0  0  0
  8 13  1  0  0  0  0
  9 10  1  1  0  0  0
  9 15  1  0  0  0  0
 11 12  1  1  0  0  0
 11 17  1  0  0  0  0
 13 14  1  1  0  0  0
 13 19  1  0  0  0  0
 15 16  1  1  0  0  0
 15 20  1  0  0  0  0
 17 18  1  1  0  0  0
 17 22  1  0  0  0  0
 19  2  1  1  0  0  0
 19 24  1  0  0  0  0
 20 21  1  0  0  0  0
 20 26  1  6  0  0  0
 22 23  1  0  0  0  0
 22 28  1  1  0  0  0
 24 25  1  6  0  0  0
 24 30  1  0  0  0  0
 26 27  1  0  0  0  0
 28 29  1  0  0  0  0
 30 31  1  6  0  0  0
M  END
>  <CHROM.1>
-179.01655020,73.69647315,-127.57622725,-61.33792643,79.73419654,137.79073731
21.71295788,7.58228396,7.52889570,1.51939596,-0.51759599,2.08275058

>  <Name>
2o3x_lig

>  <RI>
224

>  <Rbt.Current_Directory>
/home/itssahil/PROJECTS/Mol_Feturizer/New_Systems/rnas/2o3x

>  <Rbt.Executable>
rbdock ($Id: //depot/dev/client3/rdock/2013.1/src/exe/rbdock.cxx#4 $)

>  <Rbt.Library>
libRbt.so (2013.1, Build901 2013/11/27)

>  <Rbt.Parameter_File>
/export/apps/rDock/src/rDock_2013.1_src/data/scripts/dock_solv.prm

>  <Rbt.Receptor>
prm/blind_docking_100.prm

>  <SCORE>
-6.78711

>  <SCORE.INTER>
-11.7889

>  <SCORE.INTER.CONST>
1

>  <SCORE.INTER.POLAR>
-1.35442

>  <SCORE.INTER.ROT>
6

>  <SCORE.INTER.SOLV>
22.5886

>  <SCORE.INTER.VDW>
-18.4741

>  <SCORE.INTER.norm>
-0.380288

>  <SCORE.INTRA>
3.56541

>  <SCORE.INTRA.DIHEDRAL>
5.57533

>  <SCORE.INTRA.DIHEDRAL.0>
9.37739

>  <SCORE.INTRA.POLAR>
0

>  <SCORE.INTRA.POLAR.0>
0

>  <SCORE.INTRA.REPUL>
0

>  <SCORE.INTRA.REPUL.0>
0

>  <SCORE.INTRA.SOLV>
0.785221

>  <SCORE.INTRA.SOLV.lig_0>
-82.9274

>  <SCORE.INTRA.VDW>
0.385133

>  <SCORE.INTRA.VDW.0>
-3.84922

>  <SCORE.INTRA.norm>
0.115013

>  <SCORE.RESTR>
1.4364

>  <SCORE.RESTR.CAVITY>
1.4364

>  <SCORE.RESTR.norm>
0.0463356

>  <SCORE.SYSTEM>
0

>  <SCORE.SYSTEM.CONST>
0

>  <SCORE.SYSTEM.DIHEDRAL>
0

>  <SCORE.SYSTEM.SOLV>
0

>  <SCORE.SYSTEM.norm>
0

>  <SCORE.heavy>
31

>  <SCORE.norm>
-0.218939

>  <RMSD>
6.754

$$$$
2o3x_lig
 OpenBabel11021811463D
libRbt.so/2013.1/901 2013/11/27
 31 33  0  0  0  0  0  0  0  0999 V2000
   20.8148    7.1463    9.1096 C   0  0  2  0  0  0  0  0  0  0  0  0
   22.1667    7.5333    8.8304 O   0  0  0  0  0  0  0  0  0  0  0  0
   25.1026    6.9471    5.7751 C   0  0  2  0  0  0  0  0  0  0  0  0
   25.8359    6.4600    4.5857 N   0  0  0  0  0  0  0  0  0  0  0  0
   20.9221    9.4308    5.7767 C   0  0  1  0  0  0  0  0  0  0  0  0
   20.3832    7.8030   10.4590 C   0  0  2  0  0  0  0  0  0  0  0  0
   20.7157    9.2497   10.5087 N   0  0  0  0  0  0  0  0  0  0  0  0
   24.9662    5.8425    6.8753 C   0  0  0  0  0  0  0  0  0  0  0  0
   21.4528    9.9569    4.4028 C   0  0  2  0  0  0  0  0  0  0  0  0
   22.6985   10.7056    4.4449 O   0  0  0  0  0  0  0  0  0  0  0  0
   21.0547    7.1182   11.6644 C   0  0  1  0  0  0  0  0  0  0  0  0
   20.6131    7.6916   12.8687 O   0  0  0  0  0  0  0  0  0  0  0  0
   24.2041    6.4628    8.1029 C   0  0  2  0  0  0  0  0  0  0  0  0
   24.0485    5.4727    9.2105 N   0  0  0  0  0  0  0  0  0  0  0  0
   20.2192   10.7337    3.9743 C   0  0  2  0  0  0  0  0  0  0  0  0
   20.1550   12.0375    4.6479 O   0  0  0  0  0  0  0  0  0  0  0  0
   20.7533    5.6291   11.6411 C   0  0  2  0  0  0  0  0  0  0  0  0
   21.3397    5.0120   12.7416 O   0  0  0  0  0  0  0  0  0  0  0  0
   22.7905    6.9519    7.6765 C   0  0  2  0  0  0  0  0  0  0  0  0
   19.0492    9.8485    4.3874 C   0  0  2  0  0  0  0  0  0  0  0  0
   19.4939    9.4019    5.6654 O   0  0  0  0  0  0  0  0  0  0  0  0
   21.2889    5.0004   10.3237 C   0  0  2  0  0  0  0  0  0  0  0  0
   20.6846    5.6595    9.1900 O   0  0  0  0  0  0  0  0  0  0  0  0
   22.8217    7.9774    6.5260 C   0  0  2  0  0  0  0  0  0  0  0  0
   21.4207    8.1240    6.1022 O   0  0  0  0  0  0  0  0  0  0  0  0
   18.7771    8.6303    3.4413 C   0  0  0  0  0  0  0  0  0  0  0  0
   18.5201    9.0875    2.1166 N   0  0  0  0  0  0  0  0  0  0  0  0
   21.0022    3.5196   10.2316 C   0  0  0  0  0  0  0  0  0  0  0  0
   21.6115    2.8198   11.2548 O   0  0  0  0  0  0  0  0  0  0  0  0
   23.7128    7.4316    5.3244 C   0  0  1  0  0  0  0  0  0  0  0  0
   23.9406    8.4483    4.3366 O   0  0  0  0  0  0  0  0  0  0  0  0
  1  2  1  1  0  0  0
  1  6  1  0  0  0  0
  1 23  1  0  0  0  0
  3  4  1  6  0  0  0
  3  8  1  0  0  0  0
  3 30  1  0  0  0  0
  5  9  1  0  0  0  0
  5 21  1  0  0  0  0
  5 25  1  6  0  0  0
  6  7  1  6  0  0  0
  6 11  1  0  0  0  0
  8 13  1  0  0  0  0
  9 10  1  1  0  0  0
  9 15  1  0  0  0  0
 11 12  1  1  0  0  0
 11 17  1  0  0  0  0
 13 14  1  1  0  0  0
 13 19  1  0  0  0  0
 15 16  1  1  0  0  0
 15 20  1  0  0  0  0
 17 18  1  1  0  0  0
 17 22  1  0  0  0  0
 19  2  1  1  0  0  0
 19 24  1  0  0  0  0
 20 21  1  0  0  0  0
 20 26  1  6  0  0  0
 22 23  1  0  0  0  0
 22 28  1  1  0  0  0
 24 25  1  6  0  0  0
 24 30  1  0  0  0  0
 26 27  1  0  0  0  0
 28 29  1  0  0  0  0
 30 31  1  6  0  0  0
M  END
>  <CHROM.1>
175.48058315,73.76939256,-133.21876229,-58.53453783,-61.38884281,139.38141895
21.68079508,7.55505420,7.51292909,1.49874385,-0.51924888,2.07724126

>  <Name>
2o3x_lig

>  <RI>
224

>  <Rbt.Current_Directory>
/home/itssahil/PROJECTS/Mol_Feturizer/New_Systems/rnas/2o3x

>  <Rbt.Executable>
rbdock ($Id: //depot/dev/client3/rdock/2013.1/src/exe/rbdock.cxx#4 $)

>  <Rbt.Library>
libRbt.so (2013.1, Build901 2013/11/27)

>  <Rbt.Parameter_File>
/export/apps/rDock/src/rDock_2013.1_src/data/scripts/dock_solv.prm

>  <Rbt.Receptor>
prm/blind_docking_100.prm

>  <SCORE>
-7.15503

>  <SCORE.INTER>
-11.8796

>  <SCORE.INTER.CONST>
1

>  <SCORE.INTER.POLAR>
-1.33093

>  <SCORE.INTER.ROT>
6

>  <SCORE.INTER.SOLV>
23.6744

>  <SCORE.INTER.VDW>
-18.9747

>  <SCORE.INTER.norm>
-0.383212

>  <SCORE.INTRA>
2.79002

>  <SCORE.INTRA.DIHEDRAL>
3.5977

>  <SCORE.INTRA.DIHEDRAL.0>
9.37739

>  <SCORE.INTRA.POLAR>
0

>  <SCORE.INTRA.POLAR.0>
0

>  <SCORE.INTRA.REPUL>
0

>  <SCORE.INTRA.REPUL.0>
0

>  <SCORE.INTRA.SOLV>
0.775706

>  <SCORE.INTRA.SOLV.lig_0>
-82.9274

>  <SCORE.INTRA.VDW>
0.603313

>  <SCORE.INTRA.VDW.0>
-3.84922

>  <SCORE.INTRA.norm>
0.0900006

>  <SCORE.RESTR>
1.93452

>  <SCORE.RESTR.CAVITY>
1.93452

>  <SCORE.RESTR.norm>
0.0624039

>  <SCORE.SYSTEM>
0

>  <SCORE.SYSTEM.CONST>
0

>  <SCORE.SYSTEM.DIHEDRAL>
0

>  <SCORE.SYSTEM.SOLV>
0

>  <SCORE.SYSTEM.norm>
0

>  <SCORE.heavy>
31

>  <SCORE.norm>
-0.230807

>  <RMSD>
6.762

$$$$
2o3x_lig
 OpenBabel11021811463D
libRbt.so/2013.1/901 2013/11/27
 31 33  0  0  0  0  0  0  0  0999 V2000
   20.0613    5.5666    8.8390 C   0  0  2  0  0  0  0  0  0  0  0  0
   20.3172    5.5816    7.4284 O   0  0  0  0  0  0  0  0  0  0  0  0
   19.4961    8.5059    4.4163 C   0  0  2  0  0  0  0  0  0  0  0  0
   18.8272    9.4986    3.5465 N   0  0  0  0  0  0  0  0  0  0  0  0
   19.8127    9.5000    8.8748 C   0  0  1  0  0  0  0  0  0  0  0  0
   21.1211    4.6452    9.5219 C   0  0  2  0  0  0  0  0  0  0  0  0
   22.5024    4.9509    9.0699 N   0  0  0  0  0  0  0  0  0  0  0  0
   18.9335    7.0614    4.2014 C   0  0  0  0  0  0  0  0  0  0  0  0
   18.5312   10.2429    9.3768 C   0  0  2  0  0  0  0  0  0  0  0  0
   17.8760   11.1086    8.4096 O   0  0  0  0  0  0  0  0  0  0  0  0
   20.8458    3.1563    9.2390 C   0  0  1  0  0  0  0  0  0  0  0  0
   21.7806    2.3450    9.9042 O   0  0  0  0  0  0  0  0  0  0  0  0
   19.7240    6.0808    5.1425 C   0  0  2  0  0  0  0  0  0  0  0  0
   19.2577    4.6707    4.9831 N   0  0  0  0  0  0  0  0  0  0  0  0
   19.1372   10.9310   10.5884 C   0  0  2  0  0  0  0  0  0  0  0  0
   19.8906   12.1289   10.1942 O   0  0  0  0  0  0  0  0  0  0  0  0
   19.4322    2.8052    9.6717 C   0  0  2  0  0  0  0  0  0  0  0  0
   19.1891    1.4554    9.4384 O   0  0  0  0  0  0  0  0  0  0  0  0
   19.5472    6.4933    6.6317 C   0  0  2  0  0  0  0  0  0  0  0  0
   20.0601    9.8832   11.1995 C   0  0  2  0  0  0  0  0  0  0  0  0
   20.6509    9.3338   10.0249 O   0  0  0  0  0  0  0  0  0  0  0  0
   18.4075    3.6782    8.8937 C   0  0  2  0  0  0  0  0  0  0  0  0
   18.6802    5.0760    9.1319 O   0  0  0  0  0  0  0  0  0  0  0  0
   19.9893    7.9417    6.9196 C   0  0  2  0  0  0  0  0  0  0  0  0
   19.5207    8.2236    8.2852 O   0  0  0  0  0  0  0  0  0  0  0  0
   19.3356    8.7674   12.0263 C   0  0  0  0  0  0  0  0  0  0  0  0
   18.7436    9.3300   13.1937 N   0  0  0  0  0  0  0  0  0  0  0  0
   16.9795    3.3889    9.2944 C   0  0  0  0  0  0  0  0  0  0  0  0
   16.6017    2.1089    8.9384 O   0  0  0  0  0  0  0  0  0  0  0  0
   19.3130    8.9418    5.8812 C   0  0  1  0  0  0  0  0  0  0  0  0
   19.8718   10.2603    5.9829 O   0  0  0  0  0  0  0  0  0  0  0  0
  1  2  1  6  0  0  0
  1  6  1  0  0  0  0
  1 23  1  0  0  0  0
  3  4  1  6  0  0  0
  3  8  1  0  0  0  0
  3 30  1  0  0  0  0
  5  9  1  0  0  0  0
  5 21  1  0  0  0  0
  5 25  1  1  0  0  0
  6  7  1  6  0  0  0
  6 11  1  0  0  0  0
  8 13  1  0  0  0  0
  9 10  1  6  0  0  0
  9 15  1  0  0  0  0
 11 12  1  1  0  0  0
 11 17  1  0  0  0  0
 13 14  1  1  0  0  0
 13 19  1  0  0  0  0
 15 16  1  6  0  0  0
 15 20  1  0  0  0  0
 17 18  1  6  0  0  0
 17 22  1  0  0  0  0
 19  2  1  1  0  0  0
 19 24  1  0  0  0  0
 20 21  1  0  0  0  0
 20 26  1  6  0  0  0
 22 23  1  0  0  0  0
 22 28  1  1  0  0  0
 24 25  1  1  0  0  0
 24 30  1  0  0  0  0
 26 27  1  0  0  0  0
 28 29  1  0  0  0  0
 30 31  1  6  0  0  0
M  END
>  <CHROM.1>
-173.03031088,124.95698676,-165.66770366,-66.53055386,-65.84067973,178.23119151
19.48947411,6.88215665,8.38573185,-1.36408770,-1.52327952,0.17436492

>  <Name>
2o3x_lig

>  <RI>
0

>  <Rbt.Current_Directory>
/home/itssahil/PROJECTS/Mol_Feturizer/New_Systems/rnas/2o3x

>  <Rbt.Executable>
rbdock ($Id: //depot/dev/client3/rdock/2013.1/src/exe/rbdock.cxx#4 $)

>  <Rbt.Library>
libRbt.so (2013.1, Build901 2013/11/27)

>  <Rbt.Parameter_File>
/export/apps/rDock/src/rDock_2013.1_src/data/scripts/dock_solv.prm

>  <Rbt.Receptor>
prm/pocket_docking_8.prm

>  <SCORE>
-11.7829

>  <SCORE.INTER>
-11.4377

>  <SCORE.INTER.CONST>
1

>  <SCORE.INTER.POLAR>
-2.56698

>  <SCORE.INTER.ROT>
6

>  <SCORE.INTER.SOLV>
9.41952

>  <SCORE.INTER.VDW>
-9.80835

>  <SCORE.INTER.norm>
-0.368957

>  <SCORE.INTRA>
-0.345219

>  <SCORE.INTRA.DIHEDRAL>
-0.644323

>  <SCORE.INTRA.DIHEDRAL.0>
9.37739

>  <SCORE.INTRA.POLAR>
0

>  <SCORE.INTRA.POLAR.0>
0

>  <SCORE.INTRA.REPUL>
0

>  <SCORE.INTRA.REPUL.0>
0

>  <SCORE.INTRA.SOLV>
-2.26857

>  <SCORE.INTRA.SOLV.lig_0>
-82.9274

>  <SCORE.INTRA.VDW>
1.11123

>  <SCORE.INTRA.VDW.0>
-3.84922

>  <SCORE.INTRA.norm>
-0.0111361

>  <SCORE.RESTR>
0

>  <SCORE.RESTR.CAVITY>
0

>  <SCORE.RESTR.norm>
0

>  <SCORE.SYSTEM>
0

>  <SCORE.SYSTEM.CONST>
0

>  <SCORE.SYSTEM.DIHEDRAL>
0

>  <SCORE.SYSTEM.SOLV>
0

>  <SCORE.SYSTEM.norm>
0

>  <SCORE.heavy>
31

>  <SCORE.norm>
-0.380093

>  <RMSD>
6.763

$$$$
2o3x_lig
 OpenBabel11021811463D
libRbt.so/2013.1/901 2013/11/27
 31 33  0  0  0  0  0  0  0  0999 V2000
   19.5168    9.4270   10.3392 C   0  0  2  0  0  0  0  0  0  0  0  0
   20.8525    8.9178   10.4489 O   0  0  0  0  0  0  0  0  0  0  0  0
   23.0541    5.7545    8.5928 C   0  0  2  0  0  0  0  0  0  0  0  0
   23.4396    4.4695    7.9686 N   0  0  0  0  0  0  0  0  0  0  0  0
   19.9786    9.2521    6.9431 C   0  0  1  0  0  0  0  0  0  0  0  0
   19.5055   10.8974   10.8647 C   0  0  2  0  0  0  0  0  0  0  0  0
   20.6072   11.7072   10.2847 N   0  0  0  0  0  0  0  0  0  0  0  0
   22.6625    5.5833   10.0984 C   0  0  0  0  0  0  0  0  0  0  0  0
   20.8178    9.1059    5.6314 C   0  0  2  0  0  0  0  0  0  0  0  0
   22.1967    9.5619    5.7025 O   0  0  0  0  0  0  0  0  0  0  0  0
   19.6301   10.9532   12.3990 C   0  0  1  0  0  0  0  0  0  0  0  0
   19.5666   12.2815   12.8528 O   0  0  0  0  0  0  0  0  0  0  0  0
   22.3005    7.0000   10.6764 C   0  0  2  0  0  0  0  0  0  0  0  0
   21.9318    6.9258   12.1220 N   0  0  0  0  0  0  0  0  0  0  0  0
   19.9034    9.8822    4.6985 C   0  0  2  0  0  0  0  0  0  0  0  0
   20.0866   11.3303    4.8629 O   0  0  0  0  0  0  0  0  0  0  0  0
   18.5288   10.1203   13.0332 C   0  0  2  0  0  0  0  0  0  0  0  0
   18.6253   10.1878   14.4195 O   0  0  0  0  0  0  0  0  0  0  0  0
   21.1072    7.6193    9.8943 C   0  0  2  0  0  0  0  0  0  0  0  0
   18.4966    9.4609    5.1067 C   0  0  2  0  0  0  0  0  0  0  0  0
   18.6232    9.4565    6.5260 O   0  0  0  0  0  0  0  0  0  0  0  0
   18.6404    8.6440   12.5580 C   0  0  2  0  0  0  0  0  0  0  0  0
   18.5542    8.5894   11.1177 O   0  0  0  0  0  0  0  0  0  0  0  0
   21.3677    7.7392    8.3796 C   0  0  2  0  0  0  0  0  0  0  0  0
   20.0676    8.0973    7.7920 O   0  0  0  0  0  0  0  0  0  0  0  0
   18.0534    8.0510    4.5879 C   0  0  0  0  0  0  0  0  0  0  0  0
   18.8900    7.0401    5.1431 N   0  0  0  0  0  0  0  0  0  0  0  0
   17.5577    7.7657   13.1409 C   0  0  0  0  0  0  0  0  0  0  0  0
   16.3011    8.1736   12.7378 O   0  0  0  0  0  0  0  0  0  0  0  0
   21.8787    6.3486    7.7958 C   0  0  1  0  0  0  0  0  0  0  0  0
   22.3368    6.4847    6.4420 O   0  0  0  0  0  0  0  0  0  0  0  0
  1  2  1  1  0  0  0
  1  6  1  0  0  0  0
  1 23  1  0  0  0  0
  3  4  1  6  0  0  0
  3  8  1  0  0  0  0
  3 30  1  0  0  0  0
  5  9  1  0  0  0  0
  5 21  1  0  0  0  0
  5 25  1  1  0  0  0
  6  7  1  6  0  0  0
  6 11  1  0  0  0  0
  8 13  1  0  0  0  0
  9 10  1  1  0  0  0
  9 15  1  0  0  0  0
 11 12  1  1  0  0  0
 11 17  1  0  0  0  0
 13 14  1  1  0  0  0
 13 19  1  0  0  0  0
 15 16  1  1  0  0  0
 15 20  1  0  0  0  0
 17 18  1  1  0  0  0
 17 22  1  0  0  0  0
 19  2  1  1  0  0  0
 19 24  1  0  0  0  0
 20 21  1  0  0  0  0
 20 26  1  6  0  0  0
 22 23  1  0  0  0  0
 22 28  1  1  0  0  0
 24 25  1  6  0  0  0
 24 30  1  0  0  0  0
 26 27  1  0  0  0  0
 28 29  1  0  0  0  0
 30 31  1  6  0  0  0
M  END
>  <CHROM.1>
-174.01882184,64.20272570,-153.16714005,63.03866901,62.47358625,126.83012959
20.13824085,8.63504714,9.14345238,1.95584490,-0.88111305,1.67691732

>  <Name>
2o3x_lig

>  <RI>
3.34184e+07

>  <Rbt.Current_Directory>
/home/itssahil/PROJECTS/Mol_Feturizer/New_Systems/rnas/2o3x

>  <Rbt.Executable>
rbdock ($Id: //depot/dev/client3/rdock/2013.1/src/exe/rbdock.cxx#4 $)

>  <Rbt.Library>
libRbt.so (2013.1, Build901 2013/11/27)

>  <Rbt.Parameter_File>
/export/apps/rDock/src/rDock_2013.1_src/data/scripts/dock_solv.prm

>  <Rbt.Receptor>
prm/pocket_docking_6.prm

>  <SCORE>
-14.4651

>  <SCORE.INTER>
-16.4758

>  <SCORE.INTER.CONST>
1

>  <SCORE.INTER.POLAR>
-2.6048

>  <SCORE.INTER.ROT>
6

>  <SCORE.INTER.SOLV>
11.7554

>  <SCORE.INTER.VDW>
-13.8197

>  <SCORE.INTER.norm>
-0.531478

>  <SCORE.INTRA>
2.0107

>  <SCORE.INTRA.DIHEDRAL>
1.05139

>  <SCORE.INTRA.DIHEDRAL.0>
9.37739

>  <SCORE.INTRA.POLAR>
0

>  <SCORE.INTRA.POLAR.0>
0

>  <SCORE.INTRA.REPUL>
0

>  <SCORE.INTRA.REPUL.0>
0

>  <SCORE.INTRA.SOLV>
2.74447

>  <SCORE.INTRA.SOLV.lig_0>
-82.9274

>  <SCORE.INTRA.VDW>
0.112768

>  <SCORE.INTRA.VDW.0>
-3.84922

>  <SCORE.INTRA.norm>
0.0648611

>  <SCORE.RESTR>
0

>  <SCORE.RESTR.CAVITY>
0

>  <SCORE.RESTR.norm>
0

>  <SCORE.SYSTEM>
0

>  <SCORE.SYSTEM.CONST>
0

>  <SCORE.SYSTEM.DIHEDRAL>
0

>  <SCORE.SYSTEM.SOLV>
0

>  <SCORE.SYSTEM.norm>
0

>  <SCORE.heavy>
31

>  <SCORE.norm>
-0.466616

>  <RMSD>
6.770

$$$$
2o3x_lig
 OpenBabel11021811463D
libRbt.so/2013.1/901 2013/11/27
 31 33  0  0  0  0  0  0  0  0999 V2000
   20.1283    8.0179    9.6775 C   0  0  2  0  0  0  0  0  0  0  0  0
   20.2593    9.2914   10.3230 O   0  0  0  0  0  0  0  0  0  0  0  0
   17.1671   12.0085   11.4865 C   0  0  2  0  0  0  0  0  0  0  0  0
   16.0263   12.9507   11.4730 N   0  0  0  0  0  0  0  0  0  0  0  0
   16.4291    7.6524   10.1479 C   0  0  1  0  0  0  0  0  0  0  0  0
   21.1533    7.0315   10.3216 C   0  0  2  0  0  0  0  0  0  0  0  0
   21.1063    7.0660   11.8056 N   0  0  0  0  0  0  0  0  0  0  0  0
   18.4292   12.6024   10.7767 C   0  0  0  0  0  0  0  0  0  0  0  0
   15.9585    6.7827    8.9362 C   0  0  2  0  0  0  0  0  0  0  0  0
   14.9227    7.3646    8.0978 O   0  0  0  0  0  0  0  0  0  0  0  0
   22.5963    7.3457    9.8832 C   0  0  1  0  0  0  0  0  0  0  0  0
   23.4943    6.4157   10.4336 O   0  0  0  0  0  0  0  0  0  0  0  0
   19.5890   11.5447   10.8699 C   0  0  2  0  0  0  0  0  0  0  0  0
   20.8419   12.0452   10.2288 N   0  0  0  0  0  0  0  0  0  0  0  0
   15.5729    5.5288    9.7030 C   0  0  2  0  0  0  0  0  0  0  0  0
   14.2545    5.6789   10.3331 O   0  0  0  0  0  0  0  0  0  0  0  0
   22.6842    7.3380    8.3663 C   0  0  2  0  0  0  0  0  0  0  0  0
   23.9916    7.5988    7.9684 O   0  0  0  0  0  0  0  0  0  0  0  0
   19.1742   10.2178   10.1724 C   0  0  2  0  0  0  0  0  0  0  0  0
   16.6653    5.3746   10.7547 C   0  0  2  0  0  0  0  0  0  0  0  0
   16.8273    6.7286   11.1682 O   0  0  0  0  0  0  0  0  0  0  0  0
   21.7194    8.4038    7.7740 C   0  0  2  0  0  0  0  0  0  0  0  0
   20.3692    8.1308    8.2067 O   0  0  0  0  0  0  0  0  0  0  0  0
   17.8806    9.6063   10.7459 C   0  0  2  0  0  0  0  0  0  0  0  0
   17.5199    8.5252    9.8158 O   0  0  0  0  0  0  0  0  0  0  0  0
   18.0188    4.7952   10.2202 C   0  0  0  0  0  0  0  0  0  0  0  0
   17.8092    3.5042    9.6551 N   0  0  0  0  0  0  0  0  0  0  0  0
   21.7467    8.4324    6.2634 C   0  0  0  0  0  0  0  0  0  0  0  0
   21.3980    7.2086    5.7260 O   0  0  0  0  0  0  0  0  0  0  0  0
   16.7276   10.7035   10.7986 C   0  0  1  0  0  0  0  0  0  0  0  0
   15.5847   10.2286   11.5262 O   0  0  0  0  0  0  0  0  0  0  0  0
  1  2  1  1  0  0  0
  1  6  1  0  0  0  0
  1 23  1  0  0  0  0
  3  4  1  6  0  0  0
  3  8  1  0  0  0  0
  3 30  1  0  0  0  0
  5  9  1  0  0  0  0
  5 21  1  0  0  0  0
  5 25  1  6  0  0  0
  6  7  1  1  0  0  0
  6 11  1  0  0  0  0
  8 13  1  0  0  0  0
  9 10  1  1  0  0  0
  9 15  1  0  0  0  0
 11 12  1  1  0  0  0
 11 17  1  0  0  0  0
 13 14  1  6  0  0  0
 13 19  1  0  0  0  0
 15 16  1  1  0  0  0
 15 20  1  0  0  0  0
 17 18  1  1  0  0  0
 17 22  1  0  0  0  0
 19  2  1  1  0  0  0
 19 24  1  0  0  0  0
 20 21  1  0  0  0  0
 20 26  1  6  0  0  0
 22 23  1  0  0  0  0
 22 28  1  6  0  0  0
 24 25  1  6  0  0  0
 24 30  1  0  0  0  0
 26 27  1  0  0  0  0
 28 29  1  0  0  0  0
 30 31  1  1  0  0  0
M  END
>  <CHROM.1>
-162.17018622,166.70360517,-176.14852611,-59.51633363,58.95827373,173.19783489
18.90557253,8.23320177,9.77004209,-0.20141285,0.25708435,0.23898609

>  <Name>
2o3x_lig

>  <RI>
2.78316e+07

>  <Rbt.Current_Directory>
/home/itssahil/PROJECTS/Mol_Feturizer/New_Systems/rnas/2o3x

>  <Rbt.Executable>
rbdock ($Id: //depot/dev/client3/rdock/2013.1/src/exe/rbdock.cxx#4 $)

>  <Rbt.Library>
libRbt.so (2013.1, Build901 2013/11/27)

>  <Rbt.Parameter_File>
/export/apps/rDock/src/rDock_2013.1_src/data/scripts/dock_solv.prm

>  <Rbt.Receptor>
prm/pocket_docking_7.prm

>  <SCORE>
-8.39344

>  <SCORE.INTER>
-5.34762

>  <SCORE.INTER.CONST>
1

>  <SCORE.INTER.POLAR>
-1.70539

>  <SCORE.INTER.ROT>
6

>  <SCORE.INTER.SOLV>
12.7515

>  <SCORE.INTER.VDW>
-9.73093

>  <SCORE.INTER.norm>
-0.172504

>  <SCORE.INTRA>
-3.04582

>  <SCORE.INTRA.DIHEDRAL>
-6.60011

>  <SCORE.INTRA.DIHEDRAL.0>
9.37739

>  <SCORE.INTRA.POLAR>
0

>  <SCORE.INTRA.POLAR.0>
0

>  <SCORE.INTRA.REPUL>
0

>  <SCORE.INTRA.REPUL.0>
0

>  <SCORE.INTRA.SOLV>
-2.16563

>  <SCORE.INTRA.SOLV.lig_0>
-82.9274

>  <SCORE.INTRA.VDW>
1.33705

>  <SCORE.INTRA.VDW.0>
-3.84922

>  <SCORE.INTRA.norm>
-0.0982522

>  <SCORE.RESTR>
0

>  <SCORE.RESTR.CAVITY>
0

>  <SCORE.RESTR.norm>
0

>  <SCORE.SYSTEM>
0

>  <SCORE.SYSTEM.CONST>
0

>  <SCORE.SYSTEM.DIHEDRAL>
0

>  <SCORE.SYSTEM.SOLV>
0

>  <SCORE.SYSTEM.norm>
0

>  <SCORE.heavy>
31

>  <SCORE.norm>
-0.270756

>  <RMSD>
6.772

$$$$
2o3x_lig
 OpenBabel11021811463D
libRbt.so/2013.1/901 2013/11/27
 31 33  0  0  0  0  0  0  0  0999 V2000
   18.0721   10.0026    8.4257 C   0  0  2  0  0  0  0  0  0  0  0  0
   18.7902    9.0561    9.2282 O   0  0  0  0  0  0  0  0  0  0  0  0
   19.9525    5.0367    8.3386 C   0  0  2  0  0  0  0  0  0  0  0  0
   19.9387    3.6029    7.9733 N   0  0  0  0  0  0  0  0  0  0  0  0
   18.4678    7.8694    5.1501 C   0  0  1  0  0  0  0  0  0  0  0  0
   18.0420   11.3679    9.1831 C   0  0  2  0  0  0  0  0  0  0  0  0
   19.3841   11.7593    9.6844 N   0  0  0  0  0  0  0  0  0  0  0  0
   19.2380    5.3025    9.7055 C   0  0  0  0  0  0  0  0  0  0  0  0
   17.4608    8.7075    4.2959 C   0  0  2  0  0  0  0  0  0  0  0  0
   16.1975    8.0597    3.9820 O   0  0  0  0  0  0  0  0  0  0  0  0
   17.0773   11.3303   10.3834 C   0  0  1  0  0  0  0  0  0  0  0  0
   17.0282   12.5829   11.0183 O   0  0  0  0  0  0  0  0  0  0  0  0
   19.3318    6.8406   10.0183 C   0  0  2  0  0  0  0  0  0  0  0  0
   18.6865    7.1763   11.3229 N   0  0  0  0  0  0  0  0  0  0  0  0
   18.3706    9.0071    3.1162 C   0  0  2  0  0  0  0  0  0  0  0  0
   18.4547    7.8559    2.2078 O   0  0  0  0  0  0  0  0  0  0  0  0
   15.6926   10.9155    9.9153 C   0  0  2  0  0  0  0  0  0  0  0  0
   14.8141   10.9031   10.9941 O   0  0  0  0  0  0  0  0  0  0  0  0
   18.6393    7.6680    8.8981 C   0  0  2  0  0  0  0  0  0  0  0  0
   19.7261    9.3043    3.7466 C   0  0  2  0  0  0  0  0  0  0  0  0
   19.7764    8.2967    4.7529 O   0  0  0  0  0  0  0  0  0  0  0  0
   15.7551    9.5082    9.2570 C   0  0  2  0  0  0  0  0  0  0  0  0
   16.6811    9.5306    8.1494 O   0  0  0  0  0  0  0  0  0  0  0  0
   19.2175    7.3980    7.4949 C   0  0  2  0  0  0  0  0  0  0  0  0
   18.2915    8.0592    6.5626 O   0  0  0  0  0  0  0  0  0  0  0  0
   19.8590   10.7285    4.3848 C   0  0  0  0  0  0  0  0  0  0  0  0
   19.9581   11.7156    3.3622 N   0  0  0  0  0  0  0  0  0  0  0  0
   14.4081    9.0459    8.7520 C   0  0  0  0  0  0  0  0  0  0  0  0
   14.5039    7.8450    8.0762 O   0  0  0  0  0  0  0  0  0  0  0  0
   19.2695    5.8319    7.2114 C   0  0  1  0  0  0  0  0  0  0  0  0
   20.0011    5.5402    6.0111 O   0  0  0  0  0  0  0  0  0  0  0  0
  1  2  1  1  0  0  0
  1  6  1  0  0  0  0
  1 23  1  0  0  0  0
  3  4  1  6  0  0  0
  3  8  1  0  0  0  0
  3 30  1  0  0  0  0
  5  9  1  0  0  0  0
  5 21  1  0  0  0  0
  5 25  1  1  0  0  0
  6  7  1  1  0  0  0
  6 11  1  0  0  0  0
  8 13  1  0  0  0  0
  9 10  1  6  0  0  0
  9 15  1  0  0  0  0
 11 12  1  6  0  0  0
 11 17  1  0  0  0  0
 13 14  1  1  0  0  0
 13 19  1  0  0  0  0
 15 16  1  6  0  0  0
 15 20  1  0  0  0  0
 17 18  1  1  0  0  0
 17 22  1  0  0  0  0
 19  2  1  1  0  0  0
 19 24  1  0  0  0  0
 20 21  1  0  0  0  0
 20 26  1  1  0  0  0
 22 23  1  0  0  0  0
 22 28  1  6  0  0  0
 24 25  1  6  0  0  0
 24 30  1  0  0  0  0
 26 27  1  0  0  0  0
 28 29  1  0  0  0  0
 30 31  1  6  0  0  0
M  END
>  <CHROM.1>
163.99023202,-176.42016990,-171.84845275,-73.31147845,175.12926069,-173.14297079
18.06651969,8.64662824,7.45230702,2.49235885,-1.11234864,2.05783407

>  <Name>
2o3x_lig

>  <RI>
0

>  <Rbt.Current_Directory>
/home/itssahil/PROJECTS/Mol_Feturizer/New_Systems/rnas/2o3x

>  <Rbt.Executable>
rbdock ($Id: //depot/dev/client3/rdock/2013.1/src/exe/rbdock.cxx#4 $)

>  <Rbt.Library>
libRbt.so (2013.1, Build901 2013/11/27)

>  <Rbt.Parameter_File>
/export/apps/rDock/src/rDock_2013.1_src/data/scripts/dock_solv.prm

>  <Rbt.Receptor>
prm/pocket_docking_5.prm

>  <SCORE>
-10.652

>  <SCORE.INTER>
-7.60943

>  <SCORE.INTER.CONST>
1

>  <SCORE.INTER.POLAR>
-0.951594

>  <SCORE.INTER.ROT>
6

>  <SCORE.INTER.SOLV>
15.8063

>  <SCORE.INTER.VDW>
-14.7697

>  <SCORE.INTER.norm>
-0.245465

>  <SCORE.INTRA>
-3.04259

>  <SCORE.INTRA.DIHEDRAL>
-6.69189

>  <SCORE.INTRA.DIHEDRAL.0>
9.37739

>  <SCORE.INTRA.POLAR>
0

>  <SCORE.INTRA.POLAR.0>
0

>  <SCORE.INTRA.REPUL>
0.0260022

>  <SCORE.INTRA.REPUL.0>
0

>  <SCORE.INTRA.SOLV>
-2.95937

>  <SCORE.INTRA.SOLV.lig_0>
-82.9274

>  <SCORE.INTRA.VDW>
1.65303

>  <SCORE.INTRA.VDW.0>
-3.84922

>  <SCORE.INTRA.norm>
-0.0981479

>  <SCORE.RESTR>
0

>  <SCORE.RESTR.CAVITY>
0

>  <SCORE.RESTR.norm>
0

>  <SCORE.SYSTEM>
0

>  <SCORE.SYSTEM.CONST>
0

>  <SCORE.SYSTEM.DIHEDRAL>
0

>  <SCORE.SYSTEM.SOLV>
0

>  <SCORE.SYSTEM.norm>
0

>  <SCORE.heavy>
31

>  <SCORE.norm>
-0.343613

>  <RMSD>
6.799

$$$$
2o3x_lig
 OpenBabel11021811463D
libRbt.so/2013.1/901 2013/11/27
 31 33  0  0  0  0  0  0  0  0999 V2000
   17.1030    6.3525    6.9178 C   0  0  2  0  0  0  0  0  0  0  0  0
   17.0073    6.6339    8.3204 O   0  0  0  0  0  0  0  0  0  0  0  0
   19.4128    9.0803   10.8751 C   0  0  2  0  0  0  0  0  0  0  0  0
   20.5539    9.6936   11.5902 N   0  0  0  0  0  0  0  0  0  0  0  0
   19.3956    9.5274    6.3520 C   0  0  1  0  0  0  0  0  0  0  0  0
   15.6579    6.1973    6.3469 C   0  0  2  0  0  0  0  0  0  0  0  0
   14.7658    7.3054    6.7736 N   0  0  0  0  0  0  0  0  0  0  0  0
   19.1878    7.5896   11.2953 C   0  0  0  0  0  0  0  0  0  0  0  0
   20.5764    9.2090    5.3771 C   0  0  2  0  0  0  0  0  0  0  0  0
   21.9144    9.3490    5.9290 O   0  0  0  0  0  0  0  0  0  0  0  0
   15.0127    4.8697    6.7875 C   0  0  1  0  0  0  0  0  0  0  0  0
   13.7345    4.7287    6.2214 O   0  0  0  0  0  0  0  0  0  0  0  0
   17.9427    7.0395   10.5082 C   0  0  2  0  0  0  0  0  0  0  0  0
   17.6478    5.6203   10.8688 N   0  0  0  0  0  0  0  0  0  0  0  0
   20.2075   10.1746    4.2633 C   0  0  2  0  0  0  0  0  0  0  0  0
   20.6188   11.5454    4.5943 O   0  0  0  0  0  0  0  0  0  0  0  0
   15.9051    3.7078    6.3847 C   0  0  2  0  0  0  0  0  0  0  0  0
   15.3134    2.5061    6.7612 O   0  0  0  0  0  0  0  0  0  0  0  0
   18.1890    7.1178    8.9745 C   0  0  2  0  0  0  0  0  0  0  0  0
   18.6906   10.0712    4.1567 C   0  0  2  0  0  0  0  0  0  0  0  0
   18.3309   10.0288    5.5348 O   0  0  0  0  0  0  0  0  0  0  0  0
   17.3001    3.8533    7.0556 C   0  0  2  0  0  0  0  0  0  0  0  0
   17.8963    5.1104    6.6693 O   0  0  0  0  0  0  0  0  0  0  0  0
   18.5144    8.5416    8.4813 C   0  0  2  0  0  0  0  0  0  0  0  0
   18.9558    8.3754    7.0879 O   0  0  0  0  0  0  0  0  0  0  0  0
   18.1669    8.7976    3.4103 C   0  0  0  0  0  0  0  0  0  0  0  0
   18.4942    7.6263    4.1525 N   0  0  0  0  0  0  0  0  0  0  0  0
   18.2429    2.7345    6.6778 C   0  0  0  0  0  0  0  0  0  0  0  0
   19.4764    2.8843    7.2812 O   0  0  0  0  0  0  0  0  0  0  0  0
   19.6783    9.1782    9.3621 C   0  0  1  0  0  0  0  0  0  0  0  0
   19.8519   10.5735    9.0722 O   0  0  0  0  0  0  0  0  0  0  0  0
  1  2  1  1  0  0  0
  1  6  1  0  0  0  0
  1 23  1  0  0  0  0
  3  4  1  1  0  0  0
  3  8  1  0  0  0  0
  3 30  1  0  0  0  0
  5  9  1  0  0  0  0
  5 21  1  0  0  0  0
  5 25  1  6  0  0  0
  6  7  1  1  0  0  0
  6 11  1  0  0  0  0
  8 13  1  0  0  0  0
  9 10  1  1  0  0  0
  9 15  1  0  0  0  0
 11 12  1  6  0  0  0
 11 17  1  0  0  0  0
 13 14  1  1  0  0  0
 13 19  1  0  0  0  0
 15 16  1  1  0  0  0
 15 20  1  0  0  0  0
 17 18  1  1  0  0  0
 17 22  1  0  0  0  0
 19  2  1  6  0  0  0
 19 24  1  0  0  0  0
 20 21  1  0  0  0  0
 20 26  1  6  0  0  0
 22 23  1  0  0  0  0
 22 28  1  6  0  0  0
 24 25  1  6  0  0  0
 24 30  1  0  0  0  0
 26 27  1  0  0  0  0
 28 29  1  0  0  0  0
 30 31  1  6  0  0  0
M  END
>  <CHROM.1>
-165.82011811,143.98554023,-167.35798712,65.44103365,179.85714538,-177.18264664
18.19327737,7.27922870,7.20524074,2.87444492,0.96949391,1.83612288

>  <Name>
2o3x_lig

>  <RI>
0

>  <Rbt.Current_Directory>
/home/itssahil/PROJECTS/Mol_Feturizer/New_Systems/rnas/2o3x

>  <Rbt.Executable>
rbdock ($Id: //depot/dev/client3/rdock/2013.1/src/exe/rbdock.cxx#4 $)

>  <Rbt.Library>
libRbt.so (2013.1, Build901 2013/11/27)

>  <Rbt.Parameter_File>
/export/apps/rDock/src/rDock_2013.1_src/data/scripts/dock_solv.prm

>  <Rbt.Receptor>
prm/pocket_docking_8.prm

>  <SCORE>
-8.42357

>  <SCORE.INTER>
-9.03273

>  <SCORE.INTER.CONST>
1

>  <SCORE.INTER.POLAR>
-1.62787

>  <SCORE.INTER.ROT>
6

>  <SCORE.INTER.SOLV>
10.3047

>  <SCORE.INTER.VDW>
-11.6305

>  <SCORE.INTER.norm>
-0.291378

>  <SCORE.INTRA>
0.60916

>  <SCORE.INTRA.DIHEDRAL>
-2.66347

>  <SCORE.INTRA.DIHEDRAL.0>
9.37739

>  <SCORE.INTRA.POLAR>
0

>  <SCORE.INTRA.POLAR.0>
0

>  <SCORE.INTRA.REPUL>
0

>  <SCORE.INTRA.REPUL.0>
0

>  <SCORE.INTRA.SOLV>
1.88067

>  <SCORE.INTRA.SOLV.lig_0>
-82.9274

>  <SCORE.INTRA.VDW>
1.00056

>  <SCORE.INTRA.VDW.0>
-3.84922

>  <SCORE.INTRA.norm>
0.0196503

>  <SCORE.RESTR>
0

>  <SCORE.RESTR.CAVITY>
0

>  <SCORE.RESTR.norm>
0

>  <SCORE.SYSTEM>
0

>  <SCORE.SYSTEM.CONST>
0

>  <SCORE.SYSTEM.DIHEDRAL>
0

>  <SCORE.SYSTEM.SOLV>
0

>  <SCORE.SYSTEM.norm>
0

>  <SCORE.heavy>
31

>  <SCORE.norm>
-0.271728

>  <RMSD>
6.803

$$$$
2o3x_lig
 OpenBabel11021811463D
libRbt.so/2013.1/901 2013/11/27
 31 33  0  0  0  0  0  0  0  0999 V2000
   19.9436    8.8524   11.3440 C   0  0  2  0  0  0  0  0  0  0  0  0
   18.9246    8.7623   10.3395 O   0  0  0  0  0  0  0  0  0  0  0  0
   18.9702    8.5162    6.0692 C   0  0  2  0  0  0  0  0  0  0  0  0
   19.2914    8.7186    4.6391 N   0  0  0  0  0  0  0  0  0  0  0  0
   22.2623    6.7694    8.7265 C   0  0  1  0  0  0  0  0  0  0  0  0
   19.3126    8.4730   12.7211 C   0  0  2  0  0  0  0  0  0  0  0  0
   18.5196    7.2194   12.6467 N   0  0  0  0  0  0  0  0  0  0  0  0
   18.3437    9.7951    6.7182 C   0  0  0  0  0  0  0  0  0  0  0  0
   23.2796    6.4690    9.8759 C   0  0  2  0  0  0  0  0  0  0  0  0
   24.5126    7.2394    9.8534 O   0  0  0  0  0  0  0  0  0  0  0  0
   18.3916    9.5886   13.2505 C   0  0  1  0  0  0  0  0  0  0  0  0
   17.8760    9.2475   14.5123 O   0  0  0  0  0  0  0  0  0  0  0  0
   18.0116    9.4716    8.2207 C   0  0  2  0  0  0  0  0  0  0  0  0
   17.3892   10.6415    8.9101 N   0  0  0  0  0  0  0  0  0  0  0  0
   23.4216    4.9720    9.6573 C   0  0  2  0  0  0  0  0  0  0  0  0
   24.3306    4.6849    8.5397 O   0  0  0  0  0  0  0  0  0  0  0  0
   19.1616   10.8963   13.3251 C   0  0  2  0  0  0  0  0  0  0  0  0
   18.3383   11.9005   13.8248 O   0  0  0  0  0  0  0  0  0  0  0  0
   19.3030    9.0749    8.9913 C   0  0  2  0  0  0  0  0  0  0  0  0
   22.0073    4.4969    9.3456 C   0  0  2  0  0  0  0  0  0  0  0  0
   21.5595    5.5436    8.4886 O   0  0  0  0  0  0  0  0  0  0  0  0
   19.6860   11.2841   11.9136 C   0  0  2  0  0  0  0  0  0  0  0  0
   20.5260   10.2277   11.4003 O   0  0  0  0  0  0  0  0  0  0  0  0
   20.0431    7.8767    8.3644 C   0  0  2  0  0  0  0  0  0  0  0  0
   21.3367    7.8148    9.0619 O   0  0  0  0  0  0  0  0  0  0  0  0
   21.0667    4.3630   10.5908 C   0  0  0  0  0  0  0  0  0  0  0  0
   19.8035    3.8359   10.1954 N   0  0  0  0  0  0  0  0  0  0  0  0
   20.4790   12.5703   11.9248 C   0  0  0  0  0  0  0  0  0  0  0  0
   19.6934   13.6480   12.2845 O   0  0  0  0  0  0  0  0  0  0  0  0
   20.2618    8.1174    6.8056 C   0  0  1  0  0  0  0  0  0  0  0  0
   20.7481    6.9334    6.1552 O   0  0  0  0  0  0  0  0  0  0  0  0
  1  2  1  6  0  0  0
  1  6  1  0  0  0  0
  1 23  1  0  0  0  0
  3  4  1  6  0  0  0
  3  8  1  0  0  0  0
  3 30  1  0  0  0  0
  5  9  1  0  0  0  0
  5 21  1  0  0  0  0
  5 25  1  1  0  0  0
  6  7  1  6  0  0  0
  6 11  1  0  0  0  0
  8 13  1  0  0  0  0
  9 10  1  6  0  0  0
  9 15  1  0  0  0  0
 11 12  1  1  0  0  0
 11 17  1  0  0  0  0
 13 14  1  1  0  0  0
 13 19  1  0  0  0  0
 15 16  1  6  0  0  0
 15 20  1  0  0  0  0
 17 18  1  6  0  0  0
 17 22  1  0  0  0  0
 19  2  1  1  0  0  0
 19 24  1  0  0  0  0
 20 21  1  0  0  0  0
 20 26  1  1  0  0  0
 22 23  1  0  0  0  0
 22 28  1  1  0  0  0
 24 25  1  1  0  0  0
 24 30  1  0  0  0  0
 26 27  1  0  0  0  0
 28 29  1  0  0  0  0
 30 31  1  6  0  0  0
M  END
>  <CHROM.1>
179.98149067,-156.76085980,-157.47879463,-176.42133013,-64.17158711,178.46640075
20.24252747,8.33909145,9.98180218,-2.39234230,0.96413454,-1.73616088

>  <Name>
2o3x_lig

>  <RI>
2.78316e+07

>  <Rbt.Current_Directory>
/home/itssahil/PROJECTS/Mol_Feturizer/New_Systems/rnas/2o3x

>  <Rbt.Executable>
rbdock ($Id: //depot/dev/client3/rdock/2013.1/src/exe/rbdock.cxx#4 $)

>  <Rbt.Library>
libRbt.so (2013.1, Build901 2013/11/27)

>  <Rbt.Parameter_File>
/export/apps/rDock/src/rDock_2013.1_src/data/scripts/dock_solv.prm

>  <Rbt.Receptor>
prm/pocket_docking_7.prm

>  <SCORE>
-8.31693

>  <SCORE.INTER>
-6.04939

>  <SCORE.INTER.CONST>
1

>  <SCORE.INTER.POLAR>
-0.619977

>  <SCORE.INTER.ROT>
6

>  <SCORE.INTER.SOLV>
7.28013

>  <SCORE.INTER.VDW>
-11.993

>  <SCORE.INTER.norm>
-0.195142

>  <SCORE.INTRA>
-2.26754

>  <SCORE.INTRA.DIHEDRAL>
-4.53974

>  <SCORE.INTRA.DIHEDRAL.0>
9.37739

>  <SCORE.INTRA.POLAR>
0

>  <SCORE.INTRA.POLAR.0>
0

>  <SCORE.INTRA.REPUL>
0

>  <SCORE.INTRA.REPUL.0>
0

>  <SCORE.INTRA.SOLV>
-1.94029

>  <SCORE.INTRA.SOLV.lig_0>
-82.9274

>  <SCORE.INTRA.VDW>
0.972476

>  <SCORE.INTRA.VDW.0>
-3.84922

>  <SCORE.INTRA.norm>
-0.0731466

>  <SCORE.RESTR>
0

>  <SCORE.RESTR.CAVITY>
0

>  <SCORE.RESTR.norm>
0

>  <SCORE.SYSTEM>
0

>  <SCORE.SYSTEM.CONST>
0

>  <SCORE.SYSTEM.DIHEDRAL>
0

>  <SCORE.SYSTEM.SOLV>
0

>  <SCORE.SYSTEM.norm>
0

>  <SCORE.heavy>
31

>  <SCORE.norm>
-0.268288

>  <RMSD>
6.805

$$$$
2o3x_lig
 OpenBabel11021811463D
libRbt.so/2013.1/901 2013/11/27
 31 33  0  0  0  0  0  0  0  0999 V2000
   24.5313    6.5539    8.8634 C   0  0  2  0  0  0  0  0  0  0  0  0
   23.6686    5.4088    8.8544 O   0  0  0  0  0  0  0  0  0  0  0  0
   20.5497    4.9477   11.7454 C   0  0  2  0  0  0  0  0  0  0  0  0
   19.7926    4.6510   12.9816 N   0  0  0  0  0  0  0  0  0  0  0  0
   23.7715    7.8851   12.3886 C   0  0  1  0  0  0  0  0  0  0  0  0
   23.8219    7.7110    8.0912 C   0  0  2  0  0  0  0  0  0  0  0  0
   22.4157    7.8976    8.5311 N   0  0  0  0  0  0  0  0  0  0  0  0
   21.1261    3.6521   11.0832 C   0  0  0  0  0  0  0  0  0  0  0  0
   24.1900    7.2088   13.7353 C   0  0  2  0  0  0  0  0  0  0  0  0
   23.1177    6.5907   14.4985 O   0  0  0  0  0  0  0  0  0  0  0  0
   23.8164    7.4599    6.5714 C   0  0  1  0  0  0  0  0  0  0  0  0
   23.2192    8.5364    5.8941 O   0  0  0  0  0  0  0  0  0  0  0  0
   21.8828    4.0667    9.7688 C   0  0  2  0  0  0  0  0  0  0  0  0
   22.4496    2.8785    9.0629 N   0  0  0  0  0  0  0  0  0  0  0  0
   24.8667    8.4064   14.3809 C   0  0  2  0  0  0  0  0  0  0  0  0
   23.8764    9.3303   14.9495 O   0  0  0  0  0  0  0  0  0  0  0  0
   25.2388    7.2455    6.0822 C   0  0  2  0  0  0  0  0  0  0  0  0
   25.2385    7.0413    4.7060 O   0  0  0  0  0  0  0  0  0  0  0  0
   23.0453    5.0473   10.0951 C   0  0  2  0  0  0  0  0  0  0  0  0
   25.6383    9.0663   13.2441 C   0  0  2  0  0  0  0  0  0  0  0  0
   24.6876    8.9683   12.1873 O   0  0  0  0  0  0  0  0  0  0  0  0
   25.8701    6.0232    6.8068 C   0  0  2  0  0  0  0  0  0  0  0  0
   25.8503    6.2409    8.2340 O   0  0  0  0  0  0  0  0  0  0  0  0
   22.5819    6.3164   10.8373 C   0  0  2  0  0  0  0  0  0  0  0  0
   23.8194    6.9812   11.2737 O   0  0  0  0  0  0  0  0  0  0  0  0
   26.9753    8.3510   12.8516 C   0  0  0  0  0  0  0  0  0  0  0  0
   27.8963    9.2958   12.3140 N   0  0  0  0  0  0  0  0  0  0  0  0
   27.2960    5.7689    6.3760 C   0  0  0  0  0  0  0  0  0  0  0  0
   27.9657    6.9484    6.1153 O   0  0  0  0  0  0  0  0  0  0  0  0
   21.6869    5.9246   12.0947 C   0  0  1  0  0  0  0  0  0  0  0  0
   21.0626    7.0801   12.6746 O   0  0  0  0  0  0  0  0  0  0  0  0
  1  2  1  6  0  0  0
  1  6  1  0  0  0  0
  1 23  1  0  0  0  0
  3  4  1  1  0  0  0
  3  8  1  0  0  0  0
  3 30  1  0  0  0  0
  5  9  1  0  0  0  0
  5 21  1  0  0  0  0
  5 25  1  6  0  0  0
  6  7  1  1  0  0  0
  6 11  1  0  0  0  0
  8 13  1  0  0  0  0
  9 10  1  1  0  0  0
  9 15  1  0  0  0  0
 11 12  1  6  0  0  0
 11 17  1  0  0  0  0
 13 14  1  1  0  0  0
 13 19  1  0  0  0  0
 15 16  1  6  0  0  0
 15 20  1  0  0  0  0
 17 18  1  6  0  0  0
 17 22  1  0  0  0  0
 19  2  1  6  0  0  0
 19 24  1  0  0  0  0
 20 21  1  0  0  0  0
 20 26  1  6  0  0  0
 22 23  1  0  0  0  0
 22 28  1  6  0  0  0
 24 25  1  1  0  0  0
 24 30  1  0  0  0  0
 26 27  1  0  0  0  0
 28 29  1  0  0  0  0
 30 31  1  6  0  0  0
M  END
>  <CHROM.1>
-108.86039038,96.89003648,164.35994653,-151.85938765,35.08689460,-156.73657583
23.95637570,6.78422686,10.21865732,1.17825152,-0.60477576,-1.85708673

>  <Name>
2o3x_lig

>  <RI>
0

>  <Rbt.Current_Directory>
/home/itssahil/PROJECTS/Mol_Feturizer/New_Systems/rnas/2o3x

>  <Rbt.Executable>
rbdock ($Id: //depot/dev/client3/rdock/2013.1/src/exe/rbdock.cxx#4 $)

>  <Rbt.Library>
libRbt.so (2013.1, Build901 2013/11/27)

>  <Rbt.Parameter_File>
/export/apps/rDock/src/rDock_2013.1_src/data/scripts/dock_solv.prm

>  <Rbt.Receptor>
prm/blind_docking_60.prm

>  <SCORE>
8.42559

>  <SCORE.INTER>
-5.04548

>  <SCORE.INTER.CONST>
1

>  <SCORE.INTER.POLAR>
-0.712041

>  <SCORE.INTER.ROT>
6

>  <SCORE.INTER.SOLV>
32.1702

>  <SCORE.INTER.VDW>
-19.3136

>  <SCORE.INTER.norm>
-0.162758

>  <SCORE.INTRA>
9.71718

>  <SCORE.INTRA.DIHEDRAL>
9.90871

>  <SCORE.INTRA.DIHEDRAL.0>
9.37739

>  <SCORE.INTRA.POLAR>
0

>  <SCORE.INTRA.POLAR.0>
0

>  <SCORE.INTRA.REPUL>
0

>  <SCORE.INTRA.REPUL.0>
0

>  <SCORE.INTRA.SOLV>
0.312436

>  <SCORE.INTRA.SOLV.lig_0>
-82.9274

>  <SCORE.INTRA.VDW>
4.60661

>  <SCORE.INTRA.VDW.0>
-3.84922

>  <SCORE.INTRA.norm>
0.313458

>  <SCORE.RESTR>
3.75389

>  <SCORE.RESTR.CAVITY>
3.75389

>  <SCORE.RESTR.norm>
0.121093

>  <SCORE.SYSTEM>
0

>  <SCORE.SYSTEM.CONST>
0

>  <SCORE.SYSTEM.DIHEDRAL>
0

>  <SCORE.SYSTEM.SOLV>
0

>  <SCORE.SYSTEM.norm>
0

>  <SCORE.heavy>
31

>  <SCORE.norm>
0.271793

>  <RMSD>
6.816

$$$$
2o3x_lig
 OpenBabel11021811463D
libRbt.so/2013.1/901 2013/11/27
 31 33  0  0  0  0  0  0  0  0999 V2000
   21.8791    4.9953    4.2665 C   0  0  2  0  0  0  0  0  0  0  0  0
   21.2460    3.9841    5.0617 O   0  0  0  0  0  0  0  0  0  0  0  0
   22.7792    0.4855    6.9872 C   0  0  2  0  0  0  0  0  0  0  0  0
   23.4763   -0.7884    7.2708 N   0  0  0  0  0  0  0  0  0  0  0  0
   25.3077    4.2120    5.9219 C   0  0  1  0  0  0  0  0  0  0  0  0
   20.8778    6.1803    4.0884 C   0  0  2  0  0  0  0  0  0  0  0  0
   20.2643    6.5928    5.3765 N   0  0  0  0  0  0  0  0  0  0  0  0
   21.6075    0.3005    5.9663 C   0  0  0  0  0  0  0  0  0  0  0  0
   26.0905    5.2157    5.0132 C   0  0  2  0  0  0  0  0  0  0  0  0
   27.0833    4.6316    4.1257 O   0  0  0  0  0  0  0  0  0  0  0  0
   19.7412    5.8216    3.1125 C   0  0  1  0  0  0  0  0  0  0  0  0
   18.8822    6.9183    2.9287 O   0  0  0  0  0  0  0  0  0  0  0  0
   20.9145    1.6960    5.7551 C   0  0  2  0  0  0  0  0  0  0  0  0
   19.7671    1.6013    4.8033 N   0  0  0  0  0  0  0  0  0  0  0  0
   26.6232    6.1295    6.1041 C   0  0  2  0  0  0  0  0  0  0  0  0
   27.7958    5.5387    6.7627 O   0  0  0  0  0  0  0  0  0  0  0  0
   20.3281    5.3758    1.7838 C   0  0  2  0  0  0  0  0  0  0  0  0
   19.3029    5.0733    0.8932 O   0  0  0  0  0  0  0  0  0  0  0  0
   21.9326    2.7318    5.1986 C   0  0  2  0  0  0  0  0  0  0  0  0
   25.4627    6.2717    7.0820 C   0  0  2  0  0  0  0  0  0  0  0  0
   24.9808    4.9312    7.1172 O   0  0  0  0  0  0  0  0  0  0  0  0
   21.2390    4.1338    1.9967 C   0  0  2  0  0  0  0  0  0  0  0  0
   22.2889    4.4562    2.9341 O   0  0  0  0  0  0  0  0  0  0  0  0
   23.1729    2.9103    6.0965 C   0  0  2  0  0  0  0  0  0  0  0  0
   24.1129    3.7141    5.3001 O   0  0  0  0  0  0  0  0  0  0  0  0
   24.3308    7.2530    6.6245 C   0  0  0  0  0  0  0  0  0  0  0  0
   24.8495    8.1981    5.6931 N   0  0  0  0  0  0  0  0  0  0  0  0
   21.8698    3.6523    0.7108 C   0  0  0  0  0  0  0  0  0  0  0  0
   22.6033    2.4983    0.9060 O   0  0  0  0  0  0  0  0  0  0  0  0
   23.8095    1.4932    6.4463 C   0  0  1  0  0  0  0  0  0  0  0  0
   24.8270    1.6095    7.4524 O   0  0  0  0  0  0  0  0  0  0  0  0
  1  2  1  1  0  0  0
  1  6  1  0  0  0  0
  1 23  1  0  0  0  0
  3  4  1  6  0  0  0
  3  8  1  0  0  0  0
  3 30  1  0  0  0  0
  5  9  1  0  0  0  0
  5 21  1  0  0  0  0
  5 25  1  6  0  0  0
  6  7  1  1  0  0  0
  6 11  1  0  0  0  0
  8 13  1  0  0  0  0
  9 10  1  1  0  0  0
  9 15  1  0  0  0  0
 11 12  1  6  0  0  0
 11 17  1  0  0  0  0
 13 14  1  6  0  0  0
 13 19  1  0  0  0  0
 15 16  1  1  0  0  0
 15 20  1  0  0  0  0
 17 18  1  6  0  0  0
 17 22  1  0  0  0  0
 19  2  1  1  0  0  0
 19 24  1  0  0  0  0
 20 21  1  0  0  0  0
 20 26  1  6  0  0  0
 22 23  1  0  0  0  0
 22 28  1  6  0  0  0
 24 25  1  6  0  0  0
 24 30  1  0  0  0  0
 26 27  1  0  0  0  0
 28 29  1  0  0  0  0
 30 31  1  1  0  0  0
M  END
>  <CHROM.1>
172.07268832,-171.51209151,-165.02649741,-23.78255338,-176.03899289,171.72202752
22.90517409,4.13286136,4.80472005,-2.86569224,0.58267952,2.76290963

>  <Name>
2o3x_lig

>  <RI>
0

>  <Rbt.Current_Directory>
/home/itssahil/PROJECTS/Mol_Feturizer/New_Systems/rnas/2o3x

>  <Rbt.Executable>
rbdock ($Id: //depot/dev/client3/rdock/2013.1/src/exe/rbdock.cxx#4 $)

>  <Rbt.Library>
libRbt.so (2013.1, Build901 2013/11/27)

>  <Rbt.Parameter_File>
/export/apps/rDock/src/rDock_2013.1_src/data/scripts/dock_solv.prm

>  <Rbt.Receptor>
prm/pocket_docking_8.prm

>  <SCORE>
-11.3311

>  <SCORE.INTER>
-9.87074

>  <SCORE.INTER.CONST>
1

>  <SCORE.INTER.POLAR>
-1.71045

>  <SCORE.INTER.ROT>
6

>  <SCORE.INTER.SOLV>
20.015

>  <SCORE.INTER.VDW>
-15.1506

>  <SCORE.INTER.norm>
-0.318411

>  <SCORE.INTRA>
-1.46032

>  <SCORE.INTRA.DIHEDRAL>
-3.81502

>  <SCORE.INTRA.DIHEDRAL.0>
9.37739

>  <SCORE.INTRA.POLAR>
0

>  <SCORE.INTRA.POLAR.0>
0

>  <SCORE.INTRA.REPUL>
0

>  <SCORE.INTRA.REPUL.0>
0

>  <SCORE.INTRA.SOLV>
-1.34588

>  <SCORE.INTRA.SOLV.lig_0>
-82.9274

>  <SCORE.INTRA.VDW>
1.12013

>  <SCORE.INTRA.VDW.0>
-3.84922

>  <SCORE.INTRA.norm>
-0.047107

>  <SCORE.RESTR>
0

>  <SCORE.RESTR.CAVITY>
0

>  <SCORE.RESTR.norm>
0

>  <SCORE.SYSTEM>
0

>  <SCORE.SYSTEM.CONST>
0

>  <SCORE.SYSTEM.DIHEDRAL>
0

>  <SCORE.SYSTEM.SOLV>
0

>  <SCORE.SYSTEM.norm>
0

>  <SCORE.heavy>
31

>  <SCORE.norm>
-0.365518

>  <RMSD>
6.825

$$$$
2o3x_lig
 OpenBabel11021811463D
libRbt.so/2013.1/901 2013/11/27
 31 33  0  0  0  0  0  0  0  0999 V2000
   22.3561    5.6156   10.8182 C   0  0  2  0  0  0  0  0  0  0  0  0
   21.8232    6.2024    9.6235 O   0  0  0  0  0  0  0  0  0  0  0  0
   25.1486    6.2224    6.9329 C   0  0  2  0  0  0  0  0  0  0  0  0
   26.0058    6.0856    5.7346 N   0  0  0  0  0  0  0  0  0  0  0  0
   21.7424    9.0331    6.3877 C   0  0  1  0  0  0  0  0  0  0  0  0
   21.2361    5.6105   11.9063 C   0  0  2  0  0  0  0  0  0  0  0  0
   19.9516    5.0781   11.3844 N   0  0  0  0  0  0  0  0  0  0  0  0
   24.6442    4.8366    7.4568 C   0  0  0  0  0  0  0  0  0  0  0  0
   21.6114    8.5652    4.9011 C   0  0  2  0  0  0  0  0  0  0  0  0
   22.8562    8.2433    4.2220 O   0  0  0  0  0  0  0  0  0  0  0  0
   20.9759    7.0241   12.4603 C   0  0  1  0  0  0  0  0  0  0  0  0
   20.0018    6.9875   13.4723 O   0  0  0  0  0  0  0  0  0  0  0  0
   23.7722    5.0844    8.7415 C   0  0  2  0  0  0  0  0  0  0  0  0
   23.2654    3.8027    9.3174 N   0  0  0  0  0  0  0  0  0  0  0  0
   20.8446    9.7610    4.3617 C   0  0  2  0  0  0  0  0  0  0  0  0
   21.7433   10.8953    4.1096 O   0  0  0  0  0  0  0  0  0  0  0  0
   22.2724    7.6137   12.9896 C   0  0  2  0  0  0  0  0  0  0  0  0
   22.0356    8.8814   13.5115 O   0  0  0  0  0  0  0  0  0  0  0  0
   22.5533    5.9907    8.4067 C   0  0  2  0  0  0  0  0  0  0  0  0
   19.8397   10.0949    5.4579 C   0  0  2  0  0  0  0  0  0  0  0  0
   20.6501    9.9313    6.6184 O   0  0  0  0  0  0  0  0  0  0  0  0
   23.3249    7.6906   11.8477 C   0  0  2  0  0  0  0  0  0  0  0  0
   23.5501    6.3718   11.3048 O   0  0  0  0  0  0  0  0  0  0  0  0
   22.9527    7.3474    7.7933 C   0  0  2  0  0  0  0  0  0  0  0  0
   21.6932    7.9425    7.3206 O   0  0  0  0  0  0  0  0  0  0  0  0
   18.5916    9.1505    5.5189 C   0  0  0  0  0  0  0  0  0  0  0  0
   17.9198    9.1457    4.2625 N   0  0  0  0  0  0  0  0  0  0  0  0
   24.6468    8.2527   12.3167 C   0  0  0  0  0  0  0  0  0  0  0  0
   25.0871    7.6240   13.4652 O   0  0  0  0  0  0  0  0  0  0  0  0
   23.9566    7.1288    6.5766 C   0  0  1  0  0  0  0  0  0  0  0  0
   24.5153    8.3728    6.1278 O   0  0  0  0  0  0  0  0  0  0  0  0
  1  2  1  6  0  0  0
  1  6  1  0  0  0  0
  1 23  1  0  0  0  0
  3  4  1  6  0  0  0
  3  8  1  0  0  0  0
  3 30  1  0  0  0  0
  5  9  1  0  0  0  0
  5 21  1  0  0  0  0
  5 25  1  1  0  0  0
  6  7  1  6  0  0  0
  6 11  1  0  0  0  0
  8 13  1  0  0  0  0
  9 10  1  6  0  0  0
  9 15  1  0  0  0  0
 11 12  1  1  0  0  0
 11 17  1  0  0  0  0
 13 14  1  6  0  0  0
 13 19  1  0  0  0  0
 15 16  1  1  0  0  0
 15 20  1  0  0  0  0
 17 18  1  6  0  0  0
 17 22  1  0  0  0  0
 19  2  1  1  0  0  0
 19 24  1  0  0  0  0
 20 21  1  0  0  0  0
 20 26  1  1  0  0  0
 22 23  1  0  0  0  0
 22 28  1  1  0  0  0
 24 25  1  6  0  0  0
 24 30  1  0  0  0  0
 26 27  1  0  0  0  0
 28 29  1  0  0  0  0
 30 31  1  1  0  0  0
M  END
>  <CHROM.1>
-163.99622697,94.81339783,1.98398622,-56.61063830,49.50120203,-163.47691440
22.31201675,7.47330144,8.57910297,-1.38368645,0.50420729,-1.35730664

>  <Name>
2o3x_lig

>  <RI>
224

>  <Rbt.Current_Directory>
/home/itssahil/PROJECTS/Mol_Feturizer/New_Systems/rnas/2o3x

>  <Rbt.Executable>
rbdock ($Id: //depot/dev/client3/rdock/2013.1/src/exe/rbdock.cxx#4 $)

>  <Rbt.Library>
libRbt.so (2013.1, Build901 2013/11/27)

>  <Rbt.Parameter_File>
/export/apps/rDock/src/rDock_2013.1_src/data/scripts/dock_solv.prm

>  <Rbt.Receptor>
prm/blind_docking_100.prm

>  <SCORE>
2.31877

>  <SCORE.INTER>
-11.3674

>  <SCORE.INTER.CONST>
1

>  <SCORE.INTER.POLAR>
-0.399723

>  <SCORE.INTER.ROT>
6

>  <SCORE.INTER.SOLV>
17.8735

>  <SCORE.INTER.VDW>
-19.8037

>  <SCORE.INTER.norm>
-0.366692

>  <SCORE.INTRA>
11.3195

>  <SCORE.INTRA.DIHEDRAL>
5.25213

>  <SCORE.INTRA.DIHEDRAL.0>
9.37739

>  <SCORE.INTRA.POLAR>
0

>  <SCORE.INTRA.POLAR.0>
0

>  <SCORE.INTRA.REPUL>
0

>  <SCORE.INTRA.REPUL.0>
0

>  <SCORE.INTRA.SOLV>
0.792208

>  <SCORE.INTRA.SOLV.lig_0>
-82.9274

>  <SCORE.INTRA.VDW>
8.29737

>  <SCORE.INTRA.VDW.0>
-3.84922

>  <SCORE.INTRA.norm>
0.365146

>  <SCORE.RESTR>
2.36667

>  <SCORE.RESTR.CAVITY>
2.36667

>  <SCORE.RESTR.norm>
0.0763443

>  <SCORE.SYSTEM>
0

>  <SCORE.SYSTEM.CONST>
0

>  <SCORE.SYSTEM.DIHEDRAL>
0

>  <SCORE.SYSTEM.SOLV>
0

>  <SCORE.SYSTEM.norm>
0

>  <SCORE.heavy>
31

>  <SCORE.norm>
0.074799

>  <RMSD>
6.835

$$$$
2o3x_lig
 OpenBabel11021811463D
libRbt.so/2013.1/901 2013/11/27
 31 33  0  0  0  0  0  0  0  0999 V2000
   21.8656    6.5493    9.2907 C   0  0  2  0  0  0  0  0  0  0  0  0
   21.6548    7.8533    8.7335 O   0  0  0  0  0  0  0  0  0  0  0  0
   17.3915    7.7486    9.0671 C   0  0  2  0  0  0  0  0  0  0  0  0
   15.9529    8.0860    8.9896 N   0  0  0  0  0  0  0  0  0  0  0  0
   20.0605    9.1989    5.8760 C   0  0  1  0  0  0  0  0  0  0  0  0
   23.4033    6.3149    9.4279 C   0  0  2  0  0  0  0  0  0  0  0  0
   24.0891    7.4643   10.0717 N   0  0  0  0  0  0  0  0  0  0  0  0
   18.1726    8.7169   10.0166 C   0  0  0  0  0  0  0  0  0  0  0  0
   21.0034    9.4923    4.6631 C   0  0  2  0  0  0  0  0  0  0  0  0
   22.3633    9.8872    4.9937 O   0  0  0  0  0  0  0  0  0  0  0  0
   24.0652    6.0715    8.0584 C   0  0  1  0  0  0  0  0  0  0  0  0
   25.4379    5.8131    8.2111 O   0  0  0  0  0  0  0  0  0  0  0  0
   19.6767    8.2601   10.0555 C   0  0  2  0  0  0  0  0  0  0  0  0
   20.4909    9.1264   10.9598 N   0  0  0  0  0  0  0  0  0  0  0  0
   20.1507   10.5430    3.9719 C   0  0  2  0  0  0  0  0  0  0  0  0
   20.2923   11.8516    4.6241 O   0  0  0  0  0  0  0  0  0  0  0  0
   23.3793    4.9115    7.3567 C   0  0  2  0  0  0  0  0  0  0  0  0
   23.9904    4.6749    6.1294 O   0  0  0  0  0  0  0  0  0  0  0  0
   20.2991    8.3117    8.6310 C   0  0  2  0  0  0  0  0  0  0  0  0
   18.7245   10.0211    4.1008 C   0  0  2  0  0  0  0  0  0  0  0  0
   18.7386    9.5418    5.4427 O   0  0  0  0  0  0  0  0  0  0  0  0
   21.8714    5.2316    7.1535 C   0  0  2  0  0  0  0  0  0  0  0  0
   21.2529    5.4901    8.4323 O   0  0  0  0  0  0  0  0  0  0  0  0
   19.5345    7.4576    7.6004 C   0  0  2  0  0  0  0  0  0  0  0  0
   20.1045    7.8262    6.2954 O   0  0  0  0  0  0  0  0  0  0  0  0
   18.3511    8.8691    3.1074 C   0  0  0  0  0  0  0  0  0  0  0  0
   19.0562    7.6795    3.4504 N   0  0  0  0  0  0  0  0  0  0  0  0
   21.1274    4.1047    6.4753 C   0  0  0  0  0  0  0  0  0  0  0  0
   19.7930    4.4128    6.2958 O   0  0  0  0  0  0  0  0  0  0  0  0
   17.9798    7.7991    7.6455 C   0  0  1  0  0  0  0  0  0  0  0  0
   17.2161    6.8717    6.8594 O   0  0  0  0  0  0  0  0  0  0  0  0
  1  2  1  6  0  0  0
  1  6  1  0  0  0  0
  1 23  1  0  0  0  0
  3  4  1  6  0  0  0
  3  8  1  0  0  0  0
  3 30  1  0  0  0  0
  5  9  1  0  0  0  0
  5 21  1  0  0  0  0
  5 25  1  6  0  0  0
  6  7  1  6  0  0  0
  6 11  1  0  0  0  0
  8 13  1  0  0  0  0
  9 10  1  1  0  0  0
  9 15  1  0  0  0  0
 11 12  1  1  0  0  0
 11 17  1  0  0  0  0
 13 14  1  1  0  0  0
 13 19  1  0  0  0  0
 15 16  1  1  0  0  0
 15 20  1  0  0  0  0
 17 18  1  6  0  0  0
 17 22  1  0  0  0  0
 19  2  1  1  0  0  0
 19 24  1  0  0  0  0
 20 21  1  0  0  0  0
 20 26  1  6  0  0  0
 22 23  1  0  0  0  0
 22 28  1  1  0  0  0
 24 25  1  6  0  0  0
 24 30  1  0  0  0  0
 26 27  1  0  0  0  0
 28 29  1  0  0  0  0
 30 31  1  6  0  0  0
M  END
>  <CHROM.1>
-174.82116601,165.60325095,56.70223983,69.27115060,-179.56800538,-58.00314919
20.58415837,7.60698549,7.12952930,0.69081771,-0.44113253,1.95364944

>  <Name>
2o3x_lig

>  <RI>
3.34184e+07

>  <Rbt.Current_Directory>
/home/itssahil/PROJECTS/Mol_Feturizer/New_Systems/rnas/2o3x

>  <Rbt.Executable>
rbdock ($Id: //depot/dev/client3/rdock/2013.1/src/exe/rbdock.cxx#4 $)

>  <Rbt.Library>
libRbt.so (2013.1, Build901 2013/11/27)

>  <Rbt.Parameter_File>
/export/apps/rDock/src/rDock_2013.1_src/data/scripts/dock_solv.prm

>  <Rbt.Receptor>
prm/pocket_docking_6.prm

>  <SCORE>
-10.7402

>  <SCORE.INTER>
-9.58296

>  <SCORE.INTER.CONST>
1

>  <SCORE.INTER.POLAR>
-1.63117

>  <SCORE.INTER.ROT>
6

>  <SCORE.INTER.SOLV>
15.1551

>  <SCORE.INTER.VDW>
-13.6031

>  <SCORE.INTER.norm>
-0.309128

>  <SCORE.INTRA>
-1.15728

>  <SCORE.INTRA.DIHEDRAL>
-7.74216

>  <SCORE.INTRA.DIHEDRAL.0>
9.37739

>  <SCORE.INTRA.POLAR>
0

>  <SCORE.INTRA.POLAR.0>
0

>  <SCORE.INTRA.REPUL>
0

>  <SCORE.INTRA.REPUL.0>
0

>  <SCORE.INTRA.SOLV>
2.36687

>  <SCORE.INTRA.SOLV.lig_0>
-82.9274

>  <SCORE.INTRA.VDW>
1.53036

>  <SCORE.INTRA.VDW.0>
-3.84922

>  <SCORE.INTRA.norm>
-0.0373316

>  <SCORE.RESTR>
0

>  <SCORE.RESTR.CAVITY>
0

>  <SCORE.RESTR.norm>
0

>  <SCORE.SYSTEM>
0

>  <SCORE.SYSTEM.CONST>
0

>  <SCORE.SYSTEM.DIHEDRAL>
0

>  <SCORE.SYSTEM.SOLV>
0

>  <SCORE.SYSTEM.norm>
0

>  <SCORE.heavy>
31

>  <SCORE.norm>
-0.346459

>  <RMSD>
6.840

$$$$
2o3x_lig
 OpenBabel11021811463D
libRbt.so/2013.1/901 2013/11/27
 31 33  0  0  0  0  0  0  0  0999 V2000
   19.5441    9.2220   10.4142 C   0  0  2  0  0  0  0  0  0  0  0  0
   20.9119    8.7925   10.3995 O   0  0  0  0  0  0  0  0  0  0  0  0
   23.1851    5.7737    8.3952 C   0  0  2  0  0  0  0  0  0  0  0  0
   23.5997    4.5296    7.7099 N   0  0  0  0  0  0  0  0  0  0  0  0
   20.0372    9.2653    6.8942 C   0  0  1  0  0  0  0  0  0  0  0  0
   19.4959   10.6949   10.9305 C   0  0  2  0  0  0  0  0  0  0  0  0
   20.4884   11.5610   10.2444 N   0  0  0  0  0  0  0  0  0  0  0  0
   22.7968    5.5206    9.8900 C   0  0  0  0  0  0  0  0  0  0  0  0
   20.8727    9.1745    5.5752 C   0  0  2  0  0  0  0  0  0  0  0  0
   22.2450    9.6486    5.6558 O   0  0  0  0  0  0  0  0  0  0  0  0
   19.7611   10.7746   12.4458 C   0  0  1  0  0  0  0  0  0  0  0  0
   19.6625   12.1018   12.8965 O   0  0  0  0  0  0  0  0  0  0  0  0
   22.4026    6.8990   10.5357 C   0  0  2  0  0  0  0  0  0  0  0  0
   22.0350    6.7463   11.9754 N   0  0  0  0  0  0  0  0  0  0  0  0
   19.9428    9.9671    4.6718 C   0  0  2  0  0  0  0  0  0  0  0  0
   20.1053   11.4117    4.8827 O   0  0  0  0  0  0  0  0  0  0  0  0
   18.7755    9.8860   13.1859 C   0  0  2  0  0  0  0  0  0  0  0  0
   18.9981    9.9741   14.5565 O   0  0  0  0  0  0  0  0  0  0  0  0
   21.1961    7.5287    9.7828 C   0  0  2  0  0  0  0  0  0  0  0  0
   18.5442    9.5117    5.0714 C   0  0  2  0  0  0  0  0  0  0  0  0
   18.6771    9.4629    6.4893 O   0  0  0  0  0  0  0  0  0  0  0  0
   18.9284    8.4136   12.7102 C   0  0  2  0  0  0  0  0  0  0  0  0
   18.7103    8.3384   11.2848 O   0  0  0  0  0  0  0  0  0  0  0  0
   21.4546    7.7279    8.2762 C   0  0  2  0  0  0  0  0  0  0  0  0
   20.1470    8.0849    7.7046 O   0  0  0  0  0  0  0  0  0  0  0  0
   18.1197    8.1130    4.5086 C   0  0  0  0  0  0  0  0  0  0  0  0
   18.2177    8.1073    3.0872 N   0  0  0  0  0  0  0  0  0  0  0  0
   17.9592    7.4803   13.3977 C   0  0  0  0  0  0  0  0  0  0  0  0
   18.1399    6.1722   12.9927 O   0  0  0  0  0  0  0  0  0  0  0  0
   21.9970    6.3792    7.6262 C   0  0  1  0  0  0  0  0  0  0  0  0
   22.4526    6.5914    6.2814 O   0  0  0  0  0  0  0  0  0  0  0  0
  1  2  1  1  0  0  0
  1  6  1  0  0  0  0
  1 23  1  0  0  0  0
  3  4  1  6  0  0  0
  3  8  1  0  0  0  0
  3 30  1  0  0  0  0
  5  9  1  0  0  0  0
  5 21  1  0  0  0  0
  5 25  1  6  0  0  0
  6  7  1  6  0  0  0
  6 11  1  0  0  0  0
  8 13  1  0  0  0  0
  9 10  1  1  0  0  0
  9 15  1  0  0  0  0
 11 12  1  1  0  0  0
 11 17  1  0  0  0  0
 13 14  1  1  0  0  0
 13 19  1  0  0  0  0
 15 16  1  1  0  0  0
 15 20  1  0  0  0  0
 17 18  1  1  0  0  0
 17 22  1  0  0  0  0
 19  2  1  1  0  0  0
 19 24  1  0  0  0  0
 20 21  1  0  0  0  0
 20 26  1  6  0  0  0
 22 23  1  0  0  0  0
 22 28  1  1  0  0  0
 24 25  1  6  0  0  0
 24 30  1  0  0  0  0
 26 27  1  0  0  0  0
 28 29  1  0  0  0  0
 30 31  1  6  0  0  0
M  END
>  <CHROM.1>
-171.62090031,64.25736969,-147.90618274,-56.65729005,-178.09059256,127.86163428
20.28549747,8.53135462,9.05994874,1.78039797,-0.93606322,1.68082811

>  <Name>
2o3x_lig

>  <RI>
3.34184e+07

>  <Rbt.Current_Directory>
/home/itssahil/PROJECTS/Mol_Feturizer/New_Systems/rnas/2o3x

>  <Rbt.Executable>
rbdock ($Id: //depot/dev/client3/rdock/2013.1/src/exe/rbdock.cxx#4 $)

>  <Rbt.Library>
libRbt.so (2013.1, Build901 2013/11/27)

>  <Rbt.Parameter_File>
/export/apps/rDock/src/rDock_2013.1_src/data/scripts/dock_solv.prm

>  <Rbt.Receptor>
prm/pocket_docking_6.prm

>  <SCORE>
-16.4152

>  <SCORE.INTER>
-17.1508

>  <SCORE.INTER.CONST>
1

>  <SCORE.INTER.POLAR>
-2.58828

>  <SCORE.INTER.ROT>
6

>  <SCORE.INTER.SOLV>
15.9322

>  <SCORE.INTER.VDW>
-15.717

>  <SCORE.INTER.norm>
-0.553253

>  <SCORE.INTRA>
0.735669

>  <SCORE.INTRA.DIHEDRAL>
2.1187

>  <SCORE.INTRA.DIHEDRAL.0>
9.37739

>  <SCORE.INTRA.POLAR>
0

>  <SCORE.INTRA.POLAR.0>
0

>  <SCORE.INTRA.REPUL>
0

>  <SCORE.INTRA.REPUL.0>
0

>  <SCORE.INTRA.SOLV>
-0.765509

>  <SCORE.INTRA.SOLV.lig_0>
-82.9274

>  <SCORE.INTRA.VDW>
0.059073

>  <SCORE.INTRA.VDW.0>
-3.84922

>  <SCORE.INTRA.norm>
0.0237313

>  <SCORE.RESTR>
0

>  <SCORE.RESTR.CAVITY>
0

>  <SCORE.RESTR.norm>
0

>  <SCORE.SYSTEM>
0

>  <SCORE.SYSTEM.CONST>
0

>  <SCORE.SYSTEM.DIHEDRAL>
0

>  <SCORE.SYSTEM.SOLV>
0

>  <SCORE.SYSTEM.norm>
0

>  <SCORE.heavy>
31

>  <SCORE.norm>
-0.529522

>  <RMSD>
6.845

$$$$
2o3x_lig
 OpenBabel11021811463D
libRbt.so/2013.1/901 2013/11/27
 31 33  0  0  0  0  0  0  0  0999 V2000
   22.5267    6.5179   11.3884 C   0  0  2  0  0  0  0  0  0  0  0  0
   23.2129    7.2635   10.3742 O   0  0  0  0  0  0  0  0  0  0  0  0
   24.5832    5.9934    6.5262 C   0  0  2  0  0  0  0  0  0  0  0  0
   24.6423    5.5205    5.1254 N   0  0  0  0  0  0  0  0  0  0  0  0
   21.2494    8.5842    7.4255 C   0  0  1  0  0  0  0  0  0  0  0  0
   21.0940    7.1162   11.5551 C   0  0  2  0  0  0  0  0  0  0  0  0
   20.4110    7.3046   10.2498 N   0  0  0  0  0  0  0  0  0  0  0  0
   24.0104    4.9029    7.4916 C   0  0  0  0  0  0  0  0  0  0  0  0
   20.2586    9.7940    7.4554 C   0  0  2  0  0  0  0  0  0  0  0  0
   19.3648    9.8580    8.6005 O   0  0  0  0  0  0  0  0  0  0  0  0
   21.1272    8.4771   12.2762 C   0  0  1  0  0  0  0  0  0  0  0  0
   19.8249    8.9716   12.4600 O   0  0  0  0  0  0  0  0  0  0  0  0
   24.0162    5.4867    8.9516 C   0  0  2  0  0  0  0  0  0  0  0  0
   23.4991    4.4953    9.9420 N   0  0  0  0  0  0  0  0  0  0  0  0
   19.6003    9.5715    6.1041 C   0  0  2  0  0  0  0  0  0  0  0  0
   18.5853    8.5123    6.1785 O   0  0  0  0  0  0  0  0  0  0  0  0
   21.8357    8.3318   13.6124 C   0  0  2  0  0  0  0  0  0  0  0  0
   21.8466    9.5547   14.2758 O   0  0  0  0  0  0  0  0  0  0  0  0
   23.1366    6.7671    9.0303 C   0  0  2  0  0  0  0  0  0  0  0  0
   20.7460    9.1651    5.1847 C   0  0  2  0  0  0  0  0  0  0  0  0
   21.4750    8.2905    6.0414 O   0  0  0  0  0  0  0  0  0  0  0  0
   23.2898    7.8283   13.3895 C   0  0  2  0  0  0  0  0  0  0  0  0
   23.2649    6.5670   12.6871 O   0  0  0  0  0  0  0  0  0  0  0  0
   23.5708    7.8666    8.0408 C   0  0  2  0  0  0  0  0  0  0  0  0
   22.4947    8.8687    8.0816 O   0  0  0  0  0  0  0  0  0  0  0  0
   21.6537   10.3459    4.6999 C   0  0  0  0  0  0  0  0  0  0  0  0
   20.9258   11.1903    3.8128 N   0  0  0  0  0  0  0  0  0  0  0  0
   24.0433    7.6449   14.6864 C   0  0  0  0  0  0  0  0  0  0  0  0
   24.2662    8.8523   15.3193 O   0  0  0  0  0  0  0  0  0  0  0  0
   23.7148    7.2635    6.5741 C   0  0  1  0  0  0  0  0  0  0  0  0
   24.3258    8.2042    5.6780 O   0  0  0  0  0  0  0  0  0  0  0  0
  1  2  1  6  0  0  0
  1  6  1  0  0  0  0
  1 23  1  0  0  0  0
  3  4  1  6  0  0  0
  3  8  1  0  0  0  0
  3 30  1  0  0  0  0
  5  9  1  0  0  0  0
  5 21  1  0  0  0  0
  5 25  1  6  0  0  0
  6  7  1  6  0  0  0
  6 11  1  0  0  0  0
  8 13  1  0  0  0  0
  9 10  1  1  0  0  0
  9 15  1  0  0  0  0
 11 12  1  1  0  0  0
 11 17  1  0  0  0  0
 13 14  1  1  0  0  0
 13 19  1  0  0  0  0
 15 16  1  1  0  0  0
 15 20  1  0  0  0  0
 17 18  1  6  0  0  0
 17 22  1  0  0  0  0
 19  2  1  1  0  0  0
 19 24  1  0  0  0  0
 20 21  1  0  0  0  0
 20 26  1  1  0  0  0
 22 23  1  0  0  0  0
 22 28  1  1  0  0  0
 24 25  1  6  0  0  0
 24 30  1  0  0  0  0
 26 27  1  0  0  0  0
 28 29  1  0  0  0  0
 30 31  1  6  0  0  0
M  END
>  <CHROM.1>
-92.68731594,-175.05568771,-72.15515390,-68.57375930,-66.80432734,-74.88662957
22.19773675,7.93767497,9.17466234,-1.40028109,0.72280388,-1.58315507

>  <Name>
2o3x_lig

>  <RI>
224

>  <Rbt.Current_Directory>
/home/itssahil/PROJECTS/Mol_Feturizer/New_Systems/rnas/2o3x

>  <Rbt.Executable>
rbdock ($Id: //depot/dev/client3/rdock/2013.1/src/exe/rbdock.cxx#4 $)

>  <Rbt.Library>
libRbt.so (2013.1, Build901 2013/11/27)

>  <Rbt.Parameter_File>
/export/apps/rDock/src/rDock_2013.1_src/data/scripts/dock_solv.prm

>  <Rbt.Receptor>
prm/blind_docking_100.prm

>  <SCORE>
-2.07357

>  <SCORE.INTER>
-8.82227

>  <SCORE.INTER.CONST>
1

>  <SCORE.INTER.POLAR>
-0.168235

>  <SCORE.INTER.ROT>
6

>  <SCORE.INTER.SOLV>
15.9746

>  <SCORE.INTER.VDW>
-18.2456

>  <SCORE.INTER.norm>
-0.284589

>  <SCORE.INTRA>
3.56005

>  <SCORE.INTRA.DIHEDRAL>
-2.81064

>  <SCORE.INTRA.DIHEDRAL.0>
9.37739

>  <SCORE.INTRA.POLAR>
0

>  <SCORE.INTRA.POLAR.0>
0

>  <SCORE.INTRA.REPUL>
0

>  <SCORE.INTRA.REPUL.0>
0

>  <SCORE.INTRA.SOLV>
3.17764

>  <SCORE.INTRA.SOLV.lig_0>
-82.9274

>  <SCORE.INTRA.VDW>
3.37655

>  <SCORE.INTRA.VDW.0>
-3.84922

>  <SCORE.INTRA.norm>
0.11484

>  <SCORE.RESTR>
3.18865

>  <SCORE.RESTR.CAVITY>
3.18865

>  <SCORE.RESTR.norm>
0.10286

>  <SCORE.SYSTEM>
0

>  <SCORE.SYSTEM.CONST>
0

>  <SCORE.SYSTEM.DIHEDRAL>
0

>  <SCORE.SYSTEM.SOLV>
0

>  <SCORE.SYSTEM.norm>
0

>  <SCORE.heavy>
31

>  <SCORE.norm>
-0.0668893

>  <RMSD>
6.854

$$$$
2o3x_lig
 OpenBabel11021811463D
libRbt.so/2013.1/901 2013/11/27
 31 33  0  0  0  0  0  0  0  0999 V2000
   24.3585    7.9152   10.0838 C   0  0  2  0  0  0  0  0  0  0  0  0
   24.7408    6.6106    9.6285 O   0  0  0  0  0  0  0  0  0  0  0  0
   22.5259    6.7918    5.9734 C   0  0  2  0  0  0  0  0  0  0  0  0
   21.9215    6.4675    4.6623 N   0  0  0  0  0  0  0  0  0  0  0  0
   21.4299    4.5538   10.0739 C   0  0  1  0  0  0  0  0  0  0  0  0
   25.1805    8.2488   11.3689 C   0  0  2  0  0  0  0  0  0  0  0  0
   26.6290    7.9711   11.1943 N   0  0  0  0  0  0  0  0  0  0  0  0
   24.0834    6.9190    5.8881 C   0  0  0  0  0  0  0  0  0  0  0  0
   20.1121    4.9906    9.3537 C   0  0  2  0  0  0  0  0  0  0  0  0
   19.7338    6.3861    9.5077 O   0  0  0  0  0  0  0  0  0  0  0  0
   24.6844    7.4442   12.5852 C   0  0  1  0  0  0  0  0  0  0  0  0
   25.4038    7.7976   13.7393 O   0  0  0  0  0  0  0  0  0  0  0  0
   24.6251    7.2929    7.3160 C   0  0  2  0  0  0  0  0  0  0  0  0
   26.1103    7.4523    7.3159 N   0  0  0  0  0  0  0  0  0  0  0  0
   19.1737    3.9702    9.9761 C   0  0  2  0  0  0  0  0  0  0  0  0
   18.7754    4.3755   11.3306 O   0  0  0  0  0  0  0  0  0  0  0  0
   23.1983    7.6869   12.7886 C   0  0  2  0  0  0  0  0  0  0  0  0
   22.7527    6.9792   13.9005 O   0  0  0  0  0  0  0  0  0  0  0  0
   24.2475    6.1921    8.3479 C   0  0  2  0  0  0  0  0  0  0  0  0
   19.9830    2.6791   10.0092 C   0  0  2  0  0  0  0  0  0  0  0  0
   21.2545    3.1744   10.4196 O   0  0  0  0  0  0  0  0  0  0  0  0
   22.4112    7.2481   11.5214 C   0  0  2  0  0  0  0  0  0  0  0  0
   22.8935    7.9782   10.3729 O   0  0  0  0  0  0  0  0  0  0  0  0
   22.7307    5.9298    8.4317 C   0  0  2  0  0  0  0  0  0  0  0  0
   22.5942    4.7143    9.2488 O   0  0  0  0  0  0  0  0  0  0  0  0
   20.0975    1.9366    8.6348 C   0  0  0  0  0  0  0  0  0  0  0  0
   18.7992    1.6299    8.1347 N   0  0  0  0  0  0  0  0  0  0  0  0
   20.9244    7.4827   11.6543 C   0  0  0  0  0  0  0  0  0  0  0  0
   20.5159    7.4179   12.9722 O   0  0  0  0  0  0  0  0  0  0  0  0
   22.1304    5.6927    6.9760 C   0  0  1  0  0  0  0  0  0  0  0  0
   20.6952    5.6645    6.9987 O   0  0  0  0  0  0  0  0  0  0  0  0
  1  2  1  1  0  0  0
  1  6  1  0  0  0  0
  1 23  1  0  0  0  0
  3  4  1  6  0  0  0
  3  8  1  0  0  0  0
  3 30  1  0  0  0  0
  5  9  1  0  0  0  0
  5 21  1  0  0  0  0
  5 25  1  6  0  0  0
  6  7  1  6  0  0  0
  6 11  1  0  0  0  0
  8 13  1  0  0  0  0
  9 10  1  1  0  0  0
  9 15  1  0  0  0  0
 11 12  1  1  0  0  0
 11 17  1  0  0  0  0
 13 14  1  6  0  0  0
 13 19  1  0  0  0  0
 15 16  1  1  0  0  0
 15 20  1  0  0  0  0
 17 18  1  1  0  0  0
 17 22  1  0  0  0  0
 19  2  1  1  0  0  0
 19 24  1  0  0  0  0
 20 21  1  0  0  0  0
 20 26  1  6  0  0  0
 22 23  1  0  0  0  0
 22 28  1  1  0  0  0
 24 25  1  1  0  0  0
 24 30  1  0  0  0  0
 26 27  1  0  0  0  0
 28 29  1  0  0  0  0
 30 31  1  1  0  0  0
M  END
>  <CHROM.1>
-171.04600276,42.16950747,53.29437441,-57.80438196,-28.47646732,148.71248099
22.38181340,6.04966460,9.74316225,-0.55274349,-0.63139285,-1.74721246

>  <Name>
2o3x_lig

>  <RI>
0

>  <Rbt.Current_Directory>
/home/itssahil/PROJECTS/Mol_Feturizer/New_Systems/rnas/2o3x

>  <Rbt.Executable>
rbdock ($Id: //depot/dev/client3/rdock/2013.1/src/exe/rbdock.cxx#4 $)

>  <Rbt.Library>
libRbt.so (2013.1, Build901 2013/11/27)

>  <Rbt.Parameter_File>
/export/apps/rDock/src/rDock_2013.1_src/data/scripts/dock_solv.prm

>  <Rbt.Receptor>
prm/blind_docking_40.prm

>  <SCORE>
37.7177

>  <SCORE.INTER>
24.0379

>  <SCORE.INTER.CONST>
1

>  <SCORE.INTER.POLAR>
-0.885583

>  <SCORE.INTER.ROT>
6

>  <SCORE.INTER.SOLV>
26.5597

>  <SCORE.INTER.VDW>
2.52396

>  <SCORE.INTER.norm>
0.775416

>  <SCORE.INTRA>
4.91756

>  <SCORE.INTRA.DIHEDRAL>
-0.428554

>  <SCORE.INTRA.DIHEDRAL.0>
9.37739

>  <SCORE.INTRA.POLAR>
0

>  <SCORE.INTRA.POLAR.0>
0

>  <SCORE.INTRA.REPUL>
0

>  <SCORE.INTRA.REPUL.0>
0

>  <SCORE.INTRA.SOLV>
0.9626

>  <SCORE.INTRA.SOLV.lig_0>
-82.9274

>  <SCORE.INTRA.VDW>
4.65053

>  <SCORE.INTRA.VDW.0>
-3.84922

>  <SCORE.INTRA.norm>
0.158631

>  <SCORE.RESTR>
8.76229

>  <SCORE.RESTR.CAVITY>
8.76229

>  <SCORE.RESTR.norm>
0.282654

>  <SCORE.SYSTEM>
0

>  <SCORE.SYSTEM.CONST>
0

>  <SCORE.SYSTEM.DIHEDRAL>
0

>  <SCORE.SYSTEM.SOLV>
0

>  <SCORE.SYSTEM.norm>
0

>  <SCORE.heavy>
31

>  <SCORE.norm>
1.2167

>  <RMSD>
6.857

$$$$
2o3x_lig
 OpenBabel11021811463D
libRbt.so/2013.1/901 2013/11/27
 31 33  0  0  0  0  0  0  0  0999 V2000
   20.5485    7.3274    9.4754 C   0  0  2  0  0  0  0  0  0  0  0  0
   21.7765    7.7970    8.9037 O   0  0  0  0  0  0  0  0  0  0  0  0
   24.0471    7.2935    5.3136 C   0  0  2  0  0  0  0  0  0  0  0  0
   24.4652    6.9649    3.9327 N   0  0  0  0  0  0  0  0  0  0  0  0
   20.1366    8.9640    5.4111 C   0  0  1  0  0  0  0  0  0  0  0  0
   20.3120    8.0818   10.8220 C   0  0  2  0  0  0  0  0  0  0  0  0
   20.4963    9.5488   10.6813 N   0  0  0  0  0  0  0  0  0  0  0  0
   23.7075    6.0124    6.1460 C   0  0  0  0  0  0  0  0  0  0  0  0
   18.7699    9.7244    5.4182 C   0  0  2  0  0  0  0  0  0  0  0  0
   17.6659    9.0453    6.0773 O   0  0  0  0  0  0  0  0  0  0  0  0
   21.2650    7.5858   11.9259 C   0  0  1  0  0  0  0  0  0  0  0  0
   21.0001    8.2417   13.1400 O   0  0  0  0  0  0  0  0  0  0  0  0
   23.3063    6.4620    7.5984 C   0  0  2  0  0  0  0  0  0  0  0  0
   22.9837    5.2903    8.4669 N   0  0  0  0  0  0  0  0  0  0  0  0
   18.6279    9.9340    3.9199 C   0  0  2  0  0  0  0  0  0  0  0  0
   18.1460    8.7140    3.2588 O   0  0  0  0  0  0  0  0  0  0  0  0
   21.1205    6.0821   12.0900 C   0  0  2  0  0  0  0  0  0  0  0  0
   21.9637    5.6350   13.1024 O   0  0  0  0  0  0  0  0  0  0  0  0
   22.0665    7.4003    7.5557 C   0  0  2  0  0  0  0  0  0  0  0  0
   20.0337   10.2895    3.4503 C   0  0  2  0  0  0  0  0  0  0  0  0
   20.8080    9.3663    4.2110 O   0  0  0  0  0  0  0  0  0  0  0  0
   21.4617    5.3676   10.7518 C   0  0  2  0  0  0  0  0  0  0  0  0
   20.5905    5.8514    9.7069 O   0  0  0  0  0  0  0  0  0  0  0  0
   22.2771    8.6489    6.6765 C   0  0  2  0  0  0  0  0  0  0  0  0
   20.9469    9.2655    6.5577 O   0  0  0  0  0  0  0  0  0  0  0  0
   20.4774   11.7612    3.7512 C   0  0  0  0  0  0  0  0  0  0  0  0
   21.7264   12.0339    3.1223 N   0  0  0  0  0  0  0  0  0  0  0  0
   21.3178    3.8663   10.8450 C   0  0  0  0  0  0  0  0  0  0  0  0
   21.6303    3.2510    9.6485 O   0  0  0  0  0  0  0  0  0  0  0  0
   22.8259    8.2277    5.2422 C   0  0  1  0  0  0  0  0  0  0  0  0
   23.2379    9.3733    4.4813 O   0  0  0  0  0  0  0  0  0  0  0  0
  1  2  1  1  0  0  0
  1  6  1  0  0  0  0
  1 23  1  0  0  0  0
  3  4  1  6  0  0  0
  3  8  1  0  0  0  0
  3 30  1  0  0  0  0
  5  9  1  0  0  0  0
  5 21  1  0  0  0  0
  5 25  1  1  0  0  0
  6  7  1  6  0  0  0
  6 11  1  0  0  0  0
  8 13  1  0  0  0  0
  9 10  1  6  0  0  0
  9 15  1  0  0  0  0
 11 12  1  1  0  0  0
 11 17  1  0  0  0  0
 13 14  1  1  0  0  0
 13 19  1  0  0  0  0
 15 16  1  6  0  0  0
 15 20  1  0  0  0  0
 17 18  1  1  0  0  0
 17 22  1  0  0  0  0
 19  2  1  1  0  0  0
 19 24  1  0  0  0  0
 20 21  1  0  0  0  0
 20 26  1  1  0  0  0
 22 23  1  0  0  0  0
 22 28  1  1  0  0  0
 24 25  1  6  0  0  0
 24 30  1  0  0  0  0
 26 27  1  0  0  0  0
 28 29  1  0  0  0  0
 30 31  1  6  0  0  0
M  END
>  <CHROM.1>
-169.63757391,-178.60345029,-113.35198962,-172.52104038,-179.75748240,-95.49150261
21.26167993,7.83953644,7.49100901,1.44587152,-0.68286622,1.97672729

>  <Name>
2o3x_lig

>  <RI>
224

>  <Rbt.Current_Directory>
/home/itssahil/PROJECTS/Mol_Feturizer/New_Systems/rnas/2o3x

>  <Rbt.Executable>
rbdock ($Id: //depot/dev/client3/rdock/2013.1/src/exe/rbdock.cxx#4 $)

>  <Rbt.Library>
libRbt.so (2013.1, Build901 2013/11/27)

>  <Rbt.Parameter_File>
/export/apps/rDock/src/rDock_2013.1_src/data/scripts/dock_solv.prm

>  <Rbt.Receptor>
prm/blind_docking_100.prm

>  <SCORE>
-0.800969

>  <SCORE.INTER>
-10.442

>  <SCORE.INTER.CONST>
1

>  <SCORE.INTER.POLAR>
-0.539395

>  <SCORE.INTER.ROT>
6

>  <SCORE.INTER.SOLV>
15.8932

>  <SCORE.INTER.VDW>
-18.0611

>  <SCORE.INTER.norm>
-0.336838

>  <SCORE.INTRA>
6.78151

>  <SCORE.INTRA.DIHEDRAL>
3.02124

>  <SCORE.INTRA.DIHEDRAL.0>
9.37739

>  <SCORE.INTRA.POLAR>
0

>  <SCORE.INTRA.POLAR.0>
0

>  <SCORE.INTRA.REPUL>
0

>  <SCORE.INTRA.REPUL.0>
0

>  <SCORE.INTRA.SOLV>
2.56202

>  <SCORE.INTRA.SOLV.lig_0>
-82.9274

>  <SCORE.INTRA.VDW>
3.98988

>  <SCORE.INTRA.VDW.0>
-3.84922

>  <SCORE.INTRA.norm>
0.218758

>  <SCORE.RESTR>
2.85951

>  <SCORE.RESTR.CAVITY>
2.85951

>  <SCORE.RESTR.norm>
0.0922421

>  <SCORE.SYSTEM>
0

>  <SCORE.SYSTEM.CONST>
0

>  <SCORE.SYSTEM.DIHEDRAL>
0

>  <SCORE.SYSTEM.SOLV>
0

>  <SCORE.SYSTEM.norm>
0

>  <SCORE.heavy>
31

>  <SCORE.norm>
-0.0258377

>  <RMSD>
6.859

$$$$
2o3x_lig
 OpenBabel11021811463D
libRbt.so/2013.1/901 2013/11/27
 31 33  0  0  0  0  0  0  0  0999 V2000
   19.7215    8.4418   10.3985 C   0  0  2  0  0  0  0  0  0  0  0  0
   21.1244    8.1467   10.4165 O   0  0  0  0  0  0  0  0  0  0  0  0
   23.8142    6.0985    7.7958 C   0  0  2  0  0  0  0  0  0  0  0  0
   24.4082    5.1406    6.8372 N   0  0  0  0  0  0  0  0  0  0  0  0
   20.2198    9.2327    6.8732 C   0  0  1  0  0  0  0  0  0  0  0  0
   19.4668    9.6792   11.3163 C   0  0  2  0  0  0  0  0  0  0  0  0
   20.4134   10.7885   11.0353 N   0  0  0  0  0  0  0  0  0  0  0  0
   23.4843    5.4271    9.1705 C   0  0  0  0  0  0  0  0  0  0  0  0
   20.9421    9.2451    5.4860 C   0  0  2  0  0  0  0  0  0  0  0  0
   22.2941    9.7802    5.4759 O   0  0  0  0  0  0  0  0  0  0  0  0
   19.5892    9.3148   12.8080 C   0  0  1  0  0  0  0  0  0  0  0  0
   19.3063   10.4298   13.6147 O   0  0  0  0  0  0  0  0  0  0  0  0
   22.8896    6.5265   10.1244 C   0  0  2  0  0  0  0  0  0  0  0  0
   22.5641    5.9679   11.4710 N   0  0  0  0  0  0  0  0  0  0  0  0
   19.9042   10.0342    4.7055 C   0  0  2  0  0  0  0  0  0  0  0  0
   20.0207   11.4732    4.9762 O   0  0  0  0  0  0  0  0  0  0  0  0
   18.6471    8.1682   13.1343 C   0  0  2  0  0  0  0  0  0  0  0  0
   18.7391    7.8524   14.4862 O   0  0  0  0  0  0  0  0  0  0  0  0
   21.5932    7.1331    9.5157 C   0  0  2  0  0  0  0  0  0  0  0  0
   18.5664    9.4936    5.1967 C   0  0  2  0  0  0  0  0  0  0  0  0
   18.8226    9.3838    6.5941 O   0  0  0  0  0  0  0  0  0  0  0  0
   19.0020    6.9272   12.2673 C   0  0  2  0  0  0  0  0  0  0  0  0
   18.9178    7.2723   10.8677 O   0  0  0  0  0  0  0  0  0  0  0  0
   21.8029    7.7363    8.1127 C   0  0  2  0  0  0  0  0  0  0  0  0
   20.4504    8.0217    7.6096 O   0  0  0  0  0  0  0  0  0  0  0  0
   18.1569    8.1045    4.6000 C   0  0  0  0  0  0  0  0  0  0  0  0
   16.8277    7.7756    4.9936 N   0  0  0  0  0  0  0  0  0  0  0  0
   18.0856    5.7554   12.5325 C   0  0  0  0  0  0  0  0  0  0  0  0
   18.2093    5.2976   13.8298 O   0  0  0  0  0  0  0  0  0  0  0  0
   22.5396    6.6888    7.1662 C   0  0  1  0  0  0  0  0  0  0  0  0
   22.9438    7.2941    5.9287 O   0  0  0  0  0  0  0  0  0  0  0  0
  1  2  1  1  0  0  0
  1  6  1  0  0  0  0
  1 23  1  0  0  0  0
  3  4  1  6  0  0  0
  3  8  1  0  0  0  0
  3 30  1  0  0  0  0
  5  9  1  0  0  0  0
  5 21  1  0  0  0  0
  5 25  1  6  0  0  0
  6  7  1  6  0  0  0
  6 11  1  0  0  0  0
  8 13  1  0  0  0  0
  9 10  1  1  0  0  0
  9 15  1  0  0  0  0
 11 12  1  1  0  0  0
 11 17  1  0  0  0  0
 13 14  1  1  0  0  0
 13 19  1  0  0  0  0
 15 16  1  1  0  0  0
 15 20  1  0  0  0  0
 17 18  1  1  0  0  0
 17 22  1  0  0  0  0
 19  2  1  1  0  0  0
 19 24  1  0  0  0  0
 20 21  1  0  0  0  0
 20 26  1  6  0  0  0
 22 23  1  0  0  0  0
 22 28  1  6  0  0  0
 24 25  1  6  0  0  0
 24 30  1  0  0  0  0
 26 27  1  0  0  0  0
 28 29  1  0  0  0  0
 30 31  1  6  0  0  0
M  END
>  <CHROM.1>
-173.14210322,67.48945323,-154.10122473,-172.80996830,-63.79543650,140.16461002
20.41257692,8.03617501,9.03044319,1.79209726,-0.61473302,1.85055234

>  <Name>
2o3x_lig

>  <RI>
2.78316e+07

>  <Rbt.Current_Directory>
/home/itssahil/PROJECTS/Mol_Feturizer/New_Systems/rnas/2o3x

>  <Rbt.Executable>
rbdock ($Id: //depot/dev/client3/rdock/2013.1/src/exe/rbdock.cxx#4 $)

>  <Rbt.Library>
libRbt.so (2013.1, Build901 2013/11/27)

>  <Rbt.Parameter_File>
/export/apps/rDock/src/rDock_2013.1_src/data/scripts/dock_solv.prm

>  <Rbt.Receptor>
prm/pocket_docking_7.prm

>  <SCORE>
-14.2613

>  <SCORE.INTER>
-14.201

>  <SCORE.INTER.CONST>
1

>  <SCORE.INTER.POLAR>
-1.92595

>  <SCORE.INTER.ROT>
6

>  <SCORE.INTER.SOLV>
15.4616

>  <SCORE.INTER.VDW>
-15.8014

>  <SCORE.INTER.norm>
-0.458096

>  <SCORE.INTRA>
-0.060358

>  <SCORE.INTRA.DIHEDRAL>
-0.313926

>  <SCORE.INTRA.DIHEDRAL.0>
9.37739

>  <SCORE.INTRA.POLAR>
0

>  <SCORE.INTRA.POLAR.0>
0

>  <SCORE.INTRA.REPUL>
0

>  <SCORE.INTRA.REPUL.0>
0

>  <SCORE.INTRA.SOLV>
-1.52677

>  <SCORE.INTRA.SOLV.lig_0>
-82.9274

>  <SCORE.INTRA.VDW>
0.859991

>  <SCORE.INTRA.VDW.0>
-3.84922

>  <SCORE.INTRA.norm>
-0.00194703

>  <SCORE.RESTR>
0

>  <SCORE.RESTR.CAVITY>
0

>  <SCORE.RESTR.norm>
0

>  <SCORE.SYSTEM>
0

>  <SCORE.SYSTEM.CONST>
0

>  <SCORE.SYSTEM.DIHEDRAL>
0

>  <SCORE.SYSTEM.SOLV>
0

>  <SCORE.SYSTEM.norm>
0

>  <SCORE.heavy>
31

>  <SCORE.norm>
-0.460043

>  <RMSD>
6.864

$$$$
2o3x_lig
 OpenBabel11021811463D
libRbt.so/2013.1/901 2013/11/27
 31 33  0  0  0  0  0  0  0  0999 V2000
   21.5205    7.0613   10.5739 C   0  0  2  0  0  0  0  0  0  0  0  0
   21.7539    8.0562    9.5682 O   0  0  0  0  0  0  0  0  0  0  0  0
   23.8972    7.3180    5.9406 C   0  0  2  0  0  0  0  0  0  0  0  0
   24.2616    6.9176    4.5635 N   0  0  0  0  0  0  0  0  0  0  0  0
   20.0073    9.0559    6.1490 C   0  0  1  0  0  0  0  0  0  0  0  0
   20.2767    7.4925   11.4139 C   0  0  2  0  0  0  0  0  0  0  0  0
   19.1333    7.8934   10.5550 N   0  0  0  0  0  0  0  0  0  0  0  0
   23.5329    6.0862    6.8347 C   0  0  0  0  0  0  0  0  0  0  0  0
   18.7208    9.9431    6.0878 C   0  0  2  0  0  0  0  0  0  0  0  0
   17.6021    9.5013    6.9050 O   0  0  0  0  0  0  0  0  0  0  0  0
   20.6047    8.6704   12.3508 C   0  0  1  0  0  0  0  0  0  0  0  0
   19.4866    9.0075   13.1321 O   0  0  0  0  0  0  0  0  0  0  0  0
   23.1921    6.6097    8.2776 C   0  0  2  0  0  0  0  0  0  0  0  0
   22.8501    5.4878    9.2026 N   0  0  0  0  0  0  0  0  0  0  0  0
   18.5045    9.9121    4.5840 C   0  0  2  0  0  0  0  0  0  0  0  0
   17.8698    8.6547    4.1671 O   0  0  0  0  0  0  0  0  0  0  0  0
   21.7842    8.3072   13.2371 C   0  0  2  0  0  0  0  0  0  0  0  0
   22.0678    9.3609   14.1001 O   0  0  0  0  0  0  0  0  0  0  0  0
   21.9887    7.5941    8.2304 C   0  0  2  0  0  0  0  0  0  0  0  0
   19.9047   10.0374    3.9953 C   0  0  2  0  0  0  0  0  0  0  0  0
   20.6360    9.1802    4.8675 O   0  0  0  0  0  0  0  0  0  0  0  0
   23.0261    7.9819   12.3598 C   0  0  2  0  0  0  0  0  0  0  0  0
   22.7140    6.8978   11.4587 O   0  0  0  0  0  0  0  0  0  0  0  0
   22.2215    8.7967    7.2946 C   0  0  2  0  0  0  0  0  0  0  0  0
   20.9131    9.4605    7.1872 O   0  0  0  0  0  0  0  0  0  0  0  0
   20.5021   11.4852    4.0159 C   0  0  0  0  0  0  0  0  0  0  0  0
   21.7349   11.5161    3.3024 N   0  0  0  0  0  0  0  0  0  0  0  0
   24.2310    7.5934   13.1849 C   0  0  0  0  0  0  0  0  0  0  0  0
   23.8689    6.8616   14.2990 O   0  0  0  0  0  0  0  0  0  0  0  0
   22.7113    8.2965    5.8644 C   0  0  1  0  0  0  0  0  0  0  0  0
   23.1448    9.3931    5.0454 O   0  0  0  0  0  0  0  0  0  0  0  0
  1  2  1  6  0  0  0
  1  6  1  0  0  0  0
  1 23  1  0  0  0  0
  3  4  1  6  0  0  0
  3  8  1  0  0  0  0
  3 30  1  0  0  0  0
  5  9  1  0  0  0  0
  5 21  1  0  0  0  0
  5 25  1  1  0  0  0
  6  7  1  6  0  0  0
  6 11  1  0  0  0  0
  8 13  1  0  0  0  0
  9 10  1  1  0  0  0
  9 15  1  0  0  0  0
 11 12  1  1  0  0  0
 11 17  1  0  0  0  0
 13 14  1  1  0  0  0
 13 19  1  0  0  0  0
 15 16  1  1  0  0  0
 15 20  1  0  0  0  0
 17 18  1  1  0  0  0
 17 22  1  0  0  0  0
 19  2  1  1  0  0  0
 19 24  1  0  0  0  0
 20 21  1  0  0  0  0
 20 26  1  1  0  0  0
 22 23  1  0  0  0  0
 22 28  1  1  0  0  0
 24 25  1  6  0  0  0
 24 30  1  0  0  0  0
 26 27  1  0  0  0  0
 28 29  1  0  0  0  0
 30 31  1  6  0  0  0
M  END
>  <CHROM.1>
-133.09992419,-174.70460872,-56.11745074,-173.04333684,36.09769585,-89.74909563
21.42530585,8.41287608,8.38065730,-1.34254937,0.45714043,-1.45325575

>  <Name>
2o3x_lig

>  <RI>
224

>  <Rbt.Current_Directory>
/home/itssahil/PROJECTS/Mol_Feturizer/New_Systems/rnas/2o3x

>  <Rbt.Executable>
rbdock ($Id: //depot/dev/client3/rdock/2013.1/src/exe/rbdock.cxx#4 $)

>  <Rbt.Library>
libRbt.so (2013.1, Build901 2013/11/27)

>  <Rbt.Parameter_File>
/export/apps/rDock/src/rDock_2013.1_src/data/scripts/dock_solv.prm

>  <Rbt.Receptor>
prm/blind_docking_100.prm

>  <SCORE>
1.62987

>  <SCORE.INTER>
-12.2975

>  <SCORE.INTER.CONST>
1

>  <SCORE.INTER.POLAR>
-0.349167

>  <SCORE.INTER.ROT>
6

>  <SCORE.INTER.SOLV>
14.0494

>  <SCORE.INTER.VDW>
-19.3176

>  <SCORE.INTER.norm>
-0.396694

>  <SCORE.INTRA>
10.2091

>  <SCORE.INTRA.DIHEDRAL>
2.88944

>  <SCORE.INTRA.DIHEDRAL.0>
9.37739

>  <SCORE.INTRA.POLAR>
0

>  <SCORE.INTRA.POLAR.0>
0

>  <SCORE.INTRA.REPUL>
0

>  <SCORE.INTRA.REPUL.0>
0

>  <SCORE.INTRA.SOLV>
1.65089

>  <SCORE.INTRA.SOLV.lig_0>
-82.9274

>  <SCORE.INTRA.VDW>
7.93892

>  <SCORE.INTRA.VDW.0>
-3.84922

>  <SCORE.INTRA.norm>
0.329325

>  <SCORE.RESTR>
3.71829

>  <SCORE.RESTR.CAVITY>
3.71829

>  <SCORE.RESTR.norm>
0.119945

>  <SCORE.SYSTEM>
0

>  <SCORE.SYSTEM.CONST>
0

>  <SCORE.SYSTEM.DIHEDRAL>
0

>  <SCORE.SYSTEM.SOLV>
0

>  <SCORE.SYSTEM.norm>
0

>  <SCORE.heavy>
31

>  <SCORE.norm>
0.0525764

>  <RMSD>
6.867

$$$$
2o3x_lig
 OpenBabel11021811463D
libRbt.so/2013.1/901 2013/11/27
 31 33  0  0  0  0  0  0  0  0999 V2000
   24.3535    7.8931   10.1264 C   0  0  2  0  0  0  0  0  0  0  0  0
   24.6634    6.5677    9.6760 O   0  0  0  0  0  0  0  0  0  0  0  0
   23.7619    7.1412    5.5340 C   0  0  2  0  0  0  0  0  0  0  0  0
   23.3570    6.9287    4.1267 N   0  0  0  0  0  0  0  0  0  0  0  0
   21.8226    4.7227    8.6665 C   0  0  1  0  0  0  0  0  0  0  0  0
   25.2598    8.2201   11.3552 C   0  0  2  0  0  0  0  0  0  0  0  0
   26.6852    7.8878   11.1034 N   0  0  0  0  0  0  0  0  0  0  0  0
   25.0718    6.3638    5.8932 C   0  0  0  0  0  0  0  0  0  0  0  0
   22.2982    3.9442    9.9369 C   0  0  2  0  0  0  0  0  0  0  0  0
   23.7065    3.5841    9.9739 O   0  0  0  0  0  0  0  0  0  0  0  0
   24.8076    7.4558   12.6139 C   0  0  1  0  0  0  0  0  0  0  0  0
   25.6047    7.8039   13.7174 O   0  0  0  0  0  0  0  0  0  0  0  0
   25.4338    6.6762    7.3911 C   0  0  2  0  0  0  0  0  0  0  0  0
   26.6893    5.9832    7.8090 N   0  0  0  0  0  0  0  0  0  0  0  0
   21.3136    2.7889    9.8673 C   0  0  2  0  0  0  0  0  0  0  0  0
   21.7406    1.7891    8.8795 O   0  0  0  0  0  0  0  0  0  0  0  0
   23.3451    7.7549   12.8973 C   0  0  2  0  0  0  0  0  0  0  0  0
   22.9407    7.0837   14.0469 O   0  0  0  0  0  0  0  0  0  0  0  0
   24.2835    6.2247    8.3357 C   0  0  2  0  0  0  0  0  0  0  0  0
   19.9966    3.4354    9.4543 C   0  0  2  0  0  0  0  0  0  0  0  0
   20.4520    4.3558    8.4665 O   0  0  0  0  0  0  0  0  0  0  0  0
   22.4711    7.3218   11.6865 C   0  0  2  0  0  0  0  0  0  0  0  0
   22.9107    8.0135   10.4978 O   0  0  0  0  0  0  0  0  0  0  0  0
   22.9260    6.8707    7.9949 C   0  0  2  0  0  0  0  0  0  0  0  0
   21.9390    6.1467    8.8107 O   0  0  0  0  0  0  0  0  0  0  0  0
   19.2418    4.1871   10.6027 C   0  0  0  0  0  0  0  0  0  0  0  0
   20.1183    5.1112   11.2412 N   0  0  0  0  0  0  0  0  0  0  0  0
   21.0035    7.6116   11.8999 C   0  0  0  0  0  0  0  0  0  0  0  0
   20.8069    8.8701   12.4342 O   0  0  0  0  0  0  0  0  0  0  0  0
   22.6045    6.6945    6.4453 C   0  0  1  0  0  0  0  0  0  0  0  0
   21.4612    7.4704    6.0554 O   0  0  0  0  0  0  0  0  0  0  0  0
  1  2  1  1  0  0  0
  1  6  1  0  0  0  0
  1 23  1  0  0  0  0
  3  4  1  6  0  0  0
  3  8  1  0  0  0  0
  3 30  1  0  0  0  0
  5  9  1  0  0  0  0
  5 21  1  0  0  0  0
  5 25  1  1  0  0  0
  6  7  1  6  0  0  0
  6 11  1  0  0  0  0
  8 13  1  0  0  0  0
  9 10  1  6  0  0  0
  9 15  1  0  0  0  0
 11 12  1  1  0  0  0
 11 17  1  0  0  0  0
 13 14  1  1  0  0  0
 13 19  1  0  0  0  0
 15 16  1  6  0  0  0
 15 20  1  0  0  0  0
 17 18  1  1  0  0  0
 17 22  1  0  0  0  0
 19  2  1  1  0  0  0
 19 24  1  0  0  0  0
 20 21  1  0  0  0  0
 20 26  1  1  0  0  0
 22 23  1  0  0  0  0
 22 28  1  1  0  0  0
 24 25  1  1  0  0  0
 24 30  1  0  0  0  0
 26 27  1  0  0  0  0
 28 29  1  0  0  0  0
 30 31  1  6  0  0  0
M  END
>  <CHROM.1>
-160.32817623,112.08993915,86.21739239,52.15431631,44.22789879,-57.77425352
22.97898023,6.22012927,9.63244297,-1.39642248,-0.64495629,-1.81010690

>  <Name>
2o3x_lig

>  <RI>
0

>  <Rbt.Current_Directory>
/home/itssahil/PROJECTS/Mol_Feturizer/New_Systems/rnas/2o3x

>  <Rbt.Executable>
rbdock ($Id: //depot/dev/client3/rdock/2013.1/src/exe/rbdock.cxx#4 $)

>  <Rbt.Library>
libRbt.so (2013.1, Build901 2013/11/27)

>  <Rbt.Parameter_File>
/export/apps/rDock/src/rDock_2013.1_src/data/scripts/dock_solv.prm

>  <Rbt.Receptor>
prm/blind_docking_60.prm

>  <SCORE>
17.4364

>  <SCORE.INTER>
1.9382

>  <SCORE.INTER.CONST>
1

>  <SCORE.INTER.POLAR>
-0.969244

>  <SCORE.INTER.ROT>
6

>  <SCORE.INTER.SOLV>
26.4467

>  <SCORE.INTER.VDW>
-11.8926

>  <SCORE.INTER.norm>
0.0625226

>  <SCORE.INTRA>
6.70948

>  <SCORE.INTRA.DIHEDRAL>
3.37637

>  <SCORE.INTRA.DIHEDRAL.0>
9.37739

>  <SCORE.INTRA.POLAR>
0

>  <SCORE.INTRA.POLAR.0>
0

>  <SCORE.INTRA.REPUL>
0

>  <SCORE.INTRA.REPUL.0>
0

>  <SCORE.INTRA.SOLV>
4.57478

>  <SCORE.INTRA.SOLV.lig_0>
-82.9274

>  <SCORE.INTRA.VDW>
2.7339

>  <SCORE.INTRA.VDW.0>
-3.84922

>  <SCORE.INTRA.norm>
0.216435

>  <SCORE.RESTR>
8.78872

>  <SCORE.RESTR.CAVITY>
8.78872

>  <SCORE.RESTR.norm>
0.283507

>  <SCORE.SYSTEM>
0

>  <SCORE.SYSTEM.CONST>
0

>  <SCORE.SYSTEM.DIHEDRAL>
0

>  <SCORE.SYSTEM.SOLV>
0

>  <SCORE.SYSTEM.norm>
0

>  <SCORE.heavy>
31

>  <SCORE.norm>
0.562464

>  <RMSD>
6.889

$$$$
2o3x_lig
 OpenBabel11021811463D
libRbt.so/2013.1/901 2013/11/27
 31 33  0  0  0  0  0  0  0  0999 V2000
   22.6298    6.0462   10.6599 C   0  0  2  0  0  0  0  0  0  0  0  0
   22.1663    6.8306    9.5529 O   0  0  0  0  0  0  0  0  0  0  0  0
   25.0541    6.0293    6.5006 C   0  0  2  0  0  0  0  0  0  0  0  0
   25.7052    5.7238    5.2075 N   0  0  0  0  0  0  0  0  0  0  0  0
   21.5312    8.4918    6.1901 C   0  0  1  0  0  0  0  0  0  0  0  0
   21.5053    6.0100   11.7429 C   0  0  2  0  0  0  0  0  0  0  0  0
   20.1797    5.6765   11.1621 N   0  0  0  0  0  0  0  0  0  0  0  0
   24.1982    4.8291    7.0264 C   0  0  0  0  0  0  0  0  0  0  0  0
   20.4185    9.5818    6.0496 C   0  0  2  0  0  0  0  0  0  0  0  0
   19.1541    9.2905    6.7058 O   0  0  0  0  0  0  0  0  0  0  0  0
   21.3787    7.3592   12.4754 C   0  0  1  0  0  0  0  0  0  0  0  0
   20.3971    7.2877   13.4782 O   0  0  0  0  0  0  0  0  0  0  0  0
   23.5761    5.2384    8.4113 C   0  0  2  0  0  0  0  0  0  0  0  0
   22.7553    4.1341    8.9928 N   0  0  0  0  0  0  0  0  0  0  0  0
   20.3820    9.6635    4.5327 C   0  0  2  0  0  0  0  0  0  0  0  0
   19.6106    8.5515    3.9618 O   0  0  0  0  0  0  0  0  0  0  0  0
   22.7216    7.7471   13.0709 C   0  0  2  0  0  0  0  0  0  0  0  0
   22.6043    8.9542   13.7527 O   0  0  0  0  0  0  0  0  0  0  0  0
   22.6721    6.4941    8.2531 C   0  0  2  0  0  0  0  0  0  0  0  0
   21.8449    9.5849    4.1119 C   0  0  2  0  0  0  0  0  0  0  0  0
   22.3209    8.5752    4.9974 O   0  0  0  0  0  0  0  0  0  0  0  0
   23.7863    7.8676   11.9441 C   0  0  2  0  0  0  0  0  0  0  0  0
   23.8872    6.6139   11.2349 O   0  0  0  0  0  0  0  0  0  0  0  0
   23.4109    7.7049    7.6495 C   0  0  2  0  0  0  0  0  0  0  0  0
   22.3585    8.6873    7.3475 O   0  0  0  0  0  0  0  0  0  0  0  0
   22.6575   10.9108    4.2991 C   0  0  0  0  0  0  0  0  0  0  0  0
   22.1564   11.9192    3.4263 N   0  0  0  0  0  0  0  0  0  0  0  0
   25.1524    8.2336   12.4762 C   0  0  0  0  0  0  0  0  0  0  0  0
   26.0851    8.3238   11.4614 O   0  0  0  0  0  0  0  0  0  0  0  0
   24.1735    7.2785    6.3182 C   0  0  1  0  0  0  0  0  0  0  0  0
   25.0441    8.3220    5.8554 O   0  0  0  0  0  0  0  0  0  0  0  0
  1  2  1  6  0  0  0
  1  6  1  0  0  0  0
  1 23  1  0  0  0  0
  3  4  1  6  0  0  0
  3  8  1  0  0  0  0
  3 30  1  0  0  0  0
  5  9  1  0  0  0  0
  5 21  1  0  0  0  0
  5 25  1  1  0  0  0
  6  7  1  6  0  0  0
  6 11  1  0  0  0  0
  8 13  1  0  0  0  0
  9 10  1  6  0  0  0
  9 15  1  0  0  0  0
 11 12  1  1  0  0  0
 11 17  1  0  0  0  0
 13 14  1  6  0  0  0
 13 19  1  0  0  0  0
 15 16  1  6  0  0  0
 15 20  1  0  0  0  0
 17 18  1  6  0  0  0
 17 22  1  0  0  0  0
 19  2  1  1  0  0  0
 19 24  1  0  0  0  0
 20 21  1  0  0  0  0
 20 26  1  1  0  0  0
 22 23  1  0  0  0  0
 22 28  1  1  0  0  0
 24 25  1  6  0  0  0
 24 30  1  0  0  0  0
 26 27  1  0  0  0  0
 28 29  1  0  0  0  0
 30 31  1  1  0  0  0
M  END
>  <CHROM.1>
-150.21572228,177.14646157,3.44201419,-65.76888712,179.46200856,-76.62305583
22.62160973,7.70268274,8.36956771,-1.44614468,0.53850043,-1.36248701

>  <Name>
2o3x_lig

>  <RI>
0

>  <Rbt.Current_Directory>
/home/itssahil/PROJECTS/Mol_Feturizer/New_Systems/rnas/2o3x

>  <Rbt.Executable>
rbdock ($Id: //depot/dev/client3/rdock/2013.1/src/exe/rbdock.cxx#4 $)

>  <Rbt.Library>
libRbt.so (2013.1, Build901 2013/11/27)

>  <Rbt.Parameter_File>
/export/apps/rDock/src/rDock_2013.1_src/data/scripts/dock_solv.prm

>  <Rbt.Receptor>
prm/blind_docking_40.prm

>  <SCORE>
2.42956

>  <SCORE.INTER>
-14.2507

>  <SCORE.INTER.CONST>
1

>  <SCORE.INTER.POLAR>
-0.965896

>  <SCORE.INTER.ROT>
6

>  <SCORE.INTER.SOLV>
14.7507

>  <SCORE.INTER.VDW>
-18.7977

>  <SCORE.INTER.norm>
-0.459702

>  <SCORE.INTRA>
9.62068

>  <SCORE.INTRA.DIHEDRAL>
2.85764

>  <SCORE.INTRA.DIHEDRAL.0>
9.37739

>  <SCORE.INTRA.POLAR>
0

>  <SCORE.INTRA.POLAR.0>
0

>  <SCORE.INTRA.REPUL>
0

>  <SCORE.INTRA.REPUL.0>
0

>  <SCORE.INTRA.SOLV>
0.163972

>  <SCORE.INTRA.SOLV.lig_0>
-82.9274

>  <SCORE.INTRA.VDW>
8.10987

>  <SCORE.INTRA.VDW.0>
-3.84922

>  <SCORE.INTRA.norm>
0.310345

>  <SCORE.RESTR>
7.05962

>  <SCORE.RESTR.CAVITY>
7.05962

>  <SCORE.RESTR.norm>
0.22773

>  <SCORE.SYSTEM>
0

>  <SCORE.SYSTEM.CONST>
0

>  <SCORE.SYSTEM.DIHEDRAL>
0

>  <SCORE.SYSTEM.SOLV>
0

>  <SCORE.SYSTEM.norm>
0

>  <SCORE.heavy>
31

>  <SCORE.norm>
0.0783729

>  <RMSD>
6.892

$$$$
2o3x_lig
 OpenBabel11021811463D
libRbt.so/2013.1/901 2013/11/27
 31 33  0  0  0  0  0  0  0  0999 V2000
   23.5783    5.8455    7.7862 C   0  0  2  0  0  0  0  0  0  0  0  0
   23.7194    6.5230    9.0418 O   0  0  0  0  0  0  0  0  0  0  0  0
   20.7467    5.4744   11.9334 C   0  0  2  0  0  0  0  0  0  0  0  0
   20.0456    4.9103   13.1080 N   0  0  0  0  0  0  0  0  0  0  0  0
   24.1012    8.2860   12.9221 C   0  0  1  0  0  0  0  0  0  0  0  0
   24.9762    5.2905    7.3663 C   0  0  2  0  0  0  0  0  0  0  0  0
   25.6463    4.5648    8.4755 N   0  0  0  0  0  0  0  0  0  0  0  0
   21.2220    4.3613   10.9413 C   0  0  0  0  0  0  0  0  0  0  0  0
   24.5768    7.5250   14.2031 C   0  0  2  0  0  0  0  0  0  0  0  0
   23.5354    6.8743   14.9817 O   0  0  0  0  0  0  0  0  0  0  0  0
   25.9168    6.4165    6.8969 C   0  0  1  0  0  0  0  0  0  0  0  0
   27.1493    5.8888    6.4765 O   0  0  0  0  0  0  0  0  0  0  0  0
   21.9240    5.0589    9.7194 C   0  0  2  0  0  0  0  0  0  0  0  0
   22.3925    4.0609    8.7116 N   0  0  0  0  0  0  0  0  0  0  0  0
   25.3023    8.6737   14.8836 C   0  0  2  0  0  0  0  0  0  0  0  0
   24.3552    9.5729   15.5560 O   0  0  0  0  0  0  0  0  0  0  0  0
   25.2596    7.1971    5.7711 C   0  0  2  0  0  0  0  0  0  0  0  0
   26.1167    8.2003    5.3299 O   0  0  0  0  0  0  0  0  0  0  0  0
   23.1489    5.8904   10.1963 C   0  0  2  0  0  0  0  0  0  0  0  0
   26.0254    9.3921   13.7505 C   0  0  2  0  0  0  0  0  0  0  0  0
   25.0216    9.3688   12.7394 O   0  0  0  0  0  0  0  0  0  0  0  0
   23.9201    7.8134    6.2649 C   0  0  2  0  0  0  0  0  0  0  0  0
   23.0463    6.7640    6.7340 O   0  0  0  0  0  0  0  0  0  0  0  0
   22.7895    6.9545   11.2521 C   0  0  2  0  0  0  0  0  0  0  0  0
   24.0801    7.4505   11.7544 O   0  0  0  0  0  0  0  0  0  0  0  0
   27.3306    8.6865   13.2484 C   0  0  0  0  0  0  0  0  0  0  0  0
   28.0047    9.5169   12.3072 N   0  0  0  0  0  0  0  0  0  0  0  0
   23.2066    8.5889    5.1819 C   0  0  0  0  0  0  0  0  0  0  0  0
   22.0385    9.1579    5.6505 O   0  0  0  0  0  0  0  0  0  0  0  0
   21.9475    6.2975   12.4333 C   0  0  1  0  0  0  0  0  0  0  0  0
   21.4131    7.2966   13.3150 O   0  0  0  0  0  0  0  0  0  0  0  0
  1  2  1  1  0  0  0
  1  6  1  0  0  0  0
  1 23  1  0  0  0  0
  3  4  1  1  0  0  0
  3  8  1  0  0  0  0
  3 30  1  0  0  0  0
  5  9  1  0  0  0  0
  5 21  1  0  0  0  0
  5 25  1  6  0  0  0
  6  7  1  1  0  0  0
  6 11  1  0  0  0  0
  8 13  1  0  0  0  0
  9 10  1  1  0  0  0
  9 15  1  0  0  0  0
 11 12  1  6  0  0  0
 11 17  1  0  0  0  0
 13 14  1  6  0  0  0
 13 19  1  0  0  0  0
 15 16  1  6  0  0  0
 15 20  1  0  0  0  0
 17 18  1  1  0  0  0
 17 22  1  0  0  0  0
 19  2  1  6  0  0  0
 19 24  1  0  0  0  0
 20 21  1  0  0  0  0
 20 26  1  6  0  0  0
 22 23  1  0  0  0  0
 22 28  1  6  0  0  0
 24 25  1  1  0  0  0
 24 30  1  0  0  0  0
 26 27  1  0  0  0  0
 28 29  1  0  0  0  0
 30 31  1  1  0  0  0
M  END
>  <CHROM.1>
-108.75897465,103.92657799,-29.65073552,-173.13766428,-178.36290255,-169.03093658
23.95962296,7.06508151,10.27916347,1.51760264,-0.57136121,-1.73681852

>  <Name>
2o3x_lig

>  <RI>
0

>  <Rbt.Current_Directory>
/home/itssahil/PROJECTS/Mol_Feturizer/New_Systems/rnas/2o3x

>  <Rbt.Executable>
rbdock ($Id: //depot/dev/client3/rdock/2013.1/src/exe/rbdock.cxx#4 $)

>  <Rbt.Library>
libRbt.so (2013.1, Build901 2013/11/27)

>  <Rbt.Parameter_File>
/export/apps/rDock/src/rDock_2013.1_src/data/scripts/dock_solv.prm

>  <Rbt.Receptor>
prm/blind_docking_60.prm

>  <SCORE>
10.6184

>  <SCORE.INTER>
-8.76152

>  <SCORE.INTER.CONST>
1

>  <SCORE.INTER.POLAR>
-0.835402

>  <SCORE.INTER.ROT>
6

>  <SCORE.INTER.SOLV>
30.5544

>  <SCORE.INTER.VDW>
-20.8412

>  <SCORE.INTER.norm>
-0.28263

>  <SCORE.INTRA>
14.2173

>  <SCORE.INTRA.DIHEDRAL>
7.72638

>  <SCORE.INTRA.DIHEDRAL.0>
9.37739

>  <SCORE.INTRA.POLAR>
0

>  <SCORE.INTRA.POLAR.0>
0

>  <SCORE.INTRA.REPUL>
0

>  <SCORE.INTRA.REPUL.0>
0

>  <SCORE.INTRA.SOLV>
1.47421

>  <SCORE.INTRA.SOLV.lig_0>
-82.9274

>  <SCORE.INTRA.VDW>
9.61697

>  <SCORE.INTRA.VDW.0>
-3.84922

>  <SCORE.INTRA.norm>
0.458621

>  <SCORE.RESTR>
5.16264

>  <SCORE.RESTR.CAVITY>
5.16264

>  <SCORE.RESTR.norm>
0.166537

>  <SCORE.SYSTEM>
0

>  <SCORE.SYSTEM.CONST>
0

>  <SCORE.SYSTEM.DIHEDRAL>
0

>  <SCORE.SYSTEM.SOLV>
0

>  <SCORE.SYSTEM.norm>
0

>  <SCORE.heavy>
31

>  <SCORE.norm>
0.342528

>  <RMSD>
6.893

$$$$
2o3x_lig
 OpenBabel11021811463D
libRbt.so/2013.1/901 2013/11/27
 31 33  0  0  0  0  0  0  0  0999 V2000
   20.2262    8.5074   11.2325 C   0  0  2  0  0  0  0  0  0  0  0  0
   19.0665    8.2764   10.4218 O   0  0  0  0  0  0  0  0  0  0  0  0
   18.4109    8.7433    6.2206 C   0  0  2  0  0  0  0  0  0  0  0  0
   18.3418    9.2881    4.8466 N   0  0  0  0  0  0  0  0  0  0  0  0
   22.4952    7.8567    8.5970 C   0  0  1  0  0  0  0  0  0  0  0  0
   19.8982    8.0732   12.6962 C   0  0  2  0  0  0  0  0  0  0  0  0
   19.2675    6.7298   12.7532 N   0  0  0  0  0  0  0  0  0  0  0  0
   17.4356    9.4824    7.1963 C   0  0  0  0  0  0  0  0  0  0  0  0
   22.4162    6.6153    9.5451 C   0  0  2  0  0  0  0  0  0  0  0  0
   23.0082    6.7807   10.8628 O   0  0  0  0  0  0  0  0  0  0  0  0
   18.9521    9.0734   13.3869 C   0  0  1  0  0  0  0  0  0  0  0  0
   18.7119    8.6899   14.7172 O   0  0  0  0  0  0  0  0  0  0  0  0
   17.5598    8.8149    8.6145 C   0  0  2  0  0  0  0  0  0  0  0  0
   16.6420    9.4539    9.6048 N   0  0  0  0  0  0  0  0  0  0  0  0
   23.0854    5.6004    8.6334 C   0  0  2  0  0  0  0  0  0  0  0  0
   24.5466    5.7482    8.6602 O   0  0  0  0  0  0  0  0  0  0  0  0
   19.5536   10.4677   13.3347 C   0  0  2  0  0  0  0  0  0  0  0  0
   18.7115   11.3691   13.9782 O   0  0  0  0  0  0  0  0  0  0  0  0
   19.0169    8.9312    9.1461 C   0  0  2  0  0  0  0  0  0  0  0  0
   22.5314    5.9099    7.2476 C   0  0  2  0  0  0  0  0  0  0  0  0
   22.5582    7.3345    7.2642 O   0  0  0  0  0  0  0  0  0  0  0  0
   19.7704   10.8965   11.8559 C   0  0  2  0  0  0  0  0  0  0  0  0
   20.6329    9.9452   11.1956 O   0  0  0  0  0  0  0  0  0  0  0  0
   20.0627    8.3109    8.1985 C   0  0  2  0  0  0  0  0  0  0  0  0
   21.3662    8.7336    8.7334 O   0  0  0  0  0  0  0  0  0  0  0  0
   21.0778    5.3884    6.9864 C   0  0  0  0  0  0  0  0  0  0  0  0
   21.0730    3.9652    6.9202 N   0  0  0  0  0  0  0  0  0  0  0  0
   20.3860   12.2713   11.7369 C   0  0  0  0  0  0  0  0  0  0  0  0
   20.5688   12.6333   10.4164 O   0  0  0  0  0  0  0  0  0  0  0  0
   19.8625    8.8631    6.7184 C   0  0  1  0  0  0  0  0  0  0  0  0
   20.6730    8.1441    5.7764 O   0  0  0  0  0  0  0  0  0  0  0  0
  1  2  1  6  0  0  0
  1  6  1  0  0  0  0
  1 23  1  0  0  0  0
  3  4  1  6  0  0  0
  3  8  1  0  0  0  0
  3 30  1  0  0  0  0
  5  9  1  0  0  0  0
  5 21  1  0  0  0  0
  5 25  1  6  0  0  0
  6  7  1  6  0  0  0
  6 11  1  0  0  0  0
  8 13  1  0  0  0  0
  9 10  1  1  0  0  0
  9 15  1  0  0  0  0
 11 12  1  1  0  0  0
 11 17  1  0  0  0  0
 13 14  1  1  0  0  0
 13 19  1  0  0  0  0
 15 16  1  6  0  0  0
 15 20  1  0  0  0  0
 17 18  1  6  0  0  0
 17 22  1  0  0  0  0
 19  2  1  1  0  0  0
 19 24  1  0  0  0  0
 20 21  1  0  0  0  0
 20 26  1  1  0  0  0
 22 23  1  0  0  0  0
 22 28  1  1  0  0  0
 24 25  1  1  0  0  0
 24 30  1  0  0  0  0
 26 27  1  0  0  0  0
 28 29  1  0  0  0  0
 30 31  1  6  0  0  0
M  END
>  <CHROM.1>
163.41154388,-72.59034020,-166.65956200,-69.08438433,-179.94211418,147.35994348
20.28745093,8.43457750,9.62159052,-2.04068543,0.74885492,-1.80250398

>  <Name>
2o3x_lig

>  <RI>
2.78316e+07

>  <Rbt.Current_Directory>
/home/itssahil/PROJECTS/Mol_Feturizer/New_Systems/rnas/2o3x

>  <Rbt.Executable>
rbdock ($Id: //depot/dev/client3/rdock/2013.1/src/exe/rbdock.cxx#4 $)

>  <Rbt.Library>
libRbt.so (2013.1, Build901 2013/11/27)

>  <Rbt.Parameter_File>
/export/apps/rDock/src/rDock_2013.1_src/data/scripts/dock_solv.prm

>  <Rbt.Receptor>
prm/pocket_docking_7.prm

>  <SCORE>
-12.4302

>  <SCORE.INTER>
-11.0631

>  <SCORE.INTER.CONST>
1

>  <SCORE.INTER.POLAR>
-1.95951

>  <SCORE.INTER.ROT>
6

>  <SCORE.INTER.SOLV>
9.27714

>  <SCORE.INTER.VDW>
-11.5361

>  <SCORE.INTER.norm>
-0.356874

>  <SCORE.INTRA>
-1.36716

>  <SCORE.INTRA.DIHEDRAL>
-1.94291

>  <SCORE.INTRA.DIHEDRAL.0>
9.37739

>  <SCORE.INTRA.POLAR>
0

>  <SCORE.INTRA.POLAR.0>
0

>  <SCORE.INTRA.REPUL>
0

>  <SCORE.INTRA.REPUL.0>
0

>  <SCORE.INTRA.SOLV>
-1.52609

>  <SCORE.INTRA.SOLV.lig_0>
-82.9274

>  <SCORE.INTRA.VDW>
0.367339

>  <SCORE.INTRA.VDW.0>
-3.84922

>  <SCORE.INTRA.norm>
-0.044102

>  <SCORE.RESTR>
0

>  <SCORE.RESTR.CAVITY>
0

>  <SCORE.RESTR.norm>
0

>  <SCORE.SYSTEM>
0

>  <SCORE.SYSTEM.CONST>
0

>  <SCORE.SYSTEM.DIHEDRAL>
0

>  <SCORE.SYSTEM.SOLV>
0

>  <SCORE.SYSTEM.norm>
0

>  <SCORE.heavy>
31

>  <SCORE.norm>
-0.400976

>  <RMSD>
6.894

$$$$
2o3x_lig
 OpenBabel11021811463D
libRbt.so/2013.1/901 2013/11/27
 31 33  0  0  0  0  0  0  0  0999 V2000
   21.7355    6.8511   11.0072 C   0  0  2  0  0  0  0  0  0  0  0  0
   22.2300    7.6821    9.9488 O   0  0  0  0  0  0  0  0  0  0  0  0
   24.9994    6.5008    6.9102 C   0  0  2  0  0  0  0  0  0  0  0  0
   25.6129    5.9052    5.7026 N   0  0  0  0  0  0  0  0  0  0  0  0
   21.7206    9.4333    6.0715 C   0  0  1  0  0  0  0  0  0  0  0  0
   20.4330    7.4991   11.5747 C   0  0  2  0  0  0  0  0  0  0  0  0
   19.4871    7.8886   10.4980 N   0  0  0  0  0  0  0  0  0  0  0  0
   24.5277    5.4106    7.9292 C   0  0  0  0  0  0  0  0  0  0  0  0
   21.3872    8.6079    4.7855 C   0  0  2  0  0  0  0  0  0  0  0  0
   22.5259    8.0555    4.0695 O   0  0  0  0  0  0  0  0  0  0  0  0
   20.7418    8.7531   12.4143 C   0  0  1  0  0  0  0  0  0  0  0  0
   19.5612    9.2892   12.9558 O   0  0  0  0  0  0  0  0  0  0  0  0
   23.9215    6.1396    9.1836 C   0  0  2  0  0  0  0  0  0  0  0  0
   23.4625    5.1641   10.2175 N   0  0  0  0  0  0  0  0  0  0  0  0
   20.5825    9.6656    4.0489 C   0  0  2  0  0  0  0  0  0  0  0  0
   21.4646   10.6467    3.4032 O   0  0  0  0  0  0  0  0  0  0  0  0
   21.7231    8.4010   13.5195 C   0  0  2  0  0  0  0  0  0  0  0  0
   21.9858    9.5270   14.2934 O   0  0  0  0  0  0  0  0  0  0  0  0
   22.7113    7.0240    8.7683 C   0  0  2  0  0  0  0  0  0  0  0  0
   19.7362   10.3234    5.1325 C   0  0  2  0  0  0  0  0  0  0  0  0
   20.6872   10.4187    6.1893 O   0  0  0  0  0  0  0  0  0  0  0  0
   23.0413    7.8529   12.9033 C   0  0  2  0  0  0  0  0  0  0  0  0
   22.7530    6.6946   12.0909 O   0  0  0  0  0  0  0  0  0  0  0  0
   23.0619    8.0702    7.6919 C   0  0  2  0  0  0  0  0  0  0  0  0
   21.7701    8.6224    7.2557 O   0  0  0  0  0  0  0  0  0  0  0  0
   18.4868    9.4955    5.5875 C   0  0  0  0  0  0  0  0  0  0  0  0
   17.9942    9.9947    6.8276 N   0  0  0  0  0  0  0  0  0  0  0  0
   24.0541    7.4656   13.9557 C   0  0  0  0  0  0  0  0  0  0  0  0
   24.4862    8.5640   14.6732 O   0  0  0  0  0  0  0  0  0  0  0  0
   23.8116    7.3757    6.4707 C   0  0  1  0  0  0  0  0  0  0  0  0
   24.3430    8.3494    5.5593 O   0  0  0  0  0  0  0  0  0  0  0  0
  1  2  1  6  0  0  0
  1  6  1  0  0  0  0
  1 23  1  0  0  0  0
  3  4  1  6  0  0  0
  3  8  1  0  0  0  0
  3 30  1  0  0  0  0
  5  9  1  0  0  0  0
  5 21  1  0  0  0  0
  5 25  1  1  0  0  0
  6  7  1  6  0  0  0
  6 11  1  0  0  0  0
  8 13  1  0  0  0  0
  9 10  1  6  0  0  0
  9 15  1  0  0  0  0
 11 12  1  1  0  0  0
 11 17  1  0  0  0  0
 13 14  1  1  0  0  0
 13 19  1  0  0  0  0
 15 16  1  1  0  0  0
 15 20  1  0  0  0  0
 17 18  1  6  0  0  0
 17 22  1  0  0  0  0
 19  2  1  1  0  0  0
 19 24  1  0  0  0  0
 20 21  1  0  0  0  0
 20 26  1  1  0  0  0
 22 23  1  0  0  0  0
 22 28  1  1  0  0  0
 24 25  1  6  0  0  0
 24 30  1  0  0  0  0
 26 27  1  0  0  0  0
 28 29  1  0  0  0  0
 30 31  1  6  0  0  0
M  END
>  <CHROM.1>
-137.77607253,93.16085515,-62.11440147,163.65591281,-65.11694414,-167.69775874
22.10129100,8.15111874,8.78026619,-1.44760646,0.57596585,-1.50166282

>  <Name>
2o3x_lig

>  <RI>
224

>  <Rbt.Current_Directory>
/home/itssahil/PROJECTS/Mol_Feturizer/New_Systems/rnas/2o3x

>  <Rbt.Executable>
rbdock ($Id: //depot/dev/client3/rdock/2013.1/src/exe/rbdock.cxx#4 $)

>  <Rbt.Library>
libRbt.so (2013.1, Build901 2013/11/27)

>  <Rbt.Parameter_File>
/export/apps/rDock/src/rDock_2013.1_src/data/scripts/dock_solv.prm

>  <Rbt.Receptor>
prm/blind_docking_100.prm

>  <SCORE>
-0.749238

>  <SCORE.INTER>
-11.6481

>  <SCORE.INTER.CONST>
1

>  <SCORE.INTER.POLAR>
-0.832871

>  <SCORE.INTER.ROT>
6

>  <SCORE.INTER.SOLV>
16.7954

>  <SCORE.INTER.VDW>
-18.1876

>  <SCORE.INTER.norm>
-0.375745

>  <SCORE.INTRA>
7.58983

>  <SCORE.INTRA.DIHEDRAL>
2.46488

>  <SCORE.INTRA.DIHEDRAL.0>
9.37739

>  <SCORE.INTRA.POLAR>
0

>  <SCORE.INTRA.POLAR.0>
0

>  <SCORE.INTRA.REPUL>
0

>  <SCORE.INTRA.REPUL.0>
0

>  <SCORE.INTRA.SOLV>
1.73789

>  <SCORE.INTRA.SOLV.lig_0>
-82.9274

>  <SCORE.INTRA.VDW>
5.48845

>  <SCORE.INTRA.VDW.0>
-3.84922

>  <SCORE.INTRA.norm>
0.244833

>  <SCORE.RESTR>
3.30902

>  <SCORE.RESTR.CAVITY>
3.30902

>  <SCORE.RESTR.norm>
0.106743

>  <SCORE.SYSTEM>
0

>  <SCORE.SYSTEM.CONST>
0

>  <SCORE.SYSTEM.DIHEDRAL>
0

>  <SCORE.SYSTEM.SOLV>
0

>  <SCORE.SYSTEM.norm>
0

>  <SCORE.heavy>
31

>  <SCORE.norm>
-0.024169

>  <RMSD>
6.919

$$$$
2o3x_lig
 OpenBabel11021811463D
libRbt.so/2013.1/901 2013/11/27
 31 33  0  0  0  0  0  0  0  0999 V2000
   21.7176    6.8631   10.9711 C   0  0  2  0  0  0  0  0  0  0  0  0
   22.2057    7.6959    9.9112 O   0  0  0  0  0  0  0  0  0  0  0  0
   24.9927    6.5235    6.8852 C   0  0  2  0  0  0  0  0  0  0  0  0
   25.6136    5.9298    5.6805 N   0  0  0  0  0  0  0  0  0  0  0  0
   21.7113    9.4642    6.0449 C   0  0  1  0  0  0  0  0  0  0  0  0
   20.4142    7.5061   11.5422 C   0  0  2  0  0  0  0  0  0  0  0  0
   19.4636    7.8917   10.4682 N   0  0  0  0  0  0  0  0  0  0  0  0
   24.5202    5.4319    7.9023 C   0  0  0  0  0  0  0  0  0  0  0  0
   21.3878    8.6595    4.7433 C   0  0  2  0  0  0  0  0  0  0  0  0
   22.5322    8.1210    4.0258 O   0  0  0  0  0  0  0  0  0  0  0  0
   20.7203    8.7614   12.3807 C   0  0  1  0  0  0  0  0  0  0  0  0
   19.5392    9.2929   12.9255 O   0  0  0  0  0  0  0  0  0  0  0  0
   23.9060    6.1591    9.1538 C   0  0  2  0  0  0  0  0  0  0  0  0
   23.4458    5.1822   10.1859 N   0  0  0  0  0  0  0  0  0  0  0  0
   20.5858    9.7277    4.0189 C   0  0  2  0  0  0  0  0  0  0  0  0
   21.4703   10.7209    3.3953 O   0  0  0  0  0  0  0  0  0  0  0  0
   21.7062    8.4133   13.4833 C   0  0  2  0  0  0  0  0  0  0  0  0
   21.9667    9.5405   14.2562 O   0  0  0  0  0  0  0  0  0  0  0  0
   22.6945    7.0392    8.7329 C   0  0  2  0  0  0  0  0  0  0  0  0
   19.7312   10.3660    5.1076 C   0  0  2  0  0  0  0  0  0  0  0  0
   20.6751   10.4456    6.1721 O   0  0  0  0  0  0  0  0  0  0  0  0
   23.0248    7.8704   12.8634 C   0  0  2  0  0  0  0  0  0  0  0  0
   22.7387    6.7108   12.0519 O   0  0  0  0  0  0  0  0  0  0  0  0
   23.0463    8.0864    7.6579 C   0  0  2  0  0  0  0  0  0  0  0  0
   21.7546    8.6340    7.2158 O   0  0  0  0  0  0  0  0  0  0  0  0
   18.4805    9.5285    5.5407 C   0  0  0  0  0  0  0  0  0  0  0  0
   18.8952    8.3074    6.1464 N   0  0  0  0  0  0  0  0  0  0  0  0
   24.0421    7.4872   13.9129 C   0  0  0  0  0  0  0  0  0  0  0  0
   24.4571    8.5844   14.6423 O   0  0  0  0  0  0  0  0  0  0  0  0
   23.8039    7.3942    6.4402 C   0  0  1  0  0  0  0  0  0  0  0  0
   24.3359    8.3696    5.5309 O   0  0  0  0  0  0  0  0  0  0  0  0
  1  2  1  6  0  0  0
  1  6  1  0  0  0  0
  1 23  1  0  0  0  0
  3  4  1  6  0  0  0
  3  8  1  0  0  0  0
  3 30  1  0  0  0  0
  5  9  1  0  0  0  0
  5 21  1  0  0  0  0
  5 25  1  1  0  0  0
  6  7  1  6  0  0  0
  6 11  1  0  0  0  0
  8 13  1  0  0  0  0
  9 10  1  6  0  0  0
  9 15  1  0  0  0  0
 11 12  1  1  0  0  0
 11 17  1  0  0  0  0
 13 14  1  1  0  0  0
 13 19  1  0  0  0  0
 15 16  1  1  0  0  0
 15 20  1  0  0  0  0
 17 18  1  6  0  0  0
 17 22  1  0  0  0  0
 19  2  1  1  0  0  0
 19 24  1  0  0  0  0
 20 21  1  0  0  0  0
 20 26  1  1  0  0  0
 22 23  1  0  0  0  0
 22 28  1  1  0  0  0
 24 25  1  6  0  0  0
 24 30  1  0  0  0  0
 26 27  1  0  0  0  0
 28 29  1  0  0  0  0
 30 31  1  6  0  0  0
M  END
>  <CHROM.1>
-138.18133324,93.67426856,-61.71596000,64.76207639,-64.21746970,-168.80420978
22.11823371,8.12093985,8.72738932,-1.46045432,0.56708831,-1.50565352

>  <Name>
2o3x_lig

>  <RI>
224

>  <Rbt.Current_Directory>
/home/itssahil/PROJECTS/Mol_Feturizer/New_Systems/rnas/2o3x

>  <Rbt.Executable>
rbdock ($Id: //depot/dev/client3/rdock/2013.1/src/exe/rbdock.cxx#4 $)

>  <Rbt.Library>
libRbt.so (2013.1, Build901 2013/11/27)

>  <Rbt.Parameter_File>
/export/apps/rDock/src/rDock_2013.1_src/data/scripts/dock_solv.prm

>  <Rbt.Receptor>
prm/blind_docking_100.prm

>  <SCORE>
0.0605941

>  <SCORE.INTER>
-12.4221

>  <SCORE.INTER.CONST>
1

>  <SCORE.INTER.POLAR>
-0.857379

>  <SCORE.INTER.ROT>
6

>  <SCORE.INTER.SOLV>
12.9611

>  <SCORE.INTER.VDW>
-17.3439

>  <SCORE.INTER.norm>
-0.400713

>  <SCORE.INTRA>
8.64171

>  <SCORE.INTRA.DIHEDRAL>
1.50716

>  <SCORE.INTRA.DIHEDRAL.0>
9.37739

>  <SCORE.INTRA.POLAR>
0

>  <SCORE.INTRA.POLAR.0>
0

>  <SCORE.INTRA.REPUL>
0.0103844

>  <SCORE.INTRA.REPUL.0>
0

>  <SCORE.INTRA.SOLV>
4.46993

>  <SCORE.INTRA.SOLV.lig_0>
-82.9274

>  <SCORE.INTRA.VDW>
5.60125

>  <SCORE.INTRA.VDW.0>
-3.84922

>  <SCORE.INTRA.norm>
0.278765

>  <SCORE.RESTR>
3.84099

>  <SCORE.RESTR.CAVITY>
3.84099

>  <SCORE.RESTR.norm>
0.123903

>  <SCORE.SYSTEM>
0

>  <SCORE.SYSTEM.CONST>
0

>  <SCORE.SYSTEM.DIHEDRAL>
0

>  <SCORE.SYSTEM.SOLV>
0

>  <SCORE.SYSTEM.norm>
0

>  <SCORE.heavy>
31

>  <SCORE.norm>
0.00195465

>  <RMSD>
6.920

$$$$
2o3x_lig
 OpenBabel11021811463D
libRbt.so/2013.1/901 2013/11/27
 31 33  0  0  0  0  0  0  0  0999 V2000
   19.7271    8.9413   10.1738 C   0  0  2  0  0  0  0  0  0  0  0  0
   21.1295    8.7821    9.9221 O   0  0  0  0  0  0  0  0  0  0  0  0
   23.7894    5.9145    8.1899 C   0  0  2  0  0  0  0  0  0  0  0  0
   24.3452    4.7508    7.4646 N   0  0  0  0  0  0  0  0  0  0  0  0
   21.4277    9.5925    6.1447 C   0  0  1  0  0  0  0  0  0  0  0  0
   19.4995   10.3426   10.8243 C   0  0  2  0  0  0  0  0  0  0  0  0
   20.1993   11.4233   10.0841 N   0  0  0  0  0  0  0  0  0  0  0  0
   22.9838    5.4855    9.4613 C   0  0  0  0  0  0  0  0  0  0  0  0
   21.8687    9.1005    4.7271 C   0  0  2  0  0  0  0  0  0  0  0  0
   23.2952    8.8889    4.5409 O   0  0  0  0  0  0  0  0  0  0  0  0
   19.9840   10.3755   12.2862 C   0  0  1  0  0  0  0  0  0  0  0  0
   19.7231   11.6286   12.8660 O   0  0  0  0  0  0  0  0  0  0  0  0
   22.4629    6.7860   10.1752 C   0  0  2  0  0  0  0  0  0  0  0  0
   21.6957    6.4622   11.4154 N   0  0  0  0  0  0  0  0  0  0  0  0
   21.2444   10.2151    3.9043 C   0  0  2  0  0  0  0  0  0  0  0  0
   22.0764   11.4253    3.9361 O   0  0  0  0  0  0  0  0  0  0  0  0
   19.3035    9.2706   13.0766 C   0  0  2  0  0  0  0  0  0  0  0  0
   19.7221    9.3128   14.4028 O   0  0  0  0  0  0  0  0  0  0  0  0
   21.5402    7.5986    9.2226 C   0  0  2  0  0  0  0  0  0  0  0  0
   19.8935   10.4648    4.5643 C   0  0  2  0  0  0  0  0  0  0  0  0
   20.2534   10.3878    5.9409 O   0  0  0  0  0  0  0  0  0  0  0  0
   19.6391    7.8873   12.4509 C   0  0  2  0  0  0  0  0  0  0  0  0
   19.2138    7.8620   11.0713 O   0  0  0  0  0  0  0  0  0  0  0  0
   22.2232    7.9854    7.8959 C   0  0  2  0  0  0  0  0  0  0  0  0
   21.1439    8.5108    7.0456 O   0  0  0  0  0  0  0  0  0  0  0  0
   18.7874    9.4095    4.2234 C   0  0  0  0  0  0  0  0  0  0  0  0
   18.5754    9.3602    2.8154 N   0  0  0  0  0  0  0  0  0  0  0  0
   18.9740    6.7450   13.1831 C   0  0  0  0  0  0  0  0  0  0  0  0
   19.2820    5.5266   12.6098 O   0  0  0  0  0  0  0  0  0  0  0  0
   22.8883    6.7042    7.2236 C   0  0  1  0  0  0  0  0  0  0  0  0
   23.7144    7.0672    6.1069 O   0  0  0  0  0  0  0  0  0  0  0  0
  1  2  1  1  0  0  0
  1  6  1  0  0  0  0
  1 23  1  0  0  0  0
  3  4  1  6  0  0  0
  3  8  1  0  0  0  0
  3 30  1  0  0  0  0
  5  9  1  0  0  0  0
  5 21  1  0  0  0  0
  5 25  1  1  0  0  0
  6  7  1  6  0  0  0
  6 11  1  0  0  0  0
  8 13  1  0  0  0  0
  9 10  1  1  0  0  0
  9 15  1  0  0  0  0
 11 12  1  1  0  0  0
 11 17  1  0  0  0  0
 13 14  1  1  0  0  0
 13 19  1  0  0  0  0
 15 16  1  1  0  0  0
 15 20  1  0  0  0  0
 17 18  1  1  0  0  0
 17 22  1  0  0  0  0
 19  2  1  1  0  0  0
 19 24  1  0  0  0  0
 20 21  1  0  0  0  0
 20 26  1  6  0  0  0
 22 23  1  0  0  0  0
 22 28  1  1  0  0  0
 24 25  1  6  0  0  0
 24 30  1  0  0  0  0
 26 27  1  0  0  0  0
 28 29  1  0  0  0  0
 30 31  1  6  0  0  0
M  END
>  <CHROM.1>
-175.02513818,91.14998041,-117.59047819,-58.38913486,179.84240068,144.80403186
20.98199926,8.53732095,8.65298171,1.88674070,-0.90543730,1.93598685

>  <Name>
2o3x_lig

>  <RI>
2.78316e+07

>  <Rbt.Current_Directory>
/home/itssahil/PROJECTS/Mol_Feturizer/New_Systems/rnas/2o3x

>  <Rbt.Executable>
rbdock ($Id: //depot/dev/client3/rdock/2013.1/src/exe/rbdock.cxx#4 $)

>  <Rbt.Library>
libRbt.so (2013.1, Build901 2013/11/27)

>  <Rbt.Parameter_File>
/export/apps/rDock/src/rDock_2013.1_src/data/scripts/dock_solv.prm

>  <Rbt.Receptor>
prm/pocket_docking_7.prm

>  <SCORE>
-15.0355

>  <SCORE.INTER>
-20.4892

>  <SCORE.INTER.CONST>
1

>  <SCORE.INTER.POLAR>
-2.54152

>  <SCORE.INTER.ROT>
6

>  <SCORE.INTER.SOLV>
17.4484

>  <SCORE.INTER.VDW>
-18.6039

>  <SCORE.INTER.norm>
-0.660941

>  <SCORE.INTRA>
5.45368

>  <SCORE.INTRA.DIHEDRAL>
6.38506

>  <SCORE.INTRA.DIHEDRAL.0>
9.37739

>  <SCORE.INTRA.POLAR>
0

>  <SCORE.INTRA.POLAR.0>
0

>  <SCORE.INTRA.REPUL>
0

>  <SCORE.INTRA.REPUL.0>
0

>  <SCORE.INTRA.SOLV>
2.11176

>  <SCORE.INTRA.SOLV.lig_0>
-82.9274

>  <SCORE.INTRA.VDW>
1.20527

>  <SCORE.INTRA.VDW.0>
-3.84922

>  <SCORE.INTRA.norm>
0.175925

>  <SCORE.RESTR>
0

>  <SCORE.RESTR.CAVITY>
0

>  <SCORE.RESTR.norm>
0

>  <SCORE.SYSTEM>
0

>  <SCORE.SYSTEM.CONST>
0

>  <SCORE.SYSTEM.DIHEDRAL>
0

>  <SCORE.SYSTEM.SOLV>
0

>  <SCORE.SYSTEM.norm>
0

>  <SCORE.heavy>
31

>  <SCORE.norm>
-0.485016

>  <RMSD>
6.930

$$$$
2o3x_lig
 OpenBabel11021811463D
libRbt.so/2013.1/901 2013/11/27
 31 33  0  0  0  0  0  0  0  0999 V2000
   22.5032    6.0161   11.2207 C   0  0  2  0  0  0  0  0  0  0  0  0
   22.1726    6.7267   10.0202 O   0  0  0  0  0  0  0  0  0  0  0  0
   23.9403    7.2036    6.1542 C   0  0  2  0  0  0  0  0  0  0  0  0
   24.6282    6.9566    4.8676 N   0  0  0  0  0  0  0  0  0  0  0  0
   21.5481    3.9257    7.7392 C   0  0  1  0  0  0  0  0  0  0  0  0
   21.2643    6.0509   12.1706 C   0  0  2  0  0  0  0  0  0  0  0  0
   20.0096    5.6804   11.4675 N   0  0  0  0  0  0  0  0  0  0  0  0
   24.9007    7.0307    7.3777 C   0  0  0  0  0  0  0  0  0  0  0  0
   22.3596    3.5231    9.0142 C   0  0  2  0  0  0  0  0  0  0  0  0
   23.7811    3.8280    8.9878 O   0  0  0  0  0  0  0  0  0  0  0  0
   21.0665    7.4450   12.7952 C   0  0  1  0  0  0  0  0  0  0  0  0
   19.9782    7.4393   13.6840 O   0  0  0  0  0  0  0  0  0  0  0  0
   24.0889    7.3420    8.6878 C   0  0  2  0  0  0  0  0  0  0  0  0
   24.9436    7.2173    9.9065 N   0  0  0  0  0  0  0  0  0  0  0  0
   21.9918    2.0493    9.0517 C   0  0  2  0  0  0  0  0  0  0  0  0
   22.7893    1.2806    8.0869 O   0  0  0  0  0  0  0  0  0  0  0  0
   22.3372    7.8707   13.5114 C   0  0  2  0  0  0  0  0  0  0  0  0
   22.1533    9.1198   14.0959 O   0  0  0  0  0  0  0  0  0  0  0  0
   22.8851    6.3672    8.8278 C   0  0  2  0  0  0  0  0  0  0  0  0
   20.5127    2.0164    8.6852 C   0  0  2  0  0  0  0  0  0  0  0  0
   20.4795    2.9771    7.6333 O   0  0  0  0  0  0  0  0  0  0  0  0
   23.5222    7.9172   12.5058 C   0  0  2  0  0  0  0  0  0  0  0  0
   23.6925    6.6198   11.8952 O   0  0  0  0  0  0  0  0  0  0  0  0
   21.9304    6.3998    7.6179 C   0  0  2  0  0  0  0  0  0  0  0  0
   21.0217    5.2597    7.8130 O   0  0  0  0  0  0  0  0  0  0  0  0
   19.5376    2.4285    9.8396 C   0  0  0  0  0  0  0  0  0  0  0  0
   18.1889    2.1816    9.4524 N   0  0  0  0  0  0  0  0  0  0  0  0
   24.8228    8.3169   13.1631 C   0  0  0  0  0  0  0  0  0  0  0  0
   25.8470    8.4186   12.2419 O   0  0  0  0  0  0  0  0  0  0  0  0
   22.7506    6.2329    6.2632 C   0  0  1  0  0  0  0  0  0  0  0  0
   21.9233    6.4778    5.1157 O   0  0  0  0  0  0  0  0  0  0  0  0
  1  2  1  6  0  0  0
  1  6  1  0  0  0  0
  1 23  1  0  0  0  0
  3  4  1  6  0  0  0
  3  8  1  0  0  0  0
  3 30  1  0  0  0  0
  5  9  1  0  0  0  0
  5 21  1  0  0  0  0
  5 25  1  1  0  0  0
  6  7  1  6  0  0  0
  6 11  1  0  0  0  0
  8 13  1  0  0  0  0
  9 10  1  6  0  0  0
  9 15  1  0  0  0  0
 11 12  1  1  0  0  0
 11 17  1  0  0  0  0
 13 14  1  1  0  0  0
 13 19  1  0  0  0  0
 15 16  1  6  0  0  0
 15 20  1  0  0  0  0
 17 18  1  6  0  0  0
 17 22  1  0  0  0  0
 19  2  1  1  0  0  0
 19 24  1  0  0  0  0
 20 21  1  0  0  0  0
 20 26  1  1  0  0  0
 22 23  1  0  0  0  0
 22 28  1  1  0  0  0
 24 25  1  1  0  0  0
 24 30  1  0  0  0  0
 26 27  1  0  0  0  0
 28 29  1  0  0  0  0
 30 31  1  6  0  0  0
M  END
>  <CHROM.1>
-154.36466672,75.51483822,-94.69674815,-171.78544905,-176.91986161,-66.66954458
22.37501492,5.75547243,9.68953852,1.28962509,0.80506672,1.11199993

>  <Name>
2o3x_lig

>  <RI>
0

>  <Rbt.Current_Directory>
/home/itssahil/PROJECTS/Mol_Feturizer/New_Systems/rnas/2o3x

>  <Rbt.Executable>
rbdock ($Id: //depot/dev/client3/rdock/2013.1/src/exe/rbdock.cxx#4 $)

>  <Rbt.Library>
libRbt.so (2013.1, Build901 2013/11/27)

>  <Rbt.Parameter_File>
/export/apps/rDock/src/rDock_2013.1_src/data/scripts/dock_solv.prm

>  <Rbt.Receptor>
prm/blind_docking_60.prm

>  <SCORE>
14.683

>  <SCORE.INTER>
-0.800892

>  <SCORE.INTER.CONST>
1

>  <SCORE.INTER.POLAR>
0

>  <SCORE.INTER.ROT>
6

>  <SCORE.INTER.SOLV>
16.5977

>  <SCORE.INTER.VDW>
-13.6665

>  <SCORE.INTER.norm>
-0.0258352

>  <SCORE.INTRA>
3.38668

>  <SCORE.INTRA.DIHEDRAL>
-0.406733

>  <SCORE.INTRA.DIHEDRAL.0>
9.37739

>  <SCORE.INTRA.POLAR>
0

>  <SCORE.INTRA.POLAR.0>
0

>  <SCORE.INTRA.REPUL>
0

>  <SCORE.INTRA.REPUL.0>
0

>  <SCORE.INTRA.SOLV>
3.81029

>  <SCORE.INTRA.SOLV.lig_0>
-82.9274

>  <SCORE.INTRA.VDW>
1.6849

>  <SCORE.INTRA.VDW.0>
-3.84922

>  <SCORE.INTRA.norm>
0.109248

>  <SCORE.RESTR>
12.0972

>  <SCORE.RESTR.CAVITY>
12.0972

>  <SCORE.RESTR.norm>
0.390232

>  <SCORE.SYSTEM>
0

>  <SCORE.SYSTEM.CONST>
0

>  <SCORE.SYSTEM.DIHEDRAL>
0

>  <SCORE.SYSTEM.SOLV>
0

>  <SCORE.SYSTEM.norm>
0

>  <SCORE.heavy>
31

>  <SCORE.norm>
0.473644

>  <RMSD>
6.940

$$$$
2o3x_lig
 OpenBabel11021811463D
libRbt.so/2013.1/901 2013/11/27
 31 33  0  0  0  0  0  0  0  0999 V2000
   20.8022    6.6284    9.8709 C   0  0  2  0  0  0  0  0  0  0  0  0
   20.8481    5.2430    9.5046 O   0  0  0  0  0  0  0  0  0  0  0  0
   17.7240    2.7271    8.0186 C   0  0  2  0  0  0  0  0  0  0  0  0
   16.4634    1.9667    7.8701 N   0  0  0  0  0  0  0  0  0  0  0  0
   17.3262    7.2458    8.2577 C   0  0  1  0  0  0  0  0  0  0  0  0
   21.8073    7.4103    8.9671 C   0  0  2  0  0  0  0  0  0  0  0  0
   21.6524    7.0663    7.5306 N   0  0  0  0  0  0  0  0  0  0  0  0
   18.6094    2.1764    9.1857 C   0  0  0  0  0  0  0  0  0  0  0  0
   17.2431    8.7142    8.7898 C   0  0  2  0  0  0  0  0  0  0  0  0
   16.2753    8.9550    9.8480 O   0  0  0  0  0  0  0  0  0  0  0  0
   23.2680    7.1314    9.3688 C   0  0  1  0  0  0  0  0  0  0  0  0
   24.1515    7.8837    8.5765 O   0  0  0  0  0  0  0  0  0  0  0  0
   19.9315    3.0255    9.2427 C   0  0  2  0  0  0  0  0  0  0  0  0
   20.8447    2.5486   10.3243 N   0  0  0  0  0  0  0  0  0  0  0  0
   16.9756    9.4120    7.4667 C   0  0  2  0  0  0  0  0  0  0  0  0
   15.5644    9.2864    7.0786 O   0  0  0  0  0  0  0  0  0  0  0  0
   23.4653    7.4544   10.8404 C   0  0  2  0  0  0  0  0  0  0  0  0
   24.7896    7.2251   11.2001 O   0  0  0  0  0  0  0  0  0  0  0  0
   19.6060    4.5249    9.4976 C   0  0  2  0  0  0  0  0  0  0  0  0
   17.8808    8.6978    6.4698 C   0  0  2  0  0  0  0  0  0  0  0  0
   17.7109    7.3441    6.8810 O   0  0  0  0  0  0  0  0  0  0  0  0
   22.5142    6.5813   11.7069 C   0  0  2  0  0  0  0  0  0  0  0  0
   21.1451    6.8170   11.3134 O   0  0  0  0  0  0  0  0  0  0  0  0
   18.6575    5.1304    8.4440 C   0  0  2  0  0  0  0  0  0  0  0  0
   18.2731    6.4447    8.9813 O   0  0  0  0  0  0  0  0  0  0  0  0
   19.3905    9.1095    6.5368 C   0  0  0  0  0  0  0  0  0  0  0  0
   19.5697   10.4058    5.9734 N   0  0  0  0  0  0  0  0  0  0  0  0
   22.6495    6.8702   13.1839 C   0  0  0  0  0  0  0  0  0  0  0  0
   22.2745    8.1652   13.4844 O   0  0  0  0  0  0  0  0  0  0  0  0
   17.3736    4.2062    8.2614 C   0  0  1  0  0  0  0  0  0  0  0  0
   16.5827    4.6233    7.1381 O   0  0  0  0  0  0  0  0  0  0  0  0
  1  2  1  6  0  0  0
  1  6  1  0  0  0  0
  1 23  1  0  0  0  0
  3  4  1  1  0  0  0
  3  8  1  0  0  0  0
  3 30  1  0  0  0  0
  5  9  1  0  0  0  0
  5 21  1  0  0  0  0
  5 25  1  1  0  0  0
  6  7  1  6  0  0  0
  6 11  1  0  0  0  0
  8 13  1  0  0  0  0
  9 10  1  1  0  0  0
  9 15  1  0  0  0  0
 11 12  1  6  0  0  0
 11 17  1  0  0  0  0
 13 14  1  1  0  0  0
 13 19  1  0  0  0  0
 15 16  1  6  0  0  0
 15 20  1  0  0  0  0
 17 18  1  1  0  0  0
 17 22  1  0  0  0  0
 19  2  1  6  0  0  0
 19 24  1  0  0  0  0
 20 21  1  0  0  0  0
 20 26  1  1  0  0  0
 22 23  1  0  0  0  0
 22 28  1  1  0  0  0
 24 25  1  1  0  0  0
 24 30  1  0  0  0  0
 26 27  1  0  0  0  0
 28 29  1  0  0  0  0
 30 31  1  6  0  0  0
M  END
>  <CHROM.1>
-141.53010255,-168.24049296,-173.26758528,-73.80036359,63.77265103,-176.81112347
19.72692751,6.52105813,9.04586657,0.05181110,0.52948395,2.92738573

>  <Name>
2o3x_lig

>  <RI>
3.34184e+07

>  <Rbt.Current_Directory>
/home/itssahil/PROJECTS/Mol_Feturizer/New_Systems/rnas/2o3x

>  <Rbt.Executable>
rbdock ($Id: //depot/dev/client3/rdock/2013.1/src/exe/rbdock.cxx#4 $)

>  <Rbt.Library>
libRbt.so (2013.1, Build901 2013/11/27)

>  <Rbt.Parameter_File>
/export/apps/rDock/src/rDock_2013.1_src/data/scripts/dock_solv.prm

>  <Rbt.Receptor>
prm/pocket_docking_6.prm

>  <SCORE>
-7.10796

>  <SCORE.INTER>
-6.99455

>  <SCORE.INTER.CONST>
1

>  <SCORE.INTER.POLAR>
-0.874989

>  <SCORE.INTER.ROT>
6

>  <SCORE.INTER.SOLV>
13.9667

>  <SCORE.INTER.VDW>
-14.002

>  <SCORE.INTER.norm>
-0.22563

>  <SCORE.INTRA>
-0.113412

>  <SCORE.INTRA.DIHEDRAL>
-2.41677

>  <SCORE.INTRA.DIHEDRAL.0>
9.37739

>  <SCORE.INTRA.POLAR>
0

>  <SCORE.INTRA.POLAR.0>
0

>  <SCORE.INTRA.REPUL>
0

>  <SCORE.INTRA.REPUL.0>
0

>  <SCORE.INTRA.SOLV>
-0.45426

>  <SCORE.INTRA.SOLV.lig_0>
-82.9274

>  <SCORE.INTRA.VDW>
1.3221

>  <SCORE.INTRA.VDW.0>
-3.84922

>  <SCORE.INTRA.norm>
-0.00365845

>  <SCORE.RESTR>
0

>  <SCORE.RESTR.CAVITY>
0

>  <SCORE.RESTR.norm>
0

>  <SCORE.SYSTEM>
0

>  <SCORE.SYSTEM.CONST>
0

>  <SCORE.SYSTEM.DIHEDRAL>
0

>  <SCORE.SYSTEM.SOLV>
0

>  <SCORE.SYSTEM.norm>
0

>  <SCORE.heavy>
31

>  <SCORE.norm>
-0.229289

>  <RMSD>
6.993

$$$$
2o3x_lig
 OpenBabel11021811463D
libRbt.so/2013.1/901 2013/11/27
 31 33  0  0  0  0  0  0  0  0999 V2000
   19.9656    9.7680    8.7391 C   0  0  2  0  0  0  0  0  0  0  0  0
   18.7639    9.5298    9.4838 O   0  0  0  0  0  0  0  0  0  0  0  0
   16.0786   12.2722   11.3721 C   0  0  2  0  0  0  0  0  0  0  0  0
   15.0953   13.3483   11.6267 N   0  0  0  0  0  0  0  0  0  0  0  0
   14.9354    8.3759    8.9522 C   0  0  1  0  0  0  0  0  0  0  0  0
   19.6971    9.4096    7.2431 C   0  0  2  0  0  0  0  0  0  0  0  0
   18.4372   10.0142    6.7404 N   0  0  0  0  0  0  0  0  0  0  0  0
   17.4418   12.8332   10.8467 C   0  0  0  0  0  0  0  0  0  0  0  0
   14.2972    7.9519    7.5887 C   0  0  2  0  0  0  0  0  0  0  0  0
   13.1465    8.7277    7.1547 O   0  0  0  0  0  0  0  0  0  0  0  0
   19.6125    7.8863    7.0304 C   0  0  1  0  0  0  0  0  0  0  0  0
   19.4216    7.5862    5.6711 O   0  0  0  0  0  0  0  0  0  0  0  0
   18.4233   11.6229   10.6368 C   0  0  2  0  0  0  0  0  0  0  0  0
   19.7608   12.0778   10.1516 N   0  0  0  0  0  0  0  0  0  0  0  0
   14.0352    6.4910    7.9144 C   0  0  2  0  0  0  0  0  0  0  0  0
   12.8225    6.3403    8.7295 O   0  0  0  0  0  0  0  0  0  0  0  0
   20.8785    7.2254    7.5493 C   0  0  2  0  0  0  0  0  0  0  0  0
   20.8143    5.8518    7.3374 O   0  0  0  0  0  0  0  0  0  0  0  0
   17.8384   10.6197    9.6020 C   0  0  2  0  0  0  0  0  0  0  0  0
   15.2707    6.0457    8.6878 C   0  0  2  0  0  0  0  0  0  0  0  0
   15.4841    7.1812    9.5219 O   0  0  0  0  0  0  0  0  0  0  0  0
   21.0515    7.5278    9.0647 C   0  0  2  0  0  0  0  0  0  0  0  0
   21.1013    8.9558    9.2725 O   0  0  0  0  0  0  0  0  0  0  0  0
   16.4464   10.0843    9.9917 C   0  0  2  0  0  0  0  0  0  0  0  0
   15.9610    9.3697    8.8011 O   0  0  0  0  0  0  0  0  0  0  0  0
   16.5345    5.7631    7.8067 C   0  0  0  0  0  0  0  0  0  0  0  0
   16.2932    4.6530    6.9469 N   0  0  0  0  0  0  0  0  0  0  0  0
   22.3068    6.9117    9.6375 C   0  0  0  0  0  0  0  0  0  0  0  0
   23.4408    7.4043    9.0217 O   0  0  0  0  0  0  0  0  0  0  0  0
   15.4722   11.2911   10.3528 C   0  0  1  0  0  0  0  0  0  0  0  0
   14.2440   10.8196   10.9276 O   0  0  0  0  0  0  0  0  0  0  0  0
  1  2  1  1  0  0  0
  1  6  1  0  0  0  0
  1 23  1  0  0  0  0
  3  4  1  6  0  0  0
  3  8  1  0  0  0  0
  3 30  1  0  0  0  0
  5  9  1  0  0  0  0
  5 21  1  0  0  0  0
  5 25  1  6  0  0  0
  6  7  1  1  0  0  0
  6 11  1  0  0  0  0
  8 13  1  0  0  0  0
  9 10  1  1  0  0  0
  9 15  1  0  0  0  0
 11 12  1  6  0  0  0
 11 17  1  0  0  0  0
 13 14  1  6  0  0  0
 13 19  1  0  0  0  0
 15 16  1  1  0  0  0
 15 20  1  0  0  0  0
 17 18  1  1  0  0  0
 17 22  1  0  0  0  0
 19  2  1  1  0  0  0
 19 24  1  0  0  0  0
 20 21  1  0  0  0  0
 20 26  1  6  0  0  0
 22 23  1  0  0  0  0
 22 28  1  6  0  0  0
 24 25  1  6  0  0  0
 24 30  1  0  0  0  0
 26 27  1  0  0  0  0
 28 29  1  0  0  0  0
 30 31  1  1  0  0  0
M  END
>  <CHROM.1>
-89.87384951,166.60132171,-75.31420014,-64.95442717,61.16911028,158.48719225
17.58513439,8.80042602,8.83824166,-0.31860732,0.03369114,0.50320365

>  <Name>
2o3x_lig

>  <RI>
3.34184e+07

>  <Rbt.Current_Directory>
/home/itssahil/PROJECTS/Mol_Feturizer/New_Systems/rnas/2o3x

>  <Rbt.Executable>
rbdock ($Id: //depot/dev/client3/rdock/2013.1/src/exe/rbdock.cxx#4 $)

>  <Rbt.Library>
libRbt.so (2013.1, Build901 2013/11/27)

>  <Rbt.Parameter_File>
/export/apps/rDock/src/rDock_2013.1_src/data/scripts/dock_solv.prm

>  <Rbt.Receptor>
prm/pocket_docking_6.prm

>  <SCORE>
-7.13551

>  <SCORE.INTER>
-7.69756

>  <SCORE.INTER.CONST>
1

>  <SCORE.INTER.POLAR>
-1.46241

>  <SCORE.INTER.ROT>
6

>  <SCORE.INTER.SOLV>
17.3231

>  <SCORE.INTER.VDW>
-13.6314

>  <SCORE.INTER.norm>
-0.248308

>  <SCORE.INTRA>
0.562044

>  <SCORE.INTRA.DIHEDRAL>
-1.54055

>  <SCORE.INTRA.DIHEDRAL.0>
9.37739

>  <SCORE.INTRA.POLAR>
0

>  <SCORE.INTRA.POLAR.0>
0

>  <SCORE.INTRA.REPUL>
0

>  <SCORE.INTRA.REPUL.0>
0

>  <SCORE.INTRA.SOLV>
0.868627

>  <SCORE.INTRA.SOLV.lig_0>
-82.9274

>  <SCORE.INTRA.VDW>
0.898006

>  <SCORE.INTRA.VDW.0>
-3.84922

>  <SCORE.INTRA.norm>
0.0181304

>  <SCORE.RESTR>
0

>  <SCORE.RESTR.CAVITY>
0

>  <SCORE.RESTR.norm>
0

>  <SCORE.SYSTEM>
0

>  <SCORE.SYSTEM.CONST>
0

>  <SCORE.SYSTEM.DIHEDRAL>
0

>  <SCORE.SYSTEM.SOLV>
0

>  <SCORE.SYSTEM.norm>
0

>  <SCORE.heavy>
31

>  <SCORE.norm>
-0.230178

>  <RMSD>
7.025

$$$$
2o3x_lig
 OpenBabel11021811463D
libRbt.so/2013.1/901 2013/11/27
 31 33  0  0  0  0  0  0  0  0999 V2000
   16.9902    7.4485    5.5101 C   0  0  2  0  0  0  0  0  0  0  0  0
   17.6027    8.7325    5.6882 O   0  0  0  0  0  0  0  0  0  0  0  0
   19.7396   11.1287    2.8615 C   0  0  2  0  0  0  0  0  0  0  0  0
   20.7238   11.6142    1.8691 N   0  0  0  0  0  0  0  0  0  0  0  0
   18.8473    6.9223    2.5810 C   0  0  1  0  0  0  0  0  0  0  0  0
   15.6815    7.4048    6.3609 C   0  0  2  0  0  0  0  0  0  0  0  0
   14.8394    8.6106    6.1543 N   0  0  0  0  0  0  0  0  0  0  0  0
   20.3808   10.9237    4.2744 C   0  0  0  0  0  0  0  0  0  0  0  0
   19.6425    6.3691    3.8090 C   0  0  2  0  0  0  0  0  0  0  0  0
   20.7666    7.1756    4.2565 O   0  0  0  0  0  0  0  0  0  0  0  0
   15.9865    7.2890    7.8664 C   0  0  1  0  0  0  0  0  0  0  0  0
   14.7958    7.2001    8.6072 O   0  0  0  0  0  0  0  0  0  0  0  0
   19.2552   10.4388    5.2594 C   0  0  2  0  0  0  0  0  0  0  0  0
   19.7842   10.2371    6.6417 N   0  0  0  0  0  0  0  0  0  0  0  0
   19.9832    4.9979    3.2497 C   0  0  2  0  0  0  0  0  0  0  0  0
   21.1210    5.0725    2.3237 O   0  0  0  0  0  0  0  0  0  0  0  0
   16.8635    6.0743    8.1196 C   0  0  2  0  0  0  0  0  0  0  0  0
   17.1214    5.9545    9.4815 O   0  0  0  0  0  0  0  0  0  0  0  0
   18.6396    9.0982    4.7665 C   0  0  2  0  0  0  0  0  0  0  0  0
   18.7174    4.5575    2.5238 C   0  0  2  0  0  0  0  0  0  0  0  0
   18.3399    5.7756    1.8879 O   0  0  0  0  0  0  0  0  0  0  0  0
   18.1963    6.2090    7.3302 C   0  0  2  0  0  0  0  0  0  0  0  0
   17.9143    6.3480    5.9209 O   0  0  0  0  0  0  0  0  0  0  0  0
   18.0652    9.1800    3.3382 C   0  0  2  0  0  0  0  0  0  0  0  0
   17.7679    7.7893    2.9621 O   0  0  0  0  0  0  0  0  0  0  0  0
   17.5682    4.0420    3.4548 C   0  0  0  0  0  0  0  0  0  0  0  0
   17.9466    2.8104    4.0631 N   0  0  0  0  0  0  0  0  0  0  0  0
   19.1070    5.0192    7.5261 C   0  0  0  0  0  0  0  0  0  0  0  0
   19.5455    4.9251    8.8325 O   0  0  0  0  0  0  0  0  0  0  0  0
   19.1410    9.8075    2.3459 C   0  0  1  0  0  0  0  0  0  0  0  0
   18.5646   10.0988    1.0637 O   0  0  0  0  0  0  0  0  0  0  0  0
  1  2  1  1  0  0  0
  1  6  1  0  0  0  0
  1 23  1  0  0  0  0
  3  4  1  6  0  0  0
  3  8  1  0  0  0  0
  3 30  1  0  0  0  0
  5  9  1  0  0  0  0
  5 21  1  0  0  0  0
  5 25  1  1  0  0  0
  6  7  1  1  0  0  0
  6 11  1  0  0  0  0
  8 13  1  0  0  0  0
  9 10  1  6  0  0  0
  9 15  1  0  0  0  0
 11 12  1  1  0  0  0
 11 17  1  0  0  0  0
 13 14  1  1  0  0  0
 13 19  1  0  0  0  0
 15 16  1  6  0  0  0
 15 20  1  0  0  0  0
 17 18  1  1  0  0  0
 17 22  1  0  0  0  0
 19  2  1  1  0  0  0
 19 24  1  0  0  0  0
 20 21  1  0  0  0  0
 20 26  1  1  0  0  0
 22 23  1  0  0  0  0
 22 28  1  6  0  0  0
 24 25  1  6  0  0  0
 24 30  1  0  0  0  0
 26 27  1  0  0  0  0
 28 29  1  0  0  0  0
 30 31  1  6  0  0  0
M  END
>  <CHROM.1>
-165.92829415,78.70972215,-173.43311408,-68.01610063,-65.62465318,-76.71120793
18.37794113,7.36551313,4.88433775,2.60177299,-1.11172165,3.11832288

>  <Name>
2o3x_lig

>  <RI>
0

>  <Rbt.Current_Directory>
/home/itssahil/PROJECTS/Mol_Feturizer/New_Systems/rnas/2o3x

>  <Rbt.Executable>
rbdock ($Id: //depot/dev/client3/rdock/2013.1/src/exe/rbdock.cxx#4 $)

>  <Rbt.Library>
libRbt.so (2013.1, Build901 2013/11/27)

>  <Rbt.Parameter_File>
/export/apps/rDock/src/rDock_2013.1_src/data/scripts/dock_solv.prm

>  <Rbt.Receptor>
prm/pocket_docking_8.prm

>  <SCORE>
-10.3403

>  <SCORE.INTER>
-8.57264

>  <SCORE.INTER.CONST>
1

>  <SCORE.INTER.POLAR>
-0.194341

>  <SCORE.INTER.ROT>
6

>  <SCORE.INTER.SOLV>
18.9348

>  <SCORE.INTER.VDW>
-18.9789

>  <SCORE.INTER.norm>
-0.276537

>  <SCORE.INTRA>
-1.7677

>  <SCORE.INTRA.DIHEDRAL>
-4.82432

>  <SCORE.INTRA.DIHEDRAL.0>
9.37739

>  <SCORE.INTRA.POLAR>
0

>  <SCORE.INTRA.POLAR.0>
0

>  <SCORE.INTRA.REPUL>
0

>  <SCORE.INTRA.REPUL.0>
0

>  <SCORE.INTRA.SOLV>
-0.519902

>  <SCORE.INTRA.SOLV.lig_0>
-82.9274

>  <SCORE.INTRA.VDW>
0.904415

>  <SCORE.INTRA.VDW.0>
-3.84922

>  <SCORE.INTRA.norm>
-0.0570225

>  <SCORE.RESTR>
0

>  <SCORE.RESTR.CAVITY>
0

>  <SCORE.RESTR.norm>
0

>  <SCORE.SYSTEM>
0

>  <SCORE.SYSTEM.CONST>
0

>  <SCORE.SYSTEM.DIHEDRAL>
0

>  <SCORE.SYSTEM.SOLV>
0

>  <SCORE.SYSTEM.norm>
0

>  <SCORE.heavy>
31

>  <SCORE.norm>
-0.333559

>  <RMSD>
7.035

$$$$
2o3x_lig
 OpenBabel11021811463D
libRbt.so/2013.1/901 2013/11/27
 31 33  0  0  0  0  0  0  0  0999 V2000
   17.0388   10.6829    9.6666 C   0  0  2  0  0  0  0  0  0  0  0  0
   17.0922    9.3739   10.2490 O   0  0  0  0  0  0  0  0  0  0  0  0
   16.0204    5.5362    8.6930 C   0  0  2  0  0  0  0  0  0  0  0  0
   15.9425    4.3101    7.8683 N   0  0  0  0  0  0  0  0  0  0  0  0
   19.5402    8.3164   11.1347 C   0  0  1  0  0  0  0  0  0  0  0  0
   18.4874   11.1003    9.2595 C   0  0  2  0  0  0  0  0  0  0  0  0
   19.1856   10.0309    8.5015 N   0  0  0  0  0  0  0  0  0  0  0  0
   15.5272    6.8012    7.9146 C   0  0  0  0  0  0  0  0  0  0  0  0
   19.2231    7.9171   12.6133 C   0  0  2  0  0  0  0  0  0  0  0  0
   17.9223    8.3252   13.1190 O   0  0  0  0  0  0  0  0  0  0  0  0
   19.3451   11.4492   10.4906 C   0  0  1  0  0  0  0  0  0  0  0  0
   20.6268   11.8701   10.0977 O   0  0  0  0  0  0  0  0  0  0  0  0
   15.6194    8.0392    8.8796 C   0  0  2  0  0  0  0  0  0  0  0  0
   15.1461    9.2904    8.2150 N   0  0  0  0  0  0  0  0  0  0  0  0
   20.4304    8.5580   13.2771 C   0  0  2  0  0  0  0  0  0  0  0  0
   20.2373   10.0048   13.4415 O   0  0  0  0  0  0  0  0  0  0  0  0
   18.6557   12.5303   11.3057 C   0  0  2  0  0  0  0  0  0  0  0  0
   19.4394   12.8635   12.4059 O   0  0  0  0  0  0  0  0  0  0  0  0
   17.0859    8.2554    9.3505 C   0  0  2  0  0  0  0  0  0  0  0  0
   21.5865    8.2667   12.3275 C   0  0  2  0  0  0  0  0  0  0  0  0
   20.9599    8.4988   11.0690 O   0  0  0  0  0  0  0  0  0  0  0  0
   17.2584   12.0326   11.7723 C   0  0  2  0  0  0  0  0  0  0  0  0
   16.4610   11.6759   10.6226 O   0  0  0  0  0  0  0  0  0  0  0  0
   17.6904    7.0206   10.0478 C   0  0  2  0  0  0  0  0  0  0  0  0
   19.1238    7.3202   10.1880 O   0  0  0  0  0  0  0  0  0  0  0  0
   22.1501    6.8072   12.4023 C   0  0  0  0  0  0  0  0  0  0  0  0
   22.7485    6.5784   13.6749 N   0  0  0  0  0  0  0  0  0  0  0  0
   16.5122   13.0734   12.5743 C   0  0  0  0  0  0  0  0  0  0  0  0
   16.2968   14.2228   11.8392 O   0  0  0  0  0  0  0  0  0  0  0  0
   17.4781    5.7216    9.1515 C   0  0  1  0  0  0  0  0  0  0  0  0
   17.8312    4.5277    9.8665 O   0  0  0  0  0  0  0  0  0  0  0  0
  1  2  1  1  0  0  0
  1  6  1  0  0  0  0
  1 23  1  0  0  0  0
  3  4  1  6  0  0  0
  3  8  1  0  0  0  0
  3 30  1  0  0  0  0
  5  9  1  0  0  0  0
  5 21  1  0  0  0  0
  5 25  1  6  0  0  0
  6  7  1  1  0  0  0
  6 11  1  0  0  0  0
  8 13  1  0  0  0  0
  9 10  1  1  0  0  0
  9 15  1  0  0  0  0
 11 12  1  6  0  0  0
 11 17  1  0  0  0  0
 13 14  1  6  0  0  0
 13 19  1  0  0  0  0
 15 16  1  6  0  0  0
 15 20  1  0  0  0  0
 17 18  1  1  0  0  0
 17 22  1  0  0  0  0
 19  2  1  1  0  0  0
 19 24  1  0  0  0  0
 20 21  1  0  0  0  0
 20 26  1  6  0  0  0
 22 23  1  0  0  0  0
 22 28  1  6  0  0  0
 24 25  1  6  0  0  0
 24 30  1  0  0  0  0
 26 27  1  0  0  0  0
 28 29  1  0  0  0  0
 30 31  1  1  0  0  0
M  END
>  <CHROM.1>
-83.54040211,64.39803388,-78.47551623,-65.59511753,60.23603765,71.23067103
18.35850354,9.10420969,10.74098421,1.31430110,-0.60702298,0.25239335

>  <Name>
2o3x_lig

>  <RI>
0

>  <Rbt.Current_Directory>
/home/itssahil/PROJECTS/Mol_Feturizer/New_Systems/rnas/2o3x

>  <Rbt.Executable>
rbdock ($Id: //depot/dev/client3/rdock/2013.1/src/exe/rbdock.cxx#4 $)

>  <Rbt.Library>
libRbt.so (2013.1, Build901 2013/11/27)

>  <Rbt.Parameter_File>
/export/apps/rDock/src/rDock_2013.1_src/data/scripts/dock_solv.prm

>  <Rbt.Receptor>
prm/pocket_docking_8.prm

>  <SCORE>
-8.78658

>  <SCORE.INTER>
-8.00822

>  <SCORE.INTER.CONST>
1

>  <SCORE.INTER.POLAR>
-1.70587

>  <SCORE.INTER.ROT>
6

>  <SCORE.INTER.SOLV>
13.3782

>  <SCORE.INTER.VDW>
-11.712

>  <SCORE.INTER.norm>
-0.25833

>  <SCORE.INTRA>
-0.778365

>  <SCORE.INTRA.DIHEDRAL>
-4.4347

>  <SCORE.INTRA.DIHEDRAL.0>
9.37739

>  <SCORE.INTRA.POLAR>
0

>  <SCORE.INTRA.POLAR.0>
0

>  <SCORE.INTRA.REPUL>
0

>  <SCORE.INTRA.REPUL.0>
0

>  <SCORE.INTRA.SOLV>
3.79892

>  <SCORE.INTRA.SOLV.lig_0>
-82.9274

>  <SCORE.INTRA.VDW>
-0.460477

>  <SCORE.INTRA.VDW.0>
-3.84922

>  <SCORE.INTRA.norm>
-0.0251086

>  <SCORE.RESTR>
0

>  <SCORE.RESTR.CAVITY>
0

>  <SCORE.RESTR.norm>
0

>  <SCORE.SYSTEM>
0

>  <SCORE.SYSTEM.CONST>
0

>  <SCORE.SYSTEM.DIHEDRAL>
0

>  <SCORE.SYSTEM.SOLV>
0

>  <SCORE.SYSTEM.norm>
0

>  <SCORE.heavy>
31

>  <SCORE.norm>
-0.283438

>  <RMSD>
7.043

$$$$
2o3x_lig
 OpenBabel11021811463D
libRbt.so/2013.1/901 2013/11/27
 31 33  0  0  0  0  0  0  0  0999 V2000
   24.2954    7.9262   10.4850 C   0  0  2  0  0  0  0  0  0  0  0  0
   24.6212    6.6047   10.0343 O   0  0  0  0  0  0  0  0  0  0  0  0
   23.3404    7.0229    5.9744 C   0  0  2  0  0  0  0  0  0  0  0  0
   22.8137    6.7566    4.6175 N   0  0  0  0  0  0  0  0  0  0  0  0
   21.3921    4.7946    9.1007 C   0  0  1  0  0  0  0  0  0  0  0  0
   25.2894    8.3170   11.6241 C   0  0  2  0  0  0  0  0  0  0  0  0
   26.7007    8.0372   11.2556 N   0  0  0  0  0  0  0  0  0  0  0  0
   24.6897    6.2754    6.2389 C   0  0  0  0  0  0  0  0  0  0  0  0
   21.7215    3.7465   10.2138 C   0  0  2  0  0  0  0  0  0  0  0  0
   23.0101    3.0820   10.1027 O   0  0  0  0  0  0  0  0  0  0  0  0
   24.9800    7.5632   12.9313 C   0  0  1  0  0  0  0  0  0  0  0  0
   25.8536    7.9678   13.9547 O   0  0  0  0  0  0  0  0  0  0  0  0
   25.1804    6.6442    7.6865 C   0  0  2  0  0  0  0  0  0  0  0  0
   26.4795    5.9825    8.0116 N   0  0  0  0  0  0  0  0  0  0  0  0
   20.4964    2.8623   10.0516 C   0  0  2  0  0  0  0  0  0  0  0  0
   20.6473    1.9547    8.9066 O   0  0  0  0  0  0  0  0  0  0  0  0
   23.5360    7.8090   13.3352 C   0  0  2  0  0  0  0  0  0  0  0  0
   23.2607    7.1478   14.5279 O   0  0  0  0  0  0  0  0  0  0  0  0
   24.1275    6.2107    8.7461 C   0  0  2  0  0  0  0  0  0  0  0  0
   19.3488    3.8395    9.8252 C   0  0  2  0  0  0  0  0  0  0  0  0
   19.9677    4.7752    8.9467 O   0  0  0  0  0  0  0  0  0  0  0  0
   22.5801    7.3139   12.2132 C   0  0  2  0  0  0  0  0  0  0  0  0
   22.8862    7.9962   10.9780 O   0  0  0  0  0  0  0  0  0  0  0  0
   22.7345    6.8267    8.5086 C   0  0  2  0  0  0  0  0  0  0  0  0
   21.8369    6.1186    9.4342 O   0  0  0  0  0  0  0  0  0  0  0  0
   18.8280    4.5564   11.1168 C   0  0  0  0  0  0  0  0  0  0  0  0
   19.9210    5.1115   11.8428 N   0  0  0  0  0  0  0  0  0  0  0  0
   21.1254    7.5488   12.5478 C   0  0  0  0  0  0  0  0  0  0  0  0
   20.8677    8.8853   12.7828 O   0  0  0  0  0  0  0  0  0  0  0  0
   22.2773    6.5929    7.0012 C   0  0  1  0  0  0  0  0  0  0  0  0
   21.0912    7.3399    6.6911 O   0  0  0  0  0  0  0  0  0  0  0  0
  1  2  1  1  0  0  0
  1  6  1  0  0  0  0
  1 23  1  0  0  0  0
  3  4  1  6  0  0  0
  3  8  1  0  0  0  0
  3 30  1  0  0  0  0
  5  9  1  0  0  0  0
  5 21  1  0  0  0  0
  5 25  1  1  0  0  0
  6  7  1  6  0  0  0
  6 11  1  0  0  0  0
  8 13  1  0  0  0  0
  9 10  1  6  0  0  0
  9 15  1  0  0  0  0
 11 12  1  1  0  0  0
 11 17  1  0  0  0  0
 13 14  1  1  0  0  0
 13 19  1  0  0  0  0
 15 16  1  6  0  0  0
 15 20  1  0  0  0  0
 17 18  1  1  0  0  0
 17 22  1  0  0  0  0
 19  2  1  1  0  0  0
 19 24  1  0  0  0  0
 20 21  1  0  0  0  0
 20 26  1  1  0  0  0
 22 23  1  0  0  0  0
 22 28  1  1  0  0  0
 24 25  1  1  0  0  0
 24 30  1  0  0  0  0
 26 27  1  0  0  0  0
 28 29  1  0  0  0  0
 30 31  1  6  0  0  0
M  END
>  <CHROM.1>
-161.12122560,124.26166768,88.16961494,49.93990517,57.88236135,-77.64701493
22.74858404,6.24275815,10.02397671,-1.01364176,-0.58053813,-1.79409745

>  <Name>
2o3x_lig

>  <RI>
0

>  <Rbt.Current_Directory>
/home/itssahil/PROJECTS/Mol_Feturizer/New_Systems/rnas/2o3x

>  <Rbt.Executable>
rbdock ($Id: //depot/dev/client3/rdock/2013.1/src/exe/rbdock.cxx#4 $)

>  <Rbt.Library>
libRbt.so (2013.1, Build901 2013/11/27)

>  <Rbt.Parameter_File>
/export/apps/rDock/src/rDock_2013.1_src/data/scripts/dock_solv.prm

>  <Rbt.Receptor>
prm/blind_docking_60.prm

>  <SCORE>
17.0845

>  <SCORE.INTER>
-0.0670314

>  <SCORE.INTER.CONST>
1

>  <SCORE.INTER.POLAR>
-0.984025

>  <SCORE.INTER.ROT>
6

>  <SCORE.INTER.SOLV>
26.4358

>  <SCORE.INTER.VDW>
-13.1766

>  <SCORE.INTER.norm>
-0.0021623

>  <SCORE.INTRA>
7.15165

>  <SCORE.INTRA.DIHEDRAL>
4.5397

>  <SCORE.INTRA.DIHEDRAL.0>
9.37739

>  <SCORE.INTRA.POLAR>
0

>  <SCORE.INTRA.POLAR.0>
0

>  <SCORE.INTRA.REPUL>
0

>  <SCORE.INTRA.REPUL.0>
0

>  <SCORE.INTRA.SOLV>
3.90505

>  <SCORE.INTRA.SOLV.lig_0>
-82.9274

>  <SCORE.INTRA.VDW>
2.92927

>  <SCORE.INTRA.VDW.0>
-3.84922

>  <SCORE.INTRA.norm>
0.230698

>  <SCORE.RESTR>
9.99985

>  <SCORE.RESTR.CAVITY>
9.99985

>  <SCORE.RESTR.norm>
0.322576

>  <SCORE.SYSTEM>
0

>  <SCORE.SYSTEM.CONST>
0

>  <SCORE.SYSTEM.DIHEDRAL>
0

>  <SCORE.SYSTEM.SOLV>
0

>  <SCORE.SYSTEM.norm>
0

>  <SCORE.heavy>
31

>  <SCORE.norm>
0.551112

>  <RMSD>
7.044

$$$$
2o3x_lig
 OpenBabel11021811463D
libRbt.so/2013.1/901 2013/11/27
 31 33  0  0  0  0  0  0  0  0999 V2000
   21.1716    6.2058    8.1333 C   0  0  2  0  0  0  0  0  0  0  0  0
   20.9789    4.7872    8.2095 O   0  0  0  0  0  0  0  0  0  0  0  0
   17.5034    2.3592    7.6399 C   0  0  2  0  0  0  0  0  0  0  0  0
   16.1377    1.7950    7.7175 N   0  0  0  0  0  0  0  0  0  0  0  0
   17.8882    6.5829    5.9608 C   0  0  1  0  0  0  0  0  0  0  0  0
   22.6881    6.4843    7.8862 C   0  0  2  0  0  0  0  0  0  0  0  0
   23.2388    5.6487    6.7888 N   0  0  0  0  0  0  0  0  0  0  0  0
   18.2758    2.2188    8.9938 C   0  0  0  0  0  0  0  0  0  0  0  0
   16.6497    7.4086    6.4410 C   0  0  2  0  0  0  0  0  0  0  0  0
   15.4096    6.6655    6.5966 O   0  0  0  0  0  0  0  0  0  0  0  0
   23.5271    6.2225    9.1513 C   0  0  1  0  0  0  0  0  0  0  0  0
   24.8790    6.5279    8.9205 O   0  0  0  0  0  0  0  0  0  0  0  0
   19.7175    2.8162    8.8016 C   0  0  2  0  0  0  0  0  0  0  0  0
   20.5303    2.7029   10.0497 N   0  0  0  0  0  0  0  0  0  0  0  0
   16.6611    8.4719    5.3556 C   0  0  2  0  0  0  0  0  0  0  0  0
   16.0628    7.9657    4.1132 O   0  0  0  0  0  0  0  0  0  0  0  0
   22.9840    7.0472   10.3061 C   0  0  2  0  0  0  0  0  0  0  0  0
   23.7544    6.8300   11.4441 O   0  0  0  0  0  0  0  0  0  0  0  0
   19.6369    4.3167    8.4001 C   0  0  2  0  0  0  0  0  0  0  0  0
   18.1368    8.7975    5.1569 C   0  0  2  0  0  0  0  0  0  0  0  0
   18.7055    7.4922    5.2136 O   0  0  0  0  0  0  0  0  0  0  0  0
   21.5018    6.6651   10.5794 C   0  0  2  0  0  0  0  0  0  0  0  0
   20.7166    6.8805    9.3870 O   0  0  0  0  0  0  0  0  0  0  0  0
   18.8099    4.5623    7.1226 C   0  0  2  0  0  0  0  0  0  0  0  0
   18.6383    6.0214    7.0490 O   0  0  0  0  0  0  0  0  0  0  0  0
   18.7628    9.7203    6.2568 C   0  0  0  0  0  0  0  0  0  0  0  0
   20.0491   10.1719    5.8425 N   0  0  0  0  0  0  0  0  0  0  0  0
   20.8968    7.4671   11.7083 C   0  0  0  0  0  0  0  0  0  0  0  0
   20.9827    8.8248   11.4694 O   0  0  0  0  0  0  0  0  0  0  0  0
   17.3951    3.8400    7.2338 C   0  0  1  0  0  0  0  0  0  0  0  0
   16.6937    3.8648    5.9814 O   0  0  0  0  0  0  0  0  0  0  0  0
  1  2  1  1  0  0  0
  1  6  1  0  0  0  0
  1 23  1  0  0  0  0
  3  4  1  1  0  0  0
  3  8  1  0  0  0  0
  3 30  1  0  0  0  0
  5  9  1  0  0  0  0
  5 21  1  0  0  0  0
  5 25  1  1  0  0  0
  6  7  1  6  0  0  0
  6 11  1  0  0  0  0
  8 13  1  0  0  0  0
  9 10  1  6  0  0  0
  9 15  1  0  0  0  0
 11 12  1  6  0  0  0
 11 17  1  0  0  0  0
 13 14  1  1  0  0  0
 13 19  1  0  0  0  0
 15 16  1  6  0  0  0
 15 20  1  0  0  0  0
 17 18  1  1  0  0  0
 17 22  1  0  0  0  0
 19  2  1  6  0  0  0
 19 24  1  0  0  0  0
 20 21  1  0  0  0  0
 20 26  1  1  0  0  0
 22 23  1  0  0  0  0
 22 28  1  1  0  0  0
 24 25  1  1  0  0  0
 24 30  1  0  0  0  0
 26 27  1  0  0  0  0
 28 29  1  0  0  0  0
 30 31  1  6  0  0  0
M  END
>  <CHROM.1>
-178.43591013,120.77638790,-166.17117098,-168.60523039,56.68902470,-179.40957968
19.64799085,6.07497494,7.87133764,-0.15586667,-0.58311018,-0.37702510

>  <Name>
2o3x_lig

>  <RI>
2.78316e+07

>  <Rbt.Current_Directory>
/home/itssahil/PROJECTS/Mol_Feturizer/New_Systems/rnas/2o3x

>  <Rbt.Executable>
rbdock ($Id: //depot/dev/client3/rdock/2013.1/src/exe/rbdock.cxx#4 $)

>  <Rbt.Library>
libRbt.so (2013.1, Build901 2013/11/27)

>  <Rbt.Parameter_File>
/export/apps/rDock/src/rDock_2013.1_src/data/scripts/dock_solv.prm

>  <Rbt.Receptor>
prm/pocket_docking_7.prm

>  <SCORE>
-9.67044

>  <SCORE.INTER>
-9.02845

>  <SCORE.INTER.CONST>
1

>  <SCORE.INTER.POLAR>
-1.64276

>  <SCORE.INTER.ROT>
6

>  <SCORE.INTER.SOLV>
11.2376

>  <SCORE.INTER.VDW>
-11.889

>  <SCORE.INTER.norm>
-0.29124

>  <SCORE.INTRA>
-0.64199

>  <SCORE.INTRA.DIHEDRAL>
-0.657169

>  <SCORE.INTRA.DIHEDRAL.0>
9.37739

>  <SCORE.INTRA.POLAR>
0

>  <SCORE.INTRA.POLAR.0>
0

>  <SCORE.INTRA.REPUL>
0

>  <SCORE.INTRA.REPUL.0>
0

>  <SCORE.INTRA.SOLV>
-2.57306

>  <SCORE.INTRA.SOLV.lig_0>
-82.9274

>  <SCORE.INTRA.VDW>
0.973123

>  <SCORE.INTRA.VDW.0>
-3.84922

>  <SCORE.INTRA.norm>
-0.0207094

>  <SCORE.RESTR>
0

>  <SCORE.RESTR.CAVITY>
0

>  <SCORE.RESTR.norm>
0

>  <SCORE.SYSTEM>
0

>  <SCORE.SYSTEM.CONST>
0

>  <SCORE.SYSTEM.DIHEDRAL>
0

>  <SCORE.SYSTEM.SOLV>
0

>  <SCORE.SYSTEM.norm>
0

>  <SCORE.heavy>
31

>  <SCORE.norm>
-0.31195

>  <RMSD>
7.087

$$$$
2o3x_lig
 OpenBabel11021811463D
libRbt.so/2013.1/901 2013/11/27
 31 33  0  0  0  0  0  0  0  0999 V2000
   23.9653    7.8267   10.2378 C   0  0  2  0  0  0  0  0  0  0  0  0
   24.2711    6.5168    9.7417 O   0  0  0  0  0  0  0  0  0  0  0  0
   23.1606    7.2228    5.6715 C   0  0  2  0  0  0  0  0  0  0  0  0
   22.7163    7.0493    4.2708 N   0  0  0  0  0  0  0  0  0  0  0  0
   21.2099    4.6140    8.4870 C   0  0  1  0  0  0  0  0  0  0  0  0
   24.9285    8.1405   11.4262 C   0  0  2  0  0  0  0  0  0  0  0  0
   26.3439    7.8366   11.0944 N   0  0  0  0  0  0  0  0  0  0  0  0
   24.5397    6.5336    5.9409 C   0  0  0  0  0  0  0  0  0  0  0  0
   22.4331    3.6395    8.4627 C   0  0  2  0  0  0  0  0  0  0  0  0
   23.2049    3.6158    7.2306 O   0  0  0  0  0  0  0  0  0  0  0  0
   24.5528    7.3411   12.6881 C   0  0  1  0  0  0  0  0  0  0  0  0
   25.4002    7.6770   13.7574 O   0  0  0  0  0  0  0  0  0  0  0  0
   24.9374    6.7988    7.4389 C   0  0  2  0  0  0  0  0  0  0  0  0
   26.2582    6.1865    7.7734 N   0  0  0  0  0  0  0  0  0  0  0  0
   21.6989    2.3573    8.8174 C   0  0  2  0  0  0  0  0  0  0  0  0
   21.0092    1.8016    7.6455 O   0  0  0  0  0  0  0  0  0  0  0  0
   23.1025    7.6106   13.0526 C   0  0  2  0  0  0  0  0  0  0  0  0
   22.7674    6.9075   14.2054 O   0  0  0  0  0  0  0  0  0  0  0  0
   23.8644    6.2121    8.4000 C   0  0  2  0  0  0  0  0  0  0  0  0
   20.7002    2.7747    9.8905 C   0  0  2  0  0  0  0  0  0  0  0  0
   20.2429    4.0148    9.3581 O   0  0  0  0  0  0  0  0  0  0  0  0
   22.1740    7.1909   11.8782 C   0  0  2  0  0  0  0  0  0  0  0  0
   22.5419    7.9159   10.6849 O   0  0  0  0  0  0  0  0  0  0  0  0
   22.4487    6.7657    8.1437 C   0  0  2  0  0  0  0  0  0  0  0  0
   21.5539    5.9269    8.9560 O   0  0  0  0  0  0  0  0  0  0  0  0
   21.3122    2.9792   11.3177 C   0  0  0  0  0  0  0  0  0  0  0  0
   21.2753    4.3584   11.6730 N   0  0  0  0  0  0  0  0  0  0  0  0
   20.7152    7.4526   12.1726 C   0  0  0  0  0  0  0  0  0  0  0  0
   20.4861    8.7840   12.4603 O   0  0  0  0  0  0  0  0  0  0  0  0
   22.0788    6.6420    6.5998 C   0  0  1  0  0  0  0  0  0  0  0  0
   20.8646    7.3442    6.2936 O   0  0  0  0  0  0  0  0  0  0  0  0
  1  2  1  1  0  0  0
  1  6  1  0  0  0  0
  1 23  1  0  0  0  0
  3  4  1  6  0  0  0
  3  8  1  0  0  0  0
  3 30  1  0  0  0  0
  5  9  1  0  0  0  0
  5 21  1  0  0  0  0
  5 25  1  1  0  0  0
  6  7  1  6  0  0  0
  6 11  1  0  0  0  0
  8 13  1  0  0  0  0
  9 10  1  6  0  0  0
  9 15  1  0  0  0  0
 11 12  1  1  0  0  0
 11 17  1  0  0  0  0
 13 14  1  1  0  0  0
 13 19  1  0  0  0  0
 15 16  1  6  0  0  0
 15 20  1  0  0  0  0
 17 18  1  1  0  0  0
 17 22  1  0  0  0  0
 19  2  1  1  0  0  0
 19 24  1  0  0  0  0
 20 21  1  0  0  0  0
 20 26  1  1  0  0  0
 22 23  1  0  0  0  0
 22 28  1  1  0  0  0
 24 25  1  1  0  0  0
 24 30  1  0  0  0  0
 26 27  1  0  0  0  0
 28 29  1  0  0  0  0
 30 31  1  1  0  0  0
M  END
>  <CHROM.1>
-158.45748184,66.77579040,81.73918428,111.55632719,57.70111100,-77.55584214
22.76835214,6.06448733,9.56864324,-1.30941699,-0.84069372,-1.79145214

>  <Name>
2o3x_lig

>  <RI>
0

>  <Rbt.Current_Directory>
/home/itssahil/PROJECTS/Mol_Feturizer/New_Systems/rnas/2o3x

>  <Rbt.Executable>
rbdock ($Id: //depot/dev/client3/rdock/2013.1/src/exe/rbdock.cxx#4 $)

>  <Rbt.Library>
libRbt.so (2013.1, Build901 2013/11/27)

>  <Rbt.Parameter_File>
/export/apps/rDock/src/rDock_2013.1_src/data/scripts/dock_solv.prm

>  <Rbt.Receptor>
prm/blind_docking_40.prm

>  <SCORE>
15.2834

>  <SCORE.INTER>
3.84502

>  <SCORE.INTER.CONST>
1

>  <SCORE.INTER.POLAR>
-0.902504

>  <SCORE.INTER.ROT>
6

>  <SCORE.INTER.SOLV>
25.2365

>  <SCORE.INTER.VDW>
-10.4405

>  <SCORE.INTER.norm>
0.124033

>  <SCORE.INTRA>
5.05743

>  <SCORE.INTRA.DIHEDRAL>
1.37439

>  <SCORE.INTRA.DIHEDRAL.0>
9.37739

>  <SCORE.INTRA.POLAR>
0

>  <SCORE.INTRA.POLAR.0>
0

>  <SCORE.INTRA.REPUL>
0

>  <SCORE.INTRA.REPUL.0>
0

>  <SCORE.INTRA.SOLV>
5.13443

>  <SCORE.INTRA.SOLV.lig_0>
-82.9274

>  <SCORE.INTRA.VDW>
1.80302

>  <SCORE.INTRA.VDW.0>
-3.84922

>  <SCORE.INTRA.norm>
0.163143

>  <SCORE.RESTR>
6.381

>  <SCORE.RESTR.CAVITY>
6.381

>  <SCORE.RESTR.norm>
0.205839

>  <SCORE.SYSTEM>
0

>  <SCORE.SYSTEM.CONST>
0

>  <SCORE.SYSTEM.DIHEDRAL>
0

>  <SCORE.SYSTEM.SOLV>
0

>  <SCORE.SYSTEM.norm>
0

>  <SCORE.heavy>
31

>  <SCORE.norm>
0.493014

>  <RMSD>
7.098

$$$$
2o3x_lig
 OpenBabel11021811463D
libRbt.so/2013.1/901 2013/11/27
 31 33  0  0  0  0  0  0  0  0999 V2000
   18.0603    4.5481   10.7110 C   0  0  2  0  0  0  0  0  0  0  0  0
   17.7136    5.7114    9.9481 O   0  0  0  0  0  0  0  0  0  0  0  0
   21.4951    6.1364    7.9942 C   0  0  2  0  0  0  0  0  0  0  0  0
   22.5829    6.5560    7.0832 N   0  0  0  0  0  0  0  0  0  0  0  0
   19.6241    9.2446   10.9073 C   0  0  1  0  0  0  0  0  0  0  0  0
   16.9346    4.2958   11.7634 C   0  0  2  0  0  0  0  0  0  0  0  0
   15.5797    4.3505   11.1574 N   0  0  0  0  0  0  0  0  0  0  0  0
   20.3734    5.3428    7.2449 C   0  0  0  0  0  0  0  0  0  0  0  0
   19.0252   10.6835   10.7761 C   0  0  2  0  0  0  0  0  0  0  0  0
   19.6534   11.5480    9.7900 O   0  0  0  0  0  0  0  0  0  0  0  0
   16.9862    5.3252   12.9082 C   0  0  1  0  0  0  0  0  0  0  0  0
   15.9978    5.0484   13.8677 O   0  0  0  0  0  0  0  0  0  0  0  0
   19.2854    4.9174    8.2973 C   0  0  2  0  0  0  0  0  0  0  0  0
   18.1830    4.1346    7.6622 N   0  0  0  0  0  0  0  0  0  0  0  0
   19.1644   11.1120   12.2273 C   0  0  2  0  0  0  0  0  0  0  0  0
   20.5424   11.5227   12.5274 O   0  0  0  0  0  0  0  0  0  0  0  0
   18.3655    5.3141   13.5455 C   0  0  2  0  0  0  0  0  0  0  0  0
   18.4076    6.2267   14.5948 O   0  0  0  0  0  0  0  0  0  0  0  0
   18.6693    6.1709    8.9816 C   0  0  2  0  0  0  0  0  0  0  0  0
   18.7777    9.8744   13.0285 C   0  0  2  0  0  0  0  0  0  0  0  0
   19.4273    8.8562   12.2724 O   0  0  0  0  0  0  0  0  0  0  0  0
   19.4436    5.6675   12.4823 C   0  0  2  0  0  0  0  0  0  0  0  0
   19.3791    4.7227   11.3923 O   0  0  0  0  0  0  0  0  0  0  0  0
   19.7182    7.0678    9.6684 C   0  0  2  0  0  0  0  0  0  0  0  0
   18.9972    8.2988   10.0272 O   0  0  0  0  0  0  0  0  0  0  0  0
   17.2382    9.5994   13.1159 C   0  0  0  0  0  0  0  0  0  0  0  0
   16.9622    8.6965   14.1829 N   0  0  0  0  0  0  0  0  0  0  0  0
   20.8432    5.6543   13.0516 C   0  0  0  0  0  0  0  0  0  0  0  0
   21.7822    5.9992   12.0991 O   0  0  0  0  0  0  0  0  0  0  0  0
   20.9094    7.3930    8.6629 C   0  0  1  0  0  0  0  0  0  0  0  0
   22.0014    8.0388    9.3350 O   0  0  0  0  0  0  0  0  0  0  0  0
  1  2  1  1  0  0  0
  1  6  1  0  0  0  0
  1 23  1  0  0  0  0
  3  4  1  6  0  0  0
  3  8  1  0  0  0  0
  3 30  1  0  0  0  0
  5  9  1  0  0  0  0
  5 21  1  0  0  0  0
  5 25  1  6  0  0  0
  6  7  1  6  0  0  0
  6 11  1  0  0  0  0
  8 13  1  0  0  0  0
  9 10  1  6  0  0  0
  9 15  1  0  0  0  0
 11 12  1  1  0  0  0
 11 17  1  0  0  0  0
 13 14  1  6  0  0  0
 13 19  1  0  0  0  0
 15 16  1  6  0  0  0
 15 20  1  0  0  0  0
 17 18  1  1  0  0  0
 17 22  1  0  0  0  0
 19  2  1  1  0  0  0
 19 24  1  0  0  0  0
 20 21  1  0  0  0  0
 20 26  1  6  0  0  0
 22 23  1  0  0  0  0
 22 28  1  1  0  0  0
 24 25  1  6  0  0  0
 24 30  1  0  0  0  0
 26 27  1  0  0  0  0
 28 29  1  0  0  0  0
 30 31  1  1  0  0  0
M  END
>  <CHROM.1>
175.80912253,158.34388277,39.54677182,-162.58005028,-178.67233989,168.37669238
19.11605701,7.06120704,11.04083418,1.29690446,-0.92378973,-2.62143035

>  <Name>
2o3x_lig

>  <RI>
0

>  <Rbt.Current_Directory>
/home/itssahil/PROJECTS/Mol_Feturizer/New_Systems/rnas/2o3x

>  <Rbt.Executable>
rbdock ($Id: //depot/dev/client3/rdock/2013.1/src/exe/rbdock.cxx#4 $)

>  <Rbt.Library>
libRbt.so (2013.1, Build901 2013/11/27)

>  <Rbt.Parameter_File>
/export/apps/rDock/src/rDock_2013.1_src/data/scripts/dock_solv.prm

>  <Rbt.Receptor>
prm/pocket_docking_5.prm

>  <SCORE>
-7.25609

>  <SCORE.INTER>
-6.30322

>  <SCORE.INTER.CONST>
1

>  <SCORE.INTER.POLAR>
-1.15185

>  <SCORE.INTER.ROT>
6

>  <SCORE.INTER.SOLV>
6.57316

>  <SCORE.INTER.VDW>
-10.1537

>  <SCORE.INTER.norm>
-0.20333

>  <SCORE.INTRA>
-0.952862

>  <SCORE.INTRA.DIHEDRAL>
-3.58402

>  <SCORE.INTRA.DIHEDRAL.0>
9.37739

>  <SCORE.INTRA.POLAR>
0

>  <SCORE.INTRA.POLAR.0>
0

>  <SCORE.INTRA.REPUL>
0

>  <SCORE.INTRA.REPUL.0>
0

>  <SCORE.INTRA.SOLV>
1.62297

>  <SCORE.INTRA.SOLV.lig_0>
-82.9274

>  <SCORE.INTRA.VDW>
0.0276627

>  <SCORE.INTRA.VDW.0>
-3.84922

>  <SCORE.INTRA.norm>
-0.0307375

>  <SCORE.RESTR>
0

>  <SCORE.RESTR.CAVITY>
0

>  <SCORE.RESTR.norm>
0

>  <SCORE.SYSTEM>
0

>  <SCORE.SYSTEM.CONST>
0

>  <SCORE.SYSTEM.DIHEDRAL>
0

>  <SCORE.SYSTEM.SOLV>
0

>  <SCORE.SYSTEM.norm>
0

>  <SCORE.heavy>
31

>  <SCORE.norm>
-0.234067

>  <RMSD>
7.113

$$$$
2o3x_lig
 OpenBabel11021811463D
libRbt.so/2013.1/901 2013/11/27
 31 33  0  0  0  0  0  0  0  0999 V2000
   24.1824    7.9414   10.6510 C   0  0  2  0  0  0  0  0  0  0  0  0
   24.4298    6.5915   10.2363 O   0  0  0  0  0  0  0  0  0  0  0  0
   23.2187    7.0278    6.1570 C   0  0  2  0  0  0  0  0  0  0  0  0
   22.7085    6.7692    4.7923 N   0  0  0  0  0  0  0  0  0  0  0  0
   21.9694    4.8249   10.0401 C   0  0  1  0  0  0  0  0  0  0  0  0
   25.2573    8.3352   11.7131 C   0  0  2  0  0  0  0  0  0  0  0  0
   26.6321    7.9845   11.2743 N   0  0  0  0  0  0  0  0  0  0  0  0
   24.5512    6.2582    6.4426 C   0  0  0  0  0  0  0  0  0  0  0  0
   20.8315    4.1817   10.8990 C   0  0  2  0  0  0  0  0  0  0  0  0
   20.9008    4.4215   12.3315 O   0  0  0  0  0  0  0  0  0  0  0  0
   24.9985    7.6453   13.0659 C   0  0  1  0  0  0  0  0  0  0  0  0
   25.9468    8.0534   14.0190 O   0  0  0  0  0  0  0  0  0  0  0  0
   25.0256    6.6199    7.8974 C   0  0  2  0  0  0  0  0  0  0  0  0
   26.3084    5.9369    8.2427 N   0  0  0  0  0  0  0  0  0  0  0  0
   21.0081    2.7401   10.4524 C   0  0  2  0  0  0  0  0  0  0  0  0
   22.1340    2.1048   11.1498 O   0  0  0  0  0  0  0  0  0  0  0  0
   23.5918    7.9648   13.5432 C   0  0  2  0  0  0  0  0  0  0  0  0
   23.3637    7.3616   14.7760 O   0  0  0  0  0  0  0  0  0  0  0  0
   23.9495    6.2047    8.9409 C   0  0  2  0  0  0  0  0  0  0  0  0
   21.2780    2.8356    8.9554 C   0  0  2  0  0  0  0  0  0  0  0  0
   22.1569    3.9564    8.9160 O   0  0  0  0  0  0  0  0  0  0  0  0
   22.5520    7.4661   12.5003 C   0  0  2  0  0  0  0  0  0  0  0  0
   22.8090    8.0874   11.2225 O   0  0  0  0  0  0  0  0  0  0  0  0
   22.5708    6.8437    8.6817 C   0  0  2  0  0  0  0  0  0  0  0  0
   21.6474    6.1513    9.5938 O   0  0  0  0  0  0  0  0  0  0  0  0
   20.0112    3.0965    8.0718 C   0  0  0  0  0  0  0  0  0  0  0  0
   19.3631    4.2952    8.4876 N   0  0  0  0  0  0  0  0  0  0  0  0
   21.1300    7.7723   12.9097 C   0  0  0  0  0  0  0  0  0  0  0  0
   20.2218    7.3019   11.9813 O   0  0  0  0  0  0  0  0  0  0  0  0
   22.1330    6.6164    7.1677 C   0  0  1  0  0  0  0  0  0  0  0  0
   20.9643    7.3827    6.8390 O   0  0  0  0  0  0  0  0  0  0  0  0
  1  2  1  1  0  0  0
  1  6  1  0  0  0  0
  1 23  1  0  0  0  0
  3  4  1  6  0  0  0
  3  8  1  0  0  0  0
  3 30  1  0  0  0  0
  5  9  1  0  0  0  0
  5 21  1  0  0  0  0
  5 25  1  6  0  0  0
  6  7  1  6  0  0  0
  6 11  1  0  0  0  0
  8 13  1  0  0  0  0
  9 10  1  1  0  0  0
  9 15  1  0  0  0  0
 11 12  1  1  0  0  0
 11 17  1  0  0  0  0
 13 14  1  1  0  0  0
 13 19  1  0  0  0  0
 15 16  1  1  0  0  0
 15 20  1  0  0  0  0
 17 18  1  1  0  0  0
 17 22  1  0  0  0  0
 19  2  1  1  0  0  0
 19 24  1  0  0  0  0
 20 21  1  0  0  0  0
 20 26  1  6  0  0  0
 22 23  1  0  0  0  0
 22 28  1  1  0  0  0
 24 25  1  1  0  0  0
 24 30  1  0  0  0  0
 26 27  1  0  0  0  0
 28 29  1  0  0  0  0
 30 31  1  6  0  0  0
M  END
>  <CHROM.1>
-155.55992304,-174.92117597,84.85772435,57.37792686,-179.00685972,-25.13724544
22.81007001,6.15087760,10.11053527,-1.02623665,-0.70412623,-1.68755235

>  <Name>
2o3x_lig

>  <RI>
0

>  <Rbt.Current_Directory>
/home/itssahil/PROJECTS/Mol_Feturizer/New_Systems/rnas/2o3x

>  <Rbt.Executable>
rbdock ($Id: //depot/dev/client3/rdock/2013.1/src/exe/rbdock.cxx#4 $)

>  <Rbt.Library>
libRbt.so (2013.1, Build901 2013/11/27)

>  <Rbt.Parameter_File>
/export/apps/rDock/src/rDock_2013.1_src/data/scripts/dock_solv.prm

>  <Rbt.Receptor>
prm/blind_docking_60.prm

>  <SCORE>
10.3399

>  <SCORE.INTER>
-5.08586

>  <SCORE.INTER.CONST>
1

>  <SCORE.INTER.POLAR>
-1.00399

>  <SCORE.INTER.ROT>
6

>  <SCORE.INTER.SOLV>
25.0652

>  <SCORE.INTER.VDW>
-15.999

>  <SCORE.INTER.norm>
-0.16406

>  <SCORE.INTRA>
5.5316

>  <SCORE.INTRA.DIHEDRAL>
0.641066

>  <SCORE.INTRA.DIHEDRAL.0>
9.37739

>  <SCORE.INTRA.POLAR>
0

>  <SCORE.INTRA.POLAR.0>
0

>  <SCORE.INTRA.REPUL>
0

>  <SCORE.INTRA.REPUL.0>
0

>  <SCORE.INTRA.SOLV>
4.16395

>  <SCORE.INTRA.SOLV.lig_0>
-82.9274

>  <SCORE.INTRA.VDW>
3.12909

>  <SCORE.INTRA.VDW.0>
-3.84922

>  <SCORE.INTRA.norm>
0.178439

>  <SCORE.RESTR>
9.89412

>  <SCORE.RESTR.CAVITY>
9.89412

>  <SCORE.RESTR.norm>
0.319165

>  <SCORE.SYSTEM>
0

>  <SCORE.SYSTEM.CONST>
0

>  <SCORE.SYSTEM.DIHEDRAL>
0

>  <SCORE.SYSTEM.SOLV>
0

>  <SCORE.SYSTEM.norm>
0

>  <SCORE.heavy>
31

>  <SCORE.norm>
0.333544

>  <RMSD>
7.142

$$$$
2o3x_lig
 OpenBabel11021811463D
libRbt.so/2013.1/901 2013/11/27
 31 33  0  0  0  0  0  0  0  0999 V2000
   21.1100    6.4548    7.5042 C   0  0  2  0  0  0  0  0  0  0  0  0
   20.0233    5.6310    7.0616 O   0  0  0  0  0  0  0  0  0  0  0  0
   15.7941    6.2654    6.9635 C   0  0  2  0  0  0  0  0  0  0  0  0
   14.4006    6.6033    7.3287 N   0  0  0  0  0  0  0  0  0  0  0  0
   19.4162    9.4335    6.6133 C   0  0  1  0  0  0  0  0  0  0  0  0
   22.4300    5.9101    6.8723 C   0  0  2  0  0  0  0  0  0  0  0  0
   22.2929    5.6660    5.4137 N   0  0  0  0  0  0  0  0  0  0  0  0
   16.3262    5.0257    7.7567 C   0  0  0  0  0  0  0  0  0  0  0  0
   20.5859    9.0929    5.6325 C   0  0  2  0  0  0  0  0  0  0  0  0
   21.9293    9.3323    6.1349 O   0  0  0  0  0  0  0  0  0  0  0  0
   22.8762    4.5934    7.5358 C   0  0  1  0  0  0  0  0  0  0  0  0
   24.0910    4.1494    6.9868 O   0  0  0  0  0  0  0  0  0  0  0  0
   17.7947    4.7297    7.2790 C   0  0  2  0  0  0  0  0  0  0  0  0
   18.3713    3.5424    7.9784 N   0  0  0  0  0  0  0  0  0  0  0  0
   20.1465    9.9536    4.4600 C   0  0  2  0  0  0  0  0  0  0  0  0
   20.5033   11.3622    4.6752 O   0  0  0  0  0  0  0  0  0  0  0  0
   23.0114    4.7955    9.0356 C   0  0  2  0  0  0  0  0  0  0  0  0
   23.4366    3.6138    9.6343 O   0  0  0  0  0  0  0  0  0  0  0  0
   18.7134    5.9553    7.5490 C   0  0  2  0  0  0  0  0  0  0  0  0
   18.6337    9.7769    4.4037 C   0  0  2  0  0  0  0  0  0  0  0  0
   18.3101    9.8245    5.7906 O   0  0  0  0  0  0  0  0  0  0  0  0
   21.6481    5.2417    9.6355 C   0  0  2  0  0  0  0  0  0  0  0  0
   21.2109    6.4599    8.9954 O   0  0  0  0  0  0  0  0  0  0  0  0
   18.2126    7.2513    6.8813 C   0  0  2  0  0  0  0  0  0  0  0  0
   19.0471    8.3232    7.4458 O   0  0  0  0  0  0  0  0  0  0  0  0
   18.1499    8.4286    3.7702 C   0  0  0  0  0  0  0  0  0  0  0  0
   16.7269    8.3620    3.7888 N   0  0  0  0  0  0  0  0  0  0  0  0
   21.7221    5.4782   11.1261 C   0  0  0  0  0  0  0  0  0  0  0  0
   20.4889    5.8167   11.6484 O   0  0  0  0  0  0  0  0  0  0  0  0
   16.6788    7.4960    7.2325 C   0  0  1  0  0  0  0  0  0  0  0  0
   16.1270    8.5681    6.4533 O   0  0  0  0  0  0  0  0  0  0  0  0
  1  2  1  1  0  0  0
  1  6  1  0  0  0  0
  1 23  1  0  0  0  0
  3  4  1  1  0  0  0
  3  8  1  0  0  0  0
  3 30  1  0  0  0  0
  5  9  1  0  0  0  0
  5 21  1  0  0  0  0
  5 25  1  6  0  0  0
  6  7  1  6  0  0  0
  6 11  1  0  0  0  0
  8 13  1  0  0  0  0
  9 10  1  1  0  0  0
  9 15  1  0  0  0  0
 11 12  1  6  0  0  0
 11 17  1  0  0  0  0
 13 14  1  1  0  0  0
 13 19  1  0  0  0  0
 15 16  1  1  0  0  0
 15 20  1  0  0  0  0
 17 18  1  1  0  0  0
 17 22  1  0  0  0  0
 19  2  1  6  0  0  0
 19 24  1  0  0  0  0
 20 21  1  0  0  0  0
 20 26  1  1  0  0  0
 22 23  1  0  0  0  0
 22 28  1  1  0  0  0
 24 25  1  1  0  0  0
 24 30  1  0  0  0  0
 26 27  1  0  0  0  0
 28 29  1  0  0  0  0
 30 31  1  6  0  0  0
M  END
>  <CHROM.1>
179.14591196,-78.27859817,-164.25203103,179.07211763,-177.36943981,144.94624372
19.71840486,6.89333227,7.10511389,-0.84988954,-0.01490670,-0.70619637

>  <Name>
2o3x_lig

>  <RI>
0

>  <Rbt.Current_Directory>
/home/itssahil/PROJECTS/Mol_Feturizer/New_Systems/rnas/2o3x

>  <Rbt.Executable>
rbdock ($Id: //depot/dev/client3/rdock/2013.1/src/exe/rbdock.cxx#4 $)

>  <Rbt.Library>
libRbt.so (2013.1, Build901 2013/11/27)

>  <Rbt.Parameter_File>
/export/apps/rDock/src/rDock_2013.1_src/data/scripts/dock_solv.prm

>  <Rbt.Receptor>
prm/pocket_docking_5.prm

>  <SCORE>
-6.91581

>  <SCORE.INTER>
-6.52408

>  <SCORE.INTER.CONST>
1

>  <SCORE.INTER.POLAR>
-0.894427

>  <SCORE.INTER.ROT>
6

>  <SCORE.INTER.SOLV>
10.4757

>  <SCORE.INTER.VDW>
-12.4599

>  <SCORE.INTER.norm>
-0.210454

>  <SCORE.INTRA>
-0.39173

>  <SCORE.INTRA.DIHEDRAL>
-1.95549

>  <SCORE.INTRA.DIHEDRAL.0>
9.37739

>  <SCORE.INTRA.POLAR>
0

>  <SCORE.INTRA.POLAR.0>
0

>  <SCORE.INTRA.REPUL>
0

>  <SCORE.INTRA.REPUL.0>
0

>  <SCORE.INTRA.SOLV>
1.89278

>  <SCORE.INTRA.SOLV.lig_0>
-82.9274

>  <SCORE.INTRA.VDW>
-0.360374

>  <SCORE.INTRA.VDW.0>
-3.84922

>  <SCORE.INTRA.norm>
-0.0126364

>  <SCORE.RESTR>
0

>  <SCORE.RESTR.CAVITY>
0

>  <SCORE.RESTR.norm>
0

>  <SCORE.SYSTEM>
0

>  <SCORE.SYSTEM.CONST>
0

>  <SCORE.SYSTEM.DIHEDRAL>
0

>  <SCORE.SYSTEM.SOLV>
0

>  <SCORE.SYSTEM.norm>
0

>  <SCORE.heavy>
31

>  <SCORE.norm>
-0.223091

>  <RMSD>
7.147

$$$$
2o3x_lig
 OpenBabel11021811463D
libRbt.so/2013.1/901 2013/11/27
 31 33  0  0  0  0  0  0  0  0999 V2000
   22.2599    6.3990   11.8842 C   0  0  2  0  0  0  0  0  0  0  0  0
   22.0984    7.1025   10.6454 O   0  0  0  0  0  0  0  0  0  0  0  0
   23.7175    6.9581    6.6887 C   0  0  2  0  0  0  0  0  0  0  0  0
   24.3343    6.5028    5.4231 N   0  0  0  0  0  0  0  0  0  0  0  0
   21.1065    4.0515    8.4474 C   0  0  1  0  0  0  0  0  0  0  0  0
   21.0907    6.8041   12.8367 C   0  0  2  0  0  0  0  0  0  0  0  0
   19.7691    6.7298   12.1631 N   0  0  0  0  0  0  0  0  0  0  0  0
   24.7202    6.8929    7.8886 C   0  0  0  0  0  0  0  0  0  0  0  0
   21.4694    3.2668    9.7507 C   0  0  2  0  0  0  0  0  0  0  0  0
   22.8715    3.2841   10.1358 O   0  0  0  0  0  0  0  0  0  0  0  0
   21.2693    8.2348   13.3787 C   0  0  1  0  0  0  0  0  0  0  0  0
   20.2341    8.5586   14.2719 O   0  0  0  0  0  0  0  0  0  0  0  0
   23.9844    7.4223    9.1734 C   0  0  2  0  0  0  0  0  0  0  0  0
   24.8839    7.4103   10.3660 N   0  0  0  0  0  0  0  0  0  0  0  0
   20.9000    1.9139    9.3577 C   0  0  2  0  0  0  0  0  0  0  0  0
   21.8148    1.1957    8.4606 O   0  0  0  0  0  0  0  0  0  0  0  0
   22.6208    8.3589   14.0619 C   0  0  2  0  0  0  0  0  0  0  0  0
   22.7750    9.6439   14.5725 O   0  0  0  0  0  0  0  0  0  0  0  0
   22.7376    6.5469    9.4874 C   0  0  2  0  0  0  0  0  0  0  0  0
   19.5901    2.2428    8.6512 C   0  0  2  0  0  0  0  0  0  0  0  0
   19.9849    3.3694    7.8731 O   0  0  0  0  0  0  0  0  0  0  0  0
   23.7577    8.0431   13.0493 C   0  0  2  0  0  0  0  0  0  0  0  0
   23.5776    6.7135   12.5157 O   0  0  0  0  0  0  0  0  0  0  0  0
   21.7339    6.4748    8.3196 C   0  0  2  0  0  0  0  0  0  0  0  0
   20.7752    5.4258    8.6996 O   0  0  0  0  0  0  0  0  0  0  0  0
   18.4034    2.6178    9.6024 C   0  0  0  0  0  0  0  0  0  0  0  0
   17.9378    1.4570   10.2847 N   0  0  0  0  0  0  0  0  0  0  0  0
   25.1303    8.1311   13.6752 C   0  0  0  0  0  0  0  0  0  0  0  0
   26.1231    8.1839   12.7163 O   0  0  0  0  0  0  0  0  0  0  0  0
   22.4838    6.0819    6.9709 C   0  0  1  0  0  0  0  0  0  0  0  0
   21.6212    6.2206    5.8317 O   0  0  0  0  0  0  0  0  0  0  0  0
  1  2  1  6  0  0  0
  1  6  1  0  0  0  0
  1 23  1  0  0  0  0
  3  4  1  6  0  0  0
  3  8  1  0  0  0  0
  3 30  1  0  0  0  0
  5  9  1  0  0  0  0
  5 21  1  0  0  0  0
  5 25  1  1  0  0  0
  6  7  1  6  0  0  0
  6 11  1  0  0  0  0
  8 13  1  0  0  0  0
  9 10  1  6  0  0  0
  9 15  1  0  0  0  0
 11 12  1  1  0  0  0
 11 17  1  0  0  0  0
 13 14  1  1  0  0  0
 13 19  1  0  0  0  0
 15 16  1  6  0  0  0
 15 20  1  0  0  0  0
 17 18  1  6  0  0  0
 17 22  1  0  0  0  0
 19  2  1  1  0  0  0
 19 24  1  0  0  0  0
 20 21  1  0  0  0  0
 20 26  1  1  0  0  0
 22 23  1  0  0  0  0
 22 28  1  1  0  0  0
 24 25  1  1  0  0  0
 24 30  1  0  0  0  0
 26 27  1  0  0  0  0
 28 29  1  0  0  0  0
 30 31  1  6  0  0  0
M  END
>  <CHROM.1>
-157.94730060,106.83474909,-105.18462333,-72.11411911,-164.81904588,-83.19288133
22.12708764,5.88167286,10.24982022,1.09946844,0.73189378,1.11332072

>  <Name>
2o3x_lig

>  <RI>
0

>  <Rbt.Current_Directory>
/home/itssahil/PROJECTS/Mol_Feturizer/New_Systems/rnas/2o3x

>  <Rbt.Executable>
rbdock ($Id: //depot/dev/client3/rdock/2013.1/src/exe/rbdock.cxx#4 $)

>  <Rbt.Library>
libRbt.so (2013.1, Build901 2013/11/27)

>  <Rbt.Parameter_File>
/export/apps/rDock/src/rDock_2013.1_src/data/scripts/dock_solv.prm

>  <Rbt.Receptor>
prm/blind_docking_40.prm

>  <SCORE>
8.65325

>  <SCORE.INTER>
-4.6938

>  <SCORE.INTER.CONST>
1

>  <SCORE.INTER.POLAR>
0

>  <SCORE.INTER.ROT>
6

>  <SCORE.INTER.SOLV>
20.1132

>  <SCORE.INTER.VDW>
-17.4336

>  <SCORE.INTER.norm>
-0.151413

>  <SCORE.INTRA>
5.92674

>  <SCORE.INTRA.DIHEDRAL>
9.05654

>  <SCORE.INTRA.DIHEDRAL.0>
9.37739

>  <SCORE.INTRA.POLAR>
0

>  <SCORE.INTRA.POLAR.0>
0

>  <SCORE.INTRA.REPUL>
0

>  <SCORE.INTRA.REPUL.0>
0

>  <SCORE.INTRA.SOLV>
1.77309

>  <SCORE.INTRA.SOLV.lig_0>
-82.9274

>  <SCORE.INTRA.VDW>
0.511924

>  <SCORE.INTRA.VDW.0>
-3.84922

>  <SCORE.INTRA.norm>
0.191185

>  <SCORE.RESTR>
7.42031

>  <SCORE.RESTR.CAVITY>
7.42031

>  <SCORE.RESTR.norm>
0.239365

>  <SCORE.SYSTEM>
0

>  <SCORE.SYSTEM.CONST>
0

>  <SCORE.SYSTEM.DIHEDRAL>
0

>  <SCORE.SYSTEM.SOLV>
0

>  <SCORE.SYSTEM.norm>
0

>  <SCORE.heavy>
31

>  <SCORE.norm>
0.279137

>  <RMSD>
7.149

$$$$
2o3x_lig
 OpenBabel11021811463D
libRbt.so/2013.1/901 2013/11/27
 31 33  0  0  0  0  0  0  0  0999 V2000
   25.0380    7.3963   11.4109 C   0  0  2  0  0  0  0  0  0  0  0  0
   24.0806    8.0811   10.5924 O   0  0  0  0  0  0  0  0  0  0  0  0
   22.7903    7.1121    6.6308 C   0  0  2  0  0  0  0  0  0  0  0  0
   22.1654    6.4526    5.4629 N   0  0  0  0  0  0  0  0  0  0  0  0
   21.3418    7.0551   11.0735 C   0  0  1  0  0  0  0  0  0  0  0  0
   24.3448    7.0000   12.7528 C   0  0  2  0  0  0  0  0  0  0  0  0
   23.0284    6.3488   12.5315 N   0  0  0  0  0  0  0  0  0  0  0  0
   23.9280    6.2405    7.2596 C   0  0  0  0  0  0  0  0  0  0  0  0
   20.0769    6.9909   11.9911 C   0  0  2  0  0  0  0  0  0  0  0  0
   20.1013    7.8405   13.1709 O   0  0  0  0  0  0  0  0  0  0  0  0
   24.1240    8.2242   13.6613 C   0  0  1  0  0  0  0  0  0  0  0  0
   23.5462    7.8369   14.8821 O   0  0  0  0  0  0  0  0  0  0  0  0
   24.5461    7.0358    8.4671 C   0  0  2  0  0  0  0  0  0  0  0  0
   25.6579    6.2762    9.1137 N   0  0  0  0  0  0  0  0  0  0  0  0
   20.0662    5.4928   12.2452 C   0  0  2  0  0  0  0  0  0  0  0  0
   21.0475    5.1241   13.2741 O   0  0  0  0  0  0  0  0  0  0  0  0
   25.4476    8.9315   13.8988 C   0  0  2  0  0  0  0  0  0  0  0  0
   25.2544   10.0245   14.7378 O   0  0  0  0  0  0  0  0  0  0  0  0
   23.4593    7.3286    9.5406 C   0  0  2  0  0  0  0  0  0  0  0  0
   20.4292    4.8758   10.8996 C   0  0  2  0  0  0  0  0  0  0  0  0
   21.4626    5.7595   10.4736 O   0  0  0  0  0  0  0  0  0  0  0  0
   26.0518    9.3949   12.5431 C   0  0  2  0  0  0  0  0  0  0  0  0
   26.2328    8.2542   11.6766 O   0  0  0  0  0  0  0  0  0  0  0  0
   22.2487    8.1053    8.9862 C   0  0  2  0  0  0  0  0  0  0  0  0
   21.2413    8.0648   10.0573 O   0  0  0  0  0  0  0  0  0  0  0  0
   19.2645    4.8436    9.8527 C   0  0  0  0  0  0  0  0  0  0  0  0
   19.6025    3.9801    8.7711 N   0  0  0  0  0  0  0  0  0  0  0  0
   27.3825   10.0908   12.7109 C   0  0  0  0  0  0  0  0  0  0  0  0
   27.4400   10.7976   13.8963 O   0  0  0  0  0  0  0  0  0  0  0  0
   21.6934    7.3974    7.6723 C   0  0  1  0  0  0  0  0  0  0  0  0
   20.7123    8.2117    7.0126 O   0  0  0  0  0  0  0  0  0  0  0  0
  1  2  1  6  0  0  0
  1  6  1  0  0  0  0
  1 23  1  0  0  0  0
  3  4  1  6  0  0  0
  3  8  1  0  0  0  0
  3 30  1  0  0  0  0
  5  9  1  0  0  0  0
  5 21  1  0  0  0  0
  5 25  1  6  0  0  0
  6  7  1  6  0  0  0
  6 11  1  0  0  0  0
  8 13  1  0  0  0  0
  9 10  1  1  0  0  0
  9 15  1  0  0  0  0
 11 12  1  1  0  0  0
 11 17  1  0  0  0  0
 13 14  1  1  0  0  0
 13 19  1  0  0  0  0
 15 16  1  1  0  0  0
 15 20  1  0  0  0  0
 17 18  1  1  0  0  0
 17 22  1  0  0  0  0
 19  2  1  1  0  0  0
 19 24  1  0  0  0  0
 20 21  1  0  0  0  0
 20 26  1  6  0  0  0
 22 23  1  0  0  0  0
 22 28  1  1  0  0  0
 24 25  1  1  0  0  0
 24 30  1  0  0  0  0
 26 27  1  0  0  0  0
 28 29  1  0  0  0  0
 30 31  1  6  0  0  0
M  END
>  <CHROM.1>
-100.95722439,-170.23138270,-69.23094653,-166.26520796,-33.05286627,-20.17891867
23.03154836,7.33984464,10.92977786,-0.75777771,-0.49411657,-1.67303550

>  <Name>
2o3x_lig

>  <RI>
0

>  <Rbt.Current_Directory>
/home/itssahil/PROJECTS/Mol_Feturizer/New_Systems/rnas/2o3x

>  <Rbt.Executable>
rbdock ($Id: //depot/dev/client3/rdock/2013.1/src/exe/rbdock.cxx#4 $)

>  <Rbt.Library>
libRbt.so (2013.1, Build901 2013/11/27)

>  <Rbt.Parameter_File>
/export/apps/rDock/src/rDock_2013.1_src/data/scripts/dock_solv.prm

>  <Rbt.Receptor>
prm/blind_docking_40.prm

>  <SCORE>
31.2494

>  <SCORE.INTER>
8.11011

>  <SCORE.INTER.CONST>
1

>  <SCORE.INTER.POLAR>
-1.58048

>  <SCORE.INTER.ROT>
6

>  <SCORE.INTER.SOLV>
21.3714

>  <SCORE.INTER.VDW>
-4.04877

>  <SCORE.INTER.norm>
0.261617

>  <SCORE.INTRA>
17.6294

>  <SCORE.INTRA.DIHEDRAL>
5.40609

>  <SCORE.INTRA.DIHEDRAL.0>
9.37739

>  <SCORE.INTRA.POLAR>
0

>  <SCORE.INTRA.POLAR.0>
0

>  <SCORE.INTRA.REPUL>
0

>  <SCORE.INTRA.REPUL.0>
0

>  <SCORE.INTRA.SOLV>
6.51812

>  <SCORE.INTRA.SOLV.lig_0>
-82.9274

>  <SCORE.INTRA.VDW>
11.6673

>  <SCORE.INTRA.VDW.0>
-3.84922

>  <SCORE.INTRA.norm>
0.568691

>  <SCORE.RESTR>
5.50988

>  <SCORE.RESTR.CAVITY>
5.50988

>  <SCORE.RESTR.norm>
0.177738

>  <SCORE.SYSTEM>
0

>  <SCORE.SYSTEM.CONST>
0

>  <SCORE.SYSTEM.DIHEDRAL>
0

>  <SCORE.SYSTEM.SOLV>
0

>  <SCORE.SYSTEM.norm>
0

>  <SCORE.heavy>
31

>  <SCORE.norm>
1.00805

>  <RMSD>
7.152

$$$$
2o3x_lig
 OpenBabel11021811463D
libRbt.so/2013.1/901 2013/11/27
 31 33  0  0  0  0  0  0  0  0999 V2000
   24.1161    7.8381   10.1655 C   0  0  2  0  0  0  0  0  0  0  0  0
   24.4936    6.5483    9.6660 O   0  0  0  0  0  0  0  0  0  0  0  0
   23.6122    7.2284    5.5358 C   0  0  2  0  0  0  0  0  0  0  0  0
   23.2245    7.0500    4.1190 N   0  0  0  0  0  0  0  0  0  0  0  0
   21.4064    4.7791    8.3099 C   0  0  1  0  0  0  0  0  0  0  0  0
   24.9640    8.1394   11.4417 C   0  0  2  0  0  0  0  0  0  0  0  0
   26.4095    7.8729   11.2289 N   0  0  0  0  0  0  0  0  0  0  0  0
   24.9382    6.4729    5.8825 C   0  0  0  0  0  0  0  0  0  0  0  0
   22.5750    3.7432    8.3959 C   0  0  2  0  0  0  0  0  0  0  0  0
   23.4240    3.6407    7.2199 O   0  0  0  0  0  0  0  0  0  0  0  0
   24.4969    7.2991   12.6454 C   0  0  1  0  0  0  0  0  0  0  0  0
   25.2394    7.6234   13.7933 O   0  0  0  0  0  0  0  0  0  0  0  0
   25.2799    6.7473    7.3926 C   0  0  2  0  0  0  0  0  0  0  0  0
   26.5490    6.0730    7.8002 N   0  0  0  0  0  0  0  0  0  0  0  0
   21.7521    2.5121    8.7366 C   0  0  2  0  0  0  0  0  0  0  0  0
   21.1127    1.9551    7.5373 O   0  0  0  0  0  0  0  0  0  0  0  0
   23.0146    7.5296   12.8868 C   0  0  2  0  0  0  0  0  0  0  0  0
   22.5954    6.7894   13.9877 O   0  0  0  0  0  0  0  0  0  0  0  0
   24.1336    6.2381    8.3122 C   0  0  2  0  0  0  0  0  0  0  0  0
   20.7085    3.0140    9.7276 C   0  0  2  0  0  0  0  0  0  0  0  0
   20.3536    4.2582    9.1305 O   0  0  0  0  0  0  0  0  0  0  0  0
   22.2024    7.1228   11.6249 C   0  0  2  0  0  0  0  0  0  0  0  0
   22.6573    7.8866   10.4872 O   0  0  0  0  0  0  0  0  0  0  0  0
   22.7631    6.8605    7.9794 C   0  0  2  0  0  0  0  0  0  0  0  0
   21.7878    6.0871    8.7634 O   0  0  0  0  0  0  0  0  0  0  0  0
   21.2352    3.2325   11.1865 C   0  0  0  0  0  0  0  0  0  0  0  0
   21.6855    1.9968   11.7343 N   0  0  0  0  0  0  0  0  0  0  0  0
   20.7179    7.3471   11.7957 C   0  0  0  0  0  0  0  0  0  0  0  0
   20.3922    7.6103   13.1120 O   0  0  0  0  0  0  0  0  0  0  0  0
   22.4589    6.7249    6.4222 C   0  0  1  0  0  0  0  0  0  0  0  0
   21.2998    7.4840    6.0463 O   0  0  0  0  0  0  0  0  0  0  0  0
  1  2  1  1  0  0  0
  1  6  1  0  0  0  0
  1 23  1  0  0  0  0
  3  4  1  6  0  0  0
  3  8  1  0  0  0  0
  3 30  1  0  0  0  0
  5  9  1  0  0  0  0
  5 21  1  0  0  0  0
  5 25  1  1  0  0  0
  6  7  1  6  0  0  0
  6 11  1  0  0  0  0
  8 13  1  0  0  0  0
  9 10  1  6  0  0  0
  9 15  1  0  0  0  0
 11 12  1  1  0  0  0
 11 17  1  0  0  0  0
 13 14  1  1  0  0  0
 13 19  1  0  0  0  0
 15 16  1  6  0  0  0
 15 20  1  0  0  0  0
 17 18  1  1  0  0  0
 17 22  1  0  0  0  0
 19  2  1  1  0  0  0
 19 24  1  0  0  0  0
 20 21  1  0  0  0  0
 20 26  1  1  0  0  0
 22 23  1  0  0  0  0
 22 28  1  1  0  0  0
 24 25  1  1  0  0  0
 24 30  1  0  0  0  0
 26 27  1  0  0  0  0
 28 29  1  0  0  0  0
 30 31  1  6  0  0  0
M  END
>  <CHROM.1>
-162.50236518,67.63480140,87.79314255,-62.23970855,-11.89463503,-76.90615909
22.92195704,5.98605774,9.48359325,-1.47723370,-0.84883620,-1.79363681

>  <Name>
2o3x_lig

>  <RI>
0

>  <Rbt.Current_Directory>
/home/itssahil/PROJECTS/Mol_Feturizer/New_Systems/rnas/2o3x

>  <Rbt.Executable>
rbdock ($Id: //depot/dev/client3/rdock/2013.1/src/exe/rbdock.cxx#4 $)

>  <Rbt.Library>
libRbt.so (2013.1, Build901 2013/11/27)

>  <Rbt.Parameter_File>
/export/apps/rDock/src/rDock_2013.1_src/data/scripts/dock_solv.prm

>  <Rbt.Receptor>
prm/blind_docking_40.prm

>  <SCORE>
16.5233

>  <SCORE.INTER>
4.12338

>  <SCORE.INTER.CONST>
1

>  <SCORE.INTER.POLAR>
-1.03666

>  <SCORE.INTER.ROT>
6

>  <SCORE.INTER.SOLV>
32.725

>  <SCORE.INTER.VDW>
-12.3039

>  <SCORE.INTER.norm>
0.133012

>  <SCORE.INTRA>
4.77299

>  <SCORE.INTRA.DIHEDRAL>
1.76136

>  <SCORE.INTRA.DIHEDRAL.0>
9.37739

>  <SCORE.INTRA.POLAR>
0

>  <SCORE.INTRA.POLAR.0>
0

>  <SCORE.INTRA.REPUL>
0

>  <SCORE.INTRA.REPUL.0>
0

>  <SCORE.INTRA.SOLV>
-0.0284182

>  <SCORE.INTRA.SOLV.lig_0>
-82.9274

>  <SCORE.INTRA.VDW>
3.90652

>  <SCORE.INTRA.VDW.0>
-3.84922

>  <SCORE.INTRA.norm>
0.153968

>  <SCORE.RESTR>
7.62698

>  <SCORE.RESTR.CAVITY>
7.62698

>  <SCORE.RESTR.norm>
0.246032

>  <SCORE.SYSTEM>
0

>  <SCORE.SYSTEM.CONST>
0

>  <SCORE.SYSTEM.DIHEDRAL>
0

>  <SCORE.SYSTEM.SOLV>
0

>  <SCORE.SYSTEM.norm>
0

>  <SCORE.heavy>
31

>  <SCORE.norm>
0.533011

>  <RMSD>
7.158

$$$$
2o3x_lig
 OpenBabel11021811463D
libRbt.so/2013.1/901 2013/11/27
 31 33  0  0  0  0  0  0  0  0999 V2000
   20.0172    9.5332   11.6756 C   0  0  2  0  0  0  0  0  0  0  0  0
   18.8459    9.2154   10.9125 O   0  0  0  0  0  0  0  0  0  0  0  0
   18.0605    8.5736    6.7569 C   0  0  2  0  0  0  0  0  0  0  0  0
   18.0614    8.6714    5.2804 N   0  0  0  0  0  0  0  0  0  0  0  0
   21.9032    7.2475    9.1740 C   0  0  1  0  0  0  0  0  0  0  0  0
   19.6818    9.3545   13.1902 C   0  0  2  0  0  0  0  0  0  0  0  0
   19.0039    8.0617   13.4643 N   0  0  0  0  0  0  0  0  0  0  0  0
   17.4312    9.8386    7.4299 C   0  0  0  0  0  0  0  0  0  0  0  0
   23.3973    7.6170    8.8957 C   0  0  2  0  0  0  0  0  0  0  0  0
   23.7896    7.6756    7.4968 O   0  0  0  0  0  0  0  0  0  0  0  0
   18.7754   10.4869   13.7087 C   0  0  1  0  0  0  0  0  0  0  0  0
   18.5287   10.3334   15.0834 O   0  0  0  0  0  0  0  0  0  0  0  0
   17.4484    9.6265    8.9878 C   0  0  2  0  0  0  0  0  0  0  0  0
   16.8442   10.7878    9.7072 N   0  0  0  0  0  0  0  0  0  0  0  0
   24.0514    6.5278    9.7292 C   0  0  2  0  0  0  0  0  0  0  0  0
   24.0526    5.2444    9.0147 O   0  0  0  0  0  0  0  0  0  0  0  0
   19.4259   11.8317   13.4310 C   0  0  2  0  0  0  0  0  0  0  0  0
   18.6197   12.8553   13.9190 O   0  0  0  0  0  0  0  0  0  0  0  0
   18.9060    9.4358    9.4960 C   0  0  2  0  0  0  0  0  0  0  0  0
   23.1984    6.4491   10.9899 C   0  0  2  0  0  0  0  0  0  0  0  0
   21.8919    6.5631   10.4327 O   0  0  0  0  0  0  0  0  0  0  0  0
   19.6500   12.0066   11.9023 C   0  0  2  0  0  0  0  0  0  0  0  0
   20.4747   10.9303   11.4059 O   0  0  0  0  0  0  0  0  0  0  0  0
   19.6406    8.2642    8.8149 C   0  0  2  0  0  0  0  0  0  0  0  0
   21.0462    8.3985    9.2274 O   0  0  0  0  0  0  0  0  0  0  0  0
   23.4550    7.5895   12.0325 C   0  0  0  0  0  0  0  0  0  0  0  0
   22.6876    7.3574   13.2102 N   0  0  0  0  0  0  0  0  0  0  0  0
   20.3134   13.3209   11.5619 C   0  0  0  0  0  0  0  0  0  0  0  0
   20.4297   13.4923   10.1962 O   0  0  0  0  0  0  0  0  0  0  0  0
   19.5115    8.3776    7.2318 C   0  0  1  0  0  0  0  0  0  0  0  0
   19.9929    7.1923    6.5801 O   0  0  0  0  0  0  0  0  0  0  0  0
  1  2  1  6  0  0  0
  1  6  1  0  0  0  0
  1 23  1  0  0  0  0
  3  4  1  6  0  0  0
  3  8  1  0  0  0  0
  3 30  1  0  0  0  0
  5  9  1  0  0  0  0
  5 21  1  0  0  0  0
  5 25  1  1  0  0  0
  6  7  1  6  0  0  0
  6 11  1  0  0  0  0
  8 13  1  0  0  0  0
  9 10  1  6  0  0  0
  9 15  1  0  0  0  0
 11 12  1  1  0  0  0
 11 17  1  0  0  0  0
 13 14  1  1  0  0  0
 13 19  1  0  0  0  0
 15 16  1  6  0  0  0
 15 20  1  0  0  0  0
 17 18  1  6  0  0  0
 17 22  1  0  0  0  0
 19  2  1  1  0  0  0
 19 24  1  0  0  0  0
 20 21  1  0  0  0  0
 20 26  1  1  0  0  0
 22 23  1  0  0  0  0
 22 28  1  1  0  0  0
 24 25  1  6  0  0  0
 24 30  1  0  0  0  0
 26 27  1  0  0  0  0
 28 29  1  0  0  0  0
 30 31  1  6  0  0  0
M  END
>  <CHROM.1>
174.39686175,149.77850149,-155.96168780,-175.30646066,-176.34139042,158.15006584
20.31713881,9.13304895,10.35836648,-2.18627902,0.67140676,-1.95719024

>  <Name>
2o3x_lig

>  <RI>
0

>  <Rbt.Current_Directory>
/home/itssahil/PROJECTS/Mol_Feturizer/New_Systems/rnas/2o3x

>  <Rbt.Executable>
rbdock ($Id: //depot/dev/client3/rdock/2013.1/src/exe/rbdock.cxx#4 $)

>  <Rbt.Library>
libRbt.so (2013.1, Build901 2013/11/27)

>  <Rbt.Parameter_File>
/export/apps/rDock/src/rDock_2013.1_src/data/scripts/dock_solv.prm

>  <Rbt.Receptor>
prm/pocket_docking_8.prm

>  <SCORE>
-13.1034

>  <SCORE.INTER>
-12.351

>  <SCORE.INTER.CONST>
1

>  <SCORE.INTER.POLAR>
-1.45247

>  <SCORE.INTER.ROT>
6

>  <SCORE.INTER.SOLV>
13.3671

>  <SCORE.INTER.VDW>
-15.4481

>  <SCORE.INTER.norm>
-0.39842

>  <SCORE.INTRA>
-0.753508

>  <SCORE.INTRA.DIHEDRAL>
-0.719404

>  <SCORE.INTRA.DIHEDRAL.0>
9.37739

>  <SCORE.INTRA.POLAR>
0

>  <SCORE.INTRA.POLAR.0>
0

>  <SCORE.INTRA.REPUL>
0

>  <SCORE.INTRA.REPUL.0>
0

>  <SCORE.INTRA.SOLV>
-0.60787

>  <SCORE.INTRA.SOLV.lig_0>
-82.9274

>  <SCORE.INTRA.VDW>
-0.0898712

>  <SCORE.INTRA.VDW.0>
-3.84922

>  <SCORE.INTRA.norm>
-0.0243067

>  <SCORE.RESTR>
0.00109674

>  <SCORE.RESTR.CAVITY>
0.00109674

>  <SCORE.RESTR.norm>
3.53788e-05

>  <SCORE.SYSTEM>
0

>  <SCORE.SYSTEM.CONST>
0

>  <SCORE.SYSTEM.DIHEDRAL>
0

>  <SCORE.SYSTEM.SOLV>
0

>  <SCORE.SYSTEM.norm>
0

>  <SCORE.heavy>
31

>  <SCORE.norm>
-0.422691

>  <RMSD>
7.158

$$$$
2o3x_lig
 OpenBabel11021811463D
libRbt.so/2013.1/901 2013/11/27
 31 33  0  0  0  0  0  0  0  0999 V2000
   20.3871    7.0328    9.6959 C   0  0  2  0  0  0  0  0  0  0  0  0
   20.3655    8.3224    9.0699 O   0  0  0  0  0  0  0  0  0  0  0  0
   16.2333    8.1698    7.9748 C   0  0  2  0  0  0  0  0  0  0  0  0
   14.9054    8.4757    7.3981 N   0  0  0  0  0  0  0  0  0  0  0  0
   19.8862    9.4377    5.8116 C   0  0  1  0  0  0  0  0  0  0  0  0
   21.5682    7.0007   10.7169 C   0  0  2  0  0  0  0  0  0  0  0  0
   21.5819    8.1989   11.5944 N   0  0  0  0  0  0  0  0  0  0  0  0
   16.6625    9.2199    9.0530 C   0  0  0  0  0  0  0  0  0  0  0  0
   21.0062    9.5758    4.7288 C   0  0  2  0  0  0  0  0  0  0  0  0
   22.3485    9.8268    5.2284 O   0  0  0  0  0  0  0  0  0  0  0  0
   22.9319    6.9157   10.0055 C   0  0  1  0  0  0  0  0  0  0  0  0
   23.9753    6.8367   10.9432 O   0  0  0  0  0  0  0  0  0  0  0  0
   18.0639    8.7932    9.6242 C   0  0  2  0  0  0  0  0  0  0  0  0
   18.5386    9.7387   10.6787 N   0  0  0  0  0  0  0  0  0  0  0  0
   20.3794   10.6888    3.9058 C   0  0  2  0  0  0  0  0  0  0  0  0
   20.5874   11.9971    4.5406 O   0  0  0  0  0  0  0  0  0  0  0  0
   22.9534    5.7097    9.0815 C   0  0  2  0  0  0  0  0  0  0  0  0
   24.1923    5.6176    8.4551 O   0  0  0  0  0  0  0  0  0  0  0  0
   19.1252    8.7485    8.4880 C   0  0  2  0  0  0  0  0  0  0  0  0
   18.8973   10.3368    3.8556 C   0  0  2  0  0  0  0  0  0  0  0  0
   18.6810    9.9110    5.1980 O   0  0  0  0  0  0  0  0  0  0  0  0
   21.8230    5.8340    8.0211 C   0  0  2  0  0  0  0  0  0  0  0  0
   20.5450    5.9442    8.6840 O   0  0  0  0  0  0  0  0  0  0  0  0
   18.7394    7.8066    7.3303 C   0  0  2  0  0  0  0  0  0  0  0  0
   19.7143    8.0859    6.2648 O   0  0  0  0  0  0  0  0  0  0  0  0
   18.5236    9.1971    2.8482 C   0  0  0  0  0  0  0  0  0  0  0  0
   19.0531    7.9533    3.2982 N   0  0  0  0  0  0  0  0  0  0  0  0
   21.7798    4.6518    7.0809 C   0  0  0  0  0  0  0  0  0  0  0  0
   21.0010    4.9142    5.9707 O   0  0  0  0  0  0  0  0  0  0  0  0
   17.2613    8.1238    6.8300 C   0  0  1  0  0  0  0  0  0  0  0  0
   16.7944    7.1271    5.9082 O   0  0  0  0  0  0  0  0  0  0  0  0
  1  2  1  6  0  0  0
  1  6  1  0  0  0  0
  1 23  1  0  0  0  0
  3  4  1  6  0  0  0
  3  8  1  0  0  0  0
  3 30  1  0  0  0  0
  5  9  1  0  0  0  0
  5 21  1  0  0  0  0
  5 25  1  6  0  0  0
  6  7  1  6  0  0  0
  6 11  1  0  0  0  0
  8 13  1  0  0  0  0
  9 10  1  1  0  0  0
  9 15  1  0  0  0  0
 11 12  1  1  0  0  0
 11 17  1  0  0  0  0
 13 14  1  1  0  0  0
 13 19  1  0  0  0  0
 15 16  1  1  0  0  0
 15 20  1  0  0  0  0
 17 18  1  6  0  0  0
 17 22  1  0  0  0  0
 19  2  1  1  0  0  0
 19 24  1  0  0  0  0
 20 21  1  0  0  0  0
 20 26  1  6  0  0  0
 22 23  1  0  0  0  0
 22 28  1  6  0  0  0
 24 25  1  6  0  0  0
 24 30  1  0  0  0  0
 26 27  1  0  0  0  0
 28 29  1  0  0  0  0
 30 31  1  6  0  0  0
M  END
>  <CHROM.1>
-157.71409256,177.15135251,60.22704768,68.30576120,-165.69371621,-53.98947977
19.99113165,8.05839302,7.34190848,0.93224115,-0.31843412,1.89922020

>  <Name>
2o3x_lig

>  <RI>
0

>  <Rbt.Current_Directory>
/home/itssahil/PROJECTS/Mol_Feturizer/New_Systems/rnas/2o3x

>  <Rbt.Executable>
rbdock ($Id: //depot/dev/client3/rdock/2013.1/src/exe/rbdock.cxx#4 $)

>  <Rbt.Library>
libRbt.so (2013.1, Build901 2013/11/27)

>  <Rbt.Parameter_File>
/export/apps/rDock/src/rDock_2013.1_src/data/scripts/dock_solv.prm

>  <Rbt.Receptor>
prm/pocket_docking_3.prm

>  <SCORE>
-9.33128

>  <SCORE.INTER>
-9.97585

>  <SCORE.INTER.CONST>
1

>  <SCORE.INTER.POLAR>
-1.0304

>  <SCORE.INTER.ROT>
6

>  <SCORE.INTER.SOLV>
13.4954

>  <SCORE.INTER.VDW>
-15.3144

>  <SCORE.INTER.norm>
-0.321801

>  <SCORE.INTRA>
0.395722

>  <SCORE.INTRA.DIHEDRAL>
-5.86487

>  <SCORE.INTRA.DIHEDRAL.0>
9.37739

>  <SCORE.INTRA.POLAR>
0

>  <SCORE.INTRA.POLAR.0>
0

>  <SCORE.INTRA.REPUL>
0

>  <SCORE.INTRA.REPUL.0>
0

>  <SCORE.INTRA.SOLV>
3.6367

>  <SCORE.INTRA.SOLV.lig_0>
-82.9274

>  <SCORE.INTRA.VDW>
1.5098

>  <SCORE.INTRA.VDW.0>
-3.84922

>  <SCORE.INTRA.norm>
0.0127652

>  <SCORE.RESTR>
0.248843

>  <SCORE.RESTR.CAVITY>
0.248843

>  <SCORE.RESTR.norm>
0.00802718

>  <SCORE.SYSTEM>
0

>  <SCORE.SYSTEM.CONST>
0

>  <SCORE.SYSTEM.DIHEDRAL>
0

>  <SCORE.SYSTEM.SOLV>
0

>  <SCORE.SYSTEM.norm>
0

>  <SCORE.heavy>
31

>  <SCORE.norm>
-0.301009

>  <RMSD>
7.167

$$$$
2o3x_lig
 OpenBabel11021811463D
libRbt.so/2013.1/901 2013/11/27
 31 33  0  0  0  0  0  0  0  0999 V2000
   22.1968    6.0006   11.9732 C   0  0  2  0  0  0  0  0  0  0  0  0
   21.9724    6.5099   10.6520 O   0  0  0  0  0  0  0  0  0  0  0  0
   23.9347    3.2931    8.6273 C   0  0  2  0  0  0  0  0  0  0  0  0
   24.4810    2.3932    7.5874 N   0  0  0  0  0  0  0  0  0  0  0  0
   23.6599    7.6009    7.7421 C   0  0  1  0  0  0  0  0  0  0  0  0
   20.9696    6.3785   12.8618 C   0  0  2  0  0  0  0  0  0  0  0  0
   19.6796    6.0527   12.2018 N   0  0  0  0  0  0  0  0  0  0  0  0
   22.3697    3.3020    8.6346 C   0  0  0  0  0  0  0  0  0  0  0  0
   22.8097    6.4995    7.0276 C   0  0  2  0  0  0  0  0  0  0  0  0
   23.5275    5.6444    6.0961 O   0  0  0  0  0  0  0  0  0  0  0  0
   20.9610    7.8790   13.2099 C   0  0  1  0  0  0  0  0  0  0  0  0
   19.8778    8.1859   14.0506 O   0  0  0  0  0  0  0  0  0  0  0  0
   21.8890    4.2581    9.7866 C   0  0  2  0  0  0  0  0  0  0  0  0
   20.3986    4.3079    9.8734 N   0  0  0  0  0  0  0  0  0  0  0  0
   21.7454    7.4010    6.4247 C   0  0  2  0  0  0  0  0  0  0  0  0
   22.2378    8.0592    5.2073 O   0  0  0  0  0  0  0  0  0  0  0  0
   22.2743    8.2588   13.8729 C   0  0  2  0  0  0  0  0  0  0  0  0
   22.2599    9.6088   14.2091 O   0  0  0  0  0  0  0  0  0  0  0  0
   22.4178    5.7021    9.5531 C   0  0  2  0  0  0  0  0  0  0  0  0
   21.4499    8.4236    7.5157 C   0  0  2  0  0  0  0  0  0  0  0  0
   22.7666    8.6936    7.9887 O   0  0  0  0  0  0  0  0  0  0  0  0
   23.4596    7.9567   12.9129 C   0  0  2  0  0  0  0  0  0  0  0  0
   23.4541    6.5567   12.5597 O   0  0  0  0  0  0  0  0  0  0  0  0
   23.9531    5.7775    9.4367 C   0  0  2  0  0  0  0  0  0  0  0  0
   24.2380    7.1448    8.9750 O   0  0  0  0  0  0  0  0  0  0  0  0
   20.5413    7.9021    8.6802 C   0  0  0  0  0  0  0  0  0  0  0  0
   19.2328    7.6212    8.1916 N   0  0  0  0  0  0  0  0  0  0  0  0
   24.7993    8.2962   13.5238 C   0  0  0  0  0  0  0  0  0  0  0  0
   24.9591    7.7011   14.7600 O   0  0  0  0  0  0  0  0  0  0  0  0
   24.4793    4.7110    8.3777 C   0  0  1  0  0  0  0  0  0  0  0  0
   25.9107    4.6047    8.4075 O   0  0  0  0  0  0  0  0  0  0  0  0
  1  2  1  6  0  0  0
  1  6  1  0  0  0  0
  1 23  1  0  0  0  0
  3  4  1  6  0  0  0
  3  8  1  0  0  0  0
  3 30  1  0  0  0  0
  5  9  1  0  0  0  0
  5 21  1  0  0  0  0
  5 25  1  1  0  0  0
  6  7  1  6  0  0  0
  6 11  1  0  0  0  0
  8 13  1  0  0  0  0
  9 10  1  6  0  0  0
  9 15  1  0  0  0  0
 11 12  1  1  0  0  0
 11 17  1  0  0  0  0
 13 14  1  6  0  0  0
 13 19  1  0  0  0  0
 15 16  1  6  0  0  0
 15 20  1  0  0  0  0
 17 18  1  6  0  0  0
 17 22  1  0  0  0  0
 19  2  1  1  0  0  0
 19 24  1  0  0  0  0
 20 21  1  0  0  0  0
 20 26  1  1  0  0  0
 22 23  1  0  0  0  0
 22 28  1  1  0  0  0
 24 25  1  6  0  0  0
 24 30  1  0  0  0  0
 26 27  1  0  0  0  0
 28 29  1  0  0  0  0
 30 31  1  1  0  0  0
M  END
>  <CHROM.1>
-142.75646580,-1.81545835,49.27940365,-66.15756809,52.64178631,-57.88794932
22.57012100,6.57576275,10.04399799,-1.74782706,0.75616542,-1.77958344

>  <Name>
2o3x_lig

>  <RI>
0

>  <Rbt.Current_Directory>
/home/itssahil/PROJECTS/Mol_Feturizer/New_Systems/rnas/2o3x

>  <Rbt.Executable>
rbdock ($Id: //depot/dev/client3/rdock/2013.1/src/exe/rbdock.cxx#4 $)

>  <Rbt.Library>
libRbt.so (2013.1, Build901 2013/11/27)

>  <Rbt.Parameter_File>
/export/apps/rDock/src/rDock_2013.1_src/data/scripts/dock_solv.prm

>  <Rbt.Receptor>
prm/blind_docking_40.prm

>  <SCORE>
14.0284

>  <SCORE.INTER>
-5.45093

>  <SCORE.INTER.CONST>
1

>  <SCORE.INTER.POLAR>
-0.575661

>  <SCORE.INTER.ROT>
6

>  <SCORE.INTER.SOLV>
13.1688

>  <SCORE.INTER.VDW>
-13.7047

>  <SCORE.INTER.norm>
-0.175836

>  <SCORE.INTRA>
11.5277

>  <SCORE.INTRA.DIHEDRAL>
3.79702

>  <SCORE.INTRA.DIHEDRAL.0>
9.37739

>  <SCORE.INTRA.POLAR>
0

>  <SCORE.INTRA.POLAR.0>
0

>  <SCORE.INTRA.REPUL>
0

>  <SCORE.INTRA.REPUL.0>
0

>  <SCORE.INTRA.SOLV>
5.05238

>  <SCORE.INTRA.SOLV.lig_0>
-82.9274

>  <SCORE.INTRA.VDW>
7.10302

>  <SCORE.INTRA.VDW.0>
-3.84922

>  <SCORE.INTRA.norm>
0.371862

>  <SCORE.RESTR>
7.9516

>  <SCORE.RESTR.CAVITY>
7.9516

>  <SCORE.RESTR.norm>
0.256503

>  <SCORE.SYSTEM>
0

>  <SCORE.SYSTEM.CONST>
0

>  <SCORE.SYSTEM.DIHEDRAL>
0

>  <SCORE.SYSTEM.SOLV>
0

>  <SCORE.SYSTEM.norm>
0

>  <SCORE.heavy>
31

>  <SCORE.norm>
0.452529

>  <RMSD>
7.189

$$$$
2o3x_lig
 OpenBabel11021811463D
libRbt.so/2013.1/901 2013/11/27
 31 33  0  0  0  0  0  0  0  0999 V2000
   23.5803    7.5344   10.5281 C   0  0  2  0  0  0  0  0  0  0  0  0
   24.2020    6.3522   10.0071 O   0  0  0  0  0  0  0  0  0  0  0  0
   22.6228    6.7765    6.0544 C   0  0  2  0  0  0  0  0  0  0  0  0
   22.2693    6.5514    4.6353 N   0  0  0  0  0  0  0  0  0  0  0  0
   21.0965    3.6314    8.8201 C   0  0  1  0  0  0  0  0  0  0  0  0
   24.5632    8.2020   11.5414 C   0  0  2  0  0  0  0  0  0  0  0  0
   25.9368    8.3251   10.9901 N   0  0  0  0  0  0  0  0  0  0  0  0
   24.1608    6.9900    6.2509 C   0  0  0  0  0  0  0  0  0  0  0  0
   20.8567    2.4869    9.8587 C   0  0  2  0  0  0  0  0  0  0  0  0
   21.4677    1.2048    9.5471 O   0  0  0  0  0  0  0  0  0  0  0  0
   24.6478    7.4072   12.8582 C   0  0  1  0  0  0  0  0  0  0  0  0
   25.4974    8.0529   13.7723 O   0  0  0  0  0  0  0  0  0  0  0  0
   24.4298    7.2498    7.7781 C   0  0  2  0  0  0  0  0  0  0  0  0
   25.8802    7.4834    8.0486 N   0  0  0  0  0  0  0  0  0  0  0  0
   19.3375    2.5186    9.8729 C   0  0  2  0  0  0  0  0  0  0  0  0
   18.7833    1.8164    8.7078 O   0  0  0  0  0  0  0  0  0  0  0  0
   23.2571    7.2427   13.4478 C   0  0  2  0  0  0  0  0  0  0  0  0
   23.3336    6.5450   14.6491 O   0  0  0  0  0  0  0  0  0  0  0  0
   23.9588    6.0360    8.6290 C   0  0  2  0  0  0  0  0  0  0  0  0
   18.9872    4.0014    9.8332 C   0  0  2  0  0  0  0  0  0  0  0  0
   19.9382    4.4725    8.8823 O   0  0  0  0  0  0  0  0  0  0  0  0
   22.3419    6.4860   12.4441 C   0  0  2  0  0  0  0  0  0  0  0  0
   22.2834    7.2120   11.1974 O   0  0  0  0  0  0  0  0  0  0  0  0
   22.4702    5.6905    8.4262 C   0  0  2  0  0  0  0  0  0  0  0  0
   22.2800    4.3958    9.0980 O   0  0  0  0  0  0  0  0  0  0  0  0
   19.1508    4.7548   11.1967 C   0  0  0  0  0  0  0  0  0  0  0  0
   17.9863    4.5751   11.9977 N   0  0  0  0  0  0  0  0  0  0  0  0
   20.9352    6.3071   12.9661 C   0  0  0  0  0  0  0  0  0  0  0  0
   20.2707    7.5144   13.0590 O   0  0  0  0  0  0  0  0  0  0  0  0
   22.1391    5.5663    6.8735 C   0  0  1  0  0  0  0  0  0  0  0  0
   20.7254    5.4636    6.6454 O   0  0  0  0  0  0  0  0  0  0  0  0
  1  2  1  1  0  0  0
  1  6  1  0  0  0  0
  1 23  1  0  0  0  0
  3  4  1  6  0  0  0
  3  8  1  0  0  0  0
  3 30  1  0  0  0  0
  5  9  1  0  0  0  0
  5 21  1  0  0  0  0
  5 25  1  1  0  0  0
  6  7  1  6  0  0  0
  6 11  1  0  0  0  0
  8 13  1  0  0  0  0
  9 10  1  6  0  0  0
  9 15  1  0  0  0  0
 11 12  1  1  0  0  0
 11 17  1  0  0  0  0
 13 14  1  6  0  0  0
 13 19  1  0  0  0  0
 15 16  1  6  0  0  0
 15 20  1  0  0  0  0
 17 18  1  1  0  0  0
 17 22  1  0  0  0  0
 19  2  1  1  0  0  0
 19 24  1  0  0  0  0
 20 21  1  0  0  0  0
 20 26  1  1  0  0  0
 22 23  1  0  0  0  0
 22 28  1  1  0  0  0
 24 25  1  1  0  0  0
 24 30  1  0  0  0  0
 26 27  1  0  0  0  0
 28 29  1  0  0  0  0
 30 31  1  1  0  0  0
M  END
>  <CHROM.1>
-143.68482901,-165.20491369,57.81772099,-83.65298013,67.68059108,-164.67059810
22.21533824,5.74802535,9.98801681,-0.65796168,-0.67720882,-1.74676726

>  <Name>
2o3x_lig

>  <RI>
0

>  <Rbt.Current_Directory>
/home/itssahil/PROJECTS/Mol_Feturizer/New_Systems/rnas/2o3x

>  <Rbt.Executable>
rbdock ($Id: //depot/dev/client3/rdock/2013.1/src/exe/rbdock.cxx#4 $)

>  <Rbt.Library>
libRbt.so (2013.1, Build901 2013/11/27)

>  <Rbt.Parameter_File>
/export/apps/rDock/src/rDock_2013.1_src/data/scripts/dock_solv.prm

>  <Rbt.Receptor>
prm/blind_docking_60.prm

>  <SCORE>
43.6504

>  <SCORE.INTER>
26.3545

>  <SCORE.INTER.CONST>
1

>  <SCORE.INTER.POLAR>
-0.67479

>  <SCORE.INTER.ROT>
6

>  <SCORE.INTER.SOLV>
26.686

>  <SCORE.INTER.VDW>
3.32363

>  <SCORE.INTER.norm>
0.850144

>  <SCORE.INTRA>
3.33676

>  <SCORE.INTRA.DIHEDRAL>
-0.330956

>  <SCORE.INTRA.DIHEDRAL.0>
9.37739

>  <SCORE.INTRA.POLAR>
0

>  <SCORE.INTRA.POLAR.0>
0

>  <SCORE.INTRA.REPUL>
0

>  <SCORE.INTRA.REPUL.0>
0

>  <SCORE.INTRA.SOLV>
1.56707

>  <SCORE.INTRA.SOLV.lig_0>
-82.9274

>  <SCORE.INTRA.VDW>
2.7187

>  <SCORE.INTRA.VDW.0>
-3.84922

>  <SCORE.INTRA.norm>
0.107637

>  <SCORE.RESTR>
13.9592

>  <SCORE.RESTR.CAVITY>
13.9592

>  <SCORE.RESTR.norm>
0.450296

>  <SCORE.SYSTEM>
0

>  <SCORE.SYSTEM.CONST>
0

>  <SCORE.SYSTEM.DIHEDRAL>
0

>  <SCORE.SYSTEM.SOLV>
0

>  <SCORE.SYSTEM.norm>
0

>  <SCORE.heavy>
31

>  <SCORE.norm>
1.40808

>  <RMSD>
7.202

$$$$
2o3x_lig
 OpenBabel11021811463D
libRbt.so/2013.1/901 2013/11/27
 31 33  0  0  0  0  0  0  0  0999 V2000
   23.3184    5.6843    7.8767 C   0  0  2  0  0  0  0  0  0  0  0  0
   23.1964    6.5006    9.0490 O   0  0  0  0  0  0  0  0  0  0  0  0
   20.3617    5.5554   12.1098 C   0  0  2  0  0  0  0  0  0  0  0  0
   19.7081    5.0082   13.3193 N   0  0  0  0  0  0  0  0  0  0  0  0
   23.9095    8.1817   12.9186 C   0  0  1  0  0  0  0  0  0  0  0  0
   24.3606    4.5582    8.1670 C   0  0  2  0  0  0  0  0  0  0  0  0
   24.1040    3.8790    9.4626 N   0  0  0  0  0  0  0  0  0  0  0  0
   20.7168    4.4359   11.0754 C   0  0  0  0  0  0  0  0  0  0  0  0
   24.4636    7.3879   14.1470 C   0  0  2  0  0  0  0  0  0  0  0  0
   23.4693    6.7526   14.9968 O   0  0  0  0  0  0  0  0  0  0  0  0
   25.7990    5.1089    8.1945 C   0  0  1  0  0  0  0  0  0  0  0  0
   26.7222    4.0711    8.4064 O   0  0  0  0  0  0  0  0  0  0  0  0
   21.3752    5.1171    9.8205 C   0  0  2  0  0  0  0  0  0  0  0  0
   21.7284    4.1131    8.7724 N   0  0  0  0  0  0  0  0  0  0  0  0
   25.2722    8.5058   14.7837 C   0  0  2  0  0  0  0  0  0  0  0  0
   24.4065    9.4189   15.5416 O   0  0  0  0  0  0  0  0  0  0  0  0
   26.0969    5.8291    6.8902 C   0  0  2  0  0  0  0  0  0  0  0  0
   27.4033    6.3075    6.9034 O   0  0  0  0  0  0  0  0  0  0  0  0
   22.6682    5.8789   10.2292 C   0  0  2  0  0  0  0  0  0  0  0  0
   25.9232    9.2228   13.6068 C   0  0  2  0  0  0  0  0  0  0  0  0
   24.8423    9.2425   12.6785 O   0  0  0  0  0  0  0  0  0  0  0  0
   25.0967    7.0031    6.6925 C   0  0  2  0  0  0  0  0  0  0  0  0
   23.7450    6.4956    6.6960 O   0  0  0  0  0  0  0  0  0  0  0  0
   22.4301    6.9427   11.3192 C   0  0  2  0  0  0  0  0  0  0  0  0
   23.7730    7.3659   11.7448 O   0  0  0  0  0  0  0  0  0  0  0  0
   27.1645    8.4910   12.9929 C   0  0  0  0  0  0  0  0  0  0  0  0
   26.9240    8.1855   11.6222 N   0  0  0  0  0  0  0  0  0  0  0  0
   25.3297    7.7495    5.3994 C   0  0  0  0  0  0  0  0  0  0  0  0
   24.2128    8.4679    5.0195 O   0  0  0  0  0  0  0  0  0  0  0  0
   21.6317    6.3098   12.5430 C   0  0  1  0  0  0  0  0  0  0  0  0
   21.2049    7.3200   13.4694 O   0  0  0  0  0  0  0  0  0  0  0  0
  1  2  1  1  0  0  0
  1  6  1  0  0  0  0
  1 23  1  0  0  0  0
  3  4  1  1  0  0  0
  3  8  1  0  0  0  0
  3 30  1  0  0  0  0
  5  9  1  0  0  0  0
  5 21  1  0  0  0  0
  5 25  1  6  0  0  0
  6  7  1  1  0  0  0
  6 11  1  0  0  0  0
  8 13  1  0  0  0  0
  9 10  1  1  0  0  0
  9 15  1  0  0  0  0
 11 12  1  6  0  0  0
 11 17  1  0  0  0  0
 13 14  1  6  0  0  0
 13 19  1  0  0  0  0
 15 16  1  6  0  0  0
 15 20  1  0  0  0  0
 17 18  1  1  0  0  0
 17 22  1  0  0  0  0
 19  2  1  6  0  0  0
 19 24  1  0  0  0  0
 20 21  1  0  0  0  0
 20 26  1  6  0  0  0
 22 23  1  0  0  0  0
 22 28  1  6  0  0  0
 24 25  1  1  0  0  0
 24 30  1  0  0  0  0
 26 27  1  0  0  0  0
 28 29  1  0  0  0  0
 30 31  1  1  0  0  0
M  END
>  <CHROM.1>
-64.45593054,105.56636278,-48.55545782,119.95016680,159.95167041,-169.08716834
23.93688585,6.64503947,10.52267196,1.34169796,-0.50317783,-1.90227352

>  <Name>
2o3x_lig

>  <RI>
0

>  <Rbt.Current_Directory>
/home/itssahil/PROJECTS/Mol_Feturizer/New_Systems/rnas/2o3x

>  <Rbt.Executable>
rbdock ($Id: //depot/dev/client3/rdock/2013.1/src/exe/rbdock.cxx#4 $)

>  <Rbt.Library>
libRbt.so (2013.1, Build901 2013/11/27)

>  <Rbt.Parameter_File>
/export/apps/rDock/src/rDock_2013.1_src/data/scripts/dock_solv.prm

>  <Rbt.Receptor>
prm/blind_docking_60.prm

>  <SCORE>
14.8485

>  <SCORE.INTER>
-8.80992

>  <SCORE.INTER.CONST>
1

>  <SCORE.INTER.POLAR>
-1.54196

>  <SCORE.INTER.ROT>
6

>  <SCORE.INTER.SOLV>
31.3619

>  <SCORE.INTER.VDW>
-18.7874

>  <SCORE.INTER.norm>
-0.284191

>  <SCORE.INTRA>
14.948

>  <SCORE.INTRA.DIHEDRAL>
4.66608

>  <SCORE.INTRA.DIHEDRAL.0>
9.37739

>  <SCORE.INTRA.POLAR>
0

>  <SCORE.INTRA.POLAR.0>
0

>  <SCORE.INTRA.REPUL>
0

>  <SCORE.INTRA.REPUL.0>
0

>  <SCORE.INTRA.SOLV>
6.70883

>  <SCORE.INTRA.SOLV.lig_0>
-82.9274

>  <SCORE.INTRA.VDW>
9.26053

>  <SCORE.INTRA.VDW.0>
-3.84922

>  <SCORE.INTRA.norm>
0.482193

>  <SCORE.RESTR>
8.71042

>  <SCORE.RESTR.CAVITY>
8.71042

>  <SCORE.RESTR.norm>
0.280981

>  <SCORE.SYSTEM>
0

>  <SCORE.SYSTEM.CONST>
0

>  <SCORE.SYSTEM.DIHEDRAL>
0

>  <SCORE.SYSTEM.SOLV>
0

>  <SCORE.SYSTEM.norm>
0

>  <SCORE.heavy>
31

>  <SCORE.norm>
0.478983

>  <RMSD>
7.203

$$$$
2o3x_lig
 OpenBabel11021811463D
libRbt.so/2013.1/901 2013/11/27
 31 33  0  0  0  0  0  0  0  0999 V2000
   19.7064    8.7283    8.7074 C   0  0  2  0  0  0  0  0  0  0  0  0
   18.8656    7.7669    8.0561 O   0  0  0  0  0  0  0  0  0  0  0  0
   14.6550    7.1956    7.5641 C   0  0  2  0  0  0  0  0  0  0  0  0
   13.1903    7.1816    7.7739 N   0  0  0  0  0  0  0  0  0  0  0  0
   16.5452   10.7259    9.0817 C   0  0  1  0  0  0  0  0  0  0  0  0
   21.1445    8.6094    8.1106 C   0  0  2  0  0  0  0  0  0  0  0  0
   21.1340    8.5889    6.6256 N   0  0  0  0  0  0  0  0  0  0  0  0
   15.4030    6.2638    8.5748 C   0  0  0  0  0  0  0  0  0  0  0  0
   16.7519    9.9177   10.4047 C   0  0  2  0  0  0  0  0  0  0  0  0
   15.7518    8.9028   10.6947 O   0  0  0  0  0  0  0  0  0  0  0  0
   21.8587    7.3351    8.5995 C   0  0  1  0  0  0  0  0  0  0  0  0
   23.1672    7.2751    8.0911 O   0  0  0  0  0  0  0  0  0  0  0  0
   16.9409    6.3236    8.2529 C   0  0  2  0  0  0  0  0  0  0  0  0
   17.7282    5.4418    9.1661 N   0  0  0  0  0  0  0  0  0  0  0  0
   16.8155   11.0897   11.3697 C   0  0  2  0  0  0  0  0  0  0  0  0
   15.4707   11.5925   11.6802 O   0  0  0  0  0  0  0  0  0  0  0  0
   21.8755    7.3080   10.1186 C   0  0  2  0  0  0  0  0  0  0  0  0
   22.5404    6.1693   10.5626 O   0  0  0  0  0  0  0  0  0  0  0  0
   17.4714    7.7789    8.3943 C   0  0  2  0  0  0  0  0  0  0  0  0
   17.6354   12.1438   10.6351 C   0  0  2  0  0  0  0  0  0  0  0  0
   17.1013   12.0248    9.3194 O   0  0  0  0  0  0  0  0  0  0  0  0
   20.4200    7.3279   10.6653 C   0  0  2  0  0  0  0  0  0  0  0  0
   19.7368    8.5058   10.1850 O   0  0  0  0  0  0  0  0  0  0  0  0
   16.7248    8.7892    7.5008 C   0  0  2  0  0  0  0  0  0  0  0  0
   17.1825   10.1130    7.9501 O   0  0  0  0  0  0  0  0  0  0  0  0
   19.1811   11.8906   10.6280 C   0  0  0  0  0  0  0  0  0  0  0  0
   19.8447   12.9346    9.9212 N   0  0  0  0  0  0  0  0  0  0  0  0
   20.3696    7.3215   12.1755 C   0  0  0  0  0  0  0  0  0  0  0  0
   19.0688    7.3116   12.6401 O   0  0  0  0  0  0  0  0  0  0  0  0
   15.1516    8.6461    7.7013 C   0  0  1  0  0  0  0  0  0  0  0  0
   14.4269    9.4145    6.7289 O   0  0  0  0  0  0  0  0  0  0  0  0
  1  2  1  6  0  0  0
  1  6  1  0  0  0  0
  1 23  1  0  0  0  0
  3  4  1  1  0  0  0
  3  8  1  0  0  0  0
  3 30  1  0  0  0  0
  5  9  1  0  0  0  0
  5 21  1  0  0  0  0
  5 25  1  6  0  0  0
  6  7  1  6  0  0  0
  6 11  1  0  0  0  0
  8 13  1  0  0  0  0
  9 10  1  1  0  0  0
  9 15  1  0  0  0  0
 11 12  1  6  0  0  0
 11 17  1  0  0  0  0
 13 14  1  1  0  0  0
 13 19  1  0  0  0  0
 15 16  1  6  0  0  0
 15 20  1  0  0  0  0
 17 18  1  6  0  0  0
 17 22  1  0  0  0  0
 19  2  1  6  0  0  0
 19 24  1  0  0  0  0
 20 21  1  0  0  0  0
 20 26  1  6  0  0  0
 22 23  1  0  0  0  0
 22 28  1  1  0  0  0
 24 25  1  1  0  0  0
 24 30  1  0  0  0  0
 26 27  1  0  0  0  0
 28 29  1  0  0  0  0
 30 31  1  6  0  0  0
M  END
>  <CHROM.1>
-175.60340590,63.92198652,-149.51409494,-179.81428034,-178.75646744,-83.89462476
18.19760465,8.73831082,9.30688051,-0.20578024,-0.24180743,0.44593761

>  <Name>
2o3x_lig

>  <RI>
2.78316e+07

>  <Rbt.Current_Directory>
/home/itssahil/PROJECTS/Mol_Feturizer/New_Systems/rnas/2o3x

>  <Rbt.Executable>
rbdock ($Id: //depot/dev/client3/rdock/2013.1/src/exe/rbdock.cxx#4 $)

>  <Rbt.Library>
libRbt.so (2013.1, Build901 2013/11/27)

>  <Rbt.Parameter_File>
/export/apps/rDock/src/rDock_2013.1_src/data/scripts/dock_solv.prm

>  <Rbt.Receptor>
prm/pocket_docking_7.prm

>  <SCORE>
-6.8729

>  <SCORE.INTER>
-4.72438

>  <SCORE.INTER.CONST>
1

>  <SCORE.INTER.POLAR>
-0.959166

>  <SCORE.INTER.ROT>
6

>  <SCORE.INTER.SOLV>
15.7591

>  <SCORE.INTER.VDW>
-12.8054

>  <SCORE.INTER.norm>
-0.152399

>  <SCORE.INTRA>
-2.14852

>  <SCORE.INTRA.DIHEDRAL>
-2.90468

>  <SCORE.INTRA.DIHEDRAL.0>
9.37739

>  <SCORE.INTRA.POLAR>
0

>  <SCORE.INTRA.POLAR.0>
0

>  <SCORE.INTRA.REPUL>
0

>  <SCORE.INTRA.REPUL.0>
0

>  <SCORE.INTRA.SOLV>
-0.519607

>  <SCORE.INTRA.SOLV.lig_0>
-82.9274

>  <SCORE.INTRA.VDW>
-0.436382

>  <SCORE.INTRA.VDW.0>
-3.84922

>  <SCORE.INTRA.norm>
-0.0693072

>  <SCORE.RESTR>
0

>  <SCORE.RESTR.CAVITY>
0

>  <SCORE.RESTR.norm>
0

>  <SCORE.SYSTEM>
0

>  <SCORE.SYSTEM.CONST>
0

>  <SCORE.SYSTEM.DIHEDRAL>
0

>  <SCORE.SYSTEM.SOLV>
0

>  <SCORE.SYSTEM.norm>
0

>  <SCORE.heavy>
31

>  <SCORE.norm>
-0.221707

>  <RMSD>
7.209

$$$$
2o3x_lig
 OpenBabel11021811463D
libRbt.so/2013.1/901 2013/11/27
 31 33  0  0  0  0  0  0  0  0999 V2000
   18.9736    4.9709    8.8063 C   0  0  2  0  0  0  0  0  0  0  0  0
   18.3316    6.0375    8.0952 O   0  0  0  0  0  0  0  0  0  0  0  0
   18.1973   10.2040    9.0548 C   0  0  2  0  0  0  0  0  0  0  0  0
   17.9635   11.4972    9.7347 N   0  0  0  0  0  0  0  0  0  0  0  0
   20.8851    7.3366   11.2576 C   0  0  1  0  0  0  0  0  0  0  0  0
   19.1767    3.7753    7.8225 C   0  0  2  0  0  0  0  0  0  0  0  0
   19.7724    4.2073    6.5325 N   0  0  0  0  0  0  0  0  0  0  0  0
   16.8591    9.5103    8.6337 C   0  0  0  0  0  0  0  0  0  0  0  0
   21.4581    6.1549   12.1069 C   0  0  2  0  0  0  0  0  0  0  0  0
   20.8511    5.9555   13.4131 O   0  0  0  0  0  0  0  0  0  0  0  0
   17.8476    3.0589    7.5173 C   0  0  1  0  0  0  0  0  0  0  0  0
   18.0619    1.9573    6.6718 O   0  0  0  0  0  0  0  0  0  0  0  0
   17.2124    8.1669    7.8968 C   0  0  2  0  0  0  0  0  0  0  0  0
   15.9834    7.4492    7.4434 N   0  0  0  0  0  0  0  0  0  0  0  0
   22.9194    6.5717   12.1045 C   0  0  2  0  0  0  0  0  0  0  0  0
   23.1682    7.6321   13.0900 O   0  0  0  0  0  0  0  0  0  0  0  0
   17.1947    2.6151    8.8156 C   0  0  2  0  0  0  0  0  0  0  0  0
   16.0053    1.9475    8.5412 O   0  0  0  0  0  0  0  0  0  0  0  0
   18.0154    7.2238    8.8376 C   0  0  2  0  0  0  0  0  0  0  0  0
   23.1695    7.0746   10.6876 C   0  0  2  0  0  0  0  0  0  0  0  0
   21.9718    7.8099   10.4526 O   0  0  0  0  0  0  0  0  0  0  0  0
   16.9216    3.8496    9.7206 C   0  0  2  0  0  0  0  0  0  0  0  0
   18.1608    4.5419    9.9850 O   0  0  0  0  0  0  0  0  0  0  0  0
   19.3093    7.8619    9.3805 C   0  0  2  0  0  0  0  0  0  0  0  0
   19.7857    6.9401   10.4232 O   0  0  0  0  0  0  0  0  0  0  0  0
   23.3477    5.9513    9.6106 C   0  0  0  0  0  0  0  0  0  0  0  0
   23.6095    6.5324    8.3363 N   0  0  0  0  0  0  0  0  0  0  0  0
   16.2883    3.4709   11.0393 C   0  0  0  0  0  0  0  0  0  0  0  0
   15.9870    4.5860   11.7967 O   0  0  0  0  0  0  0  0  0  0  0  0
   18.9992    9.2944   10.0030 C   0  0  1  0  0  0  0  0  0  0  0  0
   20.2080   10.0031   10.3159 O   0  0  0  0  0  0  0  0  0  0  0  0
  1  2  1  6  0  0  0
  1  6  1  0  0  0  0
  1 23  1  0  0  0  0
  3  4  1  1  0  0  0
  3  8  1  0  0  0  0
  3 30  1  0  0  0  0
  5  9  1  0  0  0  0
  5 21  1  0  0  0  0
  5 25  1  6  0  0  0
  6  7  1  6  0  0  0
  6 11  1  0  0  0  0
  8 13  1  0  0  0  0
  9 10  1  1  0  0  0
  9 15  1  0  0  0  0
 11 12  1  6  0  0  0
 11 17  1  0  0  0  0
 13 14  1  1  0  0  0
 13 19  1  0  0  0  0
 15 16  1  1  0  0  0
 15 20  1  0  0  0  0
 17 18  1  6  0  0  0
 17 22  1  0  0  0  0
 19  2  1  6  0  0  0
 19 24  1  0  0  0  0
 20 21  1  0  0  0  0
 20 26  1  6  0  0  0
 22 23  1  0  0  0  0
 22 28  1  1  0  0  0
 24 25  1  1  0  0  0
 24 30  1  0  0  0  0
 26 27  1  0  0  0  0
 28 29  1  0  0  0  0
 30 31  1  6  0  0  0
M  END
>  <CHROM.1>
178.11619616,-168.26023881,-174.66211160,-178.48840661,-176.69541808,-171.62608758
19.24469868,6.23944080,9.64835815,-2.37090794,-0.44920355,0.08554239

>  <Name>
2o3x_lig

>  <RI>
3.34184e+07

>  <Rbt.Current_Directory>
/home/itssahil/PROJECTS/Mol_Feturizer/New_Systems/rnas/2o3x

>  <Rbt.Executable>
rbdock ($Id: //depot/dev/client3/rdock/2013.1/src/exe/rbdock.cxx#4 $)

>  <Rbt.Library>
libRbt.so (2013.1, Build901 2013/11/27)

>  <Rbt.Parameter_File>
/export/apps/rDock/src/rDock_2013.1_src/data/scripts/dock_solv.prm

>  <Rbt.Receptor>
prm/pocket_docking_6.prm

>  <SCORE>
-9.85124

>  <SCORE.INTER>
-6.22063

>  <SCORE.INTER.CONST>
1

>  <SCORE.INTER.POLAR>
-0.962027

>  <SCORE.INTER.ROT>
6

>  <SCORE.INTER.SOLV>
6.85886

>  <SCORE.INTER.VDW>
-10.8266

>  <SCORE.INTER.norm>
-0.200665

>  <SCORE.INTRA>
-3.63061

>  <SCORE.INTRA.DIHEDRAL>
-7.99334

>  <SCORE.INTRA.DIHEDRAL.0>
9.37739

>  <SCORE.INTRA.POLAR>
0

>  <SCORE.INTRA.POLAR.0>
0

>  <SCORE.INTRA.REPUL>
0

>  <SCORE.INTRA.REPUL.0>
0

>  <SCORE.INTRA.SOLV>
-3.09501

>  <SCORE.INTRA.SOLV.lig_0>
-82.9274

>  <SCORE.INTRA.VDW>
1.91357

>  <SCORE.INTRA.VDW.0>
-3.84922

>  <SCORE.INTRA.norm>
-0.117117

>  <SCORE.RESTR>
0

>  <SCORE.RESTR.CAVITY>
0

>  <SCORE.RESTR.norm>
0

>  <SCORE.SYSTEM>
0

>  <SCORE.SYSTEM.CONST>
0

>  <SCORE.SYSTEM.DIHEDRAL>
0

>  <SCORE.SYSTEM.SOLV>
0

>  <SCORE.SYSTEM.norm>
0

>  <SCORE.heavy>
31

>  <SCORE.norm>
-0.317782

>  <RMSD>
7.217

$$$$
2o3x_lig
 OpenBabel11021811463D
libRbt.so/2013.1/901 2013/11/27
 31 33  0  0  0  0  0  0  0  0999 V2000
   21.2300    5.5323   11.9159 C   0  0  2  0  0  0  0  0  0  0  0  0
   20.9549    5.9256   10.5650 O   0  0  0  0  0  0  0  0  0  0  0  0
   24.0226    3.5458    8.7694 C   0  0  2  0  0  0  0  0  0  0  0  0
   24.8856    2.8418    7.7953 N   0  0  0  0  0  0  0  0  0  0  0  0
   22.0894    7.3469    7.5868 C   0  0  1  0  0  0  0  0  0  0  0  0
   20.1774    6.2091   12.8500 C   0  0  2  0  0  0  0  0  0  0  0  0
   18.7908    6.0392   12.3458 N   0  0  0  0  0  0  0  0  0  0  0  0
   22.5713    2.9607    8.8002 C   0  0  0  0  0  0  0  0  0  0  0  0
   22.1627    8.7763    6.9562 C   0  0  2  0  0  0  0  0  0  0  0  0
   21.1382    9.7153    7.3841 O   0  0  0  0  0  0  0  0  0  0  0  0
   20.4452    7.7178   13.0081 C   0  0  1  0  0  0  0  0  0  0  0  0
   19.5177    8.2952   13.8916 O   0  0  0  0  0  0  0  0  0  0  0  0
   21.7458    3.7502    9.8807 C   0  0  2  0  0  0  0  0  0  0  0  0
   20.3468    3.2373    9.9862 N   0  0  0  0  0  0  0  0  0  0  0  0
   22.1302    8.3718    5.4919 C   0  0  2  0  0  0  0  0  0  0  0  0
   20.7614    8.0600    5.0598 O   0  0  0  0  0  0  0  0  0  0  0  0
   21.8637    7.9370   13.5065 C   0  0  2  0  0  0  0  0  0  0  0  0
   22.1005    9.2979   13.6721 O   0  0  0  0  0  0  0  0  0  0  0  0
   21.6907    5.2637    9.5263 C   0  0  2  0  0  0  0  0  0  0  0  0
   23.0198    7.1363    5.4183 C   0  0  2  0  0  0  0  0  0  0  0  0
   22.6195    6.4514    6.6019 O   0  0  0  0  0  0  0  0  0  0  0  0
   22.8799    7.3338   12.4960 C   0  0  2  0  0  0  0  0  0  0  0  0
   22.6138    5.9253   12.3215 O   0  0  0  0  0  0  0  0  0  0  0  0
   23.0841    5.9066    9.3807 C   0  0  2  0  0  0  0  0  0  0  0  0
   22.8361    7.2389    8.8086 O   0  0  0  0  0  0  0  0  0  0  0  0
   24.5584    7.4286    5.4436 C   0  0  0  0  0  0  0  0  0  0  0  0
   24.9302    7.9850    6.7014 N   0  0  0  0  0  0  0  0  0  0  0  0
   24.3124    7.5033   12.9458 C   0  0  0  0  0  0  0  0  0  0  0  0
   24.6665    8.8362   13.0215 O   0  0  0  0  0  0  0  0  0  0  0  0
   23.9922    5.0400    8.4008 C   0  0  1  0  0  0  0  0  0  0  0  0
   25.3562    5.4875    8.4168 O   0  0  0  0  0  0  0  0  0  0  0  0
  1  2  1  6  0  0  0
  1  6  1  0  0  0  0
  1 23  1  0  0  0  0
  3  4  1  6  0  0  0
  3  8  1  0  0  0  0
  3 30  1  0  0  0  0
  5  9  1  0  0  0  0
  5 21  1  0  0  0  0
  5 25  1  1  0  0  0
  6  7  1  6  0  0  0
  6 11  1  0  0  0  0
  8 13  1  0  0  0  0
  9 10  1  1  0  0  0
  9 15  1  0  0  0  0
 11 12  1  1  0  0  0
 11 17  1  0  0  0  0
 13 14  1  6  0  0  0
 13 19  1  0  0  0  0
 15 16  1  1  0  0  0
 15 20  1  0  0  0  0
 17 18  1  6  0  0  0
 17 22  1  0  0  0  0
 19  2  1  1  0  0  0
 19 24  1  0  0  0  0
 20 21  1  0  0  0  0
 20 26  1  1  0  0  0
 22 23  1  0  0  0  0
 22 28  1  1  0  0  0
 24 25  1  6  0  0  0
 24 30  1  0  0  0  0
 26 27  1  0  0  0  0
 28 29  1  0  0  0  0
 30 31  1  1  0  0  0
M  END
>  <CHROM.1>
-171.40796324,-168.11611100,42.34221566,65.62443891,-63.51886617,-54.80599122
22.37176284,6.59957287,9.65800009,-2.53789925,1.24527965,-0.71558973

>  <Name>
2o3x_lig

>  <RI>
0

>  <Rbt.Current_Directory>
/home/itssahil/PROJECTS/Mol_Feturizer/New_Systems/rnas/2o3x

>  <Rbt.Executable>
rbdock ($Id: //depot/dev/client3/rdock/2013.1/src/exe/rbdock.cxx#4 $)

>  <Rbt.Library>
libRbt.so (2013.1, Build901 2013/11/27)

>  <Rbt.Parameter_File>
/export/apps/rDock/src/rDock_2013.1_src/data/scripts/dock_solv.prm

>  <Rbt.Receptor>
prm/blind_docking_40.prm

>  <SCORE>
1.03553

>  <SCORE.INTER>
-6.42282

>  <SCORE.INTER.CONST>
1

>  <SCORE.INTER.POLAR>
-0.317781

>  <SCORE.INTER.ROT>
6

>  <SCORE.INTER.SOLV>
16.7392

>  <SCORE.INTER.VDW>
-16.4023

>  <SCORE.INTER.norm>
-0.207188

>  <SCORE.INTRA>
1.56495

>  <SCORE.INTRA.DIHEDRAL>
-6.476

>  <SCORE.INTRA.DIHEDRAL.0>
9.37739

>  <SCORE.INTRA.POLAR>
0

>  <SCORE.INTRA.POLAR.0>
0

>  <SCORE.INTRA.REPUL>
0

>  <SCORE.INTRA.REPUL.0>
0

>  <SCORE.INTRA.SOLV>
3.95542

>  <SCORE.INTRA.SOLV.lig_0>
-82.9274

>  <SCORE.INTRA.VDW>
2.82524

>  <SCORE.INTRA.VDW.0>
-3.84922

>  <SCORE.INTRA.norm>
0.0504824

>  <SCORE.RESTR>
5.89339

>  <SCORE.RESTR.CAVITY>
5.89339

>  <SCORE.RESTR.norm>
0.190109

>  <SCORE.SYSTEM>
0

>  <SCORE.SYSTEM.CONST>
0

>  <SCORE.SYSTEM.DIHEDRAL>
0

>  <SCORE.SYSTEM.SOLV>
0

>  <SCORE.SYSTEM.norm>
0

>  <SCORE.heavy>
31

>  <SCORE.norm>
0.033404

>  <RMSD>
7.224

$$$$
2o3x_lig
 OpenBabel11021811463D
libRbt.so/2013.1/901 2013/11/27
 31 33  0  0  0  0  0  0  0  0999 V2000
   24.4541    8.1574   10.8276 C   0  0  2  0  0  0  0  0  0  0  0  0
   24.5988    6.7914   10.4168 O   0  0  0  0  0  0  0  0  0  0  0  0
   23.3679    7.1578    6.3365 C   0  0  2  0  0  0  0  0  0  0  0  0
   22.7690    6.9084    5.0066 N   0  0  0  0  0  0  0  0  0  0  0  0
   21.1858    5.5902    9.7605 C   0  0  1  0  0  0  0  0  0  0  0  0
   25.5607    8.4742   11.8828 C   0  0  2  0  0  0  0  0  0  0  0  0
   26.9035    8.0212   11.4385 N   0  0  0  0  0  0  0  0  0  0  0  0
   24.5191    6.1488    6.6620 C   0  0  0  0  0  0  0  0  0  0  0  0
   22.0990    4.4756   10.3685 C   0  0  2  0  0  0  0  0  0  0  0  0
   23.0497    3.8618    9.4554 O   0  0  0  0  0  0  0  0  0  0  0  0
   25.2586    7.8101   13.2395 C   0  0  1  0  0  0  0  0  0  0  0  0
   26.2395    8.1501   14.1863 O   0  0  0  0  0  0  0  0  0  0  0  0
   25.1077    6.5132    8.0738 C   0  0  2  0  0  0  0  0  0  0  0  0
   26.2304    5.6036    8.4524 N   0  0  0  0  0  0  0  0  0  0  0  0
   21.0067    3.5672   10.9076 C   0  0  2  0  0  0  0  0  0  0  0  0
   20.4224    2.7496    9.8363 O   0  0  0  0  0  0  0  0  0  0  0  0
   23.8819    8.2344   13.7225 C   0  0  2  0  0  0  0  0  0  0  0  0
   23.6163    7.6540   14.9587 O   0  0  0  0  0  0  0  0  0  0  0  0
   24.0046    6.4161    9.1660 C   0  0  2  0  0  0  0  0  0  0  0  0
   19.9714    4.5215   11.4913 C   0  0  2  0  0  0  0  0  0  0  0  0
   19.9548    5.5371   10.4919 O   0  0  0  0  0  0  0  0  0  0  0  0
   22.8026    7.8104   12.6867 C   0  0  2  0  0  0  0  0  0  0  0  0
   23.0983    8.4066   11.4053 O   0  0  0  0  0  0  0  0  0  0  0  0
   22.7818    7.3097    8.8784 C   0  0  2  0  0  0  0  0  0  0  0  0
   21.7657    6.9002    9.8600 O   0  0  0  0  0  0  0  0  0  0  0  0
   20.3448    5.1268   12.8869 C   0  0  0  0  0  0  0  0  0  0  0  0
   21.7376    5.4225   12.9352 N   0  0  0  0  0  0  0  0  0  0  0  0
   21.4094    8.2224   13.1019 C   0  0  0  0  0  0  0  0  0  0  0  0
   20.4926    8.0017   12.0926 O   0  0  0  0  0  0  0  0  0  0  0  0
   22.2551    7.0639    7.3959 C   0  0  1  0  0  0  0  0  0  0  0  0
   21.2619    8.0320    7.0250 O   0  0  0  0  0  0  0  0  0  0  0  0
  1  2  1  1  0  0  0
  1  6  1  0  0  0  0
  1 23  1  0  0  0  0
  3  4  1  6  0  0  0
  3  8  1  0  0  0  0
  3 30  1  0  0  0  0
  5  9  1  0  0  0  0
  5 21  1  0  0  0  0
  5 25  1  1  0  0  0
  6  7  1  6  0  0  0
  6 11  1  0  0  0  0
  8 13  1  0  0  0  0
  9 10  1  6  0  0  0
  9 15  1  0  0  0  0
 11 12  1  1  0  0  0
 11 17  1  0  0  0  0
 13 14  1  1  0  0  0
 13 19  1  0  0  0  0
 15 16  1  6  0  0  0
 15 20  1  0  0  0  0
 17 18  1  1  0  0  0
 17 22  1  0  0  0  0
 19  2  1  1  0  0  0
 19 24  1  0  0  0  0
 20 21  1  0  0  0  0
 20 26  1  1  0  0  0
 22 23  1  0  0  0  0
 22 28  1  1  0  0  0
 24 25  1  1  0  0  0
 24 30  1  0  0  0  0
 26 27  1  0  0  0  0
 28 29  1  0  0  0  0
 30 31  1  6  0  0  0
M  END
>  <CHROM.1>
-159.69124858,80.41690540,95.08918064,38.59078737,171.79541066,-67.46370161
22.94409719,6.60005680,10.50901548,-1.29420560,-0.53023899,-1.72752045

>  <Name>
2o3x_lig

>  <RI>
0

>  <Rbt.Current_Directory>
/home/itssahil/PROJECTS/Mol_Feturizer/New_Systems/rnas/2o3x

>  <Rbt.Executable>
rbdock ($Id: //depot/dev/client3/rdock/2013.1/src/exe/rbdock.cxx#4 $)

>  <Rbt.Library>
libRbt.so (2013.1, Build901 2013/11/27)

>  <Rbt.Parameter_File>
/export/apps/rDock/src/rDock_2013.1_src/data/scripts/dock_solv.prm

>  <Rbt.Receptor>
prm/blind_docking_60.prm

>  <SCORE>
16.0614

>  <SCORE.INTER>
-0.310436

>  <SCORE.INTER.CONST>
1

>  <SCORE.INTER.POLAR>
-1.15084

>  <SCORE.INTER.ROT>
6

>  <SCORE.INTER.SOLV>
28.1834

>  <SCORE.INTER.VDW>
-13.3653

>  <SCORE.INTER.norm>
-0.0100141

>  <SCORE.INTRA>
8.5367

>  <SCORE.INTRA.DIHEDRAL>
0.980912

>  <SCORE.INTRA.DIHEDRAL.0>
9.37739

>  <SCORE.INTRA.POLAR>
0

>  <SCORE.INTRA.POLAR.0>
0

>  <SCORE.INTRA.REPUL>
0

>  <SCORE.INTRA.REPUL.0>
0

>  <SCORE.INTRA.SOLV>
7.85761

>  <SCORE.INTRA.SOLV.lig_0>
-82.9274

>  <SCORE.INTRA.VDW>
4.11745

>  <SCORE.INTRA.VDW.0>
-3.84922

>  <SCORE.INTRA.norm>
0.275378

>  <SCORE.RESTR>
7.83516

>  <SCORE.RESTR.CAVITY>
7.83516

>  <SCORE.RESTR.norm>
0.252747

>  <SCORE.SYSTEM>
0

>  <SCORE.SYSTEM.CONST>
0

>  <SCORE.SYSTEM.DIHEDRAL>
0

>  <SCORE.SYSTEM.SOLV>
0

>  <SCORE.SYSTEM.norm>
0

>  <SCORE.heavy>
31

>  <SCORE.norm>
0.518111

>  <RMSD>
7.224

$$$$
2o3x_lig
 OpenBabel11021811463D
libRbt.so/2013.1/901 2013/11/27
 31 33  0  0  0  0  0  0  0  0999 V2000
   17.4715    9.6609    8.8426 C   0  0  2  0  0  0  0  0  0  0  0  0
   17.9248    8.5962    9.6892 O   0  0  0  0  0  0  0  0  0  0  0  0
   17.8054    4.3424    9.2547 C   0  0  2  0  0  0  0  0  0  0  0  0
   17.3603    2.9522    9.0125 N   0  0  0  0  0  0  0  0  0  0  0  0
   17.6771    7.2744    5.7190 C   0  0  1  0  0  0  0  0  0  0  0  0
   18.6088   10.7259    8.7392 C   0  0  2  0  0  0  0  0  0  0  0  0
   19.9259   10.1103    8.4359 N   0  0  0  0  0  0  0  0  0  0  0  0
   17.1301    4.9641   10.5223 C   0  0  0  0  0  0  0  0  0  0  0  0
   16.9522    8.2257    4.7113 C   0  0  2  0  0  0  0  0  0  0  0  0
   15.6794    7.7528    4.1909 O   0  0  0  0  0  0  0  0  0  0  0  0
   18.7498   11.5347   10.0426 C   0  0  1  0  0  0  0  0  0  0  0  0
   19.7431   12.5195    9.9090 O   0  0  0  0  0  0  0  0  0  0  0  0
   17.6872    6.4223   10.7109 C   0  0  2  0  0  0  0  0  0  0  0  0
   17.1033    7.0819   11.9172 N   0  0  0  0  0  0  0  0  0  0  0  0
   18.0765    8.3711    3.6995 C   0  0  2  0  0  0  0  0  0  0  0  0
   18.1465    7.2003    2.8152 O   0  0  0  0  0  0  0  0  0  0  0  0
   17.4157   12.1684   10.3993 C   0  0  2  0  0  0  0  0  0  0  0  0
   17.5461   12.9183   11.5639 O   0  0  0  0  0  0  0  0  0  0  0  0
   17.3622    7.2954    9.4654 C   0  0  2  0  0  0  0  0  0  0  0  0
   19.3379    8.4907    4.5466 C   0  0  2  0  0  0  0  0  0  0  0  0
   19.0801    7.5074    5.5452 O   0  0  0  0  0  0  0  0  0  0  0  0
   16.3380   11.0638   10.5893 C   0  0  2  0  0  0  0  0  0  0  0  0
   16.2235   10.2835    9.3798 O   0  0  0  0  0  0  0  0  0  0  0  0
   17.9094    6.7079    8.1495 C   0  0  2  0  0  0  0  0  0  0  0  0
   17.2993    7.5167    7.0830 O   0  0  0  0  0  0  0  0  0  0  0  0
   19.5626    9.8959    5.2009 C   0  0  0  0  0  0  0  0  0  0  0  0
   19.8611   10.8613    4.1965 N   0  0  0  0  0  0  0  0  0  0  0  0
   14.9799   11.6332   10.9280 C   0  0  0  0  0  0  0  0  0  0  0  0
   14.9961   12.2996   12.1378 O   0  0  0  0  0  0  0  0  0  0  0  0
   17.4796    5.1813    8.0059 C   0  0  1  0  0  0  0  0  0  0  0  0
   18.1529    4.5481    6.9073 O   0  0  0  0  0  0  0  0  0  0  0  0
  1  2  1  1  0  0  0
  1  6  1  0  0  0  0
  1 23  1  0  0  0  0
  3  4  1  6  0  0  0
  3  8  1  0  0  0  0
  3 30  1  0  0  0  0
  5  9  1  0  0  0  0
  5 21  1  0  0  0  0
  5 25  1  1  0  0  0
  6  7  1  1  0  0  0
  6 11  1  0  0  0  0
  8 13  1  0  0  0  0
  9 10  1  6  0  0  0
  9 15  1  0  0  0  0
 11 12  1  6  0  0  0
 11 17  1  0  0  0  0
 13 14  1  1  0  0  0
 13 19  1  0  0  0  0
 15 16  1  6  0  0  0
 15 20  1  0  0  0  0
 17 18  1  1  0  0  0
 17 22  1  0  0  0  0
 19  2  1  1  0  0  0
 19 24  1  0  0  0  0
 20 21  1  0  0  0  0
 20 26  1  1  0  0  0
 22 23  1  0  0  0  0
 22 28  1  6  0  0  0
 24 25  1  6  0  0  0
 24 30  1  0  0  0  0
 26 27  1  0  0  0  0
 28 29  1  0  0  0  0
 30 31  1  6  0  0  0
M  END
>  <CHROM.1>
-152.61549801,-179.37429927,-164.66110351,-68.66566454,-63.41981803,176.07075015
17.71572498,8.61418620,8.13173135,-2.10186734,-1.31894325,-2.81886637

>  <Name>
2o3x_lig

>  <RI>
0

>  <Rbt.Current_Directory>
/home/itssahil/PROJECTS/Mol_Feturizer/New_Systems/rnas/2o3x

>  <Rbt.Executable>
rbdock ($Id: //depot/dev/client3/rdock/2013.1/src/exe/rbdock.cxx#4 $)

>  <Rbt.Library>
libRbt.so (2013.1, Build901 2013/11/27)

>  <Rbt.Parameter_File>
/export/apps/rDock/src/rDock_2013.1_src/data/scripts/dock_solv.prm

>  <Rbt.Receptor>
prm/pocket_docking_8.prm

>  <SCORE>
-8.38317

>  <SCORE.INTER>
-6.58918

>  <SCORE.INTER.CONST>
1

>  <SCORE.INTER.POLAR>
-0.958595

>  <SCORE.INTER.ROT>
6

>  <SCORE.INTER.SOLV>
13.4476

>  <SCORE.INTER.VDW>
-13.28

>  <SCORE.INTER.norm>
-0.212554

>  <SCORE.INTRA>
-1.79399

>  <SCORE.INTRA.DIHEDRAL>
-4.61126

>  <SCORE.INTRA.DIHEDRAL.0>
9.37739

>  <SCORE.INTRA.POLAR>
0

>  <SCORE.INTRA.POLAR.0>
0

>  <SCORE.INTRA.REPUL>
0

>  <SCORE.INTRA.REPUL.0>
0

>  <SCORE.INTRA.SOLV>
-0.642313

>  <SCORE.INTRA.SOLV.lig_0>
-82.9274

>  <SCORE.INTRA.VDW>
0.832798

>  <SCORE.INTRA.VDW.0>
-3.84922

>  <SCORE.INTRA.norm>
-0.0578705

>  <SCORE.RESTR>
0

>  <SCORE.RESTR.CAVITY>
0

>  <SCORE.RESTR.norm>
0

>  <SCORE.SYSTEM>
0

>  <SCORE.SYSTEM.CONST>
0

>  <SCORE.SYSTEM.DIHEDRAL>
0

>  <SCORE.SYSTEM.SOLV>
0

>  <SCORE.SYSTEM.norm>
0

>  <SCORE.heavy>
31

>  <SCORE.norm>
-0.270425

>  <RMSD>
7.224

$$$$
2o3x_lig
 OpenBabel11021811463D
libRbt.so/2013.1/901 2013/11/27
 31 33  0  0  0  0  0  0  0  0999 V2000
   24.3046    8.1682   10.9087 C   0  0  2  0  0  0  0  0  0  0  0  0
   24.4556    6.8100   10.4752 O   0  0  0  0  0  0  0  0  0  0  0  0
   23.3333    7.2522    6.3712 C   0  0  2  0  0  0  0  0  0  0  0  0
   22.7660    7.0298    5.0228 N   0  0  0  0  0  0  0  0  0  0  0  0
   21.0377    5.6622    9.7051 C   0  0  1  0  0  0  0  0  0  0  0  0
   25.3989    8.4671   11.9820 C   0  0  2  0  0  0  0  0  0  0  0  0
   26.7471    8.0234   11.5449 N   0  0  0  0  0  0  0  0  0  0  0  0
   24.4650    6.2257    6.7101 C   0  0  0  0  0  0  0  0  0  0  0  0
   21.9644    4.5058   10.2053 C   0  0  2  0  0  0  0  0  0  0  0  0
   22.8618    3.9341    9.2143 O   0  0  0  0  0  0  0  0  0  0  0  0
   25.0822    7.7785   13.3230 C   0  0  1  0  0  0  0  0  0  0  0  0
   26.0520    8.1024   14.2868 O   0  0  0  0  0  0  0  0  0  0  0  0
   25.0212    6.5620    8.1418 C   0  0  2  0  0  0  0  0  0  0  0  0
   26.1242    5.6344    8.5347 N   0  0  0  0  0  0  0  0  0  0  0  0
   20.8875    3.5802   10.7460 C   0  0  2  0  0  0  0  0  0  0  0  0
   20.2416    2.8298    9.6609 O   0  0  0  0  0  0  0  0  0  0  0  0
   23.6997    8.1928   13.7979 C   0  0  2  0  0  0  0  0  0  0  0  0
   23.4207    7.5901   15.0205 O   0  0  0  0  0  0  0  0  0  0  0  0
   23.8896    6.4604    9.2041 C   0  0  2  0  0  0  0  0  0  0  0  0
   19.8942    4.5112   11.4314 C   0  0  2  0  0  0  0  0  0  0  0  0
   19.8428    5.5811   10.4917 O   0  0  0  0  0  0  0  0  0  0  0  0
   22.6327    7.7864   12.7425 C   0  0  2  0  0  0  0  0  0  0  0  0
   22.9421    8.4057   11.4754 O   0  0  0  0  0  0  0  0  0  0  0  0
   22.6841    7.3717    8.8995 C   0  0  2  0  0  0  0  0  0  0  0  0
   21.6389    6.9584    9.8485 O   0  0  0  0  0  0  0  0  0  0  0  0
   20.3423    5.0337   12.8384 C   0  0  0  0  0  0  0  0  0  0  0  0
   21.7246    5.3780   12.8151 N   0  0  0  0  0  0  0  0  0  0  0  0
   21.2343    8.1896   13.1492 C   0  0  0  0  0  0  0  0  0  0  0  0
   21.1357    9.5535   13.3444 O   0  0  0  0  0  0  0  0  0  0  0  0
   22.1929    7.1544    7.4004 C   0  0  1  0  0  0  0  0  0  0  0  0
   21.2198    8.1389    7.0195 O   0  0  0  0  0  0  0  0  0  0  0  0
  1  2  1  1  0  0  0
  1  6  1  0  0  0  0
  1 23  1  0  0  0  0
  3  4  1  6  0  0  0
  3  8  1  0  0  0  0
  3 30  1  0  0  0  0
  5  9  1  0  0  0  0
  5 21  1  0  0  0  0
  5 25  1  1  0  0  0
  6  7  1  6  0  0  0
  6 11  1  0  0  0  0
  8 13  1  0  0  0  0
  9 10  1  6  0  0  0
  9 15  1  0  0  0  0
 11 12  1  1  0  0  0
 11 17  1  0  0  0  0
 13 14  1  1  0  0  0
 13 19  1  0  0  0  0
 15 16  1  6  0  0  0
 15 20  1  0  0  0  0
 17 18  1  1  0  0  0
 17 22  1  0  0  0  0
 19  2  1  1  0  0  0
 19 24  1  0  0  0  0
 20 21  1  0  0  0  0
 20 26  1  1  0  0  0
 22 23  1  0  0  0  0
 22 28  1  1  0  0  0
 24 25  1  1  0  0  0
 24 30  1  0  0  0  0
 26 27  1  0  0  0  0
 28 29  1  0  0  0  0
 30 31  1  6  0  0  0
M  END
>  <CHROM.1>
-158.97952231,75.94811197,95.62254621,41.62547866,58.75974788,-68.12805313
22.85213304,6.67848705,10.55708500,-1.34031592,-0.55795125,-1.76851952

>  <Name>
2o3x_lig

>  <RI>
224

>  <Rbt.Current_Directory>
/home/itssahil/PROJECTS/Mol_Feturizer/New_Systems/rnas/2o3x

>  <Rbt.Executable>
rbdock ($Id: //depot/dev/client3/rdock/2013.1/src/exe/rbdock.cxx#4 $)

>  <Rbt.Library>
libRbt.so (2013.1, Build901 2013/11/27)

>  <Rbt.Parameter_File>
/export/apps/rDock/src/rDock_2013.1_src/data/scripts/dock_solv.prm

>  <Rbt.Receptor>
prm/blind_docking_100.prm

>  <SCORE>
9.33544

>  <SCORE.INTER>
-1.53386

>  <SCORE.INTER.CONST>
1

>  <SCORE.INTER.POLAR>
-1.30916

>  <SCORE.INTER.ROT>
6

>  <SCORE.INTER.SOLV>
27.6556

>  <SCORE.INTER.VDW>
-13.4773

>  <SCORE.INTER.norm>
-0.0494795

>  <SCORE.INTRA>
8.31387

>  <SCORE.INTRA.DIHEDRAL>
-0.0183434

>  <SCORE.INTRA.DIHEDRAL.0>
9.37739

>  <SCORE.INTRA.POLAR>
0

>  <SCORE.INTRA.POLAR.0>
0

>  <SCORE.INTRA.REPUL>
0

>  <SCORE.INTRA.REPUL.0>
0

>  <SCORE.INTRA.SOLV>
6.9921

>  <SCORE.INTRA.SOLV.lig_0>
-82.9274

>  <SCORE.INTRA.VDW>
4.82699

>  <SCORE.INTRA.VDW.0>
-3.84922

>  <SCORE.INTRA.norm>
0.268189

>  <SCORE.RESTR>
2.55544

>  <SCORE.RESTR.CAVITY>
2.55544

>  <SCORE.RESTR.norm>
0.0824334

>  <SCORE.SYSTEM>
0

>  <SCORE.SYSTEM.CONST>
0

>  <SCORE.SYSTEM.DIHEDRAL>
0

>  <SCORE.SYSTEM.SOLV>
0

>  <SCORE.SYSTEM.norm>
0

>  <SCORE.heavy>
31

>  <SCORE.norm>
0.301143

>  <RMSD>
7.236

$$$$
2o3x_lig
 OpenBabel11021811463D
libRbt.so/2013.1/901 2013/11/27
 31 33  0  0  0  0  0  0  0  0999 V2000
   18.1418   11.5567   10.3988 C   0  0  2  0  0  0  0  0  0  0  0  0
   18.9967   10.9895   11.4002 O   0  0  0  0  0  0  0  0  0  0  0  0
   20.7162    7.0827   11.6796 C   0  0  2  0  0  0  0  0  0  0  0  0
   20.9062    5.6167   11.7439 N   0  0  0  0  0  0  0  0  0  0  0  0
   19.0768    9.9164    7.9643 C   0  0  1  0  0  0  0  0  0  0  0  0
   18.5912   13.0304   10.1447 C   0  0  2  0  0  0  0  0  0  0  0  0
   20.0592   13.1418    9.9488 N   0  0  0  0  0  0  0  0  0  0  0  0
   19.9502    7.6321   12.9288 C   0  0  0  0  0  0  0  0  0  0  0  0
   20.1817    9.1682    7.1485 C   0  0  2  0  0  0  0  0  0  0  0  0
   21.5570    9.4802    7.5028 O   0  0  0  0  0  0  0  0  0  0  0  0
   18.1949   13.9543   11.3119 C   0  0  1  0  0  0  0  0  0  0  0  0
   18.5635   15.2824   11.0391 O   0  0  0  0  0  0  0  0  0  0  0  0
   19.8260    9.1927   12.7822 C   0  0  2  0  0  0  0  0  0  0  0  0
   19.1196    9.7998   13.9500 N   0  0  0  0  0  0  0  0  0  0  0  0
   19.7403    9.5791    5.7537 C   0  0  2  0  0  0  0  0  0  0  0  0
   20.1842   10.9435    5.4392 O   0  0  0  0  0  0  0  0  0  0  0  0
   16.6987   13.8563   11.5578 C   0  0  2  0  0  0  0  0  0  0  0  0
   16.3347   14.7072   12.5966 O   0  0  0  0  0  0  0  0  0  0  0  0
   19.0439    9.5583   11.4884 C   0  0  2  0  0  0  0  0  0  0  0  0
   18.2189    9.4970    5.7963 C   0  0  2  0  0  0  0  0  0  0  0  0
   17.9594   10.0605    7.0791 O   0  0  0  0  0  0  0  0  0  0  0  0
   16.3132   12.3903   11.9038 C   0  0  2  0  0  0  0  0  0  0  0  0
   16.7098   11.5161   10.8253 O   0  0  0  0  0  0  0  0  0  0  0  0
   19.6763    8.9757   10.2089 C   0  0  2  0  0  0  0  0  0  0  0  0
   18.6830    9.2062    9.1486 O   0  0  0  0  0  0  0  0  0  0  0  0
   17.6334    8.0473    5.7018 C   0  0  0  0  0  0  0  0  0  0  0  0
   17.9786    7.4608    4.4501 N   0  0  0  0  0  0  0  0  0  0  0  0
   14.8303   12.2232   12.1414 C   0  0  0  0  0  0  0  0  0  0  0  0
   14.1022   12.4571   10.9911 O   0  0  0  0  0  0  0  0  0  0  0  0
   19.9483    7.4170   10.3881 C   0  0  1  0  0  0  0  0  0  0  0  0
   20.7323    6.8936    9.3053 O   0  0  0  0  0  0  0  0  0  0  0  0
  1  2  1  1  0  0  0
  1  6  1  0  0  0  0
  1 23  1  0  0  0  0
  3  4  1  1  0  0  0
  3  8  1  0  0  0  0
  3 30  1  0  0  0  0
  5  9  1  0  0  0  0
  5 21  1  0  0  0  0
  5 25  1  1  0  0  0
  6  7  1  1  0  0  0
  6 11  1  0  0  0  0
  8 13  1  0  0  0  0
  9 10  1  1  0  0  0
  9 15  1  0  0  0  0
 11 12  1  6  0  0  0
 11 17  1  0  0  0  0
 13 14  1  1  0  0  0
 13 19  1  0  0  0  0
 15 16  1  1  0  0  0
 15 20  1  0  0  0  0
 17 18  1  1  0  0  0
 17 22  1  0  0  0  0
 19  2  1  6  0  0  0
 19 24  1  0  0  0  0
 20 21  1  0  0  0  0
 20 26  1  1  0  0  0
 22 23  1  0  0  0  0
 22 28  1  6  0  0  0
 24 25  1  6  0  0  0
 24 30  1  0  0  0  0
 26 27  1  0  0  0  0
 28 29  1  0  0  0  0
 30 31  1  6  0  0  0
M  END
>  <CHROM.1>
-160.95933863,63.08755057,-170.31504221,-62.83022773,65.59888213,124.92169846
18.64687964,10.37870990,9.81422493,2.45499993,-1.04397133,1.53141327

>  <Name>
2o3x_lig

>  <RI>
0

>  <Rbt.Current_Directory>
/home/itssahil/PROJECTS/Mol_Feturizer/New_Systems/rnas/2o3x

>  <Rbt.Executable>
rbdock ($Id: //depot/dev/client3/rdock/2013.1/src/exe/rbdock.cxx#4 $)

>  <Rbt.Library>
libRbt.so (2013.1, Build901 2013/11/27)

>  <Rbt.Parameter_File>
/export/apps/rDock/src/rDock_2013.1_src/data/scripts/dock_solv.prm

>  <Rbt.Receptor>
prm/pocket_docking_8.prm

>  <SCORE>
-15.7979

>  <SCORE.INTER>
-16.0729

>  <SCORE.INTER.CONST>
1

>  <SCORE.INTER.POLAR>
-2.51681

>  <SCORE.INTER.ROT>
6

>  <SCORE.INTER.SOLV>
15.79

>  <SCORE.INTER.VDW>
-15.1893

>  <SCORE.INTER.norm>
-0.518482

>  <SCORE.INTRA>
0.275019

>  <SCORE.INTRA.DIHEDRAL>
0.168521

>  <SCORE.INTRA.DIHEDRAL.0>
9.37739

>  <SCORE.INTRA.POLAR>
0

>  <SCORE.INTRA.POLAR.0>
0

>  <SCORE.INTRA.REPUL>
0

>  <SCORE.INTRA.REPUL.0>
0

>  <SCORE.INTRA.SOLV>
-1.51687

>  <SCORE.INTRA.SOLV.lig_0>
-82.9274

>  <SCORE.INTRA.VDW>
0.949195

>  <SCORE.INTRA.VDW.0>
-3.84922

>  <SCORE.INTRA.norm>
0.00887158

>  <SCORE.RESTR>
0

>  <SCORE.RESTR.CAVITY>
0

>  <SCORE.RESTR.norm>
0

>  <SCORE.SYSTEM>
0

>  <SCORE.SYSTEM.CONST>
0

>  <SCORE.SYSTEM.DIHEDRAL>
0

>  <SCORE.SYSTEM.SOLV>
0

>  <SCORE.SYSTEM.norm>
0

>  <SCORE.heavy>
31

>  <SCORE.norm>
-0.50961

>  <RMSD>
7.237

$$$$
2o3x_lig
 OpenBabel11021811463D
libRbt.so/2013.1/901 2013/11/27
 31 33  0  0  0  0  0  0  0  0999 V2000
   19.5631    6.2483   10.8044 C   0  0  2  0  0  0  0  0  0  0  0  0
   18.6900    6.9877    9.9404 O   0  0  0  0  0  0  0  0  0  0  0  0
   19.5963    9.3563    6.4957 C   0  0  2  0  0  0  0  0  0  0  0  0
   20.1561   10.3766    5.5818 N   0  0  0  0  0  0  0  0  0  0  0  0
   22.4395    6.1992    8.3595 C   0  0  1  0  0  0  0  0  0  0  0  0
   18.6878    5.4253   11.8019 C   0  0  2  0  0  0  0  0  0  0  0  0
   17.6016    4.6833   11.1124 N   0  0  0  0  0  0  0  0  0  0  0  0
   18.6798    9.9902    7.5946 C   0  0  0  0  0  0  0  0  0  0  0  0
   23.6023    5.8408    9.3421 C   0  0  2  0  0  0  0  0  0  0  0  0
   24.7040    6.7880    9.3987 O   0  0  0  0  0  0  0  0  0  0  0  0
   18.0438    6.3282   12.8709 C   0  0  1  0  0  0  0  0  0  0  0  0
   17.3034    5.5610   13.7860 O   0  0  0  0  0  0  0  0  0  0  0  0
   18.1127    8.8296    8.4912 C   0  0  2  0  0  0  0  0  0  0  0  0
   17.2080    9.3520    9.5588 N   0  0  0  0  0  0  0  0  0  0  0  0
   23.9328    4.4615    8.7967 C   0  0  2  0  0  0  0  0  0  0  0  0
   24.7532    4.5561    7.5820 O   0  0  0  0  0  0  0  0  0  0  0  0
   19.1226    7.1206   13.5899 C   0  0  2  0  0  0  0  0  0  0  0  0
   18.5455    7.9198   14.5717 O   0  0  0  0  0  0  0  0  0  0  0  0
   19.2737    8.0466    9.1682 C   0  0  2  0  0  0  0  0  0  0  0  0
   22.5761    3.8378    8.4911 C   0  0  2  0  0  0  0  0  0  0  0  0
   21.8977    4.9499    7.9137 O   0  0  0  0  0  0  0  0  0  0  0  0
   19.9026    7.9993   12.5715 C   0  0  2  0  0  0  0  0  0  0  0  0
   20.4833    7.1599   11.5502 O   0  0  0  0  0  0  0  0  0  0  0  0
   20.2846    7.4638    8.1608 C   0  0  2  0  0  0  0  0  0  0  0  0
   21.4140    6.9924    8.9770 O   0  0  0  0  0  0  0  0  0  0  0  0
   21.7977    3.3055    9.7419 C   0  0  0  0  0  0  0  0  0  0  0  0
   20.4796    2.9149    9.3681 N   0  0  0  0  0  0  0  0  0  0  0  0
   21.0054    8.7999   13.2243 C   0  0  0  0  0  0  0  0  0  0  0  0
   22.0603    7.9940   13.6060 O   0  0  0  0  0  0  0  0  0  0  0  0
   20.7643    8.5923    7.1449 C   0  0  1  0  0  0  0  0  0  0  0  0
   21.5314    8.0355    6.0666 O   0  0  0  0  0  0  0  0  0  0  0  0
  1  2  1  6  0  0  0
  1  6  1  0  0  0  0
  1 23  1  0  0  0  0
  3  4  1  6  0  0  0
  3  8  1  0  0  0  0
  3 30  1  0  0  0  0
  5  9  1  0  0  0  0
  5 21  1  0  0  0  0
  5 25  1  1  0  0  0
  6  7  1  6  0  0  0
  6 11  1  0  0  0  0
  8 13  1  0  0  0  0
  9 10  1  6  0  0  0
  9 15  1  0  0  0  0
 11 12  1  1  0  0  0
 11 17  1  0  0  0  0
 13 14  1  1  0  0  0
 13 19  1  0  0  0  0
 15 16  1  6  0  0  0
 15 20  1  0  0  0  0
 17 18  1  1  0  0  0
 17 22  1  0  0  0  0
 19  2  1  6  0  0  0
 19 24  1  0  0  0  0
 20 21  1  0  0  0  0
 20 26  1  1  0  0  0
 22 23  1  0  0  0  0
 22 28  1  1  0  0  0
 24 25  1  1  0  0  0
 24 30  1  0  0  0  0
 26 27  1  0  0  0  0
 28 29  1  0  0  0  0
 30 31  1  6  0  0  0
M  END
>  <CHROM.1>
165.38910975,177.07068645,-171.43172601,172.09504770,71.81028063,170.14148023
20.49041850,6.83592810,9.88620754,-2.44800292,0.71012685,-1.04352138

>  <Name>
2o3x_lig

>  <RI>
0

>  <Rbt.Current_Directory>
/home/itssahil/PROJECTS/Mol_Feturizer/New_Systems/rnas/2o3x

>  <Rbt.Executable>
rbdock ($Id: //depot/dev/client3/rdock/2013.1/src/exe/rbdock.cxx#4 $)

>  <Rbt.Library>
libRbt.so (2013.1, Build901 2013/11/27)

>  <Rbt.Parameter_File>
/export/apps/rDock/src/rDock_2013.1_src/data/scripts/dock_solv.prm

>  <Rbt.Receptor>
prm/pocket_docking_4.prm

>  <SCORE>
-8.48781

>  <SCORE.INTER>
-5.67029

>  <SCORE.INTER.CONST>
1

>  <SCORE.INTER.POLAR>
-0.69694

>  <SCORE.INTER.ROT>
6

>  <SCORE.INTER.SOLV>
10.3959

>  <SCORE.INTER.VDW>
-12.5224

>  <SCORE.INTER.norm>
-0.182913

>  <SCORE.INTRA>
-2.82105

>  <SCORE.INTRA.DIHEDRAL>
-6.60445

>  <SCORE.INTRA.DIHEDRAL.0>
9.37739

>  <SCORE.INTRA.POLAR>
0

>  <SCORE.INTRA.POLAR.0>
0

>  <SCORE.INTRA.REPUL>
0

>  <SCORE.INTRA.REPUL.0>
0

>  <SCORE.INTRA.SOLV>
-0.679977

>  <SCORE.INTRA.SOLV.lig_0>
-82.9274

>  <SCORE.INTRA.VDW>
0.821164

>  <SCORE.INTRA.VDW.0>
-3.84922

>  <SCORE.INTRA.norm>
-0.0910016

>  <SCORE.RESTR>
0.00352517

>  <SCORE.RESTR.CAVITY>
0.00352517

>  <SCORE.RESTR.norm>
0.000113715

>  <SCORE.SYSTEM>
0

>  <SCORE.SYSTEM.CONST>
0

>  <SCORE.SYSTEM.DIHEDRAL>
0

>  <SCORE.SYSTEM.SOLV>
0

>  <SCORE.SYSTEM.norm>
0

>  <SCORE.heavy>
31

>  <SCORE.norm>
-0.2738

>  <RMSD>
7.264

$$$$
2o3x_lig
 OpenBabel11021811463D
libRbt.so/2013.1/901 2013/11/27
 31 33  0  0  0  0  0  0  0  0999 V2000
   19.8099    9.6049    9.1940 C   0  0  2  0  0  0  0  0  0  0  0  0
   18.6772    9.5528   10.0714 O   0  0  0  0  0  0  0  0  0  0  0  0
   15.8973   12.5652   11.2943 C   0  0  2  0  0  0  0  0  0  0  0  0
   14.8648   13.6251   11.3016 N   0  0  0  0  0  0  0  0  0  0  0  0
   14.8231    8.2005    9.9618 C   0  0  1  0  0  0  0  0  0  0  0  0
   19.3795    9.0467    7.8006 C   0  0  2  0  0  0  0  0  0  0  0  0
   18.1060    9.6462    7.3268 N   0  0  0  0  0  0  0  0  0  0  0  0
   17.2153   13.0328   10.5917 C   0  0  0  0  0  0  0  0  0  0  0  0
   14.4634    7.1526    8.8579 C   0  0  2  0  0  0  0  0  0  0  0  0
   13.4320    7.5502    7.9132 O   0  0  0  0  0  0  0  0  0  0  0  0
   19.2035    7.5167    7.8313 C   0  0  1  0  0  0  0  0  0  0  0  0
   18.8663    7.0316    6.5565 O   0  0  0  0  0  0  0  0  0  0  0  0
   18.2544   11.8547   10.6619 C   0  0  2  0  0  0  0  0  0  0  0  0
   19.5533   12.2290   10.0264 N   0  0  0  0  0  0  0  0  0  0  0  0
   14.1233    5.9839    9.7675 C   0  0  2  0  0  0  0  0  0  0  0  0
   12.7709    6.1231   10.3238 O   0  0  0  0  0  0  0  0  0  0  0  0
   20.4819    6.8637    8.3291 C   0  0  2  0  0  0  0  0  0  0  0  0
   20.3332    5.4804    8.3359 O   0  0  0  0  0  0  0  0  0  0  0  0
   17.6982   10.5935    9.9413 C   0  0  2  0  0  0  0  0  0  0  0  0
   15.1746    6.0407   10.8696 C   0  0  2  0  0  0  0  0  0  0  0  0
   15.2322    7.4444   11.1081 O   0  0  0  0  0  0  0  0  0  0  0  0
   20.8167    7.3753    9.7587 C   0  0  2  0  0  0  0  0  0  0  0  0
   20.9532    8.8126    9.7408 O   0  0  0  0  0  0  0  0  0  0  0  0
   16.3468   10.1144   10.5073 C   0  0  2  0  0  0  0  0  0  0  0  0
   15.8707    9.0961    9.5586 O   0  0  0  0  0  0  0  0  0  0  0  0
   16.5847    5.4914   10.4655 C   0  0  0  0  0  0  0  0  0  0  0  0
   16.5048    4.0966   10.1863 N   0  0  0  0  0  0  0  0  0  0  0  0
   22.0919    6.7751   10.3036 C   0  0  0  0  0  0  0  0  0  0  0  0
   23.1800    7.0914    9.5137 O   0  0  0  0  0  0  0  0  0  0  0  0
   15.3189   11.3283   10.5838 C   0  0  1  0  0  0  0  0  0  0  0  0
   14.1323   10.9659   11.3060 O   0  0  0  0  0  0  0  0  0  0  0  0
  1  2  1  1  0  0  0
  1  6  1  0  0  0  0
  1 23  1  0  0  0  0
  3  4  1  6  0  0  0
  3  8  1  0  0  0  0
  3 30  1  0  0  0  0
  5  9  1  0  0  0  0
  5 21  1  0  0  0  0
  5 25  1  6  0  0  0
  6  7  1  1  0  0  0
  6 11  1  0  0  0  0
  8 13  1  0  0  0  0
  9 10  1  1  0  0  0
  9 15  1  0  0  0  0
 11 12  1  6  0  0  0
 11 17  1  0  0  0  0
 13 14  1  6  0  0  0
 13 19  1  0  0  0  0
 15 16  1  1  0  0  0
 15 20  1  0  0  0  0
 17 18  1  1  0  0  0
 17 22  1  0  0  0  0
 19  2  1  1  0  0  0
 19 24  1  0  0  0  0
 20 21  1  0  0  0  0
 20 26  1  6  0  0  0
 22 23  1  0  0  0  0
 22 28  1  6  0  0  0
 24 25  1  6  0  0  0
 24 30  1  0  0  0  0
 26 27  1  0  0  0  0
 28 29  1  0  0  0  0
 30 31  1  1  0  0  0
M  END
>  <CHROM.1>
-79.49330695,-178.22371110,-78.66695396,-64.88733823,60.62365164,163.65504749
17.42591205,8.61397263,9.66684468,-0.38517987,0.15532965,0.19980739

>  <Name>
2o3x_lig

>  <RI>
3.34184e+07

>  <Rbt.Current_Directory>
/home/itssahil/PROJECTS/Mol_Feturizer/New_Systems/rnas/2o3x

>  <Rbt.Executable>
rbdock ($Id: //depot/dev/client3/rdock/2013.1/src/exe/rbdock.cxx#4 $)

>  <Rbt.Library>
libRbt.so (2013.1, Build901 2013/11/27)

>  <Rbt.Parameter_File>
/export/apps/rDock/src/rDock_2013.1_src/data/scripts/dock_solv.prm

>  <Rbt.Receptor>
prm/pocket_docking_6.prm

>  <SCORE>
-6.90956

>  <SCORE.INTER>
-6.39642

>  <SCORE.INTER.CONST>
1

>  <SCORE.INTER.POLAR>
-1.68198

>  <SCORE.INTER.ROT>
6

>  <SCORE.INTER.SOLV>
15.7242

>  <SCORE.INTER.VDW>
-11.4991

>  <SCORE.INTER.norm>
-0.206336

>  <SCORE.INTRA>
-0.51314

>  <SCORE.INTRA.DIHEDRAL>
-4.56165

>  <SCORE.INTRA.DIHEDRAL.0>
9.37739

>  <SCORE.INTRA.POLAR>
0

>  <SCORE.INTRA.POLAR.0>
0

>  <SCORE.INTRA.REPUL>
0

>  <SCORE.INTRA.REPUL.0>
0

>  <SCORE.INTRA.SOLV>
1.33401

>  <SCORE.INTRA.SOLV.lig_0>
-82.9274

>  <SCORE.INTRA.VDW>
1.10068

>  <SCORE.INTRA.VDW.0>
-3.84922

>  <SCORE.INTRA.norm>
-0.0165529

>  <SCORE.RESTR>
0

>  <SCORE.RESTR.CAVITY>
0

>  <SCORE.RESTR.norm>
0

>  <SCORE.SYSTEM>
0

>  <SCORE.SYSTEM.CONST>
0

>  <SCORE.SYSTEM.DIHEDRAL>
0

>  <SCORE.SYSTEM.SOLV>
0

>  <SCORE.SYSTEM.norm>
0

>  <SCORE.heavy>
31

>  <SCORE.norm>
-0.222889

>  <RMSD>
7.267

$$$$
2o3x_lig
 OpenBabel11021811463D
libRbt.so/2013.1/901 2013/11/27
 31 33  0  0  0  0  0  0  0  0999 V2000
   20.3180    4.8712   11.0016 C   0  0  2  0  0  0  0  0  0  0  0  0
   20.4680    6.1342   10.3400 O   0  0  0  0  0  0  0  0  0  0  0  0
   22.5528    8.0328   13.5567 C   0  0  2  0  0  0  0  0  0  0  0  0
   23.2702    9.0145   14.4000 N   0  0  0  0  0  0  0  0  0  0  0  0
   19.4916    9.6532   10.9344 C   0  0  1  0  0  0  0  0  0  0  0  0
   19.5014    3.9209   10.0696 C   0  0  2  0  0  0  0  0  0  0  0  0
   20.0219    3.9187    8.6786 N   0  0  0  0  0  0  0  0  0  0  0  0
   23.3796    7.6295   12.2905 C   0  0  0  0  0  0  0  0  0  0  0  0
   18.4598    9.9662    9.8015 C   0  0  2  0  0  0  0  0  0  0  0  0
   18.7894    9.4562    8.4803 O   0  0  0  0  0  0  0  0  0  0  0  0
   18.0130    4.3146   10.0207 C   0  0  1  0  0  0  0  0  0  0  0  0
   17.2897    3.4166    9.2177 O   0  0  0  0  0  0  0  0  0  0  0  0
   22.5510    6.5669   11.4802 C   0  0  2  0  0  0  0  0  0  0  0  0
   23.2832    6.1136   10.2597 N   0  0  0  0  0  0  0  0  0  0  0  0
   18.4275   11.4784    9.9462 C   0  0  2  0  0  0  0  0  0  0  0  0
   19.5917   12.0966    9.2981 O   0  0  0  0  0  0  0  0  0  0  0  0
   17.4448    4.3463   11.4295 C   0  0  2  0  0  0  0  0  0  0  0  0
   16.0946    4.6792   11.3861 O   0  0  0  0  0  0  0  0  0  0  0  0
   21.1823    7.1617   11.0418 C   0  0  2  0  0  0  0  0  0  0  0  0
   18.4506   11.7175   11.4514 C   0  0  2  0  0  0  0  0  0  0  0  0
   19.4088   10.7447   11.8589 O   0  0  0  0  0  0  0  0  0  0  0  0
   18.2250    5.3776   12.2927 C   0  0  2  0  0  0  0  0  0  0  0  0
   19.6262    5.0297   12.3170 O   0  0  0  0  0  0  0  0  0  0  0  0
   20.3347    7.6752   12.2225 C   0  0  2  0  0  0  0  0  0  0  0  0
   19.2214    8.4129   11.6058 O   0  0  0  0  0  0  0  0  0  0  0  0
   17.0830   11.4829   12.1779 C   0  0  0  0  0  0  0  0  0  0  0  0
   16.0681   12.2854   11.5813 N   0  0  0  0  0  0  0  0  0  0  0  0
   17.7181    5.4425   13.7148 C   0  0  0  0  0  0  0  0  0  0  0  0
   18.3761    6.4132   14.4446 O   0  0  0  0  0  0  0  0  0  0  0  0
   21.2010    8.6426   13.1442 C   0  0  1  0  0  0  0  0  0  0  0  0
   20.5128    8.9605   14.3634 O   0  0  0  0  0  0  0  0  0  0  0  0
  1  2  1  6  0  0  0
  1  6  1  0  0  0  0
  1 23  1  0  0  0  0
  3  4  1  6  0  0  0
  3  8  1  0  0  0  0
  3 30  1  0  0  0  0
  5  9  1  0  0  0  0
  5 21  1  0  0  0  0
  5 25  1  1  0  0  0
  6  7  1  6  0  0  0
  6 11  1  0  0  0  0
  8 13  1  0  0  0  0
  9 10  1  6  0  0  0
  9 15  1  0  0  0  0
 11 12  1  6  0  0  0
 11 17  1  0  0  0  0
 13 14  1  6  0  0  0
 13 19  1  0  0  0  0
 15 16  1  6  0  0  0
 15 20  1  0  0  0  0
 17 18  1  6  0  0  0
 17 22  1  0  0  0  0
 19  2  1  1  0  0  0
 19 24  1  0  0  0  0
 20 21  1  0  0  0  0
 20 26  1  1  0  0  0
 22 23  1  0  0  0  0
 22 28  1  1  0  0  0
 24 25  1  6  0  0  0
 24 30  1  0  0  0  0
 26 27  1  0  0  0  0
 28 29  1  0  0  0  0
 30 31  1  1  0  0  0
M  END
>  <CHROM.1>
179.31263422,152.57004030,52.76429066,-55.64216088,-176.80981361,-69.05239734
19.52651279,7.58262797,11.44455712,-1.56797734,-0.41535184,0.07620702

>  <Name>
2o3x_lig

>  <RI>
0

>  <Rbt.Current_Directory>
/home/itssahil/PROJECTS/Mol_Feturizer/New_Systems/rnas/2o3x

>  <Rbt.Executable>
rbdock ($Id: //depot/dev/client3/rdock/2013.1/src/exe/rbdock.cxx#4 $)

>  <Rbt.Library>
libRbt.so (2013.1, Build901 2013/11/27)

>  <Rbt.Parameter_File>
/export/apps/rDock/src/rDock_2013.1_src/data/scripts/dock_solv.prm

>  <Rbt.Receptor>
prm/pocket_docking_5.prm

>  <SCORE>
-10.8362

>  <SCORE.INTER>
-9.29853

>  <SCORE.INTER.CONST>
1

>  <SCORE.INTER.POLAR>
-0.948803

>  <SCORE.INTER.ROT>
6

>  <SCORE.INTER.SOLV>
13.8583

>  <SCORE.INTER.VDW>
-15.2558

>  <SCORE.INTER.norm>
-0.299952

>  <SCORE.INTRA>
-1.5784

>  <SCORE.INTRA.DIHEDRAL>
-5.33762

>  <SCORE.INTRA.DIHEDRAL.0>
9.37739

>  <SCORE.INTRA.POLAR>
0

>  <SCORE.INTRA.POLAR.0>
0

>  <SCORE.INTRA.REPUL>
0

>  <SCORE.INTRA.REPUL.0>
0

>  <SCORE.INTRA.SOLV>
-1.1402

>  <SCORE.INTRA.SOLV.lig_0>
-82.9274

>  <SCORE.INTRA.VDW>
1.66052

>  <SCORE.INTRA.VDW.0>
-3.84922

>  <SCORE.INTRA.norm>
-0.0509161

>  <SCORE.RESTR>
0.0407226

>  <SCORE.RESTR.CAVITY>
0.0407226

>  <SCORE.RESTR.norm>
0.00131363

>  <SCORE.SYSTEM>
0

>  <SCORE.SYSTEM.CONST>
0

>  <SCORE.SYSTEM.DIHEDRAL>
0

>  <SCORE.SYSTEM.SOLV>
0

>  <SCORE.SYSTEM.norm>
0

>  <SCORE.heavy>
31

>  <SCORE.norm>
-0.349555

>  <RMSD>
7.271

$$$$
2o3x_lig
 OpenBabel11021811463D
libRbt.so/2013.1/901 2013/11/27
 31 33  0  0  0  0  0  0  0  0999 V2000
   21.1185    5.1450    8.3580 C   0  0  2  0  0  0  0  0  0  0  0  0
   20.8047    5.9864    9.4756 O   0  0  0  0  0  0  0  0  0  0  0  0
   23.3675    7.8248   12.3652 C   0  0  2  0  0  0  0  0  0  0  0  0
   24.3792    8.0612   13.4188 N   0  0  0  0  0  0  0  0  0  0  0  0
   24.9036    6.1453    8.4269 C   0  0  1  0  0  0  0  0  0  0  0  0
   19.8939    5.1361    7.3890 C   0  0  2  0  0  0  0  0  0  0  0  0
   19.3929    6.5057    7.1080 N   0  0  0  0  0  0  0  0  0  0  0  0
   22.1495    6.9967   12.8944 C   0  0  0  0  0  0  0  0  0  0  0  0
   25.4914    4.9625    7.5892 C   0  0  2  0  0  0  0  0  0  0  0  0
   26.3737    4.0528    8.3022 O   0  0  0  0  0  0  0  0  0  0  0  0
   18.7256    4.3088    7.9578 C   0  0  1  0  0  0  0  0  0  0  0  0
   17.6555    4.2729    7.0478 O   0  0  0  0  0  0  0  0  0  0  0  0
   21.1223    6.8256   11.7163 C   0  0  2  0  0  0  0  0  0  0  0  0
   19.9152    6.0582   12.1468 N   0  0  0  0  0  0  0  0  0  0  0  0
   26.1284    5.7776    6.4762 C   0  0  2  0  0  0  0  0  0  0  0  0
   27.4140    6.3441    6.9050 O   0  0  0  0  0  0  0  0  0  0  0  0
   19.2016    2.9015    8.2765 C   0  0  2  0  0  0  0  0  0  0  0  0
   18.1425    2.1456    8.7688 O   0  0  0  0  0  0  0  0  0  0  0  0
   21.7817    6.0784   10.5222 C   0  0  2  0  0  0  0  0  0  0  0  0
   25.1170    6.8800    6.1848 C   0  0  2  0  0  0  0  0  0  0  0  0
   24.7169    7.2281    7.5074 O   0  0  0  0  0  0  0  0  0  0  0  0
   20.3540    2.9550    9.3190 C   0  0  2  0  0  0  0  0  0  0  0  0
   21.4397    3.7546    8.8025 O   0  0  0  0  0  0  0  0  0  0  0  0
   23.0511    6.7750    9.9933 C   0  0  2  0  0  0  0  0  0  0  0  0
   23.6589    5.8130    9.0612 O   0  0  0  0  0  0  0  0  0  0  0  0
   23.8802    6.4329    5.3340 C   0  0  0  0  0  0  0  0  0  0  0  0
   23.1268    7.5724    4.9294 N   0  0  0  0  0  0  0  0  0  0  0  0
   20.8853    1.5832    9.6643 C   0  0  0  0  0  0  0  0  0  0  0  0
   21.5097    0.9934    8.5826 O   0  0  0  0  0  0  0  0  0  0  0  0
   24.0474    7.0925   11.1943 C   0  0  1  0  0  0  0  0  0  0  0  0
   25.1316    7.9316   10.7684 O   0  0  0  0  0  0  0  0  0  0  0  0
  1  2  1  1  0  0  0
  1  6  1  0  0  0  0
  1 23  1  0  0  0  0
  3  4  1  1  0  0  0
  3  8  1  0  0  0  0
  3 30  1  0  0  0  0
  5  9  1  0  0  0  0
  5 21  1  0  0  0  0
  5 25  1  6  0  0  0
  6  7  1  1  0  0  0
  6 11  1  0  0  0  0
  8 13  1  0  0  0  0
  9 10  1  1  0  0  0
  9 15  1  0  0  0  0
 11 12  1  6  0  0  0
 11 17  1  0  0  0  0
 13 14  1  1  0  0  0
 13 19  1  0  0  0  0
 15 16  1  1  0  0  0
 15 20  1  0  0  0  0
 17 18  1  1  0  0  0
 17 22  1  0  0  0  0
 19  2  1  6  0  0  0
 19 24  1  0  0  0  0
 20 21  1  0  0  0  0
 20 26  1  6  0  0  0
 22 23  1  0  0  0  0
 22 28  1  6  0  0  0
 24 25  1  6  0  0  0
 24 30  1  0  0  0  0
 26 27  1  0  0  0  0
 28 29  1  0  0  0  0
 30 31  1  6  0  0  0
M  END
>  <CHROM.1>
177.02850538,173.85967076,-170.07092749,-170.06536590,66.29699685,-177.66326899
22.42656843,5.46787251,8.89897301,-2.96679724,0.45938174,1.17145876

>  <Name>
2o3x_lig

>  <RI>
3.34184e+07

>  <Rbt.Current_Directory>
/home/itssahil/PROJECTS/Mol_Feturizer/New_Systems/rnas/2o3x

>  <Rbt.Executable>
rbdock ($Id: //depot/dev/client3/rdock/2013.1/src/exe/rbdock.cxx#4 $)

>  <Rbt.Library>
libRbt.so (2013.1, Build901 2013/11/27)

>  <Rbt.Parameter_File>
/export/apps/rDock/src/rDock_2013.1_src/data/scripts/dock_solv.prm

>  <Rbt.Receptor>
prm/pocket_docking_6.prm

>  <SCORE>
-15.3732

>  <SCORE.INTER>
-11.1721

>  <SCORE.INTER.CONST>
1

>  <SCORE.INTER.POLAR>
-0.692599

>  <SCORE.INTER.ROT>
6

>  <SCORE.INTER.SOLV>
14.7399

>  <SCORE.INTER.VDW>
-17.6527

>  <SCORE.INTER.norm>
-0.360391

>  <SCORE.INTRA>
-4.20111

>  <SCORE.INTRA.DIHEDRAL>
-8.00962

>  <SCORE.INTRA.DIHEDRAL.0>
9.37739

>  <SCORE.INTRA.POLAR>
0

>  <SCORE.INTRA.POLAR.0>
0

>  <SCORE.INTRA.REPUL>
0

>  <SCORE.INTRA.REPUL.0>
0

>  <SCORE.INTRA.SOLV>
-3.04219

>  <SCORE.INTRA.SOLV.lig_0>
-82.9274

>  <SCORE.INTRA.VDW>
1.32479

>  <SCORE.INTRA.VDW.0>
-3.84922

>  <SCORE.INTRA.norm>
-0.13552

>  <SCORE.RESTR>
0

>  <SCORE.RESTR.CAVITY>
0

>  <SCORE.RESTR.norm>
0

>  <SCORE.SYSTEM>
0

>  <SCORE.SYSTEM.CONST>
0

>  <SCORE.SYSTEM.DIHEDRAL>
0

>  <SCORE.SYSTEM.SOLV>
0

>  <SCORE.SYSTEM.norm>
0

>  <SCORE.heavy>
31

>  <SCORE.norm>
-0.495911

>  <RMSD>
7.306

$$$$
2o3x_lig
 OpenBabel11021811463D
libRbt.so/2013.1/901 2013/11/27
 31 33  0  0  0  0  0  0  0  0999 V2000
   17.6930    6.8776    9.2736 C   0  0  2  0  0  0  0  0  0  0  0  0
   17.4536    7.4883   10.5484 O   0  0  0  0  0  0  0  0  0  0  0  0
   19.2138   11.0289   12.1805 C   0  0  2  0  0  0  0  0  0  0  0  0
   20.1752   12.0256   12.7020 N   0  0  0  0  0  0  0  0  0  0  0  0
   19.5264    9.7545    7.7439 C   0  0  1  0  0  0  0  0  0  0  0  0
   16.4235    6.0618    8.8722 C   0  0  2  0  0  0  0  0  0  0  0  0
   15.1757    6.8493    9.0415 N   0  0  0  0  0  0  0  0  0  0  0  0
   19.1032    9.7753   13.1109 C   0  0  0  0  0  0  0  0  0  0  0  0
   20.4125    9.0605    6.6579 C   0  0  2  0  0  0  0  0  0  0  0  0
   21.8438    9.2976    6.7560 O   0  0  0  0  0  0  0  0  0  0  0  0
   16.2899    4.7727    9.7048 C   0  0  1  0  0  0  0  0  0  0  0  0
   15.1704    4.0306    9.2921 O   0  0  0  0  0  0  0  0  0  0  0  0
   18.0416    8.7950   12.4908 C   0  0  2  0  0  0  0  0  0  0  0  0
   17.8620    7.5750   13.3337 N   0  0  0  0  0  0  0  0  0  0  0  0
   19.7246    9.6194    5.4237 C   0  0  2  0  0  0  0  0  0  0  0  0
   20.1613   10.9954    5.1526 O   0  0  0  0  0  0  0  0  0  0  0  0
   17.5566    3.9440    9.5731 C   0  0  2  0  0  0  0  0  0  0  0  0
   17.4293    2.7682   10.3059 O   0  0  0  0  0  0  0  0  0  0  0  0
   18.4775    8.3501   11.0656 C   0  0  2  0  0  0  0  0  0  0  0  0
   18.2393    9.5757    5.7631 C   0  0  2  0  0  0  0  0  0  0  0  0
   18.2645   10.0164    7.1179 O   0  0  0  0  0  0  0  0  0  0  0  0
   18.7796    4.7614   10.0768 C   0  0  2  0  0  0  0  0  0  0  0  0
   18.8914    5.9854    9.3190 O   0  0  0  0  0  0  0  0  0  0  0  0
   18.7041    9.5310   10.1010 C   0  0  2  0  0  0  0  0  0  0  0  0
   19.3409    8.9417    8.9131 O   0  0  0  0  0  0  0  0  0  0  0  0
   17.5793    8.1593    5.6558 C   0  0  0  0  0  0  0  0  0  0  0  0
   17.7046    7.6604    4.3271 N   0  0  0  0  0  0  0  0  0  0  0  0
   20.0768    3.9962    9.9536 C   0  0  0  0  0  0  0  0  0  0  0  0
   21.1406    4.7148   10.4632 O   0  0  0  0  0  0  0  0  0  0  0  0
   19.6636   10.6124   10.7685 C   0  0  1  0  0  0  0  0  0  0  0  0
   19.7172   11.8176    9.9901 O   0  0  0  0  0  0  0  0  0  0  0  0
  1  2  1  1  0  0  0
  1  6  1  0  0  0  0
  1 23  1  0  0  0  0
  3  4  1  1  0  0  0
  3  8  1  0  0  0  0
  3 30  1  0  0  0  0
  5  9  1  0  0  0  0
  5 21  1  0  0  0  0
  5 25  1  1  0  0  0
  6  7  1  1  0  0  0
  6 11  1  0  0  0  0
  8 13  1  0  0  0  0
  9 10  1  1  0  0  0
  9 15  1  0  0  0  0
 11 12  1  6  0  0  0
 11 17  1  0  0  0  0
 13 14  1  1  0  0  0
 13 19  1  0  0  0  0
 15 16  1  1  0  0  0
 15 20  1  0  0  0  0
 17 18  1  1  0  0  0
 17 22  1  0  0  0  0
 19  2  1  6  0  0  0
 19 24  1  0  0  0  0
 20 21  1  0  0  0  0
 20 26  1  1  0  0  0
 22 23  1  0  0  0  0
 22 28  1  6  0  0  0
 24 25  1  6  0  0  0
 24 30  1  0  0  0  0
 26 27  1  0  0  0  0
 28 29  1  0  0  0  0
 30 31  1  6  0  0  0
M  END
>  <CHROM.1>
-176.58120353,170.88310472,-175.59751358,-59.83947570,-177.18883458,171.84788754
18.59489714,7.87993502,9.19452478,2.81767809,1.20087252,1.55052790

>  <Name>
2o3x_lig

>  <RI>
0

>  <Rbt.Current_Directory>
/home/itssahil/PROJECTS/Mol_Feturizer/New_Systems/rnas/2o3x

>  <Rbt.Executable>
rbdock ($Id: //depot/dev/client3/rdock/2013.1/src/exe/rbdock.cxx#4 $)

>  <Rbt.Library>
libRbt.so (2013.1, Build901 2013/11/27)

>  <Rbt.Parameter_File>
/export/apps/rDock/src/rDock_2013.1_src/data/scripts/dock_solv.prm

>  <Rbt.Receptor>
prm/pocket_docking_8.prm

>  <SCORE>
-13.668

>  <SCORE.INTER>
-9.47528

>  <SCORE.INTER.CONST>
1

>  <SCORE.INTER.POLAR>
-1.82961

>  <SCORE.INTER.ROT>
6

>  <SCORE.INTER.SOLV>
8.9077

>  <SCORE.INTER.VDW>
-10.7874

>  <SCORE.INTER.norm>
-0.305654

>  <SCORE.INTRA>
-4.19269

>  <SCORE.INTRA.DIHEDRAL>
-8.28666

>  <SCORE.INTRA.DIHEDRAL.0>
9.37739

>  <SCORE.INTRA.POLAR>
0

>  <SCORE.INTRA.POLAR.0>
0

>  <SCORE.INTRA.REPUL>
0

>  <SCORE.INTRA.REPUL.0>
0

>  <SCORE.INTRA.SOLV>
-2.76766

>  <SCORE.INTRA.SOLV.lig_0>
-82.9274

>  <SCORE.INTRA.VDW>
1.33447

>  <SCORE.INTRA.VDW.0>
-3.84922

>  <SCORE.INTRA.norm>
-0.135248

>  <SCORE.RESTR>
0

>  <SCORE.RESTR.CAVITY>
0

>  <SCORE.RESTR.norm>
0

>  <SCORE.SYSTEM>
0

>  <SCORE.SYSTEM.CONST>
0

>  <SCORE.SYSTEM.DIHEDRAL>
0

>  <SCORE.SYSTEM.SOLV>
0

>  <SCORE.SYSTEM.norm>
0

>  <SCORE.heavy>
31

>  <SCORE.norm>
-0.440902

>  <RMSD>
7.342

$$$$
2o3x_lig
 OpenBabel11021811463D
libRbt.so/2013.1/901 2013/11/27
 31 33  0  0  0  0  0  0  0  0999 V2000
   23.8016    7.9089   10.7071 C   0  0  2  0  0  0  0  0  0  0  0  0
   24.0087    6.5771   10.2184 O   0  0  0  0  0  0  0  0  0  0  0  0
   22.4265    7.2485    6.3012 C   0  0  2  0  0  0  0  0  0  0  0  0
   21.8353    7.0612    4.9578 N   0  0  0  0  0  0  0  0  0  0  0  0
   20.4792    4.8093    9.1812 C   0  0  1  0  0  0  0  0  0  0  0  0
   24.9418    8.2447   11.7199 C   0  0  2  0  0  0  0  0  0  0  0  0
   26.2842    7.9023   11.1846 N   0  0  0  0  0  0  0  0  0  0  0  0
   23.8508    6.6093    6.4115 C   0  0  0  0  0  0  0  0  0  0  0  0
   21.3427    3.8458    8.3025 C   0  0  2  0  0  0  0  0  0  0  0  0
   21.4400    4.1845    6.8918 O   0  0  0  0  0  0  0  0  0  0  0  0
   24.7556    7.4964   13.0534 C   0  0  1  0  0  0  0  0  0  0  0  0
   25.7632    7.8525   13.9656 O   0  0  0  0  0  0  0  0  0  0  0  0
   24.4034    6.8864    7.8573 C   0  0  2  0  0  0  0  0  0  0  0  0
   25.7743    6.3218    8.0391 N   0  0  0  0  0  0  0  0  0  0  0  0
   20.6251    2.5473    8.6311 C   0  0  2  0  0  0  0  0  0  0  0  0
   19.3817    2.4206    7.8594 O   0  0  0  0  0  0  0  0  0  0  0  0
   23.3833    7.8061   13.6275 C   0  0  2  0  0  0  0  0  0  0  0  0
   23.2216    7.1496   14.8435 O   0  0  0  0  0  0  0  0  0  0  0  0
   23.4660    6.2598    8.9287 C   0  0  2  0  0  0  0  0  0  0  0  0
   20.3331    2.6409   10.1241 C   0  0  2  0  0  0  0  0  0  0  0  0
   19.9278    4.0029   10.2294 O   0  0  0  0  0  0  0  0  0  0  0  0
   22.2781    7.3643   12.6271 C   0  0  2  0  0  0  0  0  0  0  0  0
   22.4662    8.0407   11.3654 O   0  0  0  0  0  0  0  0  0  0  0  0
   22.0117    6.7622    8.8348 C   0  0  2  0  0  0  0  0  0  0  0  0
   21.2437    5.8904    9.7371 O   0  0  0  0  0  0  0  0  0  0  0  0
   21.5598    2.3567   11.0556 C   0  0  0  0  0  0  0  0  0  0  0  0
   22.7707    2.7025   10.3891 N   0  0  0  0  0  0  0  0  0  0  0  0
   20.8864    7.6640   13.1338 C   0  0  0  0  0  0  0  0  0  0  0  0
   20.6924    9.0197   13.3136 O   0  0  0  0  0  0  0  0  0  0  0  0
   21.4765    6.6276    7.3411 C   0  0  1  0  0  0  0  0  0  0  0  0
   20.2114    7.2859    7.1759 O   0  0  0  0  0  0  0  0  0  0  0  0
  1  2  1  1  0  0  0
  1  6  1  0  0  0  0
  1 23  1  0  0  0  0
  3  4  1  6  0  0  0
  3  8  1  0  0  0  0
  3 30  1  0  0  0  0
  5  9  1  0  0  0  0
  5 21  1  0  0  0  0
  5 25  1  1  0  0  0
  6  7  1  6  0  0  0
  6 11  1  0  0  0  0
  8 13  1  0  0  0  0
  9 10  1  6  0  0  0
  9 15  1  0  0  0  0
 11 12  1  1  0  0  0
 11 17  1  0  0  0  0
 13 14  1  6  0  0  0
 13 19  1  0  0  0  0
 15 16  1  6  0  0  0
 15 20  1  0  0  0  0
 17 18  1  1  0  0  0
 17 22  1  0  0  0  0
 19  2  1  1  0  0  0
 19 24  1  0  0  0  0
 20 21  1  0  0  0  0
 20 26  1  1  0  0  0
 22 23  1  0  0  0  0
 22 28  1  1  0  0  0
 24 25  1  1  0  0  0
 24 30  1  0  0  0  0
 26 27  1  0  0  0  0
 28 29  1  0  0  0  0
 30 31  1  1  0  0  0
M  END
>  <CHROM.1>
-154.62013965,55.49151312,77.01706539,28.17582846,61.98957960,-100.44440466
22.45371087,6.11641720,9.96822781,-0.94296835,-0.81738294,-1.64564867

>  <Name>
2o3x_lig

>  <RI>
0

>  <Rbt.Current_Directory>
/home/itssahil/PROJECTS/Mol_Feturizer/New_Systems/rnas/2o3x

>  <Rbt.Executable>
rbdock ($Id: //depot/dev/client3/rdock/2013.1/src/exe/rbdock.cxx#4 $)

>  <Rbt.Library>
libRbt.so (2013.1, Build901 2013/11/27)

>  <Rbt.Parameter_File>
/export/apps/rDock/src/rDock_2013.1_src/data/scripts/dock_solv.prm

>  <Rbt.Receptor>
prm/blind_docking_40.prm

>  <SCORE>
17.6964

>  <SCORE.INTER>
2.29811

>  <SCORE.INTER.CONST>
1

>  <SCORE.INTER.POLAR>
-0.9983

>  <SCORE.INTER.ROT>
6

>  <SCORE.INTER.SOLV>
26.6585

>  <SCORE.INTER.VDW>
-11.6264

>  <SCORE.INTER.norm>
0.0741326

>  <SCORE.INTRA>
9.2256

>  <SCORE.INTRA.DIHEDRAL>
3.25119

>  <SCORE.INTRA.DIHEDRAL.0>
9.37739

>  <SCORE.INTRA.POLAR>
0

>  <SCORE.INTRA.POLAR.0>
0

>  <SCORE.INTRA.REPUL>
0.000317432

>  <SCORE.INTRA.REPUL.0>
0

>  <SCORE.INTRA.SOLV>
4.39722

>  <SCORE.INTRA.SOLV.lig_0>
-82.9274

>  <SCORE.INTRA.VDW>
5.39981

>  <SCORE.INTRA.VDW.0>
-3.84922

>  <SCORE.INTRA.norm>
0.2976

>  <SCORE.RESTR>
6.17269

>  <SCORE.RESTR.CAVITY>
6.17269

>  <SCORE.RESTR.norm>
0.199119

>  <SCORE.SYSTEM>
0

>  <SCORE.SYSTEM.CONST>
0

>  <SCORE.SYSTEM.DIHEDRAL>
0

>  <SCORE.SYSTEM.SOLV>
0

>  <SCORE.SYSTEM.norm>
0

>  <SCORE.heavy>
31

>  <SCORE.norm>
0.570851

>  <RMSD>
7.374

$$$$
2o3x_lig
 OpenBabel11021811463D
libRbt.so/2013.1/901 2013/11/27
 31 33  0  0  0  0  0  0  0  0999 V2000
   17.6284    6.4865    6.7760 C   0  0  2  0  0  0  0  0  0  0  0  0
   17.6533    5.1564    6.2415 O   0  0  0  0  0  0  0  0  0  0  0  0
   18.4195    3.9647    2.2053 C   0  0  2  0  0  0  0  0  0  0  0  0
   18.3303    3.7717    0.7409 N   0  0  0  0  0  0  0  0  0  0  0  0
   19.1297    8.2350    3.9475 C   0  0  1  0  0  0  0  0  0  0  0  0
   18.2049    6.4452    8.2266 C   0  0  2  0  0  0  0  0  0  0  0  0
   19.4825    5.6913    8.2996 N   0  0  0  0  0  0  0  0  0  0  0  0
   17.2497    3.2545    2.9646 C   0  0  0  0  0  0  0  0  0  0  0  0
   18.4933    9.6574    3.8135 C   0  0  2  0  0  0  0  0  0  0  0  0
   18.0028   10.0145    2.4921 O   0  0  0  0  0  0  0  0  0  0  0  0
   17.2138    5.7998    9.2136 C   0  0  1  0  0  0  0  0  0  0  0  0
   17.7321    5.8196   10.5194 O   0  0  0  0  0  0  0  0  0  0  0  0
   17.4491    3.4910    4.5062 C   0  0  2  0  0  0  0  0  0  0  0  0
   16.3784    2.8253    5.3073 N   0  0  0  0  0  0  0  0  0  0  0  0
   19.6653   10.4718    4.3351 C   0  0  2  0  0  0  0  0  0  0  0  0
   20.6933   10.6419    3.2997 O   0  0  0  0  0  0  0  0  0  0  0  0
   15.8839    6.5323    9.1569 C   0  0  2  0  0  0  0  0  0  0  0  0
   14.9943    5.9656   10.0642 O   0  0  0  0  0  0  0  0  0  0  0  0
   17.4343    5.0120    4.8309 C   0  0  2  0  0  0  0  0  0  0  0  0
   20.2018    9.6593    5.5077 C   0  0  2  0  0  0  0  0  0  0  0  0
   20.1247    8.3407    4.9730 O   0  0  0  0  0  0  0  0  0  0  0  0
   15.3008    6.4620    7.7172 C   0  0  2  0  0  0  0  0  0  0  0  0
   16.2396    7.0390    6.7841 O   0  0  0  0  0  0  0  0  0  0  0  0
   18.4971    5.8119    4.0518 C   0  0  2  0  0  0  0  0  0  0  0  0
   18.1681    7.2255    4.2915 O   0  0  0  0  0  0  0  0  0  0  0  0
   19.3631    9.7700    6.8259 C   0  0  0  0  0  0  0  0  0  0  0  0
   20.0203    9.0778    7.8836 N   0  0  0  0  0  0  0  0  0  0  0  0
   13.9833    7.1910    7.5908 C   0  0  0  0  0  0  0  0  0  0  0  0
   12.9810    6.5546    8.2968 O   0  0  0  0  0  0  0  0  0  0  0  0
   18.4110    5.4760    2.4976 C   0  0  1  0  0  0  0  0  0  0  0  0
   19.5220    6.0324    1.7784 O   0  0  0  0  0  0  0  0  0  0  0  0
  1  2  1  1  0  0  0
  1  6  1  0  0  0  0
  1 23  1  0  0  0  0
  3  4  1  6  0  0  0
  3  8  1  0  0  0  0
  3 30  1  0  0  0  0
  5  9  1  0  0  0  0
  5 21  1  0  0  0  0
  5 25  1  1  0  0  0
  6  7  1  6  0  0  0
  6 11  1  0  0  0  0
  8 13  1  0  0  0  0
  9 10  1  6  0  0  0
  9 15  1  0  0  0  0
 11 12  1  1  0  0  0
 11 17  1  0  0  0  0
 13 14  1  1  0  0  0
 13 19  1  0  0  0  0
 15 16  1  6  0  0  0
 15 20  1  0  0  0  0
 17 18  1  1  0  0  0
 17 22  1  0  0  0  0
 19  2  1  1  0  0  0
 19 24  1  0  0  0  0
 20 21  1  0  0  0  0
 20 26  1  1  0  0  0
 22 23  1  0  0  0  0
 22 28  1  1  0  0  0
 24 25  1  6  0  0  0
 24 30  1  0  0  0  0
 26 27  1  0  0  0  0
 28 29  1  0  0  0  0
 30 31  1  6  0  0  0
M  END
>  <CHROM.1>
-167.14502722,161.20826503,-177.68981081,-174.51536134,-68.06497371,166.56861303
17.81864648,6.73249109,5.66501320,-2.58176925,-0.96774183,-2.25103758

>  <Name>
2o3x_lig

>  <RI>
0

>  <Rbt.Current_Directory>
/home/itssahil/PROJECTS/Mol_Feturizer/New_Systems/rnas/2o3x

>  <Rbt.Executable>
rbdock ($Id: //depot/dev/client3/rdock/2013.1/src/exe/rbdock.cxx#4 $)

>  <Rbt.Library>
libRbt.so (2013.1, Build901 2013/11/27)

>  <Rbt.Parameter_File>
/export/apps/rDock/src/rDock_2013.1_src/data/scripts/dock_solv.prm

>  <Rbt.Receptor>
prm/pocket_docking_8.prm

>  <SCORE>
-6.70894

>  <SCORE.INTER>
-4.80231

>  <SCORE.INTER.CONST>
1

>  <SCORE.INTER.POLAR>
0

>  <SCORE.INTER.ROT>
6

>  <SCORE.INTER.SOLV>
9.5705

>  <SCORE.INTER.VDW>
-13.9917

>  <SCORE.INTER.norm>
-0.154913

>  <SCORE.INTRA>
-1.90662

>  <SCORE.INTRA.DIHEDRAL>
-5.6078

>  <SCORE.INTRA.DIHEDRAL.0>
9.37739

>  <SCORE.INTRA.POLAR>
0

>  <SCORE.INTRA.POLAR.0>
0

>  <SCORE.INTRA.REPUL>
0

>  <SCORE.INTRA.REPUL.0>
0

>  <SCORE.INTRA.SOLV>
-0.0151547

>  <SCORE.INTRA.SOLV.lig_0>
-82.9274

>  <SCORE.INTRA.VDW>
0.904854

>  <SCORE.INTRA.VDW.0>
-3.84922

>  <SCORE.INTRA.norm>
-0.061504

>  <SCORE.RESTR>
0

>  <SCORE.RESTR.CAVITY>
0

>  <SCORE.RESTR.norm>
0

>  <SCORE.SYSTEM>
0

>  <SCORE.SYSTEM.CONST>
0

>  <SCORE.SYSTEM.DIHEDRAL>
0

>  <SCORE.SYSTEM.SOLV>
0

>  <SCORE.SYSTEM.norm>
0

>  <SCORE.heavy>
31

>  <SCORE.norm>
-0.216417

>  <RMSD>
7.397

$$$$
2o3x_lig
 OpenBabel11021811463D
libRbt.so/2013.1/901 2013/11/27
 31 33  0  0  0  0  0  0  0  0999 V2000
   18.0682    7.3329    9.9832 C   0  0  2  0  0  0  0  0  0  0  0  0
   16.8614    7.6988    9.3011 O   0  0  0  0  0  0  0  0  0  0  0  0
   18.6937    8.8774    5.6199 C   0  0  2  0  0  0  0  0  0  0  0  0
   18.9742    9.5136    4.3137 N   0  0  0  0  0  0  0  0  0  0  0  0
   18.3718   11.6148    9.2896 C   0  0  1  0  0  0  0  0  0  0  0  0
   18.0277    5.7979   10.2667 C   0  0  2  0  0  0  0  0  0  0  0  0
   17.6463    5.0165    9.0627 N   0  0  0  0  0  0  0  0  0  0  0  0
   17.4790    7.8933    5.5463 C   0  0  0  0  0  0  0  0  0  0  0  0
   17.9009   12.3485   10.5881 C   0  0  2  0  0  0  0  0  0  0  0  0
   16.9285   13.4135   10.4016 O   0  0  0  0  0  0  0  0  0  0  0  0
   17.0337    5.4542   11.3922 C   0  0  1  0  0  0  0  0  0  0  0  0
   17.0514    4.0759   11.6644 O   0  0  0  0  0  0  0  0  0  0  0  0
   17.2813    7.2493    6.9671 C   0  0  2  0  0  0  0  0  0  0  0  0
   16.1467    6.2778    6.9769 N   0  0  0  0  0  0  0  0  0  0  0  0
   19.2647   12.7709   11.1079 C   0  0  2  0  0  0  0  0  0  0  0  0
   19.7540   13.9623   10.4015 O   0  0  0  0  0  0  0  0  0  0  0  0
   17.3787    6.2485   12.6407 C   0  0  2  0  0  0  0  0  0  0  0  0
   16.4962    5.9226   13.6658 O   0  0  0  0  0  0  0  0  0  0  0  0
   16.9979    8.3493    8.0296 C   0  0  2  0  0  0  0  0  0  0  0  0
   20.1636   11.5699   10.8386 C   0  0  2  0  0  0  0  0  0  0  0  0
   19.7179   11.1922    9.5390 O   0  0  0  0  0  0  0  0  0  0  0  0
   17.3095    7.7716   12.3360 C   0  0  2  0  0  0  0  0  0  0  0  0
   18.2180    8.0938   11.2610 O   0  0  0  0  0  0  0  0  0  0  0  0
   18.1027    9.4216    8.1063 C   0  0  2  0  0  0  0  0  0  0  0  0
   17.5499   10.4842    8.9603 O   0  0  0  0  0  0  0  0  0  0  0  0
   19.9971   10.3820   11.8459 C   0  0  0  0  0  0  0  0  0  0  0  0
   20.2365   10.8315   13.1765 N   0  0  0  0  0  0  0  0  0  0  0  0
   17.6621    8.6181   13.5371 C   0  0  0  0  0  0  0  0  0  0  0  0
   17.3924    9.9542   13.3135 O   0  0  0  0  0  0  0  0  0  0  0  0
   18.4252    9.9866    6.6529 C   0  0  1  0  0  0  0  0  0  0  0  0
   19.5934   10.8211    6.6620 O   0  0  0  0  0  0  0  0  0  0  0  0
  1  2  1  1  0  0  0
  1  6  1  0  0  0  0
  1 23  1  0  0  0  0
  3  4  1  6  0  0  0
  3  8  1  0  0  0  0
  3 30  1  0  0  0  0
  5  9  1  0  0  0  0
  5 21  1  0  0  0  0
  5 25  1  1  0  0  0
  6  7  1  6  0  0  0
  6 11  1  0  0  0  0
  8 13  1  0  0  0  0
  9 10  1  6  0  0  0
  9 15  1  0  0  0  0
 11 12  1  1  0  0  0
 11 17  1  0  0  0  0
 13 14  1  6  0  0  0
 13 19  1  0  0  0  0
 15 16  1  6  0  0  0
 15 20  1  0  0  0  0
 17 18  1  1  0  0  0
 17 22  1  0  0  0  0
 19  2  1  1  0  0  0
 19 24  1  0  0  0  0
 20 21  1  0  0  0  0
 20 26  1  1  0  0  0
 22 23  1  0  0  0  0
 22 28  1  1  0  0  0
 24 25  1  1  0  0  0
 24 30  1  0  0  0  0
 26 27  1  0  0  0  0
 28 29  1  0  0  0  0
 30 31  1  1  0  0  0
M  END
>  <CHROM.1>
-123.42204527,-157.76319865,80.01684156,-57.37277107,-170.45735775,176.81074527
18.08245666,9.02636634,9.82891595,2.86709301,1.28030945,1.53526427

>  <Name>
2o3x_lig

>  <RI>
2.78316e+07

>  <Rbt.Current_Directory>
/home/itssahil/PROJECTS/Mol_Feturizer/New_Systems/rnas/2o3x

>  <Rbt.Executable>
rbdock ($Id: //depot/dev/client3/rdock/2013.1/src/exe/rbdock.cxx#4 $)

>  <Rbt.Library>
libRbt.so (2013.1, Build901 2013/11/27)

>  <Rbt.Parameter_File>
/export/apps/rDock/src/rDock_2013.1_src/data/scripts/dock_solv.prm

>  <Rbt.Receptor>
prm/pocket_docking_7.prm

>  <SCORE>
-0.90653

>  <SCORE.INTER>
-4.80194

>  <SCORE.INTER.CONST>
1

>  <SCORE.INTER.POLAR>
-1.18254

>  <SCORE.INTER.ROT>
6

>  <SCORE.INTER.SOLV>
11.0848

>  <SCORE.INTER.VDW>
-10.5544

>  <SCORE.INTER.norm>
-0.154901

>  <SCORE.INTRA>
3.89541

>  <SCORE.INTRA.DIHEDRAL>
2.28265

>  <SCORE.INTRA.DIHEDRAL.0>
9.37739

>  <SCORE.INTRA.POLAR>
0

>  <SCORE.INTRA.POLAR.0>
0

>  <SCORE.INTRA.REPUL>
0

>  <SCORE.INTRA.REPUL.0>
0

>  <SCORE.INTRA.SOLV>
4.03899

>  <SCORE.INTRA.SOLV.lig_0>
-82.9274

>  <SCORE.INTRA.VDW>
0.734593

>  <SCORE.INTRA.VDW.0>
-3.84922

>  <SCORE.INTRA.norm>
0.125658

>  <SCORE.RESTR>
0

>  <SCORE.RESTR.CAVITY>
0

>  <SCORE.RESTR.norm>
0

>  <SCORE.SYSTEM>
0

>  <SCORE.SYSTEM.CONST>
0

>  <SCORE.SYSTEM.DIHEDRAL>
0

>  <SCORE.SYSTEM.SOLV>
0

>  <SCORE.SYSTEM.norm>
0

>  <SCORE.heavy>
31

>  <SCORE.norm>
-0.0292429

>  <RMSD>
7.399

$$$$
2o3x_lig
 OpenBabel11021811463D
libRbt.so/2013.1/901 2013/11/27
 31 33  0  0  0  0  0  0  0  0999 V2000
   23.4699    6.8872   12.1731 C   0  0  2  0  0  0  0  0  0  0  0  0
   22.9371    7.6525   11.0842 O   0  0  0  0  0  0  0  0  0  0  0  0
   23.0404    7.5734    6.8085 C   0  0  2  0  0  0  0  0  0  0  0  0
   23.1360    7.1340    5.3988 N   0  0  0  0  0  0  0  0  0  0  0  0
   21.4717    4.8776   10.0633 C   0  0  1  0  0  0  0  0  0  0  0  0
   22.6638    7.2393   13.4634 C   0  0  2  0  0  0  0  0  0  0  0  0
   21.1968    7.1953   13.2360 N   0  0  0  0  0  0  0  0  0  0  0  0
   24.3946    7.3966    7.5730 C   0  0  0  0  0  0  0  0  0  0  0  0
   20.5798    4.0636   11.0573 C   0  0  2  0  0  0  0  0  0  0  0  0
   20.8211    4.3009   12.4714 O   0  0  0  0  0  0  0  0  0  0  0  0
   23.0221    8.6410   13.9921 C   0  0  1  0  0  0  0  0  0  0  0  0
   22.3236    8.9155   15.1800 O   0  0  0  0  0  0  0  0  0  0  0  0
   24.2000    7.9163    9.0442 C   0  0  2  0  0  0  0  0  0  0  0  0
   25.4591    7.7993    9.8393 N   0  0  0  0  0  0  0  0  0  0  0  0
   20.9016    2.6684   10.5483 C   0  0  2  0  0  0  0  0  0  0  0  0
   22.1990    2.2058   11.0585 O   0  0  0  0  0  0  0  0  0  0  0  0
   24.5212    8.7344   14.2217 C   0  0  2  0  0  0  0  0  0  0  0  0
   24.8444    9.9921   14.7211 O   0  0  0  0  0  0  0  0  0  0  0  0
   23.0844    7.1073    9.7653 C   0  0  2  0  0  0  0  0  0  0  0  0
   20.9328    2.8143    9.0315 C   0  0  2  0  0  0  0  0  0  0  0  0
   21.6201    4.0555    8.8992 O   0  0  0  0  0  0  0  0  0  0  0  0
   25.2789    8.4743   12.8890 C   0  0  2  0  0  0  0  0  0  0  0  0
   24.9231    7.1732   12.3738 O   0  0  0  0  0  0  0  0  0  0  0  0
   21.7307    7.1458    9.0288 C   0  0  2  0  0  0  0  0  0  0  0  0
   20.8945    6.1431    9.7065 O   0  0  0  0  0  0  0  0  0  0  0  0
   19.5261    2.8869    8.3464 C   0  0  0  0  0  0  0  0  0  0  0  0
   18.8350    1.6526    8.5160 N   0  0  0  0  0  0  0  0  0  0  0  0
   26.7795    8.5347   13.0559 C   0  0  0  0  0  0  0  0  0  0  0  0
   27.2139    9.8267   13.2794 O   0  0  0  0  0  0  0  0  0  0  0  0
   21.9257    6.7639    7.4952 C   0  0  1  0  0  0  0  0  0  0  0  0
   20.7289    7.0029    6.7391 O   0  0  0  0  0  0  0  0  0  0  0  0
  1  2  1  6  0  0  0
  1  6  1  0  0  0  0
  1 23  1  0  0  0  0
  3  4  1  6  0  0  0
  3  8  1  0  0  0  0
  3 30  1  0  0  0  0
  5  9  1  0  0  0  0
  5 21  1  0  0  0  0
  5 25  1  6  0  0  0
  6  7  1  6  0  0  0
  6 11  1  0  0  0  0
  8 13  1  0  0  0  0
  9 10  1  1  0  0  0
  9 15  1  0  0  0  0
 11 12  1  1  0  0  0
 11 17  1  0  0  0  0
 13 14  1  1  0  0  0
 13 19  1  0  0  0  0
 15 16  1  1  0  0  0
 15 20  1  0  0  0  0
 17 18  1  6  0  0  0
 17 22  1  0  0  0  0
 19  2  1  1  0  0  0
 19 24  1  0  0  0  0
 20 21  1  0  0  0  0
 20 26  1  1  0  0  0
 22 23  1  0  0  0  0
 22 28  1  1  0  0  0
 24 25  1  1  0  0  0
 24 30  1  0  0  0  0
 26 27  1  0  0  0  0
 28 29  1  0  0  0  0
 30 31  1  6  0  0  0
M  END
>  <CHROM.1>
-153.30922145,166.52362321,-105.39811182,-65.29171446,-70.80265718,-42.52537358
22.73953661,6.48736348,10.71852745,0.65873259,0.86794312,1.57200375

>  <Name>
2o3x_lig

>  <RI>
0

>  <Rbt.Current_Directory>
/home/itssahil/PROJECTS/Mol_Feturizer/New_Systems/rnas/2o3x

>  <Rbt.Executable>
rbdock ($Id: //depot/dev/client3/rdock/2013.1/src/exe/rbdock.cxx#4 $)

>  <Rbt.Library>
libRbt.so (2013.1, Build901 2013/11/27)

>  <Rbt.Parameter_File>
/export/apps/rDock/src/rDock_2013.1_src/data/scripts/dock_solv.prm

>  <Rbt.Receptor>
prm/blind_docking_40.prm

>  <SCORE>
29.9972

>  <SCORE.INTER>
23.804

>  <SCORE.INTER.CONST>
1

>  <SCORE.INTER.POLAR>
-0.0046061

>  <SCORE.INTER.ROT>
6

>  <SCORE.INTER.SOLV>
24.8683

>  <SCORE.INTER.VDW>
-0.0047393

>  <SCORE.INTER.norm>
0.767872

>  <SCORE.INTRA>
3.53716

>  <SCORE.INTRA.DIHEDRAL>
2.6744

>  <SCORE.INTRA.DIHEDRAL.0>
9.37739

>  <SCORE.INTRA.POLAR>
0

>  <SCORE.INTRA.POLAR.0>
0

>  <SCORE.INTRA.REPUL>
0

>  <SCORE.INTRA.REPUL.0>
0

>  <SCORE.INTRA.SOLV>
2.6938

>  <SCORE.INTRA.SOLV.lig_0>
-82.9274

>  <SCORE.INTRA.VDW>
0.853059

>  <SCORE.INTRA.VDW.0>
-3.84922

>  <SCORE.INTRA.norm>
0.114102

>  <SCORE.RESTR>
2.65604

>  <SCORE.RESTR.CAVITY>
2.65604

>  <SCORE.RESTR.norm>
0.0856787

>  <SCORE.SYSTEM>
0

>  <SCORE.SYSTEM.CONST>
0

>  <SCORE.SYSTEM.DIHEDRAL>
0

>  <SCORE.SYSTEM.SOLV>
0

>  <SCORE.SYSTEM.norm>
0

>  <SCORE.heavy>
31

>  <SCORE.norm>
0.967653

>  <RMSD>
7.402

$$$$
2o3x_lig
 OpenBabel11021811463D
libRbt.so/2013.1/901 2013/11/27
 31 33  0  0  0  0  0  0  0  0999 V2000
   18.4749    5.0941    8.0747 C   0  0  2  0  0  0  0  0  0  0  0  0
   18.2526    6.0045    9.1598 O   0  0  0  0  0  0  0  0  0  0  0  0
   19.2640   10.0953    9.8953 C   0  0  2  0  0  0  0  0  0  0  0  0
   19.9725   11.3926    9.9608 N   0  0  0  0  0  0  0  0  0  0  0  0
   18.3824    8.5022    5.7354 C   0  0  1  0  0  0  0  0  0  0  0  0
   17.2208    4.1735    7.9396 C   0  0  2  0  0  0  0  0  0  0  0  0
   15.9541    4.9490    7.9471 N   0  0  0  0  0  0  0  0  0  0  0  0
   19.9505    9.0045   10.7831 C   0  0  0  0  0  0  0  0  0  0  0  0
   19.6255    9.1183    5.0135 C   0  0  2  0  0  0  0  0  0  0  0  0
   20.0523   10.4264    5.4836 O   0  0  0  0  0  0  0  0  0  0  0  0
   17.1517    3.1372    9.0771 C   0  0  1  0  0  0  0  0  0  0  0  0
   16.0449    2.2885    8.9069 O   0  0  0  0  0  0  0  0  0  0  0  0
   19.1114    7.6795   10.6708 C   0  0  2  0  0  0  0  0  0  0  0  0
   19.6928    6.5881   11.5086 N   0  0  0  0  0  0  0  0  0  0  0  0
   19.1035    9.0572    3.5877 C   0  0  2  0  0  0  0  0  0  0  0  0
   18.1769   10.1642    3.3161 O   0  0  0  0  0  0  0  0  0  0  0  0
   18.4397    2.3320    9.1157 C   0  0  2  0  0  0  0  0  0  0  0  0
   18.3705    1.3798   10.1278 O   0  0  0  0  0  0  0  0  0  0  0  0
   19.0568    7.1922    9.1947 C   0  0  2  0  0  0  0  0  0  0  0  0
   18.3884    7.7140    3.5014 C   0  0  2  0  0  0  0  0  0  0  0  0
   17.7197    7.6890    4.7594 O   0  0  0  0  0  0  0  0  0  0  0  0
   19.6501    3.2792    9.3509 C   0  0  2  0  0  0  0  0  0  0  0  0
   19.7015    4.2713    8.3031 O   0  0  0  0  0  0  0  0  0  0  0  0
   18.4795    8.2438    8.2266 C   0  0  2  0  0  0  0  0  0  0  0  0
   18.7391    7.7117    6.8800 O   0  0  0  0  0  0  0  0  0  0  0  0
   19.3318    6.4725    3.3532 C   0  0  0  0  0  0  0  0  0  0  0  0
   20.2293    6.4053    4.4576 N   0  0  0  0  0  0  0  0  0  0  0  0
   20.9667    2.5383    9.3805 C   0  0  0  0  0  0  0  0  0  0  0  0
   21.0508    1.6957   10.4718 O   0  0  0  0  0  0  0  0  0  0  0  0
   19.2174    9.6408    8.4253 C   0  0  1  0  0  0  0  0  0  0  0  0
   18.5588   10.6897    7.6992 O   0  0  0  0  0  0  0  0  0  0  0  0
  1  2  1  1  0  0  0
  1  6  1  0  0  0  0
  1 23  1  0  0  0  0
  3  4  1  6  0  0  0
  3  8  1  0  0  0  0
  3 30  1  0  0  0  0
  5  9  1  0  0  0  0
  5 21  1  0  0  0  0
  5 25  1  1  0  0  0
  6  7  1  1  0  0  0
  6 11  1  0  0  0  0
  8 13  1  0  0  0  0
  9 10  1  1  0  0  0
  9 15  1  0  0  0  0
 11 12  1  6  0  0  0
 11 17  1  0  0  0  0
 13 14  1  1  0  0  0
 13 19  1  0  0  0  0
 15 16  1  1  0  0  0
 15 20  1  0  0  0  0
 17 18  1  1  0  0  0
 17 22  1  0  0  0  0
 19  2  1  1  0  0  0
 19 24  1  0  0  0  0
 20 21  1  0  0  0  0
 20 26  1  1  0  0  0
 22 23  1  0  0  0  0
 22 28  1  6  0  0  0
 24 25  1  6  0  0  0
 24 30  1  0  0  0  0
 26 27  1  0  0  0  0
 28 29  1  0  0  0  0
 30 31  1  6  0  0  0
M  END
>  <CHROM.1>
-160.60124199,106.72785613,-155.84917961,58.68762379,-66.30045541,-176.58596815
18.84651001,6.58735769,7.74256108,1.75032088,1.36862693,2.42718733

>  <Name>
2o3x_lig

>  <RI>
2.78316e+07

>  <Rbt.Current_Directory>
/home/itssahil/PROJECTS/Mol_Feturizer/New_Systems/rnas/2o3x

>  <Rbt.Executable>
rbdock ($Id: //depot/dev/client3/rdock/2013.1/src/exe/rbdock.cxx#4 $)

>  <Rbt.Library>
libRbt.so (2013.1, Build901 2013/11/27)

>  <Rbt.Parameter_File>
/export/apps/rDock/src/rDock_2013.1_src/data/scripts/dock_solv.prm

>  <Rbt.Receptor>
prm/pocket_docking_7.prm

>  <SCORE>
-8.56027

>  <SCORE.INTER>
-11.2877

>  <SCORE.INTER.CONST>
1

>  <SCORE.INTER.POLAR>
-1.79133

>  <SCORE.INTER.ROT>
6

>  <SCORE.INTER.SOLV>
12.2315

>  <SCORE.INTER.VDW>
-13.2312

>  <SCORE.INTER.norm>
-0.364119

>  <SCORE.INTRA>
2.72742

>  <SCORE.INTRA.DIHEDRAL>
1.54405

>  <SCORE.INTRA.DIHEDRAL.0>
9.37739

>  <SCORE.INTRA.POLAR>
0

>  <SCORE.INTRA.POLAR.0>
0

>  <SCORE.INTRA.REPUL>
0.00184522

>  <SCORE.INTRA.REPUL.0>
0

>  <SCORE.INTRA.SOLV>
2.04117

>  <SCORE.INTRA.SOLV.lig_0>
-82.9274

>  <SCORE.INTRA.VDW>
0.925581

>  <SCORE.INTRA.VDW.0>
-3.84922

>  <SCORE.INTRA.norm>
0.0879812

>  <SCORE.RESTR>
0

>  <SCORE.RESTR.CAVITY>
0

>  <SCORE.RESTR.norm>
0

>  <SCORE.SYSTEM>
0

>  <SCORE.SYSTEM.CONST>
0

>  <SCORE.SYSTEM.DIHEDRAL>
0

>  <SCORE.SYSTEM.SOLV>
0

>  <SCORE.SYSTEM.norm>
0

>  <SCORE.heavy>
31

>  <SCORE.norm>
-0.276138

>  <RMSD>
7.486

$$$$
2o3x_lig
 OpenBabel11021811463D
libRbt.so/2013.1/901 2013/11/27
 31 33  0  0  0  0  0  0  0  0999 V2000
   23.3117    6.9088   12.6336 C   0  0  2  0  0  0  0  0  0  0  0  0
   22.9217    7.5884   11.4329 O   0  0  0  0  0  0  0  0  0  0  0  0
   23.9664    7.4402    7.2875 C   0  0  2  0  0  0  0  0  0  0  0  0
   24.3701    6.9782    5.9410 N   0  0  0  0  0  0  0  0  0  0  0  0
   21.7069    4.7688   10.0948 C   0  0  1  0  0  0  0  0  0  0  0  0
   22.3729    7.3756   13.7908 C   0  0  2  0  0  0  0  0  0  0  0  0
   20.9403    7.3309   13.4016 N   0  0  0  0  0  0  0  0  0  0  0  0
   25.1180    7.2784    8.3349 C   0  0  0  0  0  0  0  0  0  0  0  0
   20.6498    3.9834   10.9386 C   0  0  2  0  0  0  0  0  0  0  0  0
   20.6834    4.2112   12.3743 O   0  0  0  0  0  0  0  0  0  0  0  0
   22.6992    8.8117   14.2427 C   0  0  1  0  0  0  0  0  0  0  0  0
   21.8771    9.1913   15.3171 O   0  0  0  0  0  0  0  0  0  0  0  0
   24.6044    7.8215    9.7181 C   0  0  2  0  0  0  0  0  0  0  0  0
   25.6566    7.7198   10.7734 N   0  0  0  0  0  0  0  0  0  0  0  0
   20.9991    2.5790   10.4753 C   0  0  2  0  0  0  0  0  0  0  0  0
   22.1895    2.0734   11.1718 O   0  0  0  0  0  0  0  0  0  0  0  0
   24.1645    8.9054   14.6337 C   0  0  2  0  0  0  0  0  0  0  0  0
   24.4561   10.1959   15.0641 O   0  0  0  0  0  0  0  0  0  0  0  0
   23.3557    7.0221   10.1881 C   0  0  2  0  0  0  0  0  0  0  0  0
   21.2627    2.7255    8.9813 C   0  0  2  0  0  0  0  0  0  0  0  0
   22.0019    3.9435    8.9612 O   0  0  0  0  0  0  0  0  0  0  0  0
   25.0619    8.5274   13.4216 C   0  0  2  0  0  0  0  0  0  0  0  0
   24.7388    7.1927   12.9753 O   0  0  0  0  0  0  0  0  0  0  0  0
   22.1980    7.0462    9.1705 C   0  0  2  0  0  0  0  0  0  0  0  0
   21.2311    6.0530    9.6629 O   0  0  0  0  0  0  0  0  0  0  0  0
   19.9780    2.8450    8.0932 C   0  0  0  0  0  0  0  0  0  0  0  0
   19.1851    3.9469    8.5256 N   0  0  0  0  0  0  0  0  0  0  0  0
   26.5350    8.5831   13.7533 C   0  0  0  0  0  0  0  0  0  0  0  0
   27.3099    8.6607   12.6125 O   0  0  0  0  0  0  0  0  0  0  0  0
   22.7261    6.6398    7.7242 C   0  0  1  0  0  0  0  0  0  0  0  0
   21.7263    6.8642    6.7186 O   0  0  0  0  0  0  0  0  0  0  0  0
  1  2  1  6  0  0  0
  1  6  1  0  0  0  0
  1 23  1  0  0  0  0
  3  4  1  6  0  0  0
  3  8  1  0  0  0  0
  3 30  1  0  0  0  0
  5  9  1  0  0  0  0
  5 21  1  0  0  0  0
  5 25  1  6  0  0  0
  6  7  1  6  0  0  0
  6 11  1  0  0  0  0
  8 13  1  0  0  0  0
  9 10  1  1  0  0  0
  9 15  1  0  0  0  0
 11 12  1  1  0  0  0
 11 17  1  0  0  0  0
 13 14  1  1  0  0  0
 13 19  1  0  0  0  0
 15 16  1  1  0  0  0
 15 20  1  0  0  0  0
 17 18  1  6  0  0  0
 17 22  1  0  0  0  0
 19  2  1  1  0  0  0
 19 24  1  0  0  0  0
 20 21  1  0  0  0  0
 20 26  1  6  0  0  0
 22 23  1  0  0  0  0
 22 28  1  1  0  0  0
 24 25  1  1  0  0  0
 24 30  1  0  0  0  0
 26 27  1  0  0  0  0
 28 29  1  0  0  0  0
 30 31  1  6  0  0  0
M  END
>  <CHROM.1>
-161.12776615,164.31206568,-99.51400466,56.98288695,-161.19608665,-45.69560524
22.90728898,6.49621501,10.94767352,0.94387489,0.76149585,1.31100955

>  <Name>
2o3x_lig

>  <RI>
0

>  <Rbt.Current_Directory>
/home/itssahil/PROJECTS/Mol_Feturizer/New_Systems/rnas/2o3x

>  <Rbt.Executable>
rbdock ($Id: //depot/dev/client3/rdock/2013.1/src/exe/rbdock.cxx#4 $)

>  <Rbt.Library>
libRbt.so (2013.1, Build901 2013/11/27)

>  <Rbt.Parameter_File>
/export/apps/rDock/src/rDock_2013.1_src/data/scripts/dock_solv.prm

>  <Rbt.Receptor>
prm/blind_docking_60.prm

>  <SCORE>
34.5788

>  <SCORE.INTER>
23.5934

>  <SCORE.INTER.CONST>
1

>  <SCORE.INTER.POLAR>
-1.09545

>  <SCORE.INTER.ROT>
6

>  <SCORE.INTER.SOLV>
24.3387

>  <SCORE.INTER.VDW>
3.66754

>  <SCORE.INTER.norm>
0.761078

>  <SCORE.INTRA>
5.706

>  <SCORE.INTRA.DIHEDRAL>
1.00708

>  <SCORE.INTRA.DIHEDRAL.0>
9.37739

>  <SCORE.INTRA.POLAR>
0

>  <SCORE.INTRA.POLAR.0>
0

>  <SCORE.INTRA.REPUL>
0

>  <SCORE.INTRA.REPUL.0>
0

>  <SCORE.INTRA.SOLV>
6.60478

>  <SCORE.INTRA.SOLV.lig_0>
-82.9274

>  <SCORE.INTRA.VDW>
1.90007

>  <SCORE.INTRA.VDW.0>
-3.84922

>  <SCORE.INTRA.norm>
0.184065

>  <SCORE.RESTR>
5.27943

>  <SCORE.RESTR.CAVITY>
5.27943

>  <SCORE.RESTR.norm>
0.170304

>  <SCORE.SYSTEM>
0

>  <SCORE.SYSTEM.CONST>
0

>  <SCORE.SYSTEM.DIHEDRAL>
0

>  <SCORE.SYSTEM.SOLV>
0

>  <SCORE.SYSTEM.norm>
0

>  <SCORE.heavy>
31

>  <SCORE.norm>
1.11545

>  <RMSD>
7.495

$$$$
2o3x_lig
 OpenBabel11021811463D
libRbt.so/2013.1/901 2013/11/27
 31 33  0  0  0  0  0  0  0  0999 V2000
   22.3392    6.7474   12.4090 C   0  0  2  0  0  0  0  0  0  0  0  0
   22.4095    7.3910   11.1298 O   0  0  0  0  0  0  0  0  0  0  0  0
   24.1231    6.6561    7.2799 C   0  0  2  0  0  0  0  0  0  0  0  0
   24.7023    6.0030    6.0851 N   0  0  0  0  0  0  0  0  0  0  0  0
   21.1603    4.6125   10.0446 C   0  0  1  0  0  0  0  0  0  0  0  0
   21.1645    7.3845   13.2169 C   0  0  2  0  0  0  0  0  0  0  0  0
   19.9176    7.4736   12.4149 N   0  0  0  0  0  0  0  0  0  0  0  0
   25.0588    6.5349    8.5285 C   0  0  0  0  0  0  0  0  0  0  0  0
   20.2124    3.4217    9.6848 C   0  0  2  0  0  0  0  0  0  0  0  0
   18.9650    3.3525   10.4288 O   0  0  0  0  0  0  0  0  0  0  0  0
   21.5164    8.8009   13.7095 C   0  0  1  0  0  0  0  0  0  0  0  0
   20.4661    9.3336   14.4759 O   0  0  0  0  0  0  0  0  0  0  0  0
   24.3734    7.2814    9.7307 C   0  0  2  0  0  0  0  0  0  0  0  0
   25.2162    7.2283   10.9629 N   0  0  0  0  0  0  0  0  0  0  0  0
   21.1929    2.2838    9.9148 C   0  0  2  0  0  0  0  0  0  0  0  0
   21.3220    1.9784   11.3458 O   0  0  0  0  0  0  0  0  0  0  0  0
   22.7997    8.7569   14.5218 C   0  0  2  0  0  0  0  0  0  0  0  0
   23.1073   10.0315   14.9872 O   0  0  0  0  0  0  0  0  0  0  0  0
   22.9909    6.6448   10.0511 C   0  0  2  0  0  0  0  0  0  0  0  0
   22.5108    2.7959    9.3456 C   0  0  2  0  0  0  0  0  0  0  0  0
   22.4935    4.1431    9.8095 O   0  0  0  0  0  0  0  0  0  0  0  0
   23.9625    8.2092   13.6468 C   0  0  2  0  0  0  0  0  0  0  0  0
   23.6244    6.8933   13.1579 O   0  0  0  0  0  0  0  0  0  0  0  0
   22.0308    6.6338    8.8451 C   0  0  2  0  0  0  0  0  0  0  0  0
   20.9019    5.7863    9.2588 O   0  0  0  0  0  0  0  0  0  0  0  0
   22.6164    2.7516    7.7834 C   0  0  0  0  0  0  0  0  0  0  0  0
   22.1595    1.4926    7.2976 N   0  0  0  0  0  0  0  0  0  0  0  0
   25.2662    8.1229   14.4060 C   0  0  0  0  0  0  0  0  0  0  0  0
   25.7557    9.3761   14.7184 O   0  0  0  0  0  0  0  0  0  0  0  0
   22.7544    6.0138    7.5692 C   0  0  1  0  0  0  0  0  0  0  0  0
   21.9666    6.1904    6.3821 O   0  0  0  0  0  0  0  0  0  0  0  0
  1  2  1  6  0  0  0
  1  6  1  0  0  0  0
  1 23  1  0  0  0  0
  3  4  1  6  0  0  0
  3  8  1  0  0  0  0
  3 30  1  0  0  0  0
  5  9  1  0  0  0  0
  5 21  1  0  0  0  0
  5 25  1  6  0  0  0
  6  7  1  6  0  0  0
  6 11  1  0  0  0  0
  8 13  1  0  0  0  0
  9 10  1  1  0  0  0
  9 15  1  0  0  0  0
 11 12  1  1  0  0  0
 11 17  1  0  0  0  0
 13 14  1  1  0  0  0
 13 19  1  0  0  0  0
 15 16  1  1  0  0  0
 15 20  1  0  0  0  0
 17 18  1  6  0  0  0
 17 22  1  0  0  0  0
 19  2  1  1  0  0  0
 19 24  1  0  0  0  0
 20 21  1  0  0  0  0
 20 26  1  6  0  0  0
 22 23  1  0  0  0  0
 22 28  1  1  0  0  0
 24 25  1  1  0  0  0
 24 30  1  0  0  0  0
 26 27  1  0  0  0  0
 28 29  1  0  0  0  0
 30 31  1  6  0  0  0
M  END
>  <CHROM.1>
-154.51060923,-143.88190555,-108.77873795,-46.01656373,-67.95552127,-38.26107018
22.53665036,6.15278098,10.78477629,1.37871625,0.68428289,0.98420481

>  <Name>
2o3x_lig

>  <RI>
0

>  <Rbt.Current_Directory>
/home/itssahil/PROJECTS/Mol_Feturizer/New_Systems/rnas/2o3x

>  <Rbt.Executable>
rbdock ($Id: //depot/dev/client3/rdock/2013.1/src/exe/rbdock.cxx#4 $)

>  <Rbt.Library>
libRbt.so (2013.1, Build901 2013/11/27)

>  <Rbt.Parameter_File>
/export/apps/rDock/src/rDock_2013.1_src/data/scripts/dock_solv.prm

>  <Rbt.Receptor>
prm/blind_docking_60.prm

>  <SCORE>
17.8771

>  <SCORE.INTER>
0.223162

>  <SCORE.INTER.CONST>
1

>  <SCORE.INTER.POLAR>
0

>  <SCORE.INTER.ROT>
6

>  <SCORE.INTER.SOLV>
18.4394

>  <SCORE.INTER.VDW>
-13.5977

>  <SCORE.INTER.norm>
0.00719877

>  <SCORE.INTRA>
8.04849

>  <SCORE.INTRA.DIHEDRAL>
7.72386

>  <SCORE.INTRA.DIHEDRAL.0>
9.37739

>  <SCORE.INTRA.POLAR>
0

>  <SCORE.INTRA.POLAR.0>
0

>  <SCORE.INTRA.REPUL>
0

>  <SCORE.INTRA.REPUL.0>
0

>  <SCORE.INTRA.SOLV>
2.57964

>  <SCORE.INTRA.SOLV.lig_0>
-82.9274

>  <SCORE.INTRA.VDW>
2.89674

>  <SCORE.INTRA.VDW.0>
-3.84922

>  <SCORE.INTRA.norm>
0.259629

>  <SCORE.RESTR>
9.60546

>  <SCORE.RESTR.CAVITY>
9.60546

>  <SCORE.RESTR.norm>
0.309854

>  <SCORE.SYSTEM>
0

>  <SCORE.SYSTEM.CONST>
0

>  <SCORE.SYSTEM.DIHEDRAL>
0

>  <SCORE.SYSTEM.SOLV>
0

>  <SCORE.SYSTEM.norm>
0

>  <SCORE.heavy>
31

>  <SCORE.norm>
0.576681

>  <RMSD>
7.523

$$$$
2o3x_lig
 OpenBabel11021811463D
libRbt.so/2013.1/901 2013/11/27
 31 33  0  0  0  0  0  0  0  0999 V2000
   19.4361    5.6162   11.3950 C   0  0  2  0  0  0  0  0  0  0  0  0
   18.7112    6.2101   10.3099 O   0  0  0  0  0  0  0  0  0  0  0  0
   17.7379    2.5480    8.3249 C   0  0  2  0  0  0  0  0  0  0  0  0
   17.1400    1.5360    7.4262 N   0  0  0  0  0  0  0  0  0  0  0  0
   18.2684    6.4362    6.5415 C   0  0  1  0  0  0  0  0  0  0  0  0
   20.3277    6.7167   12.0525 C   0  0  2  0  0  0  0  0  0  0  0  0
   19.5678    7.9634   12.3249 N   0  0  0  0  0  0  0  0  0  0  0  0
   16.6928    3.1291    9.3346 C   0  0  0  0  0  0  0  0  0  0  0  0
   17.0610    7.1578    7.2252 C   0  0  2  0  0  0  0  0  0  0  0  0
   15.9611    6.3035    7.6431 O   0  0  0  0  0  0  0  0  0  0  0  0
   21.5325    7.0779   11.1632 C   0  0  1  0  0  0  0  0  0  0  0  0
   22.3470    8.0316   11.7967 O   0  0  0  0  0  0  0  0  0  0  0  0
   17.4273    4.1667   10.2598 C   0  0  2  0  0  0  0  0  0  0  0  0
   16.4982    4.7565   11.2698 N   0  0  0  0  0  0  0  0  0  0  0  0
   16.7508    8.1574    6.1236 C   0  0  2  0  0  0  0  0  0  0  0  0
   15.9866    7.5280    5.0384 O   0  0  0  0  0  0  0  0  0  0  0  0
   22.3290    5.8236   10.8453 C   0  0  2  0  0  0  0  0  0  0  0  0
   23.4307    6.1507   10.0611 O   0  0  0  0  0  0  0  0  0  0  0  0
   18.0311    5.3220    9.4114 C   0  0  2  0  0  0  0  0  0  0  0  0
   18.1178    8.6183    5.6316 C   0  0  2  0  0  0  0  0  0  0  0  0
   18.8255    7.3816    5.6202 O   0  0  0  0  0  0  0  0  0  0  0  0
   21.4273    4.7968   10.1036 C   0  0  2  0  0  0  0  0  0  0  0  0
   20.2805    4.4777   10.9209 O   0  0  0  0  0  0  0  0  0  0  0  0
   19.0056    4.8330    8.3216 C   0  0  2  0  0  0  0  0  0  0  0  0
   19.2676    6.0118    7.4816 O   0  0  0  0  0  0  0  0  0  0  0  0
   18.8367    9.6569    6.5579 C   0  0  0  0  0  0  0  0  0  0  0  0
   19.9533   10.2261    5.8804 N   0  0  0  0  0  0  0  0  0  0  0  0
   22.1588    3.5159    9.7755 C   0  0  0  0  0  0  0  0  0  0  0  0
   21.3404    2.6175    9.1191 O   0  0  0  0  0  0  0  0  0  0  0  0
   18.3340    3.6738    7.4607 C   0  0  1  0  0  0  0  0  0  0  0  0
   19.2872    3.0501    6.5869 O   0  0  0  0  0  0  0  0  0  0  0  0
  1  2  1  6  0  0  0
  1  6  1  0  0  0  0
  1 23  1  0  0  0  0
  3  4  1  6  0  0  0
  3  8  1  0  0  0  0
  3 30  1  0  0  0  0
  5  9  1  0  0  0  0
  5 21  1  0  0  0  0
  5 25  1  1  0  0  0
  6  7  1  6  0  0  0
  6 11  1  0  0  0  0
  8 13  1  0  0  0  0
  9 10  1  6  0  0  0
  9 15  1  0  0  0  0
 11 12  1  1  0  0  0
 11 17  1  0  0  0  0
 13 14  1  1  0  0  0
 13 19  1  0  0  0  0
 15 16  1  6  0  0  0
 15 20  1  0  0  0  0
 17 18  1  6  0  0  0
 17 22  1  0  0  0  0
 19  2  1  1  0  0  0
 19 24  1  0  0  0  0
 20 21  1  0  0  0  0
 20 26  1  1  0  0  0
 22 23  1  0  0  0  0
 22 28  1  1  0  0  0
 24 25  1  6  0  0  0
 24 30  1  0  0  0  0
 26 27  1  0  0  0  0
 28 29  1  0  0  0  0
 30 31  1  6  0  0  0
M  END
>  <CHROM.1>
168.27906860,75.18492274,38.61630542,-167.80109371,179.91973782,-76.39131009
19.12281932,5.78961513,8.75553239,-0.57732867,-0.76988925,-0.40824713

>  <Name>
2o3x_lig

>  <RI>
2.78316e+07

>  <Rbt.Current_Directory>
/home/itssahil/PROJECTS/Mol_Feturizer/New_Systems/rnas/2o3x

>  <Rbt.Executable>
rbdock ($Id: //depot/dev/client3/rdock/2013.1/src/exe/rbdock.cxx#4 $)

>  <Rbt.Library>
libRbt.so (2013.1, Build901 2013/11/27)

>  <Rbt.Parameter_File>
/export/apps/rDock/src/rDock_2013.1_src/data/scripts/dock_solv.prm

>  <Rbt.Receptor>
prm/pocket_docking_7.prm

>  <SCORE>
-4.91518

>  <SCORE.INTER>
-5.11245

>  <SCORE.INTER.CONST>
1

>  <SCORE.INTER.POLAR>
-0.894554

>  <SCORE.INTER.ROT>
6

>  <SCORE.INTER.SOLV>
8.72165

>  <SCORE.INTER.VDW>
-10.9337

>  <SCORE.INTER.norm>
-0.164918

>  <SCORE.INTRA>
0.197271

>  <SCORE.INTRA.DIHEDRAL>
-3.73694

>  <SCORE.INTRA.DIHEDRAL.0>
9.37739

>  <SCORE.INTRA.POLAR>
0

>  <SCORE.INTRA.POLAR.0>
0

>  <SCORE.INTRA.REPUL>
0

>  <SCORE.INTRA.REPUL.0>
0

>  <SCORE.INTRA.SOLV>
-0.5451

>  <SCORE.INTRA.SOLV.lig_0>
-82.9274

>  <SCORE.INTRA.VDW>
2.33829

>  <SCORE.INTRA.VDW.0>
-3.84922

>  <SCORE.INTRA.norm>
0.00636359

>  <SCORE.RESTR>
0

>  <SCORE.RESTR.CAVITY>
0

>  <SCORE.RESTR.norm>
0

>  <SCORE.SYSTEM>
0

>  <SCORE.SYSTEM.CONST>
0

>  <SCORE.SYSTEM.DIHEDRAL>
0

>  <SCORE.SYSTEM.SOLV>
0

>  <SCORE.SYSTEM.norm>
0

>  <SCORE.heavy>
31

>  <SCORE.norm>
-0.158554

>  <RMSD>
7.524

$$$$
2o3x_lig
 OpenBabel11021811463D
libRbt.so/2013.1/901 2013/11/27
 31 33  0  0  0  0  0  0  0  0999 V2000
   23.3817    6.9506   12.5333 C   0  0  2  0  0  0  0  0  0  0  0  0
   22.9688    7.6646   11.3606 O   0  0  0  0  0  0  0  0  0  0  0  0
   23.5895    7.3179    7.1425 C   0  0  2  0  0  0  0  0  0  0  0  0
   23.7833    6.7865    5.7752 N   0  0  0  0  0  0  0  0  0  0  0  0
   21.2162    5.1861   10.4049 C   0  0  1  0  0  0  0  0  0  0  0  0
   22.4509    7.3661   13.7162 C   0  0  2  0  0  0  0  0  0  0  0  0
   21.0144    7.3155   13.3422 N   0  0  0  0  0  0  0  0  0  0  0  0
   24.7870    6.9645    8.0862 C   0  0  0  0  0  0  0  0  0  0  0  0
   19.9573    4.3112   10.7142 C   0  0  2  0  0  0  0  0  0  0  0  0
   19.3382    4.5215   12.0130 O   0  0  0  0  0  0  0  0  0  0  0  0
   22.7641    8.7904   14.2121 C   0  0  1  0  0  0  0  0  0  0  0  0
   21.9500    9.1232   15.3080 O   0  0  0  0  0  0  0  0  0  0  0  0
   24.5028    7.5950    9.4983 C   0  0  2  0  0  0  0  0  0  0  0  0
   25.6138    7.3180   10.4575 N   0  0  0  0  0  0  0  0  0  0  0  0
   20.5783    2.9439   10.4823 C   0  0  2  0  0  0  0  0  0  0  0  0
   21.3743    2.5212   11.6422 O   0  0  0  0  0  0  0  0  0  0  0  0
   24.2325    8.8904   14.5893 C   0  0  2  0  0  0  0  0  0  0  0  0
   24.5128   10.1696   15.0593 O   0  0  0  0  0  0  0  0  0  0  0  0
   23.1835    7.0258   10.0940 C   0  0  2  0  0  0  0  0  0  0  0  0
   21.4611    3.1300    9.2539 C   0  0  2  0  0  0  0  0  0  0  0  0
   22.0407    4.4011    9.5349 O   0  0  0  0  0  0  0  0  0  0  0  0
   25.1203    8.5649   13.3550 C   0  0  2  0  0  0  0  0  0  0  0  0
   24.8090    7.2417   12.8680 O   0  0  0  0  0  0  0  0  0  0  0  0
   21.9592    7.2447    9.1833 C   0  0  2  0  0  0  0  0  0  0  0  0
   20.8852    6.4360    9.7802 O   0  0  0  0  0  0  0  0  0  0  0  0
   20.6939    3.1632    7.8888 C   0  0  0  0  0  0  0  0  0  0  0  0
   19.9836    1.9432    7.6969 N   0  0  0  0  0  0  0  0  0  0  0  0
   26.5964    8.6290   13.6715 C   0  0  0  0  0  0  0  0  0  0  0  0
   26.9987    9.9188   13.9588 O   0  0  0  0  0  0  0  0  0  0  0  0
   22.2754    6.7461    7.7043 C   0  0  1  0  0  0  0  0  0  0  0  0
   21.2414    7.1351    6.7875 O   0  0  0  0  0  0  0  0  0  0  0  0
  1  2  1  6  0  0  0
  1  6  1  0  0  0  0
  1 23  1  0  0  0  0
  3  4  1  6  0  0  0
  3  8  1  0  0  0  0
  3 30  1  0  0  0  0
  5  9  1  0  0  0  0
  5 21  1  0  0  0  0
  5 25  1  6  0  0  0
  6  7  1  6  0  0  0
  6 11  1  0  0  0  0
  8 13  1  0  0  0  0
  9 10  1  1  0  0  0
  9 15  1  0  0  0  0
 11 12  1  1  0  0  0
 11 17  1  0  0  0  0
 13 14  1  1  0  0  0
 13 19  1  0  0  0  0
 15 16  1  1  0  0  0
 15 20  1  0  0  0  0
 17 18  1  6  0  0  0
 17 22  1  0  0  0  0
 19  2  1  1  0  0  0
 19 24  1  0  0  0  0
 20 21  1  0  0  0  0
 20 26  1  6  0  0  0
 22 23  1  0  0  0  0
 22 28  1  1  0  0  0
 24 25  1  1  0  0  0
 24 30  1  0  0  0  0
 26 27  1  0  0  0  0
 28 29  1  0  0  0  0
 30 31  1  6  0  0  0
M  END
>  <CHROM.1>
-150.18580894,-167.73287910,-97.66638618,-59.71940014,-67.05714720,-34.91958322
22.74848155,6.57404257,10.94820209,0.92673091,0.75251892,1.33395731

>  <Name>
2o3x_lig

>  <RI>
0

>  <Rbt.Current_Directory>
/home/itssahil/PROJECTS/Mol_Feturizer/New_Systems/rnas/2o3x

>  <Rbt.Executable>
rbdock ($Id: //depot/dev/client3/rdock/2013.1/src/exe/rbdock.cxx#4 $)

>  <Rbt.Library>
libRbt.so (2013.1, Build901 2013/11/27)

>  <Rbt.Parameter_File>
/export/apps/rDock/src/rDock_2013.1_src/data/scripts/dock_solv.prm

>  <Rbt.Receptor>
prm/blind_docking_60.prm

>  <SCORE>
30.5212

>  <SCORE.INTER>
18.4644

>  <SCORE.INTER.CONST>
1

>  <SCORE.INTER.POLAR>
0

>  <SCORE.INTER.ROT>
6

>  <SCORE.INTER.SOLV>
23.2765

>  <SCORE.INTER.VDW>
-3.04926

>  <SCORE.INTER.norm>
0.595625

>  <SCORE.INTRA>
4.76252

>  <SCORE.INTRA.DIHEDRAL>
2.87892

>  <SCORE.INTRA.DIHEDRAL.0>
9.37739

>  <SCORE.INTRA.POLAR>
0

>  <SCORE.INTRA.POLAR.0>
0

>  <SCORE.INTRA.REPUL>
0

>  <SCORE.INTRA.REPUL.0>
0

>  <SCORE.INTRA.SOLV>
2.66819

>  <SCORE.INTRA.SOLV.lig_0>
-82.9274

>  <SCORE.INTRA.VDW>
1.98896

>  <SCORE.INTRA.VDW.0>
-3.84922

>  <SCORE.INTRA.norm>
0.15363

>  <SCORE.RESTR>
7.29431

>  <SCORE.RESTR.CAVITY>
7.29431

>  <SCORE.RESTR.norm>
0.2353

>  <SCORE.SYSTEM>
0

>  <SCORE.SYSTEM.CONST>
0

>  <SCORE.SYSTEM.DIHEDRAL>
0

>  <SCORE.SYSTEM.SOLV>
0

>  <SCORE.SYSTEM.norm>
0

>  <SCORE.heavy>
31

>  <SCORE.norm>
0.984555

>  <RMSD>
7.525

$$$$
2o3x_lig
 OpenBabel11021811463D
libRbt.so/2013.1/901 2013/11/27
 31 33  0  0  0  0  0  0  0  0999 V2000
   21.6036    5.6091   11.9716 C   0  0  2  0  0  0  0  0  0  0  0  0
   21.1637    5.9625   10.6536 O   0  0  0  0  0  0  0  0  0  0  0  0
   21.6642    2.0493    9.0001 C   0  0  2  0  0  0  0  0  0  0  0  0
   21.7162    0.8946    8.0762 N   0  0  0  0  0  0  0  0  0  0  0  0
   22.3507    6.3667    7.7146 C   0  0  1  0  0  0  0  0  0  0  0  0
   20.5326    6.1003   12.9965 C   0  0  2  0  0  0  0  0  0  0  0  0
   19.1560    5.7121   12.5964 N   0  0  0  0  0  0  0  0  0  0  0  0
   20.2032    2.5698    9.2097 C   0  0  0  0  0  0  0  0  0  0  0  0
   22.5034    7.9095    7.9211 C   0  0  2  0  0  0  0  0  0  0  0  0
   21.6005    8.5160    8.8861 O   0  0  0  0  0  0  0  0  0  0  0  0
   20.5663    7.6313   13.1634 C   0  0  1  0  0  0  0  0  0  0  0  0
   19.6305    8.0449   14.1264 O   0  0  0  0  0  0  0  0  0  0  0  0
   20.2498    3.7701   10.2243 C   0  0  2  0  0  0  0  0  0  0  0  0
   18.8853    4.3146   10.4944 N   0  0  0  0  0  0  0  0  0  0  0  0
   22.3271    8.3426    6.4753 C   0  0  2  0  0  0  0  0  0  0  0  0
   20.9078    8.3565    6.0970 O   0  0  0  0  0  0  0  0  0  0  0  0
   21.9660    8.0732   13.5563 C   0  0  2  0  0  0  0  0  0  0  0  0
   21.9934    9.4533   13.7301 O   0  0  0  0  0  0  0  0  0  0  0  0
   21.1384    4.9194    9.6688 C   0  0  2  0  0  0  0  0  0  0  0  0
   23.0959    7.3021    5.6696 C   0  0  2  0  0  0  0  0  0  0  0  0
   22.7252    6.1095    6.3557 O   0  0  0  0  0  0  0  0  0  0  0  0
   22.9832    7.6494   12.4593 C   0  0  2  0  0  0  0  0  0  0  0  0
   22.9339    6.2178   12.2780 O   0  0  0  0  0  0  0  0  0  0  0  0
   22.5773    4.4736    9.3416 C   0  0  2  0  0  0  0  0  0  0  0  0
   23.1732    5.6016    8.6091 O   0  0  0  0  0  0  0  0  0  0  0  0
   24.6520    7.4809    5.6754 C   0  0  0  0  0  0  0  0  0  0  0  0
   25.1854    7.0846    6.9357 N   0  0  0  0  0  0  0  0  0  0  0  0
   24.4008    8.0449   12.8017 C   0  0  0  0  0  0  0  0  0  0  0  0
   24.7615    7.6034   14.0598 O   0  0  0  0  0  0  0  0  0  0  0  0
   22.5568    3.1671    8.4315 C   0  0  1  0  0  0  0  0  0  0  0  0
   23.8701    2.6038    8.2930 O   0  0  0  0  0  0  0  0  0  0  0  0
  1  2  1  6  0  0  0
  1  6  1  0  0  0  0
  1 23  1  0  0  0  0
  3  4  1  6  0  0  0
  3  8  1  0  0  0  0
  3 30  1  0  0  0  0
  5  9  1  0  0  0  0
  5 21  1  0  0  0  0
  5 25  1  1  0  0  0
  6  7  1  6  0  0  0
  6 11  1  0  0  0  0
  8 13  1  0  0  0  0
  9 10  1  1  0  0  0
  9 15  1  0  0  0  0
 11 12  1  1  0  0  0
 11 17  1  0  0  0  0
 13 14  1  6  0  0  0
 13 19  1  0  0  0  0
 15 16  1  6  0  0  0
 15 20  1  0  0  0  0
 17 18  1  6  0  0  0
 17 22  1  0  0  0  0
 19  2  1  1  0  0  0
 19 24  1  0  0  0  0
 20 21  1  0  0  0  0
 20 26  1  1  0  0  0
 22 23  1  0  0  0  0
 22 28  1  1  0  0  0
 24 25  1  6  0  0  0
 24 30  1  0  0  0  0
 26 27  1  0  0  0  0
 28 29  1  0  0  0  0
 30 31  1  1  0  0  0
M  END
>  <CHROM.1>
-128.28175538,132.26329877,56.05995735,74.08372156,52.31435195,-35.76198628
22.05102094,6.10129004,9.93662656,1.95673458,1.12332543,0.88536465

>  <Name>
2o3x_lig

>  <RI>
0

>  <Rbt.Current_Directory>
/home/itssahil/PROJECTS/Mol_Feturizer/New_Systems/rnas/2o3x

>  <Rbt.Executable>
rbdock ($Id: //depot/dev/client3/rdock/2013.1/src/exe/rbdock.cxx#4 $)

>  <Rbt.Library>
libRbt.so (2013.1, Build901 2013/11/27)

>  <Rbt.Parameter_File>
/export/apps/rDock/src/rDock_2013.1_src/data/scripts/dock_solv.prm

>  <Rbt.Receptor>
prm/blind_docking_40.prm

>  <SCORE>
9.37508

>  <SCORE.INTER>
-6.14253

>  <SCORE.INTER.CONST>
1

>  <SCORE.INTER.POLAR>
-0.150965

>  <SCORE.INTER.ROT>
6

>  <SCORE.INTER.SOLV>
16.5732

>  <SCORE.INTER.VDW>
-16.7162

>  <SCORE.INTER.norm>
-0.198146

>  <SCORE.INTRA>
9.20562

>  <SCORE.INTRA.DIHEDRAL>
7.56598

>  <SCORE.INTRA.DIHEDRAL.0>
9.37739

>  <SCORE.INTRA.POLAR>
0

>  <SCORE.INTRA.POLAR.0>
0

>  <SCORE.INTRA.REPUL>
0

>  <SCORE.INTRA.REPUL.0>
0

>  <SCORE.INTRA.SOLV>
4.85715

>  <SCORE.INTRA.SOLV.lig_0>
-82.9274

>  <SCORE.INTRA.VDW>
2.99406

>  <SCORE.INTRA.VDW.0>
-3.84922

>  <SCORE.INTRA.norm>
0.296956

>  <SCORE.RESTR>
6.31199

>  <SCORE.RESTR.CAVITY>
6.31199

>  <SCORE.RESTR.norm>
0.203613

>  <SCORE.SYSTEM>
0

>  <SCORE.SYSTEM.CONST>
0

>  <SCORE.SYSTEM.DIHEDRAL>
0

>  <SCORE.SYSTEM.SOLV>
0

>  <SCORE.SYSTEM.norm>
0

>  <SCORE.heavy>
31

>  <SCORE.norm>
0.302422

>  <RMSD>
7.536

$$$$
2o3x_lig
 OpenBabel11021811463D
libRbt.so/2013.1/901 2013/11/27
 31 33  0  0  0  0  0  0  0  0999 V2000
   22.4628    6.7514    9.4048 C   0  0  2  0  0  0  0  0  0  0  0  0
   21.4025    7.0219    8.4784 O   0  0  0  0  0  0  0  0  0  0  0  0
   18.5625   10.2042    8.8029 C   0  0  2  0  0  0  0  0  0  0  0  0
   17.9065   11.5301    8.7707 N   0  0  0  0  0  0  0  0  0  0  0  0
   21.3099    9.5570    5.5688 C   0  0  1  0  0  0  0  0  0  0  0  0
   23.4187    5.6956    8.7646 C   0  0  2  0  0  0  0  0  0  0  0  0
   23.7882    6.0483    7.3700 N   0  0  0  0  0  0  0  0  0  0  0  0
   19.7098   10.1410    9.8655 C   0  0  0  0  0  0  0  0  0  0  0  0
   22.0560    9.2956    4.2193 C   0  0  2  0  0  0  0  0  0  0  0  0
   23.4279    8.8266    4.3296 O   0  0  0  0  0  0  0  0  0  0  0  0
   22.7853    4.2915    8.7490 C   0  0  1  0  0  0  0  0  0  0  0  0
   23.6818    3.3500    8.2159 O   0  0  0  0  0  0  0  0  0  0  0  0
   20.3203    8.6921    9.8442 C   0  0  2  0  0  0  0  0  0  0  0  0
   21.4155    8.5425   10.8490 N   0  0  0  0  0  0  0  0  0  0  0  0
   21.8659   10.6676    3.5944 C   0  0  2  0  0  0  0  0  0  0  0  0
   22.8267   11.6351    4.1409 O   0  0  0  0  0  0  0  0  0  0  0  0
   22.3755    3.8985   10.1583 C   0  0  2  0  0  0  0  0  0  0  0  0
   21.8240    2.6212   10.1503 O   0  0  0  0  0  0  0  0  0  0  0  0
   20.8942    8.3629    8.4366 C   0  0  2  0  0  0  0  0  0  0  0  0
   20.4367   11.0556    3.9550 C   0  0  2  0  0  0  0  0  0  0  0  0
   20.3753   10.6111    5.3075 O   0  0  0  0  0  0  0  0  0  0  0  0
   21.3486    4.9237   10.7171 C   0  0  2  0  0  0  0  0  0  0  0  0
   21.9273    6.2465   10.7057 O   0  0  0  0  0  0  0  0  0  0  0  0
   19.8523    8.4926    7.3079 C   0  0  2  0  0  0  0  0  0  0  0  0
   20.6229    8.3951    6.0587 O   0  0  0  0  0  0  0  0  0  0  0  0
   19.3273   10.3606    3.0950 C   0  0  0  0  0  0  0  0  0  0  0  0
   19.3897   10.8239    1.7491 N   0  0  0  0  0  0  0  0  0  0  0  0
   20.9150    4.5976   12.1274 C   0  0  0  0  0  0  0  0  0  0  0  0
   20.9129    5.7213   12.9306 O   0  0  0  0  0  0  0  0  0  0  0  0
   19.1134    9.9004    7.3981 C   0  0  1  0  0  0  0  0  0  0  0  0
   17.9928    9.9628    6.5028 O   0  0  0  0  0  0  0  0  0  0  0  0
  1  2  1  6  0  0  0
  1  6  1  0  0  0  0
  1 23  1  0  0  0  0
  3  4  1  6  0  0  0
  3  8  1  0  0  0  0
  3 30  1  0  0  0  0
  5  9  1  0  0  0  0
  5 21  1  0  0  0  0
  5 25  1  6  0  0  0
  6  7  1  6  0  0  0
  6 11  1  0  0  0  0
  8 13  1  0  0  0  0
  9 10  1  1  0  0  0
  9 15  1  0  0  0  0
 11 12  1  1  0  0  0
 11 17  1  0  0  0  0
 13 14  1  1  0  0  0
 13 19  1  0  0  0  0
 15 16  1  1  0  0  0
 15 20  1  0  0  0  0
 17 18  1  6  0  0  0
 17 22  1  0  0  0  0
 19  2  1  1  0  0  0
 19 24  1  0  0  0  0
 20 21  1  0  0  0  0
 20 26  1  6  0  0  0
 22 23  1  0  0  0  0
 22 28  1  1  0  0  0
 24 25  1  6  0  0  0
 24 30  1  0  0  0  0
 26 27  1  0  0  0  0
 28 29  1  0  0  0  0
 30 31  1  6  0  0  0
M  END
>  <CHROM.1>
-145.15953347,-178.82314130,-61.07060407,-67.46600310,134.82285279,-80.91956940
21.11950262,7.98227439,7.66524825,-1.29804999,0.82686962,-1.01823807

>  <Name>
2o3x_lig

>  <RI>
224

>  <Rbt.Current_Directory>
/home/itssahil/PROJECTS/Mol_Feturizer/New_Systems/rnas/2o3x

>  <Rbt.Executable>
rbdock ($Id: //depot/dev/client3/rdock/2013.1/src/exe/rbdock.cxx#4 $)

>  <Rbt.Library>
libRbt.so (2013.1, Build901 2013/11/27)

>  <Rbt.Parameter_File>
/export/apps/rDock/src/rDock_2013.1_src/data/scripts/dock_solv.prm

>  <Rbt.Receptor>
prm/blind_docking_100.prm

>  <SCORE>
2.32052

>  <SCORE.INTER>
-9.76678

>  <SCORE.INTER.CONST>
1

>  <SCORE.INTER.POLAR>
-1.17313

>  <SCORE.INTER.ROT>
6

>  <SCORE.INTER.SOLV>
21.164

>  <SCORE.INTER.VDW>
-17.2554

>  <SCORE.INTER.norm>
-0.315058

>  <SCORE.INTRA>
8.64283

>  <SCORE.INTRA.DIHEDRAL>
1.97717

>  <SCORE.INTRA.DIHEDRAL.0>
9.37739

>  <SCORE.INTRA.POLAR>
0

>  <SCORE.INTRA.POLAR.0>
0

>  <SCORE.INTRA.REPUL>
0

>  <SCORE.INTRA.REPUL.0>
0

>  <SCORE.INTRA.SOLV>
1.337

>  <SCORE.INTRA.SOLV.lig_0>
-82.9274

>  <SCORE.INTRA.VDW>
6.98574

>  <SCORE.INTRA.VDW.0>
-3.84922

>  <SCORE.INTRA.norm>
0.278801

>  <SCORE.RESTR>
3.44447

>  <SCORE.RESTR.CAVITY>
3.44447

>  <SCORE.RESTR.norm>
0.111112

>  <SCORE.SYSTEM>
0

>  <SCORE.SYSTEM.CONST>
0

>  <SCORE.SYSTEM.DIHEDRAL>
0

>  <SCORE.SYSTEM.SOLV>
0

>  <SCORE.SYSTEM.norm>
0

>  <SCORE.heavy>
31

>  <SCORE.norm>
0.0748555

>  <RMSD>
7.585

$$$$
2o3x_lig
 OpenBabel11021811463D
libRbt.so/2013.1/901 2013/11/27
 31 33  0  0  0  0  0  0  0  0999 V2000
   20.5950    8.1297    9.0542 C   0  0  2  0  0  0  0  0  0  0  0  0
   19.3352    7.4924    8.8051 O   0  0  0  0  0  0  0  0  0  0  0  0
   15.3997    8.5587    7.5114 C   0  0  2  0  0  0  0  0  0  0  0  0
   14.2409    9.2737    6.9323 N   0  0  0  0  0  0  0  0  0  0  0  0
   19.2955    9.1744    5.6118 C   0  0  1  0  0  0  0  0  0  0  0  0
   21.6908    7.0238    9.1757 C   0  0  2  0  0  0  0  0  0  0  0  0
   21.6178    6.0396    8.0657 N   0  0  0  0  0  0  0  0  0  0  0  0
   15.9781    9.2943    8.7658 C   0  0  0  0  0  0  0  0  0  0  0  0
   20.5837    9.1940    4.7252 C   0  0  2  0  0  0  0  0  0  0  0  0
   21.8485    9.2589    5.4396 O   0  0  0  0  0  0  0  0  0  0  0  0
   21.5750    6.2529   10.5043 C   0  0  1  0  0  0  0  0  0  0  0  0
   22.6006    5.2987   10.6139 O   0  0  0  0  0  0  0  0  0  0  0  0
   17.1790    8.4459    9.3230 C   0  0  2  0  0  0  0  0  0  0  0  0
   17.7778    9.0737   10.5389 N   0  0  0  0  0  0  0  0  0  0  0  0
   20.2388   10.3976    3.8641 C   0  0  2  0  0  0  0  0  0  0  0  0
   20.5007   11.6527    4.5808 O   0  0  0  0  0  0  0  0  0  0  0  0
   21.6274    7.2277   11.6686 C   0  0  2  0  0  0  0  0  0  0  0  0
   21.5461    6.5317   12.8705 O   0  0  0  0  0  0  0  0  0  0  0  0
   18.2906    8.3008    8.2447 C   0  0  2  0  0  0  0  0  0  0  0  0
   18.7523   10.2395    3.5667 C   0  0  2  0  0  0  0  0  0  0  0  0
   18.2720    9.8128    4.8385 O   0  0  0  0  0  0  0  0  0  0  0  0
   20.4595    8.2483   11.5585 C   0  0  2  0  0  0  0  0  0  0  0  0
   20.5466    8.9526   10.3010 O   0  0  0  0  0  0  0  0  0  0  0  0
   17.7874    7.6691    6.9317 C   0  0  2  0  0  0  0  0  0  0  0  0
   18.8885    7.8453    5.9724 O   0  0  0  0  0  0  0  0  0  0  0  0
   18.4089    9.1816    2.4638 C   0  0  0  0  0  0  0  0  0  0  0  0
   18.7143    7.8708    2.9312 N   0  0  0  0  0  0  0  0  0  0  0  0
   20.4680    9.2599   12.6810 C   0  0  0  0  0  0  0  0  0  0  0  0
   19.4179   10.1503   12.5700 O   0  0  0  0  0  0  0  0  0  0  0  0
   16.4796    8.4219    6.4229 C   0  0  1  0  0  0  0  0  0  0  0  0
   15.8645    7.7238    5.3296 O   0  0  0  0  0  0  0  0  0  0  0  0
  1  2  1  1  0  0  0
  1  6  1  0  0  0  0
  1 23  1  0  0  0  0
  3  4  1  6  0  0  0
  3  8  1  0  0  0  0
  3 30  1  0  0  0  0
  5  9  1  0  0  0  0
  5 21  1  0  0  0  0
  5 25  1  6  0  0  0
  6  7  1  6  0  0  0
  6 11  1  0  0  0  0
  8 13  1  0  0  0  0
  9 10  1  1  0  0  0
  9 15  1  0  0  0  0
 11 12  1  1  0  0  0
 11 17  1  0  0  0  0
 13 14  1  1  0  0  0
 13 19  1  0  0  0  0
 15 16  1  1  0  0  0
 15 20  1  0  0  0  0
 17 18  1  1  0  0  0
 17 22  1  0  0  0  0
 19  2  1  1  0  0  0
 19 24  1  0  0  0  0
 20 21  1  0  0  0  0
 20 26  1  6  0  0  0
 22 23  1  0  0  0  0
 22 28  1  1  0  0  0
 24 25  1  6  0  0  0
 24 30  1  0  0  0  0
 26 27  1  0  0  0  0
 28 29  1  0  0  0  0
 30 31  1  6  0  0  0
M  END
>  <CHROM.1>
-160.60189900,172.94427486,-112.75666933,67.76065066,-179.56214366,-62.78889292
19.25299203,8.45487958,7.81938214,-1.20777634,0.18975121,-1.40026353

>  <Name>
2o3x_lig

>  <RI>
0

>  <Rbt.Current_Directory>
/home/itssahil/PROJECTS/Mol_Feturizer/New_Systems/rnas/2o3x

>  <Rbt.Executable>
rbdock ($Id: //depot/dev/client3/rdock/2013.1/src/exe/rbdock.cxx#4 $)

>  <Rbt.Library>
libRbt.so (2013.1, Build901 2013/11/27)

>  <Rbt.Parameter_File>
/export/apps/rDock/src/rDock_2013.1_src/data/scripts/dock_solv.prm

>  <Rbt.Receptor>
prm/pocket_docking_4.prm

>  <SCORE>
-14.3146

>  <SCORE.INTER>
-17.5669

>  <SCORE.INTER.CONST>
1

>  <SCORE.INTER.POLAR>
-1.63648

>  <SCORE.INTER.ROT>
6

>  <SCORE.INTER.SOLV>
15.5411

>  <SCORE.INTER.VDW>
-19.0367

>  <SCORE.INTER.norm>
-0.566675

>  <SCORE.INTRA>
3.25234

>  <SCORE.INTRA.DIHEDRAL>
-0.166014

>  <SCORE.INTRA.DIHEDRAL.0>
9.37739

>  <SCORE.INTRA.POLAR>
0

>  <SCORE.INTRA.POLAR.0>
0

>  <SCORE.INTRA.REPUL>
0

>  <SCORE.INTRA.REPUL.0>
0

>  <SCORE.INTRA.SOLV>
5.64566

>  <SCORE.INTRA.SOLV.lig_0>
-82.9274

>  <SCORE.INTRA.VDW>
0.51252

>  <SCORE.INTRA.VDW.0>
-3.84922

>  <SCORE.INTRA.norm>
0.104914

>  <SCORE.RESTR>
0

>  <SCORE.RESTR.CAVITY>
0

>  <SCORE.RESTR.norm>
0

>  <SCORE.SYSTEM>
0

>  <SCORE.SYSTEM.CONST>
0

>  <SCORE.SYSTEM.DIHEDRAL>
0

>  <SCORE.SYSTEM.SOLV>
0

>  <SCORE.SYSTEM.norm>
0

>  <SCORE.heavy>
31

>  <SCORE.norm>
-0.461761

>  <RMSD>
7.593

$$$$
2o3x_lig
 OpenBabel11021811463D
libRbt.so/2013.1/901 2013/11/27
 31 33  0  0  0  0  0  0  0  0999 V2000
   18.8311    6.6401   11.9502 C   0  0  2  0  0  0  0  0  0  0  0  0
   19.1464    5.5451   11.0801 O   0  0  0  0  0  0  0  0  0  0  0  0
   20.4505    5.9460    7.0259 C   0  0  2  0  0  0  0  0  0  0  0  0
   20.4979    6.1947    5.5680 N   0  0  0  0  0  0  0  0  0  0  0  0
   19.5868    9.4877    9.9066 C   0  0  1  0  0  0  0  0  0  0  0  0
   19.0780    6.1852   13.4235 C   0  0  2  0  0  0  0  0  0  0  0  0
   20.3966    5.5226   13.5909 N   0  0  0  0  0  0  0  0  0  0  0  0
   19.5532    4.7147    7.3837 C   0  0  0  0  0  0  0  0  0  0  0  0
   18.5170   10.5921   10.1928 C   0  0  2  0  0  0  0  0  0  0  0  0
   17.8617   11.1624    9.0268 O   0  0  0  0  0  0  0  0  0  0  0  0
   17.9892    5.2083   13.9064 C   0  0  1  0  0  0  0  0  0  0  0  0
   18.2033    4.8528   15.2488 O   0  0  0  0  0  0  0  0  0  0  0  0
   19.5914    4.5152    8.9429 C   0  0  2  0  0  0  0  0  0  0  0  0
   18.7704    3.3415    9.3670 N   0  0  0  0  0  0  0  0  0  0  0  0
   19.3898   11.5387   10.9999 C   0  0  2  0  0  0  0  0  0  0  0  0
   20.2454   12.3474   10.1214 O   0  0  0  0  0  0  0  0  0  0  0  0
   16.6191    5.8425   13.7350 C   0  0  2  0  0  0  0  0  0  0  0  0
   15.6355    4.9710   14.1918 O   0  0  0  0  0  0  0  0  0  0  0  0
   19.0529    5.7814    9.6680 C   0  0  2  0  0  0  0  0  0  0  0  0
   20.2276   10.6231   11.8846 C   0  0  2  0  0  0  0  0  0  0  0  0
   20.5514    9.5871   10.9615 O   0  0  0  0  0  0  0  0  0  0  0  0
   16.3782    6.1877   12.2382 C   0  0  2  0  0  0  0  0  0  0  0  0
   17.4137    7.0799   11.7726 O   0  0  0  0  0  0  0  0  0  0  0  0
   19.8203    7.0669    9.3006 C   0  0  2  0  0  0  0  0  0  0  0  0
   19.0260    8.1662    9.8702 O   0  0  0  0  0  0  0  0  0  0  0  0
   19.4760   10.0388   13.1284 C   0  0  0  0  0  0  0  0  0  0  0  0
   20.3883    9.3320   13.9639 N   0  0  0  0  0  0  0  0  0  0  0  0
   15.0359    6.8409   12.0044 C   0  0  0  0  0  0  0  0  0  0  0  0
   14.8297    7.1129   10.6659 O   0  0  0  0  0  0  0  0  0  0  0  0
   19.9227    7.2153    7.7184 C   0  0  1  0  0  0  0  0  0  0  0  0
   20.8144    8.2777    7.3480 O   0  0  0  0  0  0  0  0  0  0  0  0
  1  2  1  6  0  0  0
  1  6  1  0  0  0  0
  1 23  1  0  0  0  0
  3  4  1  6  0  0  0
  3  8  1  0  0  0  0
  3 30  1  0  0  0  0
  5  9  1  0  0  0  0
  5 21  1  0  0  0  0
  5 25  1  1  0  0  0
  6  7  1  6  0  0  0
  6 11  1  0  0  0  0
  8 13  1  0  0  0  0
  9 10  1  6  0  0  0
  9 15  1  0  0  0  0
 11 12  1  1  0  0  0
 11 17  1  0  0  0  0
 13 14  1  6  0  0  0
 13 19  1  0  0  0  0
 15 16  1  6  0  0  0
 15 20  1  0  0  0  0
 17 18  1  6  0  0  0
 17 22  1  0  0  0  0
 19  2  1  1  0  0  0
 19 24  1  0  0  0  0
 20 21  1  0  0  0  0
 20 26  1  1  0  0  0
 22 23  1  0  0  0  0
 22 28  1  1  0  0  0
 24 25  1  6  0  0  0
 24 30  1  0  0  0  0
 26 27  1  0  0  0  0
 28 29  1  0  0  0  0
 30 31  1  1  0  0  0
M  END
>  <CHROM.1>
-176.78919100,165.40973375,173.72058978,-173.17029485,-178.69590547,169.22649872
18.79141775,7.37766011,10.85514245,-3.08710830,1.14379438,0.54236764

>  <Name>
2o3x_lig

>  <RI>
2.78316e+07

>  <Rbt.Current_Directory>
/home/itssahil/PROJECTS/Mol_Feturizer/New_Systems/rnas/2o3x

>  <Rbt.Executable>
rbdock ($Id: //depot/dev/client3/rdock/2013.1/src/exe/rbdock.cxx#4 $)

>  <Rbt.Library>
libRbt.so (2013.1, Build901 2013/11/27)

>  <Rbt.Parameter_File>
/export/apps/rDock/src/rDock_2013.1_src/data/scripts/dock_solv.prm

>  <Rbt.Receptor>
prm/pocket_docking_7.prm

>  <SCORE>
-10.8858

>  <SCORE.INTER>
-8.15776

>  <SCORE.INTER.CONST>
1

>  <SCORE.INTER.POLAR>
-1.7075

>  <SCORE.INTER.ROT>
6

>  <SCORE.INTER.SOLV>
14.5169

>  <SCORE.INTER.VDW>
-12.1858

>  <SCORE.INTER.norm>
-0.263153

>  <SCORE.INTRA>
-2.72808

>  <SCORE.INTRA.DIHEDRAL>
-7.24385

>  <SCORE.INTRA.DIHEDRAL.0>
9.37739

>  <SCORE.INTRA.POLAR>
0

>  <SCORE.INTRA.POLAR.0>
0

>  <SCORE.INTRA.REPUL>
0

>  <SCORE.INTRA.REPUL.0>
0

>  <SCORE.INTRA.SOLV>
-1.2722

>  <SCORE.INTRA.SOLV.lig_0>
-82.9274

>  <SCORE.INTRA.VDW>
1.52995

>  <SCORE.INTRA.VDW.0>
-3.84922

>  <SCORE.INTRA.norm>
-0.0880024

>  <SCORE.RESTR>
0

>  <SCORE.RESTR.CAVITY>
0

>  <SCORE.RESTR.norm>
0

>  <SCORE.SYSTEM>
0

>  <SCORE.SYSTEM.CONST>
0

>  <SCORE.SYSTEM.DIHEDRAL>
0

>  <SCORE.SYSTEM.SOLV>
0

>  <SCORE.SYSTEM.norm>
0

>  <SCORE.heavy>
31

>  <SCORE.norm>
-0.351156

>  <RMSD>
7.646

$$$$
2o3x_lig
 OpenBabel11021811463D
libRbt.so/2013.1/901 2013/11/27
 31 33  0  0  0  0  0  0  0  0999 V2000
   18.8090    6.6998   11.8217 C   0  0  2  0  0  0  0  0  0  0  0  0
   19.1847    5.6352   10.9381 O   0  0  0  0  0  0  0  0  0  0  0  0
   20.1526    5.9936    6.7868 C   0  0  2  0  0  0  0  0  0  0  0  0
   20.0777    6.2160    5.3259 N   0  0  0  0  0  0  0  0  0  0  0  0
   19.5064    9.5196    9.8555 C   0  0  1  0  0  0  0  0  0  0  0  0
   19.1726    6.2801   13.2812 C   0  0  2  0  0  0  0  0  0  0  0  0
   20.5560    5.7492   13.3824 N   0  0  0  0  0  0  0  0  0  0  0  0
   19.3207    4.7462    7.2355 C   0  0  0  0  0  0  0  0  0  0  0  0
   18.4691   10.6438   10.1816 C   0  0  2  0  0  0  0  0  0  0  0  0
   17.8862   11.3250    9.0368 O   0  0  0  0  0  0  0  0  0  0  0  0
   18.2093    5.2055   13.8198 C   0  0  1  0  0  0  0  0  0  0  0  0
   18.5241    4.8807   15.1501 O   0  0  0  0  0  0  0  0  0  0  0  0
   19.4875    4.5772    8.7898 C   0  0  2  0  0  0  0  0  0  0  0  0
   18.7354    3.3906    9.2974 N   0  0  0  0  0  0  0  0  0  0  0  0
   19.3431   11.4913   11.0910 C   0  0  2  0  0  0  0  0  0  0  0  0
   20.2657   12.3258   10.3100 O   0  0  0  0  0  0  0  0  0  0  0  0
   16.7774    5.7032   13.7173 C   0  0  2  0  0  0  0  0  0  0  0  0
   15.9071    4.7435   14.2245 O   0  0  0  0  0  0  0  0  0  0  0  0
   18.9734    5.8423    9.5342 C   0  0  2  0  0  0  0  0  0  0  0  0
   20.1067   10.4790   11.9368 C   0  0  2  0  0  0  0  0  0  0  0  0
   20.4287    9.5009   10.9519 O   0  0  0  0  0  0  0  0  0  0  0  0
   16.4292    6.0142   12.2342 C   0  0  2  0  0  0  0  0  0  0  0  0
   17.3485    6.9994   11.7155 O   0  0  0  0  0  0  0  0  0  0  0  0
   19.6736    7.1403    9.0855 C   0  0  2  0  0  0  0  0  0  0  0  0
   18.8969    8.2290    9.6980 O   0  0  0  0  0  0  0  0  0  0  0  0
   19.2811    9.8369   13.1028 C   0  0  0  0  0  0  0  0  0  0  0  0
   18.7695   10.8548   13.9584 N   0  0  0  0  0  0  0  0  0  0  0  0
   15.0197    6.5330   12.0679 C   0  0  0  0  0  0  0  0  0  0  0  0
   14.7129    6.7523   10.7391 O   0  0  0  0  0  0  0  0  0  0  0  0
   19.6464    7.2615    7.4979 C   0  0  1  0  0  0  0  0  0  0  0  0
   20.4764    8.3398    7.0400 O   0  0  0  0  0  0  0  0  0  0  0  0
  1  2  1  6  0  0  0
  1  6  1  0  0  0  0
  1 23  1  0  0  0  0
  3  4  1  6  0  0  0
  3  8  1  0  0  0  0
  3 30  1  0  0  0  0
  5  9  1  0  0  0  0
  5 21  1  0  0  0  0
  5 25  1  1  0  0  0
  6  7  1  6  0  0  0
  6 11  1  0  0  0  0
  8 13  1  0  0  0  0
  9 10  1  6  0  0  0
  9 15  1  0  0  0  0
 11 12  1  1  0  0  0
 11 17  1  0  0  0  0
 13 14  1  1  0  0  0
 13 19  1  0  0  0  0
 15 16  1  6  0  0  0
 15 20  1  0  0  0  0
 17 18  1  6  0  0  0
 17 22  1  0  0  0  0
 19  2  1  1  0  0  0
 19 24  1  0  0  0  0
 20 21  1  0  0  0  0
 20 26  1  1  0  0  0
 22 23  1  0  0  0  0
 22 28  1  1  0  0  0
 24 25  1  1  0  0  0
 24 30  1  0  0  0  0
 26 27  1  0  0  0  0
 28 29  1  0  0  0  0
 30 31  1  1  0  0  0
M  END
>  <CHROM.1>
-177.98294126,165.72216465,178.55190679,-56.84439164,-177.59432174,159.58533168
18.69224548,7.40745149,10.78011821,3.12175448,1.18659989,0.58107740

>  <Name>
2o3x_lig

>  <RI>
0

>  <Rbt.Current_Directory>
/home/itssahil/PROJECTS/Mol_Feturizer/New_Systems/rnas/2o3x

>  <Rbt.Executable>
rbdock ($Id: //depot/dev/client3/rdock/2013.1/src/exe/rbdock.cxx#4 $)

>  <Rbt.Library>
libRbt.so (2013.1, Build901 2013/11/27)

>  <Rbt.Parameter_File>
/export/apps/rDock/src/rDock_2013.1_src/data/scripts/dock_solv.prm

>  <Rbt.Receptor>
prm/pocket_docking_8.prm

>  <SCORE>
-11.3728

>  <SCORE.INTER>
-8.06902

>  <SCORE.INTER.CONST>
1

>  <SCORE.INTER.POLAR>
-1.7075

>  <SCORE.INTER.ROT>
6

>  <SCORE.INTER.SOLV>
11.9676

>  <SCORE.INTER.VDW>
-11.2769

>  <SCORE.INTER.norm>
-0.260291

>  <SCORE.INTRA>
-3.30382

>  <SCORE.INTRA.DIHEDRAL>
-6.2881

>  <SCORE.INTRA.DIHEDRAL.0>
9.37739

>  <SCORE.INTRA.POLAR>
0

>  <SCORE.INTRA.POLAR.0>
0

>  <SCORE.INTRA.REPUL>
0

>  <SCORE.INTRA.REPUL.0>
0

>  <SCORE.INTRA.SOLV>
-2.62098

>  <SCORE.INTRA.SOLV.lig_0>
-82.9274

>  <SCORE.INTRA.VDW>
1.15072

>  <SCORE.INTRA.VDW.0>
-3.84922

>  <SCORE.INTRA.norm>
-0.106575

>  <SCORE.RESTR>
0

>  <SCORE.RESTR.CAVITY>
0

>  <SCORE.RESTR.norm>
0

>  <SCORE.SYSTEM>
0

>  <SCORE.SYSTEM.CONST>
0

>  <SCORE.SYSTEM.DIHEDRAL>
0

>  <SCORE.SYSTEM.SOLV>
0

>  <SCORE.SYSTEM.norm>
0

>  <SCORE.heavy>
31

>  <SCORE.norm>
-0.366866

>  <RMSD>
7.654

$$$$
2o3x_lig
 OpenBabel11021811463D
libRbt.so/2013.1/901 2013/11/27
 31 33  0  0  0  0  0  0  0  0999 V2000
   23.9258    7.2014   12.6575 C   0  0  2  0  0  0  0  0  0  0  0  0
   23.5706    7.9298   11.4748 O   0  0  0  0  0  0  0  0  0  0  0  0
   24.4720    7.5744    7.3084 C   0  0  2  0  0  0  0  0  0  0  0  0
   24.7089    7.0440    5.9475 N   0  0  0  0  0  0  0  0  0  0  0  0
   21.3492    5.5617    9.4916 C   0  0  1  0  0  0  0  0  0  0  0  0
   22.8919    7.5445   13.7763 C   0  0  2  0  0  0  0  0  0  0  0  0
   21.4911    7.4441   13.2934 N   0  0  0  0  0  0  0  0  0  0  0  0
   25.5447    7.0714    8.3309 C   0  0  0  0  0  0  0  0  0  0  0  0
   22.5808    4.7433   10.0010 C   0  0  2  0  0  0  0  0  0  0  0  0
   23.6554    4.5449    9.0417 O   0  0  0  0  0  0  0  0  0  0  0  0
   23.1044    8.9665   14.3294 C   0  0  1  0  0  0  0  0  0  0  0  0
   22.1971    9.2342   15.3683 O   0  0  0  0  0  0  0  0  0  0  0  0
   25.2260    7.7101    9.7319 C   0  0  2  0  0  0  0  0  0  0  0  0
   26.2206    7.2926   10.7652 N   0  0  0  0  0  0  0  0  0  0  0  0
   21.8431    3.4923   10.4477 C   0  0  2  0  0  0  0  0  0  0  0  0
   21.5221    2.6305    9.3024 O   0  0  0  0  0  0  0  0  0  0  0  0
   24.5349    9.1174   14.8190 C   0  0  2  0  0  0  0  0  0  0  0  0
   24.7228   10.3937   15.3401 O   0  0  0  0  0  0  0  0  0  0  0  0
   23.8083    7.2888   10.2134 C   0  0  2  0  0  0  0  0  0  0  0  0
   20.5734    4.0149   11.1095 C   0  0  2  0  0  0  0  0  0  0  0  0
   20.2148    5.0576   10.2071 O   0  0  0  0  0  0  0  0  0  0  0  0
   25.5257    8.8638   13.6479 C   0  0  2  0  0  0  0  0  0  0  0  0
   25.3100    7.5428   13.1064 O   0  0  0  0  0  0  0  0  0  0  0  0
   22.6911    7.6610    9.2185 C   0  0  2  0  0  0  0  0  0  0  0  0
   21.4888    6.9735    9.7142 O   0  0  0  0  0  0  0  0  0  0  0  0
   20.7687    4.5807   12.5570 C   0  0  0  0  0  0  0  0  0  0  0  0
   19.5284    5.0643   13.0647 N   0  0  0  0  0  0  0  0  0  0  0  0
   26.9698    8.9809   14.0768 C   0  0  0  0  0  0  0  0  0  0  0  0
   27.2682   10.2571   14.5129 O   0  0  0  0  0  0  0  0  0  0  0  0
   23.0617    7.1505    7.7564 C   0  0  1  0  0  0  0  0  0  0  0  0
   22.1529    7.6697    6.7737 O   0  0  0  0  0  0  0  0  0  0  0  0
  1  2  1  6  0  0  0
  1  6  1  0  0  0  0
  1 23  1  0  0  0  0
  3  4  1  6  0  0  0
  3  8  1  0  0  0  0
  3 30  1  0  0  0  0
  5  9  1  0  0  0  0
  5 21  1  0  0  0  0
  5 25  1  1  0  0  0
  6  7  1  6  0  0  0
  6 11  1  0  0  0  0
  8 13  1  0  0  0  0
  9 10  1  6  0  0  0
  9 15  1  0  0  0  0
 11 12  1  1  0  0  0
 11 17  1  0  0  0  0
 13 14  1  1  0  0  0
 13 19  1  0  0  0  0
 15 16  1  6  0  0  0
 15 20  1  0  0  0  0
 17 18  1  6  0  0  0
 17 22  1  0  0  0  0
 19  2  1  1  0  0  0
 19 24  1  0  0  0  0
 20 21  1  0  0  0  0
 20 26  1  1  0  0  0
 22 23  1  0  0  0  0
 22 28  1  1  0  0  0
 24 25  1  1  0  0  0
 24 30  1  0  0  0  0
 26 27  1  0  0  0  0
 28 29  1  0  0  0  0
 30 31  1  6  0  0  0
M  END
>  <CHROM.1>
-145.26506161,53.60056057,-91.96016222,178.79233153,-62.89501688,-76.66653445
23.31728819,6.99993912,11.22395674,1.07155701,0.64422951,1.27724729

>  <Name>
2o3x_lig

>  <RI>
0

>  <Rbt.Current_Directory>
/home/itssahil/PROJECTS/Mol_Feturizer/New_Systems/rnas/2o3x

>  <Rbt.Executable>
rbdock ($Id: //depot/dev/client3/rdock/2013.1/src/exe/rbdock.cxx#4 $)

>  <Rbt.Library>
libRbt.so (2013.1, Build901 2013/11/27)

>  <Rbt.Parameter_File>
/export/apps/rDock/src/rDock_2013.1_src/data/scripts/dock_solv.prm

>  <Rbt.Receptor>
prm/blind_docking_60.prm

>  <SCORE>
49.139

>  <SCORE.INTER>
40.9211

>  <SCORE.INTER.CONST>
1

>  <SCORE.INTER.POLAR>
-0.127936

>  <SCORE.INTER.ROT>
6

>  <SCORE.INTER.SOLV>
28.3418

>  <SCORE.INTER.VDW>
10.6599

>  <SCORE.INTER.norm>
1.32004

>  <SCORE.INTRA>
4.55332

>  <SCORE.INTRA.DIHEDRAL>
0.7221

>  <SCORE.INTRA.DIHEDRAL.0>
9.37739

>  <SCORE.INTRA.POLAR>
0

>  <SCORE.INTRA.POLAR.0>
0

>  <SCORE.INTRA.REPUL>
0

>  <SCORE.INTRA.REPUL.0>
0

>  <SCORE.INTRA.SOLV>
5.52199

>  <SCORE.INTRA.SOLV.lig_0>
-82.9274

>  <SCORE.INTRA.VDW>
1.43128

>  <SCORE.INTRA.VDW.0>
-3.84922

>  <SCORE.INTRA.norm>
0.146881

>  <SCORE.RESTR>
3.66461

>  <SCORE.RESTR.CAVITY>
3.66461

>  <SCORE.RESTR.norm>
0.118213

>  <SCORE.SYSTEM>
0

>  <SCORE.SYSTEM.CONST>
0

>  <SCORE.SYSTEM.DIHEDRAL>
0

>  <SCORE.SYSTEM.SOLV>
0

>  <SCORE.SYSTEM.norm>
0

>  <SCORE.heavy>
31

>  <SCORE.norm>
1.58513

>  <RMSD>
7.657

$$$$
2o3x_lig
 OpenBabel11021811463D
libRbt.so/2013.1/901 2013/11/27
 31 33  0  0  0  0  0  0  0  0999 V2000
   19.0497    5.6054    7.8699 C   0  0  2  0  0  0  0  0  0  0  0  0
   17.8163    5.6092    8.6008 O   0  0  0  0  0  0  0  0  0  0  0  0
   15.0107    8.7207    9.4641 C   0  0  2  0  0  0  0  0  0  0  0  0
   14.3917    9.9984    9.8809 N   0  0  0  0  0  0  0  0  0  0  0  0
   17.9052    8.7886    5.8844 C   0  0  1  0  0  0  0  0  0  0  0  0
   19.5570    4.1320    7.7678 C   0  0  2  0  0  0  0  0  0  0  0  0
   18.4866    3.2010    7.3284 N   0  0  0  0  0  0  0  0  0  0  0  0
   15.6355    7.9477   10.6730 C   0  0  0  0  0  0  0  0  0  0  0  0
   19.2822    9.1802    5.2548 C   0  0  2  0  0  0  0  0  0  0  0  0
   19.8194   10.4724    5.6498 O   0  0  0  0  0  0  0  0  0  0  0  0
   20.1056    3.6255    9.1151 C   0  0  1  0  0  0  0  0  0  0  0  0
   20.6023    2.3174    8.9870 O   0  0  0  0  0  0  0  0  0  0  0  0
   16.2373    6.5981   10.1354 C   0  0  2  0  0  0  0  0  0  0  0  0
   16.8396    5.7879   11.2363 N   0  0  0  0  0  0  0  0  0  0  0  0
   18.9039    9.0321    3.7906 C   0  0  2  0  0  0  0  0  0  0  0  0
   18.1554   10.2038    3.3168 O   0  0  0  0  0  0  0  0  0  0  0  0
   21.1943    4.5628    9.6101 C   0  0  2  0  0  0  0  0  0  0  0  0
   21.7073    4.0948   10.8157 O   0  0  0  0  0  0  0  0  0  0  0  0
   17.3361    6.8770    9.0705 C   0  0  2  0  0  0  0  0  0  0  0  0
   18.0389    7.7780    3.7459 C   0  0  2  0  0  0  0  0  0  0  0  0
   17.2483    7.9600    4.9173 O   0  0  0  0  0  0  0  0  0  0  0  0
   20.6182    5.9956    9.7913 C   0  0  2  0  0  0  0  0  0  0  0  0
   20.0755    6.4632    8.5376 O   0  0  0  0  0  0  0  0  0  0  0  0
   16.8327    7.7190    7.8814 C   0  0  2  0  0  0  0  0  0  0  0  0
   18.0424    8.0852    7.1288 O   0  0  0  0  0  0  0  0  0  0  0  0
   18.8298    6.4279    3.8183 C   0  0  0  0  0  0  0  0  0  0  0  0
   17.9390    5.3292    3.6475 N   0  0  0  0  0  0  0  0  0  0  0  0
   21.6602    6.9820   10.2652 C   0  0  0  0  0  0  0  0  0  0  0  0
   21.1399    8.2568   10.3749 O   0  0  0  0  0  0  0  0  0  0  0  0
   16.0868    9.0244    8.4061 C   0  0  1  0  0  0  0  0  0  0  0  0
   15.4192    9.7123    7.3373 O   0  0  0  0  0  0  0  0  0  0  0  0
  1  2  1  1  0  0  0
  1  6  1  0  0  0  0
  1 23  1  0  0  0  0
  3  4  1  1  0  0  0
  3  8  1  0  0  0  0
  3 30  1  0  0  0  0
  5  9  1  0  0  0  0
  5 21  1  0  0  0  0
  5 25  1  1  0  0  0
  6  7  1  1  0  0  0
  6 11  1  0  0  0  0
  8 13  1  0  0  0  0
  9 10  1  6  0  0  0
  9 15  1  0  0  0  0
 11 12  1  6  0  0  0
 11 17  1  0  0  0  0
 13 14  1  1  0  0  0
 13 19  1  0  0  0  0
 15 16  1  1  0  0  0
 15 20  1  0  0  0  0
 17 18  1  1  0  0  0
 17 22  1  0  0  0  0
 19  2  1  6  0  0  0
 19 24  1  0  0  0  0
 20 21  1  0  0  0  0
 20 26  1  1  0  0  0
 22 23  1  0  0  0  0
 22 28  1  6  0  0  0
 24 25  1  6  0  0  0
 24 30  1  0  0  0  0
 26 27  1  0  0  0  0
 28 29  1  0  0  0  0
 30 31  1  6  0  0  0
M  END
>  <CHROM.1>
166.21756905,176.45948317,-164.80844492,-174.76647181,177.89773572,174.86180819
18.41676939,6.99892745,7.74505549,-0.98838742,0.76036344,-1.20338505

>  <Name>
2o3x_lig

>  <RI>
3.34184e+07

>  <Rbt.Current_Directory>
/home/itssahil/PROJECTS/Mol_Feturizer/New_Systems/rnas/2o3x

>  <Rbt.Executable>
rbdock ($Id: //depot/dev/client3/rdock/2013.1/src/exe/rbdock.cxx#4 $)

>  <Rbt.Library>
libRbt.so (2013.1, Build901 2013/11/27)

>  <Rbt.Parameter_File>
/export/apps/rDock/src/rDock_2013.1_src/data/scripts/dock_solv.prm

>  <Rbt.Receptor>
prm/pocket_docking_6.prm

>  <SCORE>
-13.52

>  <SCORE.INTER>
-9.48903

>  <SCORE.INTER.CONST>
1

>  <SCORE.INTER.POLAR>
-1.63977

>  <SCORE.INTER.ROT>
6

>  <SCORE.INTER.SOLV>
9.94116

>  <SCORE.INTER.VDW>
-11.7738

>  <SCORE.INTER.norm>
-0.306098

>  <SCORE.INTRA>
-4.03094

>  <SCORE.INTRA.DIHEDRAL>
-6.94126

>  <SCORE.INTRA.DIHEDRAL.0>
9.37739

>  <SCORE.INTRA.POLAR>
0

>  <SCORE.INTRA.POLAR.0>
0

>  <SCORE.INTRA.REPUL>
0

>  <SCORE.INTRA.REPUL.0>
0

>  <SCORE.INTRA.SOLV>
-2.64416

>  <SCORE.INTRA.SOLV.lig_0>
-82.9274

>  <SCORE.INTRA.VDW>
0.761771

>  <SCORE.INTRA.VDW.0>
-3.84922

>  <SCORE.INTRA.norm>
-0.13003

>  <SCORE.RESTR>
0

>  <SCORE.RESTR.CAVITY>
0

>  <SCORE.RESTR.norm>
0

>  <SCORE.SYSTEM>
0

>  <SCORE.SYSTEM.CONST>
0

>  <SCORE.SYSTEM.DIHEDRAL>
0

>  <SCORE.SYSTEM.SOLV>
0

>  <SCORE.SYSTEM.norm>
0

>  <SCORE.heavy>
31

>  <SCORE.norm>
-0.436128

>  <RMSD>
7.660

$$$$
2o3x_lig
 OpenBabel11021811463D
libRbt.so/2013.1/901 2013/11/27
 31 33  0  0  0  0  0  0  0  0999 V2000
   19.9479    6.3949    9.4462 C   0  0  2  0  0  0  0  0  0  0  0  0
   18.8788    5.5458    9.0083 O   0  0  0  0  0  0  0  0  0  0  0  0
   16.3884    5.7545    5.5367 C   0  0  2  0  0  0  0  0  0  0  0  0
   15.4595    6.2169    4.4818 N   0  0  0  0  0  0  0  0  0  0  0  0
   20.3391    7.9829    5.8682 C   0  0  1  0  0  0  0  0  0  0  0  0
   20.7806    5.6246   10.5194 C   0  0  2  0  0  0  0  0  0  0  0  0
   21.1228    4.2478   10.0797 N   0  0  0  0  0  0  0  0  0  0  0  0
   15.6863    5.6412    6.9307 C   0  0  0  0  0  0  0  0  0  0  0  0
   21.0750    9.3165    6.2237 C   0  0  2  0  0  0  0  0  0  0  0  0
   20.3356   10.5414    5.9641 O   0  0  0  0  0  0  0  0  0  0  0  0
   20.0261    5.5233   11.8585 C   0  0  1  0  0  0  0  0  0  0  0  0
   20.8140    4.8719   12.8225 O   0  0  0  0  0  0  0  0  0  0  0  0
   16.7417    5.1168    7.9716 C   0  0  2  0  0  0  0  0  0  0  0  0
   16.1426    4.9621    9.3312 N   0  0  0  0  0  0  0  0  0  0  0  0
   22.3291    9.1029    5.3928 C   0  0  2  0  0  0  0  0  0  0  0  0
   22.0843    9.4101    3.9774 O   0  0  0  0  0  0  0  0  0  0  0  0
   19.6407    6.9133   12.3360 C   0  0  2  0  0  0  0  0  0  0  0  0
   18.9793    6.8261   13.5569 O   0  0  0  0  0  0  0  0  0  0  0  0
   17.9437    6.0989    8.0712 C   0  0  2  0  0  0  0  0  0  0  0  0
   22.6636    7.6278    5.5805 C   0  0  2  0  0  0  0  0  0  0  0  0
   21.3634    7.0499    5.5033 O   0  0  0  0  0  0  0  0  0  0  0  0
   18.7314    7.6034   11.2802 C   0  0  2  0  0  0  0  0  0  0  0  0
   19.4233    7.6737   10.0148 O   0  0  0  0  0  0  0  0  0  0  0  0
   18.6420    6.3467    6.7194 C   0  0  2  0  0  0  0  0  0  0  0  0
   19.5645    7.4666    6.9616 O   0  0  0  0  0  0  0  0  0  0  0  0
   23.3444    7.2741    6.9461 C   0  0  0  0  0  0  0  0  0  0  0  0
   23.7275    5.9020    6.9610 N   0  0  0  0  0  0  0  0  0  0  0  0
   18.3284    9.0010   11.6894 C   0  0  0  0  0  0  0  0  0  0  0  0
   17.5446    8.9910   12.8267 O   0  0  0  0  0  0  0  0  0  0  0  0
   17.5704    6.7380    5.6084 C   0  0  1  0  0  0  0  0  0  0  0  0
   18.1574    6.7598    4.2983 O   0  0  0  0  0  0  0  0  0  0  0  0
  1  2  1  1  0  0  0
  1  6  1  0  0  0  0
  1 23  1  0  0  0  0
  3  4  1  6  0  0  0
  3  8  1  0  0  0  0
  3 30  1  0  0  0  0
  5  9  1  0  0  0  0
  5 21  1  0  0  0  0
  5 25  1  1  0  0  0
  6  7  1  6  0  0  0
  6 11  1  0  0  0  0
  8 13  1  0  0  0  0
  9 10  1  6  0  0  0
  9 15  1  0  0  0  0
 11 12  1  1  0  0  0
 11 17  1  0  0  0  0
 13 14  1  1  0  0  0
 13 19  1  0  0  0  0
 15 16  1  6  0  0  0
 15 20  1  0  0  0  0
 17 18  1  1  0  0  0
 17 22  1  0  0  0  0
 19  2  1  1  0  0  0
 19 24  1  0  0  0  0
 20 21  1  0  0  0  0
 20 26  1  1  0  0  0
 22 23  1  0  0  0  0
 22 28  1  1  0  0  0
 24 25  1  1  0  0  0
 24 30  1  0  0  0  0
 26 27  1  0  0  0  0
 28 29  1  0  0  0  0
 30 31  1  6  0  0  0
M  END
>  <CHROM.1>
176.48549820,169.97618678,-168.77920577,-174.42208059,-64.41386159,-177.55657212
19.48704502,6.94875741,8.20489744,-1.77553905,-0.29526337,-1.43467123

>  <Name>
2o3x_lig

>  <RI>
0

>  <Rbt.Current_Directory>
/home/itssahil/PROJECTS/Mol_Feturizer/New_Systems/rnas/2o3x

>  <Rbt.Executable>
rbdock ($Id: //depot/dev/client3/rdock/2013.1/src/exe/rbdock.cxx#4 $)

>  <Rbt.Library>
libRbt.so (2013.1, Build901 2013/11/27)

>  <Rbt.Parameter_File>
/export/apps/rDock/src/rDock_2013.1_src/data/scripts/dock_solv.prm

>  <Rbt.Receptor>
prm/pocket_docking_4.prm

>  <SCORE>
-6.21871

>  <SCORE.INTER>
-2.21587

>  <SCORE.INTER.CONST>
1

>  <SCORE.INTER.POLAR>
-0.894427

>  <SCORE.INTER.ROT>
6

>  <SCORE.INTER.SOLV>
7.98871

>  <SCORE.INTER.VDW>
-8.75873

>  <SCORE.INTER.norm>
-0.0714797

>  <SCORE.INTRA>
-4.00284

>  <SCORE.INTRA.DIHEDRAL>
-7.85997

>  <SCORE.INTRA.DIHEDRAL.0>
9.37739

>  <SCORE.INTRA.POLAR>
0

>  <SCORE.INTRA.POLAR.0>
0

>  <SCORE.INTRA.REPUL>
0

>  <SCORE.INTRA.REPUL.0>
0

>  <SCORE.INTRA.SOLV>
-2.88795

>  <SCORE.INTRA.SOLV.lig_0>
-82.9274

>  <SCORE.INTRA.VDW>
1.37112

>  <SCORE.INTRA.VDW.0>
-3.84922

>  <SCORE.INTRA.norm>
-0.129124

>  <SCORE.RESTR>
0

>  <SCORE.RESTR.CAVITY>
0

>  <SCORE.RESTR.norm>
0

>  <SCORE.SYSTEM>
0

>  <SCORE.SYSTEM.CONST>
0

>  <SCORE.SYSTEM.DIHEDRAL>
0

>  <SCORE.SYSTEM.SOLV>
0

>  <SCORE.SYSTEM.norm>
0

>  <SCORE.heavy>
31

>  <SCORE.norm>
-0.200603

>  <RMSD>
7.662

$$$$
2o3x_lig
 OpenBabel11021811463D
libRbt.so/2013.1/901 2013/11/27
 31 33  0  0  0  0  0  0  0  0999 V2000
   20.8355    2.1360    5.4164 C   0  0  2  0  0  0  0  0  0  0  0  0
   20.5043    3.4539    4.9593 O   0  0  0  0  0  0  0  0  0  0  0  0
   22.6426    3.1887    1.2640 C   0  0  2  0  0  0  0  0  0  0  0  0
   23.1874    3.4648   -0.0837 N   0  0  0  0  0  0  0  0  0  0  0  0
   23.7506    6.0952    4.6382 C   0  0  1  0  0  0  0  0  0  0  0  0
   20.2145    1.9362    6.8352 C   0  0  2  0  0  0  0  0  0  0  0  0
   18.7893    2.3510    6.8856 N   0  0  0  0  0  0  0  0  0  0  0  0
   21.0998    2.9278    1.2329 C   0  0  0  0  0  0  0  0  0  0  0  0
   23.6277    7.5373    5.2309 C   0  0  2  0  0  0  0  0  0  0  0  0
   23.5731    8.6217    4.2637 O   0  0  0  0  0  0  0  0  0  0  0  0
   20.9808    2.7331    7.9079 C   0  0  1  0  0  0  0  0  0  0  0  0
   20.4365    2.4983    9.1818 O   0  0  0  0  0  0  0  0  0  0  0  0
   20.6242    2.6161    2.6988 C   0  0  2  0  0  0  0  0  0  0  0  0
   19.1580    2.3355    2.7529 N   0  0  0  0  0  0  0  0  0  0  0  0
   24.8488    7.5076    6.1348 C   0  0  2  0  0  0  0  0  0  0  0  0
   26.0801    7.7382    5.3676 O   0  0  0  0  0  0  0  0  0  0  0  0
   22.4510    2.3505    7.8777 C   0  0  2  0  0  0  0  0  0  0  0  0
   23.1411    3.0521    8.8612 O   0  0  0  0  0  0  0  0  0  0  0  0
   20.9314    3.8168    3.6386 C   0  0  2  0  0  0  0  0  0  0  0  0
   24.8388    6.1099    6.7425 C   0  0  2  0  0  0  0  0  0  0  0  0
   24.4796    5.3297    5.6055 O   0  0  0  0  0  0  0  0  0  0  0  0
   23.0505    2.6591    6.4767 C   0  0  2  0  0  0  0  0  0  0  0  0
   22.3161    1.9375    5.4643 O   0  0  0  0  0  0  0  0  0  0  0  0
   22.4222    4.2084    3.6598 C   0  0  2  0  0  0  0  0  0  0  0  0
   22.4745    5.4875    4.3842 O   0  0  0  0  0  0  0  0  0  0  0  0
   23.8070    5.9021    7.9025 C   0  0  0  0  0  0  0  0  0  0  0  0
   24.1383    6.7380    9.0076 N   0  0  0  0  0  0  0  0  0  0  0  0
   24.5102    2.2818    6.3766 C   0  0  0  0  0  0  0  0  0  0  0  0
   25.0438    2.6369    5.1530 O   0  0  0  0  0  0  0  0  0  0  0  0
   22.9670    4.3870    2.1742 C   0  0  1  0  0  0  0  0  0  0  0  0
   24.3949    4.5346    2.1535 O   0  0  0  0  0  0  0  0  0  0  0  0
  1  2  1  1  0  0  0
  1  6  1  0  0  0  0
  1 23  1  0  0  0  0
  3  4  1  6  0  0  0
  3  8  1  0  0  0  0
  3 30  1  0  0  0  0
  5  9  1  0  0  0  0
  5 21  1  0  0  0  0
  5 25  1  1  0  0  0
  6  7  1  6  0  0  0
  6 11  1  0  0  0  0
  8 13  1  0  0  0  0
  9 10  1  6  0  0  0
  9 15  1  0  0  0  0
 11 12  1  1  0  0  0
 11 17  1  0  0  0  0
 13 14  1  6  0  0  0
 13 19  1  0  0  0  0
 15 16  1  6  0  0  0
 15 20  1  0  0  0  0
 17 18  1  1  0  0  0
 17 22  1  0  0  0  0
 19  2  1  1  0  0  0
 19 24  1  0  0  0  0
 20 21  1  0  0  0  0
 20 26  1  1  0  0  0
 22 23  1  0  0  0  0
 22 28  1  1  0  0  0
 24 25  1  1  0  0  0
 24 30  1  0  0  0  0
 26 27  1  0  0  0  0
 28 29  1  0  0  0  0
 30 31  1  1  0  0  0
M  END
>  <CHROM.1>
-177.14219617,171.79838621,44.03077522,-63.88121867,-176.38962616,176.84796641
22.65709770,4.16648968,5.18712752,2.74855151,-0.84818505,-1.53077127

>  <Name>
2o3x_lig

>  <RI>
0

>  <Rbt.Current_Directory>
/home/itssahil/PROJECTS/Mol_Feturizer/New_Systems/rnas/2o3x

>  <Rbt.Executable>
rbdock ($Id: //depot/dev/client3/rdock/2013.1/src/exe/rbdock.cxx#4 $)

>  <Rbt.Library>
libRbt.so (2013.1, Build901 2013/11/27)

>  <Rbt.Parameter_File>
/export/apps/rDock/src/rDock_2013.1_src/data/scripts/dock_solv.prm

>  <Rbt.Receptor>
prm/pocket_docking_8.prm

>  <SCORE>
-3.93221

>  <SCORE.INTER>
-0.102524

>  <SCORE.INTER.CONST>
1

>  <SCORE.INTER.POLAR>
0

>  <SCORE.INTER.ROT>
6

>  <SCORE.INTER.SOLV>
8.90647

>  <SCORE.INTER.VDW>
-10.6372

>  <SCORE.INTER.norm>
-0.00330722

>  <SCORE.INTRA>
-3.82968

>  <SCORE.INTRA.DIHEDRAL>
-7.49581

>  <SCORE.INTRA.DIHEDRAL.0>
9.37739

>  <SCORE.INTRA.POLAR>
0

>  <SCORE.INTRA.POLAR.0>
0

>  <SCORE.INTRA.REPUL>
0

>  <SCORE.INTRA.REPUL.0>
0

>  <SCORE.INTRA.SOLV>
0.0548649

>  <SCORE.INTRA.SOLV.lig_0>
-82.9274

>  <SCORE.INTRA.VDW>
-0.10921

>  <SCORE.INTRA.VDW.0>
-3.84922

>  <SCORE.INTRA.norm>
-0.123538

>  <SCORE.RESTR>
0

>  <SCORE.RESTR.CAVITY>
0

>  <SCORE.RESTR.norm>
0

>  <SCORE.SYSTEM>
0

>  <SCORE.SYSTEM.CONST>
0

>  <SCORE.SYSTEM.DIHEDRAL>
0

>  <SCORE.SYSTEM.SOLV>
0

>  <SCORE.SYSTEM.norm>
0

>  <SCORE.heavy>
31

>  <SCORE.norm>
-0.126845

>  <RMSD>
7.668

$$$$
2o3x_lig
 OpenBabel11021811463D
libRbt.so/2013.1/901 2013/11/27
 31 33  0  0  0  0  0  0  0  0999 V2000
   19.0463    5.3377    7.4376 C   0  0  2  0  0  0  0  0  0  0  0  0
   17.7278    5.5392    7.9632 O   0  0  0  0  0  0  0  0  0  0  0  0
   14.6192    8.2539    6.8386 C   0  0  2  0  0  0  0  0  0  0  0  0
   13.8568    9.4733    6.4902 N   0  0  0  0  0  0  0  0  0  0  0  0
   18.8102    8.1939    5.6635 C   0  0  1  0  0  0  0  0  0  0  0  0
   19.4286    3.8358    7.6288 C   0  0  2  0  0  0  0  0  0  0  0  0
   18.3514    2.9217    7.1709 N   0  0  0  0  0  0  0  0  0  0  0  0
   15.0833    8.2572    8.3333 C   0  0  0  0  0  0  0  0  0  0  0  0
   20.1623    8.1572    4.8783 C   0  0  2  0  0  0  0  0  0  0  0  0
   21.2996    7.6000    5.5928 O   0  0  0  0  0  0  0  0  0  0  0  0
   19.7345    3.5108    9.1031 C   0  0  1  0  0  0  0  0  0  0  0  0
   20.1248    2.1683    9.2433 O   0  0  0  0  0  0  0  0  0  0  0  0
   15.8536    6.9150    8.6118 C   0  0  2  0  0  0  0  0  0  0  0  0
   16.3159    6.8308   10.0297 N   0  0  0  0  0  0  0  0  0  0  0  0
   20.2511    9.6325    4.5255 C   0  0  2  0  0  0  0  0  0  0  0  0
   20.7332   10.4210    5.6672 O   0  0  0  0  0  0  0  0  0  0  0  0
   20.8224    4.4386    9.6173 C   0  0  2  0  0  0  0  0  0  0  0  0
   21.1166    4.1317   10.9421 O   0  0  0  0  0  0  0  0  0  0  0  0
   17.0937    6.7948    7.6808 C   0  0  2  0  0  0  0  0  0  0  0  0
   18.8243   10.0224    4.1573 C   0  0  2  0  0  0  0  0  0  0  0  0
   18.0925    9.3291    5.1643 O   0  0  0  0  0  0  0  0  0  0  0  0
   20.3576    5.9176    9.4988 C   0  0  2  0  0  0  0  0  0  0  0  0
   20.0409    6.2185    8.1225 O   0  0  0  0  0  0  0  0  0  0  0  0
   16.7413    6.8777    6.1824 C   0  0  2  0  0  0  0  0  0  0  0  0
   18.0327    6.9993    5.4887 O   0  0  0  0  0  0  0  0  0  0  0  0
   18.3640    9.5697    2.7302 C   0  0  0  0  0  0  0  0  0  0  0  0
   19.0498   10.3217    1.7333 N   0  0  0  0  0  0  0  0  0  0  0  0
   21.4068    6.8936    9.9781 C   0  0  0  0  0  0  0  0  0  0  0  0
   21.6039    6.7980   11.3419 O   0  0  0  0  0  0  0  0  0  0  0  0
   15.8342    8.1554    5.8987 C   0  0  1  0  0  0  0  0  0  0  0  0
   15.3103    8.1402    4.5621 O   0  0  0  0  0  0  0  0  0  0  0  0
  1  2  1  1  0  0  0
  1  6  1  0  0  0  0
  1 23  1  0  0  0  0
  3  4  1  6  0  0  0
  3  8  1  0  0  0  0
  3 30  1  0  0  0  0
  5  9  1  0  0  0  0
  5 21  1  0  0  0  0
  5 25  1  6  0  0  0
  6  7  1  1  0  0  0
  6 11  1  0  0  0  0
  8 13  1  0  0  0  0
  9 10  1  1  0  0  0
  9 15  1  0  0  0  0
 11 12  1  6  0  0  0
 11 17  1  0  0  0  0
 13 14  1  1  0  0  0
 13 19  1  0  0  0  0
 15 16  1  1  0  0  0
 15 20  1  0  0  0  0
 17 18  1  1  0  0  0
 17 22  1  0  0  0  0
 19  2  1  6  0  0  0
 19 24  1  0  0  0  0
 20 21  1  0  0  0  0
 20 26  1  6  0  0  0
 22 23  1  0  0  0  0
 22 28  1  6  0  0  0
 24 25  1  6  0  0  0
 24 30  1  0  0  0  0
 26 27  1  0  0  0  0
 28 29  1  0  0  0  0
 30 31  1  6  0  0  0
M  END
>  <CHROM.1>
-169.50467088,179.13665557,-166.82294123,-70.00527801,-67.81810668,-67.32829911
18.56301595,7.01343279,7.05972189,-1.21195425,0.06292738,-0.84225625

>  <Name>
2o3x_lig

>  <RI>
3.34184e+07

>  <Rbt.Current_Directory>
/home/itssahil/PROJECTS/Mol_Feturizer/New_Systems/rnas/2o3x

>  <Rbt.Executable>
rbdock ($Id: //depot/dev/client3/rdock/2013.1/src/exe/rbdock.cxx#4 $)

>  <Rbt.Library>
libRbt.so (2013.1, Build901 2013/11/27)

>  <Rbt.Parameter_File>
/export/apps/rDock/src/rDock_2013.1_src/data/scripts/dock_solv.prm

>  <Rbt.Receptor>
prm/pocket_docking_6.prm

>  <SCORE>
-11.6051

>  <SCORE.INTER>
-8.87122

>  <SCORE.INTER.CONST>
1

>  <SCORE.INTER.POLAR>
-0.877314

>  <SCORE.INTER.ROT>
6

>  <SCORE.INTER.SOLV>
19.2321

>  <SCORE.INTER.VDW>
-17.0005

>  <SCORE.INTER.norm>
-0.286168

>  <SCORE.INTRA>
-2.73389

>  <SCORE.INTRA.DIHEDRAL>
-7.01141

>  <SCORE.INTRA.DIHEDRAL.0>
9.37739

>  <SCORE.INTRA.POLAR>
0

>  <SCORE.INTRA.POLAR.0>
0

>  <SCORE.INTRA.REPUL>
0

>  <SCORE.INTRA.REPUL.0>
0

>  <SCORE.INTRA.SOLV>
-1.76359

>  <SCORE.INTRA.SOLV.lig_0>
-82.9274

>  <SCORE.INTRA.VDW>
1.65361

>  <SCORE.INTRA.VDW.0>
-3.84922

>  <SCORE.INTRA.norm>
-0.0881901

>  <SCORE.RESTR>
0

>  <SCORE.RESTR.CAVITY>
0

>  <SCORE.RESTR.norm>
0

>  <SCORE.SYSTEM>
0

>  <SCORE.SYSTEM.CONST>
0

>  <SCORE.SYSTEM.DIHEDRAL>
0

>  <SCORE.SYSTEM.SOLV>
0

>  <SCORE.SYSTEM.norm>
0

>  <SCORE.heavy>
31

>  <SCORE.norm>
-0.374358

>  <RMSD>
7.697

$$$$
2o3x_lig
 OpenBabel11021811463D
libRbt.so/2013.1/901 2013/11/27
 31 33  0  0  0  0  0  0  0  0999 V2000
   18.7214    5.7756    8.0105 C   0  0  2  0  0  0  0  0  0  0  0  0
   17.5203    5.9666    8.7696 O   0  0  0  0  0  0  0  0  0  0  0  0
   15.2450    9.4501    9.7627 C   0  0  2  0  0  0  0  0  0  0  0  0
   14.8410   10.8037   10.2033 N   0  0  0  0  0  0  0  0  0  0  0  0
   17.8971    9.0095    5.9812 C   0  0  1  0  0  0  0  0  0  0  0  0
   19.0024    4.2428    7.9106 C   0  0  2  0  0  0  0  0  0  0  0  0
   17.7956    3.4780    7.5051 N   0  0  0  0  0  0  0  0  0  0  0  0
   15.8184    8.5945   10.9411 C   0  0  0  0  0  0  0  0  0  0  0  0
   19.2754    9.1960    5.2660 C   0  0  2  0  0  0  0  0  0  0  0  0
   19.9718   10.4430    5.5389 O   0  0  0  0  0  0  0  0  0  0  0  0
   19.5025    3.6686    9.2497 C   0  0  1  0  0  0  0  0  0  0  0  0
   19.7969    2.3006    9.1226 O   0  0  0  0  0  0  0  0  0  0  0  0
   16.1884    7.1725   10.3815 C   0  0  2  0  0  0  0  0  0  0  0  0
   16.7280    6.2834   11.4536 N   0  0  0  0  0  0  0  0  0  0  0  0
   18.8093    8.9892    3.8346 C   0  0  2  0  0  0  0  0  0  0  0  0
   18.1722   10.2024    3.3055 O   0  0  0  0  0  0  0  0  0  0  0  0
   20.7296    4.4372    9.7104 C   0  0  2  0  0  0  0  0  0  0  0  0
   21.1969    3.9056   10.9082 O   0  0  0  0  0  0  0  0  0  0  0  0
   17.2547    7.2902    9.2553 C   0  0  2  0  0  0  0  0  0  0  0  0
   17.8095    7.8421    3.9216 C   0  0  2  0  0  0  0  0  0  0  0  0
   17.1044    8.1954    5.1084 O   0  0  0  0  0  0  0  0  0  0  0  0
   20.3765    5.9406    9.8912 C   0  0  2  0  0  0  0  0  0  0  0  0
   19.8788    6.4759    8.6460 O   0  0  0  0  0  0  0  0  0  0  0  0
   16.8124    8.1965    8.0895 C   0  0  2  0  0  0  0  0  0  0  0  0
   18.0184    8.3845    7.2684 O   0  0  0  0  0  0  0  0  0  0  0  0
   18.4486    6.4190    4.0625 C   0  0  0  0  0  0  0  0  0  0  0  0
   19.1666    6.0856    2.8780 N   0  0  0  0  0  0  0  0  0  0  0  0
   21.5643    6.7645   10.3315 C   0  0  0  0  0  0  0  0  0  0  0  0
   21.2382    8.1013   10.4522 O   0  0  0  0  0  0  0  0  0  0  0  0
   16.2929    9.5957    8.6446 C   0  0  1  0  0  0  0  0  0  0  0  0
   15.6729   10.3732    7.6090 O   0  0  0  0  0  0  0  0  0  0  0  0
  1  2  1  1  0  0  0
  1  6  1  0  0  0  0
  1 23  1  0  0  0  0
  3  4  1  1  0  0  0
  3  8  1  0  0  0  0
  3 30  1  0  0  0  0
  5  9  1  0  0  0  0
  5 21  1  0  0  0  0
  5 25  1  1  0  0  0
  6  7  1  1  0  0  0
  6 11  1  0  0  0  0
  8 13  1  0  0  0  0
  9 10  1  6  0  0  0
  9 15  1  0  0  0  0
 11 12  1  6  0  0  0
 11 17  1  0  0  0  0
 13 14  1  1  0  0  0
 13 19  1  0  0  0  0
 15 16  1  1  0  0  0
 15 20  1  0  0  0  0
 17 18  1  1  0  0  0
 17 22  1  0  0  0  0
 19  2  1  6  0  0  0
 19 24  1  0  0  0  0
 20 21  1  0  0  0  0
 20 26  1  1  0  0  0
 22 23  1  0  0  0  0
 22 28  1  6  0  0  0
 24 25  1  6  0  0  0
 24 30  1  0  0  0  0
 26 27  1  0  0  0  0
 28 29  1  0  0  0  0
 30 31  1  6  0  0  0
M  END
>  <CHROM.1>
165.29977317,177.27414299,-162.72132369,-65.98514421,178.42102488,170.10333815
18.31607667,7.22282918,7.86314337,-1.07705567,0.90394084,-1.20036827

>  <Name>
2o3x_lig

>  <RI>
3.34184e+07

>  <Rbt.Current_Directory>
/home/itssahil/PROJECTS/Mol_Feturizer/New_Systems/rnas/2o3x

>  <Rbt.Executable>
rbdock ($Id: //depot/dev/client3/rdock/2013.1/src/exe/rbdock.cxx#4 $)

>  <Rbt.Library>
libRbt.so (2013.1, Build901 2013/11/27)

>  <Rbt.Parameter_File>
/export/apps/rDock/src/rDock_2013.1_src/data/scripts/dock_solv.prm

>  <Rbt.Receptor>
prm/pocket_docking_6.prm

>  <SCORE>
-13.121

>  <SCORE.INTER>
-9.42771

>  <SCORE.INTER.CONST>
1

>  <SCORE.INTER.POLAR>
-1.5813

>  <SCORE.INTER.ROT>
6

>  <SCORE.INTER.SOLV>
11.5193

>  <SCORE.INTER.VDW>
-12.4539

>  <SCORE.INTER.norm>
-0.30412

>  <SCORE.INTRA>
-3.69324

>  <SCORE.INTRA.DIHEDRAL>
-6.16823

>  <SCORE.INTRA.DIHEDRAL.0>
9.37739

>  <SCORE.INTRA.POLAR>
0

>  <SCORE.INTRA.POLAR.0>
0

>  <SCORE.INTRA.REPUL>
0

>  <SCORE.INTRA.REPUL.0>
0

>  <SCORE.INTRA.SOLV>
-2.56258

>  <SCORE.INTRA.SOLV.lig_0>
-82.9274

>  <SCORE.INTRA.VDW>
0.672161

>  <SCORE.INTRA.VDW.0>
-3.84922

>  <SCORE.INTRA.norm>
-0.119137

>  <SCORE.RESTR>
0

>  <SCORE.RESTR.CAVITY>
0

>  <SCORE.RESTR.norm>
0

>  <SCORE.SYSTEM>
0

>  <SCORE.SYSTEM.CONST>
0

>  <SCORE.SYSTEM.DIHEDRAL>
0

>  <SCORE.SYSTEM.SOLV>
0

>  <SCORE.SYSTEM.norm>
0

>  <SCORE.heavy>
31

>  <SCORE.norm>
-0.423257

>  <RMSD>
7.707

$$$$
2o3x_lig
 OpenBabel11021811463D
libRbt.so/2013.1/901 2013/11/27
 31 33  0  0  0  0  0  0  0  0999 V2000
   20.1261    8.5654   11.3976 C   0  0  2  0  0  0  0  0  0  0  0  0
   20.2361    8.0096   10.0806 O   0  0  0  0  0  0  0  0  0  0  0  0
   18.4952    8.6000    6.2181 C   0  0  2  0  0  0  0  0  0  0  0  0
   17.6095    9.0190    5.1093 N   0  0  0  0  0  0  0  0  0  0  0  0
   18.8806   11.4591    9.4378 C   0  0  1  0  0  0  0  0  0  0  0  0
   21.2951    8.0048   12.2680 C   0  0  2  0  0  0  0  0  0  0  0  0
   22.6061    8.1086   11.5777 N   0  0  0  0  0  0  0  0  0  0  0  0
   17.7869    7.5992    7.1908 C   0  0  0  0  0  0  0  0  0  0  0  0
   18.2942   11.0313   10.8232 C   0  0  2  0  0  0  0  0  0  0  0  0
   17.3103    9.9610   10.7960 O   0  0  0  0  0  0  0  0  0  0  0  0
   21.0683    6.5273   12.6400 C   0  0  1  0  0  0  0  0  0  0  0  0
   22.1057    6.0596   13.4642 O   0  0  0  0  0  0  0  0  0  0  0  0
   18.8131    7.1923    8.3105 C   0  0  2  0  0  0  0  0  0  0  0  0
   18.2176    6.2188    9.2742 N   0  0  0  0  0  0  0  0  0  0  0  0
   17.7913   12.3913   11.2777 C   0  0  2  0  0  0  0  0  0  0  0  0
   16.5100   12.7214   10.6398 O   0  0  0  0  0  0  0  0  0  0  0  0
   19.7256    6.3740   13.3345 C   0  0  2  0  0  0  0  0  0  0  0  0
   19.5287    5.0440   13.6921 O   0  0  0  0  0  0  0  0  0  0  0  0
   19.2817    8.4463    9.1024 C   0  0  2  0  0  0  0  0  0  0  0  0
   18.8821   13.3643   10.8458 C   0  0  2  0  0  0  0  0  0  0  0  0
   19.1977   12.8515    9.5543 O   0  0  0  0  0  0  0  0  0  0  0  0
   18.5842    6.8521   12.3931 C   0  0  2  0  0  0  0  0  0  0  0  0
   18.8085    8.2281   12.0174 O   0  0  0  0  0  0  0  0  0  0  0  0
   19.9095    9.5330    8.2074 C   0  0  2  0  0  0  0  0  0  0  0  0
   20.0523   10.7122    9.0752 O   0  0  0  0  0  0  0  0  0  0  0  0
   20.1539   13.3781   11.7599 C   0  0  0  0  0  0  0  0  0  0  0  0
   19.8442   13.9659   13.0203 N   0  0  0  0  0  0  0  0  0  0  0  0
   17.2209    6.7422   13.0355 C   0  0  0  0  0  0  0  0  0  0  0  0
   17.1254    7.5346   14.1629 O   0  0  0  0  0  0  0  0  0  0  0  0
   18.9499    9.8585    6.9790 C   0  0  1  0  0  0  0  0  0  0  0  0
   19.5996   10.7005    6.0146 O   0  0  0  0  0  0  0  0  0  0  0  0
  1  2  1  6  0  0  0
  1  6  1  0  0  0  0
  1 23  1  0  0  0  0
  3  4  1  6  0  0  0
  3  8  1  0  0  0  0
  3 30  1  0  0  0  0
  5  9  1  0  0  0  0
  5 21  1  0  0  0  0
  5 25  1  1  0  0  0
  6  7  1  6  0  0  0
  6 11  1  0  0  0  0
  8 13  1  0  0  0  0
  9 10  1  6  0  0  0
  9 15  1  0  0  0  0
 11 12  1  1  0  0  0
 11 17  1  0  0  0  0
 13 14  1  1  0  0  0
 13 19  1  0  0  0  0
 15 16  1  6  0  0  0
 15 20  1  0  0  0  0
 17 18  1  6  0  0  0
 17 22  1  0  0  0  0
 19  2  1  1  0  0  0
 19 24  1  0  0  0  0
 20 21  1  0  0  0  0
 20 26  1  1  0  0  0
 22 23  1  0  0  0  0
 22 28  1  1  0  0  0
 24 25  1  1  0  0  0
 24 30  1  0  0  0  0
 26 27  1  0  0  0  0
 28 29  1  0  0  0  0
 30 31  1  6  0  0  0
M  END
>  <CHROM.1>
-177.40100837,95.58488329,-136.89579365,-70.26896442,61.67806495,-73.47082844
19.15223764,9.19590129,10.47156889,-0.19889673,-1.39219606,0.61944709

>  <Name>
2o3x_lig

>  <RI>
0

>  <Rbt.Current_Directory>
/home/itssahil/PROJECTS/Mol_Feturizer/New_Systems/rnas/2o3x

>  <Rbt.Executable>
rbdock ($Id: //depot/dev/client3/rdock/2013.1/src/exe/rbdock.cxx#4 $)

>  <Rbt.Library>
libRbt.so (2013.1, Build901 2013/11/27)

>  <Rbt.Parameter_File>
/export/apps/rDock/src/rDock_2013.1_src/data/scripts/dock_solv.prm

>  <Rbt.Receptor>
prm/pocket_docking_8.prm

>  <SCORE>
-13.4255

>  <SCORE.INTER>
-15.0344

>  <SCORE.INTER.CONST>
1

>  <SCORE.INTER.POLAR>
-2.24592

>  <SCORE.INTER.ROT>
6

>  <SCORE.INTER.SOLV>
16.21

>  <SCORE.INTER.VDW>
-15.5399

>  <SCORE.INTER.norm>
-0.484981

>  <SCORE.INTRA>
1.60887

>  <SCORE.INTRA.DIHEDRAL>
2.52052

>  <SCORE.INTRA.DIHEDRAL.0>
9.37739

>  <SCORE.INTRA.POLAR>
0

>  <SCORE.INTRA.POLAR.0>
0

>  <SCORE.INTRA.REPUL>
0

>  <SCORE.INTRA.REPUL.0>
0

>  <SCORE.INTRA.SOLV>
0.577575

>  <SCORE.INTRA.SOLV.lig_0>
-82.9274

>  <SCORE.INTRA.VDW>
0.0598287

>  <SCORE.INTRA.VDW.0>
-3.84922

>  <SCORE.INTRA.norm>
0.0518992

>  <SCORE.RESTR>
0

>  <SCORE.RESTR.CAVITY>
0

>  <SCORE.RESTR.norm>
0

>  <SCORE.SYSTEM>
0

>  <SCORE.SYSTEM.CONST>
0

>  <SCORE.SYSTEM.DIHEDRAL>
0

>  <SCORE.SYSTEM.SOLV>
0

>  <SCORE.SYSTEM.norm>
0

>  <SCORE.heavy>
31

>  <SCORE.norm>
-0.433082

>  <RMSD>
7.707

$$$$
2o3x_lig
 OpenBabel11021811463D
libRbt.so/2013.1/901 2013/11/27
 31 33  0  0  0  0  0  0  0  0999 V2000
   18.4538    5.8277    8.1193 C   0  0  2  0  0  0  0  0  0  0  0  0
   17.3224    5.9751    8.9875 O   0  0  0  0  0  0  0  0  0  0  0  0
   15.0281    9.4464    9.9795 C   0  0  2  0  0  0  0  0  0  0  0  0
   14.6150   10.7934   10.4318 N   0  0  0  0  0  0  0  0  0  0  0  0
   17.7654    8.9902    6.2266 C   0  0  1  0  0  0  0  0  0  0  0  0
   18.7597    4.3044    7.9634 C   0  0  2  0  0  0  0  0  0  0  0  0
   17.5390    3.5175    7.6529 N   0  0  0  0  0  0  0  0  0  0  0  0
   15.5698    8.5704   11.1579 C   0  0  0  0  0  0  0  0  0  0  0  0
   19.1621    9.2236    5.5626 C   0  0  2  0  0  0  0  0  0  0  0  0
   19.7824   10.5135    5.8189 O   0  0  0  0  0  0  0  0  0  0  0  0
   19.3923    3.7185    9.2399 C   0  0  1  0  0  0  0  0  0  0  0  0
   19.7053    2.3607    9.0589 O   0  0  0  0  0  0  0  0  0  0  0  0
   15.9517    7.1570   10.5845 C   0  0  2  0  0  0  0  0  0  0  0  0
   16.4624    6.2494   11.6553 N   0  0  0  0  0  0  0  0  0  0  0  0
   18.7691    8.9444    4.1216 C   0  0  2  0  0  0  0  0  0  0  0  0
   18.0950   10.1043    3.5233 O   0  0  0  0  0  0  0  0  0  0  0  0
   20.6381    4.5087    9.6036 C   0  0  2  0  0  0  0  0  0  0  0  0
   21.2241    3.9671   10.7433 O   0  0  0  0  0  0  0  0  0  0  0  0
   17.0466    7.2911    9.4880 C   0  0  2  0  0  0  0  0  0  0  0  0
   17.8255    7.7506    4.2087 C   0  0  2  0  0  0  0  0  0  0  0  0
   17.0530    8.1069    5.3518 O   0  0  0  0  0  0  0  0  0  0  0  0
   20.2684    5.9994    9.8461 C   0  0  2  0  0  0  0  0  0  0  0  0
   19.6476    6.5448    8.6620 O   0  0  0  0  0  0  0  0  0  0  0  0
   16.6357    8.2174    8.3263 C   0  0  2  0  0  0  0  0  0  0  0  0
   17.8625    8.4164    7.5394 O   0  0  0  0  0  0  0  0  0  0  0  0
   18.5288    6.3682    4.4271 C   0  0  0  0  0  0  0  0  0  0  0  0
   19.3650    6.0635    3.3146 N   0  0  0  0  0  0  0  0  0  0  0  0
   21.4719    6.8442   10.1940 C   0  0  0  0  0  0  0  0  0  0  0  0
   21.1140    8.1504   10.4656 O   0  0  0  0  0  0  0  0  0  0  0  0
   16.1044    9.6083    8.8910 C   0  0  1  0  0  0  0  0  0  0  0  0
   15.5122   10.4039    7.8529 O   0  0  0  0  0  0  0  0  0  0  0  0
  1  2  1  1  0  0  0
  1  6  1  0  0  0  0
  1 23  1  0  0  0  0
  3  4  1  1  0  0  0
  3  8  1  0  0  0  0
  3 30  1  0  0  0  0
  5  9  1  0  0  0  0
  5 21  1  0  0  0  0
  5 25  1  1  0  0  0
  6  7  1  1  0  0  0
  6 11  1  0  0  0  0
  8 13  1  0  0  0  0
  9 10  1  6  0  0  0
  9 15  1  0  0  0  0
 11 12  1  6  0  0  0
 11 17  1  0  0  0  0
 13 14  1  1  0  0  0
 13 19  1  0  0  0  0
 15 16  1  1  0  0  0
 15 20  1  0  0  0  0
 17 18  1  1  0  0  0
 17 22  1  0  0  0  0
 19  2  1  6  0  0  0
 19 24  1  0  0  0  0
 20 21  1  0  0  0  0
 20 26  1  1  0  0  0
 22 23  1  0  0  0  0
 22 28  1  6  0  0  0
 24 25  1  6  0  0  0
 24 30  1  0  0  0  0
 26 27  1  0  0  0  0
 28 29  1  0  0  0  0
 30 31  1  6  0  0  0
M  END
>  <CHROM.1>
167.23240491,176.14023271,-170.19931217,-63.12018472,-177.22377958,166.43154289
18.18220679,7.23455014,8.02243921,-1.03484645,0.87208591,-1.12978072

>  <Name>
2o3x_lig

>  <RI>
0

>  <Rbt.Current_Directory>
/home/itssahil/PROJECTS/Mol_Feturizer/New_Systems/rnas/2o3x

>  <Rbt.Executable>
rbdock ($Id: //depot/dev/client3/rdock/2013.1/src/exe/rbdock.cxx#4 $)

>  <Rbt.Library>
libRbt.so (2013.1, Build901 2013/11/27)

>  <Rbt.Parameter_File>
/export/apps/rDock/src/rDock_2013.1_src/data/scripts/dock_solv.prm

>  <Rbt.Receptor>
prm/pocket_docking_5.prm

>  <SCORE>
-12.9544

>  <SCORE.INTER>
-8.95252

>  <SCORE.INTER.CONST>
1

>  <SCORE.INTER.POLAR>
-1.6339

>  <SCORE.INTER.ROT>
6

>  <SCORE.INTER.SOLV>
9.71279

>  <SCORE.INTER.VDW>
-11.3596

>  <SCORE.INTER.norm>
-0.288791

>  <SCORE.INTRA>
-4.00189

>  <SCORE.INTRA.DIHEDRAL>
-6.94775

>  <SCORE.INTRA.DIHEDRAL.0>
9.37739

>  <SCORE.INTRA.POLAR>
0

>  <SCORE.INTRA.POLAR.0>
0

>  <SCORE.INTRA.REPUL>
0

>  <SCORE.INTRA.REPUL.0>
0

>  <SCORE.INTRA.SOLV>
-2.65684

>  <SCORE.INTRA.SOLV.lig_0>
-82.9274

>  <SCORE.INTRA.VDW>
0.800405

>  <SCORE.INTRA.VDW.0>
-3.84922

>  <SCORE.INTRA.norm>
-0.129093

>  <SCORE.RESTR>
0

>  <SCORE.RESTR.CAVITY>
0

>  <SCORE.RESTR.norm>
0

>  <SCORE.SYSTEM>
0

>  <SCORE.SYSTEM.CONST>
0

>  <SCORE.SYSTEM.DIHEDRAL>
0

>  <SCORE.SYSTEM.SOLV>
0

>  <SCORE.SYSTEM.norm>
0

>  <SCORE.heavy>
31

>  <SCORE.norm>
-0.417884

>  <RMSD>
7.726

$$$$
2o3x_lig
 OpenBabel11021811463D
libRbt.so/2013.1/901 2013/11/27
 31 33  0  0  0  0  0  0  0  0999 V2000
   20.7260    4.7649    7.1546 C   0  0  2  0  0  0  0  0  0  0  0  0
   19.6358    3.8848    7.4584 O   0  0  0  0  0  0  0  0  0  0  0  0
   15.4051    4.4767    7.6800 C   0  0  2  0  0  0  0  0  0  0  0  0
   14.0614    5.0188    7.9803 N   0  0  0  0  0  0  0  0  0  0  0  0
   18.2045    7.0293    5.0822 C   0  0  1  0  0  0  0  0  0  0  0  0
   21.9011    3.9127    6.5789 C   0  0  2  0  0  0  0  0  0  0  0  0
   21.4468    2.9779    5.5179 N   0  0  0  0  0  0  0  0  0  0  0  0
   16.1387    3.9756    8.9685 C   0  0  0  0  0  0  0  0  0  0  0  0
   17.5798    8.4231    5.4183 C   0  0  2  0  0  0  0  0  0  0  0  0
   16.1326    8.4567    5.5559 O   0  0  0  0  0  0  0  0  0  0  0  0
   22.5943    3.0854    7.6779 C   0  0  1  0  0  0  0  0  0  0  0  0
   23.6788    2.3669    7.1467 O   0  0  0  0  0  0  0  0  0  0  0  0
   17.5364    3.3938    8.5435 C   0  0  2  0  0  0  0  0  0  0  0  0
   18.2959    2.8742    9.7201 N   0  0  0  0  0  0  0  0  0  0  0  0
   18.1599    9.2097    4.2549 C   0  0  2  0  0  0  0  0  0  0  0  0
   17.3982    8.9693    3.0221 O   0  0  0  0  0  0  0  0  0  0  0  0
   23.0599    4.0047    8.7945 C   0  0  2  0  0  0  0  0  0  0  0  0
   23.7067    3.2625    9.7776 O   0  0  0  0  0  0  0  0  0  0  0  0
   18.3940    4.4889    7.8475 C   0  0  2  0  0  0  0  0  0  0  0  0
   19.5885    8.6951    4.1220 C   0  0  2  0  0  0  0  0  0  0  0  0
   19.3856    7.2982    4.3169 O   0  0  0  0  0  0  0  0  0  0  0  0
   21.8433    4.7578    9.4030 C   0  0  2  0  0  0  0  0  0  0  0  0
   21.1721    5.5113    8.3702 O   0  0  0  0  0  0  0  0  0  0  0  0
   17.7060    5.1107    6.6161 C   0  0  2  0  0  0  0  0  0  0  0  0
   18.5358    6.2705    6.2555 O   0  0  0  0  0  0  0  0  0  0  0  0
   20.5944    9.2597    5.1817 C   0  0  0  0  0  0  0  0  0  0  0  0
   20.7961   10.6541    4.9706 N   0  0  0  0  0  0  0  0  0  0  0  0
   22.2445    5.7053   10.5097 C   0  0  0  0  0  0  0  0  0  0  0  0
   21.1453    6.3270   11.0693 O   0  0  0  0  0  0  0  0  0  0  0  0
   16.2287    5.5763    6.9857 C   0  0  1  0  0  0  0  0  0  0  0  0
   15.4898    5.9553    5.8146 O   0  0  0  0  0  0  0  0  0  0  0  0
  1  2  1  1  0  0  0
  1  6  1  0  0  0  0
  1 23  1  0  0  0  0
  3  4  1  1  0  0  0
  3  8  1  0  0  0  0
  3 30  1  0  0  0  0
  5  9  1  0  0  0  0
  5 21  1  0  0  0  0
  5 25  1  1  0  0  0
  6  7  1  6  0  0  0
  6 11  1  0  0  0  0
  8 13  1  0  0  0  0
  9 10  1  6  0  0  0
  9 15  1  0  0  0  0
 11 12  1  6  0  0  0
 11 17  1  0  0  0  0
 13 14  1  1  0  0  0
 13 19  1  0  0  0  0
 15 16  1  6  0  0  0
 15 20  1  0  0  0  0
 17 18  1  1  0  0  0
 17 22  1  0  0  0  0
 19  2  1  6  0  0  0
 19 24  1  0  0  0  0
 20 21  1  0  0  0  0
 20 26  1  1  0  0  0
 22 23  1  0  0  0  0
 22 28  1  1  0  0  0
 24 25  1  1  0  0  0
 24 30  1  0  0  0  0
 26 27  1  0  0  0  0
 28 29  1  0  0  0  0
 30 31  1  6  0  0  0
M  END
>  <CHROM.1>
-172.57736081,107.04547601,-162.41550163,-67.24108307,-177.78835959,176.25555956
19.33320616,5.68052594,7.02409054,-0.85749551,-0.03155479,-0.70212218

>  <Name>
2o3x_lig

>  <RI>
0

>  <Rbt.Current_Directory>
/home/itssahil/PROJECTS/Mol_Feturizer/New_Systems/rnas/2o3x

>  <Rbt.Executable>
rbdock ($Id: //depot/dev/client3/rdock/2013.1/src/exe/rbdock.cxx#4 $)

>  <Rbt.Library>
libRbt.so (2013.1, Build901 2013/11/27)

>  <Rbt.Parameter_File>
/export/apps/rDock/src/rDock_2013.1_src/data/scripts/dock_solv.prm

>  <Rbt.Receptor>
prm/pocket_docking_5.prm

>  <SCORE>
-5.19657

>  <SCORE.INTER>
-4.68941

>  <SCORE.INTER.CONST>
1

>  <SCORE.INTER.POLAR>
-0.894427

>  <SCORE.INTER.ROT>
6

>  <SCORE.INTER.SOLV>
9.39658

>  <SCORE.INTER.VDW>
-10.877

>  <SCORE.INTER.norm>
-0.151271

>  <SCORE.INTRA>
-0.507159

>  <SCORE.INTRA.DIHEDRAL>
-0.851413

>  <SCORE.INTRA.DIHEDRAL.0>
9.37739

>  <SCORE.INTRA.POLAR>
0

>  <SCORE.INTRA.POLAR.0>
0

>  <SCORE.INTRA.REPUL>
0

>  <SCORE.INTRA.REPUL.0>
0

>  <SCORE.INTRA.SOLV>
-2.2031

>  <SCORE.INTRA.SOLV.lig_0>
-82.9274

>  <SCORE.INTRA.VDW>
1.0201

>  <SCORE.INTRA.VDW.0>
-3.84922

>  <SCORE.INTRA.norm>
-0.01636

>  <SCORE.RESTR>
0

>  <SCORE.RESTR.CAVITY>
0

>  <SCORE.RESTR.norm>
0

>  <SCORE.SYSTEM>
0

>  <SCORE.SYSTEM.CONST>
0

>  <SCORE.SYSTEM.DIHEDRAL>
0

>  <SCORE.SYSTEM.SOLV>
0

>  <SCORE.SYSTEM.norm>
0

>  <SCORE.heavy>
31

>  <SCORE.norm>
-0.167631

>  <RMSD>
7.727

$$$$
2o3x_lig
 OpenBabel11021811463D
libRbt.so/2013.1/901 2013/11/27
 31 33  0  0  0  0  0  0  0  0999 V2000
   23.3033    6.8041   12.6150 C   0  0  2  0  0  0  0  0  0  0  0  0
   22.9082    7.4680   11.4073 O   0  0  0  0  0  0  0  0  0  0  0  0
   24.1094    7.5311    7.3023 C   0  0  2  0  0  0  0  0  0  0  0  0
   24.6408    7.1573    5.9728 N   0  0  0  0  0  0  0  0  0  0  0  0
   21.5885    4.4512    8.7885 C   0  0  1  0  0  0  0  0  0  0  0  0
   22.3483    7.2606   13.7631 C   0  0  2  0  0  0  0  0  0  0  0  0
   20.9194    7.1857   13.3651 N   0  0  0  0  0  0  0  0  0  0  0  0
   25.2327    7.5863    8.3906 C   0  0  0  0  0  0  0  0  0  0  0  0
   22.7170    3.4448    9.1882 C   0  0  2  0  0  0  0  0  0  0  0  0
   23.9867    3.6033    8.4976 O   0  0  0  0  0  0  0  0  0  0  0  0
   22.6441    8.7056   14.2071 C   0  0  1  0  0  0  0  0  0  0  0  0
   21.8080    9.0767   15.2736 O   0  0  0  0  0  0  0  0  0  0  0  0
   24.5768    8.0190    9.7526 C   0  0  2  0  0  0  0  0  0  0  0  0
   25.5910    8.1144   10.8451 N   0  0  0  0  0  0  0  0  0  0  0  0
   21.9644    2.1528    8.9172 C   0  0  2  0  0  0  0  0  0  0  0  0
   21.9513    1.8397    7.4821 O   0  0  0  0  0  0  0  0  0  0  0  0
   24.1047    8.8300   14.6068 C   0  0  2  0  0  0  0  0  0  0  0  0
   24.3689   10.1288   15.0302 O   0  0  0  0  0  0  0  0  0  0  0  0
   23.4852    6.9972   10.1810 C   0  0  2  0  0  0  0  0  0  0  0  0
   20.5541    2.4189    9.4302 C   0  0  2  0  0  0  0  0  0  0  0  0
   20.3512    3.7511    8.9671 O   0  0  0  0  0  0  0  0  0  0  0  0
   25.0171    8.4612   13.4030 C   0  0  2  0  0  0  0  0  0  0  0  0
   24.7225    7.1176   12.9638 O   0  0  0  0  0  0  0  0  0  0  0  0
   22.3809    6.8055    9.1226 C   0  0  2  0  0  0  0  0  0  0  0  0
   21.6016    5.6465    9.5843 O   0  0  0  0  0  0  0  0  0  0  0  0
   20.3930    2.3451   10.9864 C   0  0  0  0  0  0  0  0  0  0  0  0
   21.6462    2.0456   11.5944 N   0  0  0  0  0  0  0  0  0  0  0  0
   26.4867    8.5474   13.7437 C   0  0  0  0  0  0  0  0  0  0  0  0
   27.2645    8.6723   12.6091 O   0  0  0  0  0  0  0  0  0  0  0  0
   23.0275    6.5101    7.6977 C   0  0  1  0  0  0  0  0  0  0  0  0
   22.0398    6.5448    6.6563 O   0  0  0  0  0  0  0  0  0  0  0  0
  1  2  1  6  0  0  0
  1  6  1  0  0  0  0
  1 23  1  0  0  0  0
  3  4  1  6  0  0  0
  3  8  1  0  0  0  0
  3 30  1  0  0  0  0
  5  9  1  0  0  0  0
  5 21  1  0  0  0  0
  5 25  1  1  0  0  0
  6  7  1  6  0  0  0
  6 11  1  0  0  0  0
  8 13  1  0  0  0  0
  9 10  1  6  0  0  0
  9 15  1  0  0  0  0
 11 12  1  1  0  0  0
 11 17  1  0  0  0  0
 13 14  1  1  0  0  0
 13 19  1  0  0  0  0
 15 16  1  6  0  0  0
 15 20  1  0  0  0  0
 17 18  1  6  0  0  0
 17 22  1  0  0  0  0
 19  2  1  1  0  0  0
 19 24  1  0  0  0  0
 20 21  1  0  0  0  0
 20 26  1  1  0  0  0
 22 23  1  0  0  0  0
 22 28  1  1  0  0  0
 24 25  1  1  0  0  0
 24 30  1  0  0  0  0
 26 27  1  0  0  0  0
 28 29  1  0  0  0  0
 30 31  1  6  0  0  0
M  END
>  <CHROM.1>
-168.18913020,91.17020609,-103.96701818,0.45377124,-159.39704072,-115.50102846
23.15564265,6.30093081,10.72906696,1.08127613,0.84321469,1.18980697

>  <Name>
2o3x_lig

>  <RI>
0

>  <Rbt.Current_Directory>
/home/itssahil/PROJECTS/Mol_Feturizer/New_Systems/rnas/2o3x

>  <Rbt.Executable>
rbdock ($Id: //depot/dev/client3/rdock/2013.1/src/exe/rbdock.cxx#4 $)

>  <Rbt.Library>
libRbt.so (2013.1, Build901 2013/11/27)

>  <Rbt.Parameter_File>
/export/apps/rDock/src/rDock_2013.1_src/data/scripts/dock_solv.prm

>  <Rbt.Receptor>
prm/blind_docking_60.prm

>  <SCORE>
71.0532

>  <SCORE.INTER>
52.905

>  <SCORE.INTER.CONST>
1

>  <SCORE.INTER.POLAR>
-1.15729

>  <SCORE.INTER.ROT>
6

>  <SCORE.INTER.SOLV>
31.3373

>  <SCORE.INTER.VDW>
21.0819

>  <SCORE.INTER.norm>
1.70661

>  <SCORE.INTRA>
13.7064

>  <SCORE.INTRA.DIHEDRAL>
14.7572

>  <SCORE.INTRA.DIHEDRAL.0>
9.37739

>  <SCORE.INTRA.POLAR>
0

>  <SCORE.INTRA.POLAR.0>
0

>  <SCORE.INTRA.REPUL>
0

>  <SCORE.INTRA.REPUL.0>
0

>  <SCORE.INTRA.SOLV>
4.50784

>  <SCORE.INTRA.SOLV.lig_0>
-82.9274

>  <SCORE.INTRA.VDW>
4.07383

>  <SCORE.INTRA.VDW.0>
-3.84922

>  <SCORE.INTRA.norm>
0.44214

>  <SCORE.RESTR>
4.44177

>  <SCORE.RESTR.CAVITY>
4.44177

>  <SCORE.RESTR.norm>
0.143283

>  <SCORE.SYSTEM>
0

>  <SCORE.SYSTEM.CONST>
0

>  <SCORE.SYSTEM.DIHEDRAL>
0

>  <SCORE.SYSTEM.SOLV>
0

>  <SCORE.SYSTEM.norm>
0

>  <SCORE.heavy>
31

>  <SCORE.norm>
2.29204

>  <RMSD>
7.738

$$$$
2o3x_lig
 OpenBabel11021811463D
libRbt.so/2013.1/901 2013/11/27
 31 33  0  0  0  0  0  0  0  0999 V2000
   22.1793    7.1489   10.7970 C   0  0  2  0  0  0  0  0  0  0  0  0
   22.1598    5.7233   10.9472 O   0  0  0  0  0  0  0  0  0  0  0  0
   19.6167    2.4890    9.7766 C   0  0  2  0  0  0  0  0  0  0  0  0
   18.6740    1.6203    9.0375 N   0  0  0  0  0  0  0  0  0  0  0  0
   23.1769    5.6728    8.5697 C   0  0  1  0  0  0  0  0  0  0  0  0
   23.6015    7.6654   11.1832 C   0  0  2  0  0  0  0  0  0  0  0  0
   24.6786    6.8831   10.5249 N   0  0  0  0  0  0  0  0  0  0  0  0
   18.9357    3.8080   10.2727 C   0  0  0  0  0  0  0  0  0  0  0  0
   24.4269    6.0046    7.6902 C   0  0  2  0  0  0  0  0  0  0  0  0
   25.7172    5.9075    8.3536 O   0  0  0  0  0  0  0  0  0  0  0  0
   23.8328    7.6078   12.7051 C   0  0  1  0  0  0  0  0  0  0  0  0
   25.0977    8.1240   13.0333 O   0  0  0  0  0  0  0  0  0  0  0  0
   20.0042    4.6439   11.0676 C   0  0  2  0  0  0  0  0  0  0  0  0
   19.4256    5.9164   11.5941 N   0  0  0  0  0  0  0  0  0  0  0  0
   24.0117    7.3933    7.2341 C   0  0  2  0  0  0  0  0  0  0  0  0
   24.2649    8.3915    8.2816 O   0  0  0  0  0  0  0  0  0  0  0  0
   22.7389    8.3834   13.4194 C   0  0  2  0  0  0  0  0  0  0  0  0
   22.9585    8.3521   14.7929 O   0  0  0  0  0  0  0  0  0  0  0  0
   21.2134    4.9930   10.1538 C   0  0  2  0  0  0  0  0  0  0  0  0
   22.5197    7.2698    6.9479 C   0  0  2  0  0  0  0  0  0  0  0  0
   22.1044    6.4686    8.0506 O   0  0  0  0  0  0  0  0  0  0  0  0
   21.3494    7.7719   13.0833 C   0  0  2  0  0  0  0  0  0  0  0  0
   21.1405    7.7963   11.6548 O   0  0  0  0  0  0  0  0  0  0  0  0
   21.8919    3.7522    9.5402 C   0  0  2  0  0  0  0  0  0  0  0  0
   22.8247    4.2812    8.5333 O   0  0  0  0  0  0  0  0  0  0  0  0
   22.1635    6.5704    5.5925 C   0  0  0  0  0  0  0  0  0  0  0  0
   22.5137    7.4144    4.4995 N   0  0  0  0  0  0  0  0  0  0  0  0
   20.2146    8.5135   13.7508 C   0  0  0  0  0  0  0  0  0  0  0  0
   20.2023    9.8484   13.3962 O   0  0  0  0  0  0  0  0  0  0  0  0
   20.8054    2.8120    8.8535 C   0  0  1  0  0  0  0  0  0  0  0  0
   21.3720    1.5503    8.4685 O   0  0  0  0  0  0  0  0  0  0  0  0
  1  2  1  1  0  0  0
  1  6  1  0  0  0  0
  1 23  1  0  0  0  0
  3  4  1  6  0  0  0
  3  8  1  0  0  0  0
  3 30  1  0  0  0  0
  5  9  1  0  0  0  0
  5 21  1  0  0  0  0
  5 25  1  6  0  0  0
  6  7  1  6  0  0  0
  6 11  1  0  0  0  0
  8 13  1  0  0  0  0
  9 10  1  1  0  0  0
  9 15  1  0  0  0  0
 11 12  1  6  0  0  0
 11 17  1  0  0  0  0
 13 14  1  6  0  0  0
 13 19  1  0  0  0  0
 15 16  1  1  0  0  0
 15 20  1  0  0  0  0
 17 18  1  1  0  0  0
 17 22  1  0  0  0  0
 19  2  1  1  0  0  0
 19 24  1  0  0  0  0
 20 21  1  0  0  0  0
 20 26  1  6  0  0  0
 22 23  1  0  0  0  0
 22 28  1  1  0  0  0
 24 25  1  6  0  0  0
 24 30  1  0  0  0  0
 26 27  1  0  0  0  0
 28 29  1  0  0  0  0
 30 31  1  1  0  0  0
M  END
>  <CHROM.1>
-154.48745283,165.43630122,-100.67933590,-70.14853794,57.84186390,16.15801217
22.14910624,6.18203477,10.08006918,-1.43482713,-0.76893229,-2.11824494

>  <Name>
2o3x_lig

>  <RI>
0

>  <Rbt.Current_Directory>
/home/itssahil/PROJECTS/Mol_Feturizer/New_Systems/rnas/2o3x

>  <Rbt.Executable>
rbdock ($Id: //depot/dev/client3/rdock/2013.1/src/exe/rbdock.cxx#4 $)

>  <Rbt.Library>
libRbt.so (2013.1, Build901 2013/11/27)

>  <Rbt.Parameter_File>
/export/apps/rDock/src/rDock_2013.1_src/data/scripts/dock_solv.prm

>  <Rbt.Receptor>
prm/blind_docking_40.prm

>  <SCORE>
17.9814

>  <SCORE.INTER>
0.782998

>  <SCORE.INTER.CONST>
1

>  <SCORE.INTER.POLAR>
-0.506429

>  <SCORE.INTER.ROT>
6

>  <SCORE.INTER.SOLV>
17.4392

>  <SCORE.INTER.VDW>
-11.203

>  <SCORE.INTER.norm>
0.025258

>  <SCORE.INTRA>
12.6353

>  <SCORE.INTRA.DIHEDRAL>
6.36516

>  <SCORE.INTRA.DIHEDRAL.0>
9.37739

>  <SCORE.INTRA.POLAR>
0

>  <SCORE.INTRA.POLAR.0>
0

>  <SCORE.INTRA.REPUL>
0

>  <SCORE.INTRA.REPUL.0>
0

>  <SCORE.INTRA.SOLV>
6.66779

>  <SCORE.INTRA.SOLV.lig_0>
-82.9274

>  <SCORE.INTRA.VDW>
6.11879

>  <SCORE.INTRA.VDW.0>
-3.84922

>  <SCORE.INTRA.norm>
0.407589

>  <SCORE.RESTR>
4.56312

>  <SCORE.RESTR.CAVITY>
4.56312

>  <SCORE.RESTR.norm>
0.147198

>  <SCORE.SYSTEM>
0

>  <SCORE.SYSTEM.CONST>
0

>  <SCORE.SYSTEM.DIHEDRAL>
0

>  <SCORE.SYSTEM.SOLV>
0

>  <SCORE.SYSTEM.norm>
0

>  <SCORE.heavy>
31

>  <SCORE.norm>
0.580045

>  <RMSD>
7.776

$$$$
2o3x_lig
 OpenBabel11021811463D
libRbt.so/2013.1/901 2013/11/27
 31 33  0  0  0  0  0  0  0  0999 V2000
   23.4851    7.0459   12.7037 C   0  0  2  0  0  0  0  0  0  0  0  0
   23.1189    7.7447   11.5065 O   0  0  0  0  0  0  0  0  0  0  0  0
   23.4124    7.1255    7.2841 C   0  0  2  0  0  0  0  0  0  0  0  0
   23.4874    6.5071    5.9420 N   0  0  0  0  0  0  0  0  0  0  0  0
   21.1617    5.1686   10.6339 C   0  0  1  0  0  0  0  0  0  0  0  0
   22.4967    7.4621   13.8387 C   0  0  2  0  0  0  0  0  0  0  0  0
   21.0795    7.3925   13.3999 N   0  0  0  0  0  0  0  0  0  0  0  0
   24.6658    6.7881    8.1584 C   0  0  0  0  0  0  0  0  0  0  0  0
   20.3172    4.0769    9.8983 C   0  0  2  0  0  0  0  0  0  0  0  0
   19.0270    3.7625   10.4907 O   0  0  0  0  0  0  0  0  0  0  0  0
   22.7720    8.8943   14.3347 C   0  0  1  0  0  0  0  0  0  0  0  0
   21.9052    9.2282   15.3889 O   0  0  0  0  0  0  0  0  0  0  0  0
   24.5068    7.5112    9.5455 C   0  0  2  0  0  0  0  0  0  0  0  0
   25.6776    7.2538   10.4368 N   0  0  0  0  0  0  0  0  0  0  0  0
   21.3476    2.9601    9.9068 C   0  0  2  0  0  0  0  0  0  0  0  0
   21.3939    2.2935   11.2149 O   0  0  0  0  0  0  0  0  0  0  0  0
   24.2206    9.0135   14.7777 C   0  0  2  0  0  0  0  0  0  0  0  0
   24.4657   10.2999   15.2476 O   0  0  0  0  0  0  0  0  0  0  0  0
   23.2193    7.0244   10.2698 C   0  0  2  0  0  0  0  0  0  0  0  0
   22.6681    3.6582    9.6036 C   0  0  2  0  0  0  0  0  0  0  0  0
   22.5347    4.8333   10.3984 O   0  0  0  0  0  0  0  0  0  0  0  0
   25.1673    8.6864   13.5884 C   0  0  2  0  0  0  0  0  0  0  0  0
   24.8924    7.3555   13.1004 O   0  0  0  0  0  0  0  0  0  0  0  0
   21.9375    7.2306    9.4386 C   0  0  2  0  0  0  0  0  0  0  0  0
   20.8873    6.4965   10.1611 O   0  0  0  0  0  0  0  0  0  0  0  0
   22.8865    4.0320    8.0983 C   0  0  0  0  0  0  0  0  0  0  0  0
   22.7090    2.8811    7.2775 N   0  0  0  0  0  0  0  0  0  0  0  0
   26.6266    8.7693   13.9715 C   0  0  0  0  0  0  0  0  0  0  0  0
   26.8091    8.5600   15.3246 O   0  0  0  0  0  0  0  0  0  0  0  0
   22.1273    6.6340    7.9744 C   0  0  1  0  0  0  0  0  0  0  0  0
   21.0398    7.0029    7.1128 O   0  0  0  0  0  0  0  0  0  0  0  0
  1  2  1  6  0  0  0
  1  6  1  0  0  0  0
  1 23  1  0  0  0  0
  3  4  1  6  0  0  0
  3  8  1  0  0  0  0
  3 30  1  0  0  0  0
  5  9  1  0  0  0  0
  5 21  1  0  0  0  0
  5 25  1  6  0  0  0
  6  7  1  6  0  0  0
  6 11  1  0  0  0  0
  8 13  1  0  0  0  0
  9 10  1  1  0  0  0
  9 15  1  0  0  0  0
 11 12  1  1  0  0  0
 11 17  1  0  0  0  0
 13 14  1  1  0  0  0
 13 19  1  0  0  0  0
 15 16  1  1  0  0  0
 15 20  1  0  0  0  0
 17 18  1  6  0  0  0
 17 22  1  0  0  0  0
 19  2  1  1  0  0  0
 19 24  1  0  0  0  0
 20 21  1  0  0  0  0
 20 26  1  6  0  0  0
 22 23  1  0  0  0  0
 22 28  1  1  0  0  0
 24 25  1  1  0  0  0
 24 30  1  0  0  0  0
 26 27  1  0  0  0  0
 28 29  1  0  0  0  0
 30 31  1  6  0  0  0
M  END
>  <CHROM.1>
-141.49563150,-112.97014455,-103.07569136,-53.38648739,25.17817285,-45.80507732
22.95921388,6.57805806,11.04624128,1.11484472,0.67701715,1.25736248

>  <Name>
2o3x_lig

>  <RI>
224

>  <Rbt.Current_Directory>
/home/itssahil/PROJECTS/Mol_Feturizer/New_Systems/rnas/2o3x

>  <Rbt.Executable>
rbdock ($Id: //depot/dev/client3/rdock/2013.1/src/exe/rbdock.cxx#4 $)

>  <Rbt.Library>
libRbt.so (2013.1, Build901 2013/11/27)

>  <Rbt.Parameter_File>
/export/apps/rDock/src/rDock_2013.1_src/data/scripts/dock_solv.prm

>  <Rbt.Receptor>
prm/blind_docking_100.prm

>  <SCORE>
30.9964

>  <SCORE.INTER>
6.19198

>  <SCORE.INTER.CONST>
1

>  <SCORE.INTER.POLAR>
0

>  <SCORE.INTER.ROT>
6

>  <SCORE.INTER.SOLV>
21.604

>  <SCORE.INTER.VDW>
-10.6733

>  <SCORE.INTER.norm>
0.199741

>  <SCORE.INTRA>
20.2745

>  <SCORE.INTRA.DIHEDRAL>
13.0576

>  <SCORE.INTRA.DIHEDRAL.0>
9.37739

>  <SCORE.INTRA.POLAR>
0

>  <SCORE.INTRA.POLAR.0>
0

>  <SCORE.INTRA.REPUL>
0

>  <SCORE.INTRA.REPUL.0>
0

>  <SCORE.INTRA.SOLV>
5.2417

>  <SCORE.INTRA.SOLV.lig_0>
-82.9274

>  <SCORE.INTRA.VDW>
11.1248

>  <SCORE.INTRA.VDW.0>
-3.84922

>  <SCORE.INTRA.norm>
0.654016

>  <SCORE.RESTR>
4.52996

>  <SCORE.RESTR.CAVITY>
4.52996

>  <SCORE.RESTR.norm>
0.146128

>  <SCORE.SYSTEM>
0

>  <SCORE.SYSTEM.CONST>
0

>  <SCORE.SYSTEM.DIHEDRAL>
0

>  <SCORE.SYSTEM.SOLV>
0

>  <SCORE.SYSTEM.norm>
0

>  <SCORE.heavy>
31

>  <SCORE.norm>
0.999885

>  <RMSD>
7.794

$$$$
2o3x_lig
 OpenBabel11021811463D
libRbt.so/2013.1/901 2013/11/27
 31 33  0  0  0  0  0  0  0  0999 V2000
   18.7821    8.1132   10.7311 C   0  0  2  0  0  0  0  0  0  0  0  0
   18.9454    9.0285    9.6397 O   0  0  0  0  0  0  0  0  0  0  0  0
   14.9316    8.6889    8.2002 C   0  0  2  0  0  0  0  0  0  0  0  0
   13.6766    8.8722    7.4380 N   0  0  0  0  0  0  0  0  0  0  0  0
   18.4747    9.0625    5.8066 C   0  0  1  0  0  0  0  0  0  0  0  0
   20.1748    7.8939   11.4024 C   0  0  2  0  0  0  0  0  0  0  0  0
   20.8749    9.1760   11.6702 N   0  0  0  0  0  0  0  0  0  0  0  0
   15.2979    9.9553    9.0438 C   0  0  0  0  0  0  0  0  0  0  0  0
   19.8279    9.1920    5.0333 C   0  0  2  0  0  0  0  0  0  0  0  0
   20.7368   10.2234    5.5070 O   0  0  0  0  0  0  0  0  0  0  0  0
   21.0957    7.0217   10.5283 C   0  0  1  0  0  0  0  0  0  0  0  0
   22.3229    6.7959   11.1742 O   0  0  0  0  0  0  0  0  0  0  0  0
   16.6219    9.6521    9.8360 C   0  0  2  0  0  0  0  0  0  0  0  0
   17.0316   10.8106   10.6853 N   0  0  0  0  0  0  0  0  0  0  0  0
   19.2639    9.3872    3.6358 C   0  0  2  0  0  0  0  0  0  0  0  0
   18.8149   10.7714    3.4356 O   0  0  0  0  0  0  0  0  0  0  0  0
   20.4076    5.7037   10.2154 C   0  0  2  0  0  0  0  0  0  0  0  0
   21.2467    4.9048    9.4450 O   0  0  0  0  0  0  0  0  0  0  0  0
   17.7827    9.3260    8.8535 C   0  0  2  0  0  0  0  0  0  0  0  0
   18.0908    8.4171    3.5597 C   0  0  2  0  0  0  0  0  0  0  0  0
   17.5143    8.5975    4.8503 O   0  0  0  0  0  0  0  0  0  0  0  0
   19.0745    5.9678    9.4600 C   0  0  2  0  0  0  0  0  0  0  0  0
   18.2196    6.8099   10.2630 O   0  0  0  0  0  0  0  0  0  0  0  0
   17.4712    8.1455    7.9124 C   0  0  2  0  0  0  0  0  0  0  0  0
   18.5520    8.1523    6.9146 O   0  0  0  0  0  0  0  0  0  0  0  0
   18.4874    6.9183    3.3371 C   0  0  0  0  0  0  0  0  0  0  0  0
   19.0140    6.7411    2.0252 N   0  0  0  0  0  0  0  0  0  0  0  0
   18.3311    4.6927    9.1361 C   0  0  0  0  0  0  0  0  0  0  0  0
   17.1275    4.9517    8.5099 O   0  0  0  0  0  0  0  0  0  0  0  0
   16.0601    8.3600    7.2064 C   0  0  1  0  0  0  0  0  0  0  0  0
   15.6437    7.1827    6.4980 O   0  0  0  0  0  0  0  0  0  0  0  0
  1  2  1  6  0  0  0
  1  6  1  0  0  0  0
  1 23  1  0  0  0  0
  3  4  1  6  0  0  0
  3  8  1  0  0  0  0
  3 30  1  0  0  0  0
  5  9  1  0  0  0  0
  5 21  1  0  0  0  0
  5 25  1  1  0  0  0
  6  7  1  6  0  0  0
  6 11  1  0  0  0  0
  8 13  1  0  0  0  0
  9 10  1  1  0  0  0
  9 15  1  0  0  0  0
 11 12  1  1  0  0  0
 11 17  1  0  0  0  0
 13 14  1  6  0  0  0
 13 19  1  0  0  0  0
 15 16  1  1  0  0  0
 15 20  1  0  0  0  0
 17 18  1  6  0  0  0
 17 22  1  0  0  0  0
 19  2  1  1  0  0  0
 19 24  1  0  0  0  0
 20 21  1  0  0  0  0
 20 26  1  1  0  0  0
 22 23  1  0  0  0  0
 22 28  1  1  0  0  0
 24 25  1  6  0  0  0
 24 30  1  0  0  0  0
 26 27  1  0  0  0  0
 28 29  1  0  0  0  0
 30 31  1  1  0  0  0
M  END
>  <CHROM.1>
177.68806370,166.46648493,47.73788118,-69.08711294,177.76893215,-81.06021616
18.40600929,8.02984522,7.78970576,1.29026384,-0.41230015,1.68657213

>  <Name>
2o3x_lig

>  <RI>
0

>  <Rbt.Current_Directory>
/home/itssahil/PROJECTS/Mol_Feturizer/New_Systems/rnas/2o3x

>  <Rbt.Executable>
rbdock ($Id: //depot/dev/client3/rdock/2013.1/src/exe/rbdock.cxx#4 $)

>  <Rbt.Library>
libRbt.so (2013.1, Build901 2013/11/27)

>  <Rbt.Parameter_File>
/export/apps/rDock/src/rDock_2013.1_src/data/scripts/dock_solv.prm

>  <Rbt.Receptor>
prm/pocket_docking_5.prm

>  <SCORE>
-10.8438

>  <SCORE.INTER>
-9.80373

>  <SCORE.INTER.CONST>
1

>  <SCORE.INTER.POLAR>
-1.63011

>  <SCORE.INTER.ROT>
6

>  <SCORE.INTER.SOLV>
19.6805

>  <SCORE.INTER.VDW>
-15.2623

>  <SCORE.INTER.norm>
-0.316249

>  <SCORE.INTRA>
-1.04002

>  <SCORE.INTRA.DIHEDRAL>
-5.30292

>  <SCORE.INTRA.DIHEDRAL.0>
9.37739

>  <SCORE.INTRA.POLAR>
0

>  <SCORE.INTRA.POLAR.0>
0

>  <SCORE.INTRA.REPUL>
0

>  <SCORE.INTRA.REPUL.0>
0

>  <SCORE.INTRA.SOLV>
-1.30848

>  <SCORE.INTRA.SOLV.lig_0>
-82.9274

>  <SCORE.INTRA.VDW>
2.26568

>  <SCORE.INTRA.VDW.0>
-3.84922

>  <SCORE.INTRA.norm>
-0.033549

>  <SCORE.RESTR>
0

>  <SCORE.RESTR.CAVITY>
0

>  <SCORE.RESTR.norm>
0

>  <SCORE.SYSTEM>
0

>  <SCORE.SYSTEM.CONST>
0

>  <SCORE.SYSTEM.DIHEDRAL>
0

>  <SCORE.SYSTEM.SOLV>
0

>  <SCORE.SYSTEM.norm>
0

>  <SCORE.heavy>
31

>  <SCORE.norm>
-0.349798

>  <RMSD>
7.802

$$$$
2o3x_lig
 OpenBabel11021811463D
libRbt.so/2013.1/901 2013/11/27
 31 33  0  0  0  0  0  0  0  0999 V2000
   23.2922    7.5896   10.9982 C   0  0  2  0  0  0  0  0  0  0  0  0
   23.3788    6.1586   11.0073 O   0  0  0  0  0  0  0  0  0  0  0  0
   21.2960    2.7893    9.3926 C   0  0  2  0  0  0  0  0  0  0  0  0
   20.3738    1.9270    8.6209 N   0  0  0  0  0  0  0  0  0  0  0  0
   22.6620    6.4166    7.4115 C   0  0  1  0  0  0  0  0  0  0  0  0
   24.5501    8.1638   11.7237 C   0  0  2  0  0  0  0  0  0  0  0  0
   25.8083    7.5413   11.2389 N   0  0  0  0  0  0  0  0  0  0  0  0
   20.5361    3.6898   10.4227 C   0  0  0  0  0  0  0  0  0  0  0  0
   22.7307    7.9483    7.7201 C   0  0  2  0  0  0  0  0  0  0  0  0
   21.8809    8.4195    8.8018 O   0  0  0  0  0  0  0  0  0  0  0  0
   24.4715    7.9548   13.2478 C   0  0  1  0  0  0  0  0  0  0  0  0
   25.5881    8.5236   13.8836 O   0  0  0  0  0  0  0  0  0  0  0  0
   21.5987    4.5411   11.2092 C   0  0  2  0  0  0  0  0  0  0  0  0
   20.9526    5.4185   12.2309 N   0  0  0  0  0  0  0  0  0  0  0  0
   22.3959    8.4668    6.3315 C   0  0  2  0  0  0  0  0  0  0  0  0
   20.9503    8.4041    6.0781 O   0  0  0  0  0  0  0  0  0  0  0  0
   23.1862    8.5633   13.7829 C   0  0  2  0  0  0  0  0  0  0  0  0
   23.1239    8.3960   15.1627 O   0  0  0  0  0  0  0  0  0  0  0  0
   22.4107    5.4378   10.2316 C   0  0  2  0  0  0  0  0  0  0  0  0
   23.1556    7.5431    5.3867 C   0  0  2  0  0  0  0  0  0  0  0  0
   22.9280    6.2821    6.0100 O   0  0  0  0  0  0  0  0  0  0  0  0
   21.9590    7.8917   13.1042 C   0  0  2  0  0  0  0  0  0  0  0  0
   22.0436    8.0591   11.6725 O   0  0  0  0  0  0  0  0  0  0  0  0
   23.1200    4.6402    9.1194 C   0  0  2  0  0  0  0  0  0  0  0  0
   23.6109    5.6528    8.1720 O   0  0  0  0  0  0  0  0  0  0  0  0
   24.6906    7.8333    5.2728 C   0  0  0  0  0  0  0  0  0  0  0  0
   25.2902    7.8101    6.5650 N   0  0  0  0  0  0  0  0  0  0  0  0
   20.6467    8.4686   13.5819 C   0  0  0  0  0  0  0  0  0  0  0  0
   20.4870    9.7772   13.1693 O   0  0  0  0  0  0  0  0  0  0  0  0
   22.0913    3.6588    8.4022 C   0  0  1  0  0  0  0  0  0  0  0  0
   22.7636    2.7502    7.5169 O   0  0  0  0  0  0  0  0  0  0  0  0
  1  2  1  1  0  0  0
  1  6  1  0  0  0  0
  1 23  1  0  0  0  0
  3  4  1  6  0  0  0
  3  8  1  0  0  0  0
  3 30  1  0  0  0  0
  5  9  1  0  0  0  0
  5 21  1  0  0  0  0
  5 25  1  1  0  0  0
  6  7  1  6  0  0  0
  6 11  1  0  0  0  0
  8 13  1  0  0  0  0
  9 10  1  1  0  0  0
  9 15  1  0  0  0  0
 11 12  1  1  0  0  0
 11 17  1  0  0  0  0
 13 14  1  1  0  0  0
 13 19  1  0  0  0  0
 15 16  1  6  0  0  0
 15 20  1  0  0  0  0
 17 18  1  1  0  0  0
 17 22  1  0  0  0  0
 19  2  1  1  0  0  0
 19 24  1  0  0  0  0
 20 21  1  0  0  0  0
 20 26  1  1  0  0  0
 22 23  1  0  0  0  0
 22 28  1  1  0  0  0
 24 25  1  6  0  0  0
 24 30  1  0  0  0  0
 26 27  1  0  0  0  0
 28 29  1  0  0  0  0
 30 31  1  6  0  0  0
M  END
>  <CHROM.1>
-171.77938765,117.60601052,-118.90342787,55.10420003,67.54326220,-67.34688161
22.70497082,6.69819415,9.93048441,-1.49149883,-1.12412269,-1.84688576

>  <Name>
2o3x_lig

>  <RI>
0

>  <Rbt.Current_Directory>
/home/itssahil/PROJECTS/Mol_Feturizer/New_Systems/rnas/2o3x

>  <Rbt.Executable>
rbdock ($Id: //depot/dev/client3/rdock/2013.1/src/exe/rbdock.cxx#4 $)

>  <Rbt.Library>
libRbt.so (2013.1, Build901 2013/11/27)

>  <Rbt.Parameter_File>
/export/apps/rDock/src/rDock_2013.1_src/data/scripts/dock_solv.prm

>  <Rbt.Receptor>
prm/blind_docking_40.prm

>  <SCORE>
3.02055

>  <SCORE.INTER>
-6.27623

>  <SCORE.INTER.CONST>
1

>  <SCORE.INTER.POLAR>
-0.296685

>  <SCORE.INTER.ROT>
6

>  <SCORE.INTER.SOLV>
24.1367

>  <SCORE.INTER.VDW>
-18.8408

>  <SCORE.INTER.norm>
-0.202459

>  <SCORE.INTRA>
6.48058

>  <SCORE.INTRA.DIHEDRAL>
5.95468

>  <SCORE.INTRA.DIHEDRAL.0>
9.37739

>  <SCORE.INTRA.POLAR>
0

>  <SCORE.INTRA.POLAR.0>
0

>  <SCORE.INTRA.REPUL>
0.0754207

>  <SCORE.INTRA.REPUL.0>
0

>  <SCORE.INTRA.SOLV>
4.54293

>  <SCORE.INTRA.SOLV.lig_0>
-82.9274

>  <SCORE.INTRA.VDW>
0.854678

>  <SCORE.INTRA.VDW.0>
-3.84922

>  <SCORE.INTRA.norm>
0.209051

>  <SCORE.RESTR>
2.81619

>  <SCORE.RESTR.CAVITY>
2.81619

>  <SCORE.RESTR.norm>
0.0908449

>  <SCORE.SYSTEM>
0

>  <SCORE.SYSTEM.CONST>
0

>  <SCORE.SYSTEM.DIHEDRAL>
0

>  <SCORE.SYSTEM.SOLV>
0

>  <SCORE.SYSTEM.norm>
0

>  <SCORE.heavy>
31

>  <SCORE.norm>
0.0974371

>  <RMSD>
7.822

$$$$
2o3x_lig
 OpenBabel11021811463D
libRbt.so/2013.1/901 2013/11/27
 31 33  0  0  0  0  0  0  0  0999 V2000
   22.0252    6.0201   12.2982 C   0  0  2  0  0  0  0  0  0  0  0  0
   21.8508    6.4764   10.9503 O   0  0  0  0  0  0  0  0  0  0  0  0
   22.7707    2.8216    8.9270 C   0  0  2  0  0  0  0  0  0  0  0  0
   22.8466    1.7318    7.9289 N   0  0  0  0  0  0  0  0  0  0  0  0
   24.1199    6.6335    7.2735 C   0  0  1  0  0  0  0  0  0  0  0  0
   20.8800    6.6208   13.1735 C   0  0  2  0  0  0  0  0  0  0  0  0
   19.5451    6.4429   12.5473 N   0  0  0  0  0  0  0  0  0  0  0  0
   21.3265    2.9898    9.5059 C   0  0  0  0  0  0  0  0  0  0  0  0
   23.3487    6.0389    6.0497 C   0  0  2  0  0  0  0  0  0  0  0  0
   23.4800    4.6048    5.8489 O   0  0  0  0  0  0  0  0  0  0  0  0
   21.0898    8.1254   13.4287 C   0  0  1  0  0  0  0  0  0  0  0  0
   20.0764    8.6326   14.2593 O   0  0  0  0  0  0  0  0  0  0  0  0
   21.3559    4.1443   10.5729 C   0  0  2  0  0  0  0  0  0  0  0  0
   20.0123    4.3565   11.1901 N   0  0  0  0  0  0  0  0  0  0  0  0
   23.9421    6.9235    4.9660 C   0  0  2  0  0  0  0  0  0  0  0  0
   25.2784    6.4558    4.5746 O   0  0  0  0  0  0  0  0  0  0  0  0
   22.4556    8.3535   14.0543 C   0  0  2  0  0  0  0  0  0  0  0  0
   22.6381    9.7094   14.3069 O   0  0  0  0  0  0  0  0  0  0  0  0
   21.8148    5.4791    9.9195 C   0  0  2  0  0  0  0  0  0  0  0  0
   24.0130    8.3074    5.6006 C   0  0  2  0  0  0  0  0  0  0  0  0
   24.4672    7.9751    6.9097 O   0  0  0  0  0  0  0  0  0  0  0  0
   23.5685    7.8293   13.1034 C   0  0  2  0  0  0  0  0  0  0  0  0
   23.3589    6.4258   12.8372 O   0  0  0  0  0  0  0  0  0  0  0  0
   23.1937    5.3814    9.2374 C   0  0  2  0  0  0  0  0  0  0  0  0
   23.3376    6.6328    8.4777 O   0  0  0  0  0  0  0  0  0  0  0  0
   22.6484    9.0733    5.6680 C   0  0  0  0  0  0  0  0  0  0  0  0
   22.1304    9.2665    4.3549 N   0  0  0  0  0  0  0  0  0  0  0  0
   24.9537    8.0108   13.6794 C   0  0  0  0  0  0  0  0  0  0  0  0
   25.2824    9.3469   13.8001 O   0  0  0  0  0  0  0  0  0  0  0  0
   23.2370    4.1269    8.2575 C   0  0  1  0  0  0  0  0  0  0  0  0
   24.5679    3.8816    7.7782 O   0  0  0  0  0  0  0  0  0  0  0  0
  1  2  1  6  0  0  0
  1  6  1  0  0  0  0
  1 23  1  0  0  0  0
  3  4  1  6  0  0  0
  3  8  1  0  0  0  0
  3 30  1  0  0  0  0
  5  9  1  0  0  0  0
  5 21  1  0  0  0  0
  5 25  1  1  0  0  0
  6  7  1  6  0  0  0
  6 11  1  0  0  0  0
  8 13  1  0  0  0  0
  9 10  1  6  0  0  0
  9 15  1  0  0  0  0
 11 12  1  1  0  0  0
 11 17  1  0  0  0  0
 13 14  1  6  0  0  0
 13 19  1  0  0  0  0
 15 16  1  1  0  0  0
 15 20  1  0  0  0  0
 17 18  1  6  0  0  0
 17 22  1  0  0  0  0
 19  2  1  1  0  0  0
 19 24  1  0  0  0  0
 20 21  1  0  0  0  0
 20 26  1  1  0  0  0
 22 23  1  0  0  0  0
 22 28  1  1  0  0  0
 24 25  1  6  0  0  0
 24 30  1  0  0  0  0
 26 27  1  0  0  0  0
 28 29  1  0  0  0  0
 30 31  1  1  0  0  0
M  END
>  <CHROM.1>
-126.96638559,78.82723556,24.66773149,-60.28556111,-65.97498320,-150.10055170
22.79414800,6.44741392,9.73481445,2.09889899,1.17394560,0.86523544

>  <Name>
2o3x_lig

>  <RI>
0

>  <Rbt.Current_Directory>
/home/itssahil/PROJECTS/Mol_Feturizer/New_Systems/rnas/2o3x

>  <Rbt.Executable>
rbdock ($Id: //depot/dev/client3/rdock/2013.1/src/exe/rbdock.cxx#4 $)

>  <Rbt.Library>
libRbt.so (2013.1, Build901 2013/11/27)

>  <Rbt.Parameter_File>
/export/apps/rDock/src/rDock_2013.1_src/data/scripts/dock_solv.prm

>  <Rbt.Receptor>
prm/blind_docking_60.prm

>  <SCORE>
24.7292

>  <SCORE.INTER>
-0.624523

>  <SCORE.INTER.CONST>
1

>  <SCORE.INTER.POLAR>
0

>  <SCORE.INTER.ROT>
6

>  <SCORE.INTER.SOLV>
15.5937

>  <SCORE.INTER.VDW>
-13.2142

>  <SCORE.INTER.norm>
-0.0201459

>  <SCORE.INTRA>
15.8953

>  <SCORE.INTRA.DIHEDRAL>
7.60292

>  <SCORE.INTRA.DIHEDRAL.0>
9.37739

>  <SCORE.INTRA.POLAR>
0

>  <SCORE.INTRA.POLAR.0>
0

>  <SCORE.INTRA.REPUL>
0

>  <SCORE.INTRA.REPUL.0>
0

>  <SCORE.INTRA.SOLV>
3.48321

>  <SCORE.INTRA.SOLV.lig_0>
-82.9274

>  <SCORE.INTRA.VDW>
10.3522

>  <SCORE.INTRA.VDW.0>
-3.84922

>  <SCORE.INTRA.norm>
0.512751

>  <SCORE.RESTR>
9.45846

>  <SCORE.RESTR.CAVITY>
9.45846

>  <SCORE.RESTR.norm>
0.305112

>  <SCORE.SYSTEM>
0

>  <SCORE.SYSTEM.CONST>
0

>  <SCORE.SYSTEM.DIHEDRAL>
0

>  <SCORE.SYSTEM.SOLV>
0

>  <SCORE.SYSTEM.norm>
0

>  <SCORE.heavy>
31

>  <SCORE.norm>
0.797717

>  <RMSD>
7.824

$$$$
2o3x_lig
 OpenBabel11021811463D
libRbt.so/2013.1/901 2013/11/27
 31 33  0  0  0  0  0  0  0  0999 V2000
   18.9659    7.1397   11.2058 C   0  0  2  0  0  0  0  0  0  0  0  0
   18.6625    8.4172   11.7815 O   0  0  0  0  0  0  0  0  0  0  0  0
   17.7568   12.2493   10.1103 C   0  0  2  0  0  0  0  0  0  0  0  0
   17.7674   13.4746    9.2808 N   0  0  0  0  0  0  0  0  0  0  0  0
   18.7434    8.6686    7.9479 C   0  0  1  0  0  0  0  0  0  0  0  0
   18.6762    6.0373   12.2731 C   0  0  2  0  0  0  0  0  0  0  0  0
   17.3471    6.2129   12.9122 N   0  0  0  0  0  0  0  0  0  0  0  0
   19.0428   12.1257   10.9936 C   0  0  0  0  0  0  0  0  0  0  0  0
   20.2301    8.6378    8.4326 C   0  0  2  0  0  0  0  0  0  0  0  0
   20.8107    9.9219    8.7908 O   0  0  0  0  0  0  0  0  0  0  0  0
   19.7421    6.0291   13.3851 C   0  0  1  0  0  0  0  0  0  0  0  0
   19.4896    4.9976   14.3052 O   0  0  0  0  0  0  0  0  0  0  0  0
   18.9234   10.8157   11.8551 C   0  0  2  0  0  0  0  0  0  0  0  0
   20.1093   10.6332   12.7449 N   0  0  0  0  0  0  0  0  0  0  0  0
   20.8391    7.9408    7.2275 C   0  0  2  0  0  0  0  0  0  0  0  0
   21.0367    8.8815    6.1167 O   0  0  0  0  0  0  0  0  0  0  0  0
   21.1225    5.8689   12.7706 C   0  0  2  0  0  0  0  0  0  0  0  0
   22.0851    5.8381   13.7747 O   0  0  0  0  0  0  0  0  0  0  0  0
   18.8004    9.5675   10.9352 C   0  0  2  0  0  0  0  0  0  0  0  0
   19.8248    6.8651    6.8570 C   0  0  2  0  0  0  0  0  0  0  0  0
   18.6053    7.5831    7.0229 O   0  0  0  0  0  0  0  0  0  0  0  0
   21.4058    7.0421   11.7903 C   0  0  2  0  0  0  0  0  0  0  0  0
   20.3918    7.0723   10.7628 O   0  0  0  0  0  0  0  0  0  0  0  0
   17.6099    9.6448    9.9590 C   0  0  2  0  0  0  0  0  0  0  0  0
   17.8042    8.5254    9.0247 O   0  0  0  0  0  0  0  0  0  0  0  0
   19.8461    5.5946    7.7729 C   0  0  0  0  0  0  0  0  0  0  0  0
   21.0609    4.8749    7.5831 N   0  0  0  0  0  0  0  0  0  0  0  0
   22.7603    6.9295   11.1300 C   0  0  0  0  0  0  0  0  0  0  0  0
   23.7847    7.1181   12.0372 O   0  0  0  0  0  0  0  0  0  0  0  0
   17.6264   11.0320    9.1772 C   0  0  1  0  0  0  0  0  0  0  0  0
   16.4175   11.2259    8.4274 O   0  0  0  0  0  0  0  0  0  0  0  0
  1  2  1  1  0  0  0
  1  6  1  0  0  0  0
  1 23  1  0  0  0  0
  3  4  1  6  0  0  0
  3  8  1  0  0  0  0
  3 30  1  0  0  0  0
  5  9  1  0  0  0  0
  5 21  1  0  0  0  0
  5 25  1  1  0  0  0
  6  7  1  1  0  0  0
  6 11  1  0  0  0  0
  8 13  1  0  0  0  0
  9 10  1  6  0  0  0
  9 15  1  0  0  0  0
 11 12  1  1  0  0  0
 11 17  1  0  0  0  0
 13 14  1  6  0  0  0
 13 19  1  0  0  0  0
 15 16  1  6  0  0  0
 15 20  1  0  0  0  0
 17 18  1  1  0  0  0
 17 22  1  0  0  0  0
 19  2  1  1  0  0  0
 19 24  1  0  0  0  0
 20 21  1  0  0  0  0
 20 26  1  1  0  0  0
 22 23  1  0  0  0  0
 22 28  1  6  0  0  0
 24 25  1  6  0  0  0
 24 30  1  0  0  0  0
 26 27  1  0  0  0  0
 28 29  1  0  0  0  0
 30 31  1  1  0  0  0
M  END
>  <CHROM.1>
-177.03719509,72.30209041,-160.19126334,-67.69985188,-68.38064312,-79.55516140
19.61347354,8.27086036,10.26723654,0.68333224,-1.04085646,1.65160354

>  <Name>
2o3x_lig

>  <RI>
0

>  <Rbt.Current_Directory>
/home/itssahil/PROJECTS/Mol_Feturizer/New_Systems/rnas/2o3x

>  <Rbt.Executable>
rbdock ($Id: //depot/dev/client3/rdock/2013.1/src/exe/rbdock.cxx#4 $)

>  <Rbt.Library>
libRbt.so (2013.1, Build901 2013/11/27)

>  <Rbt.Parameter_File>
/export/apps/rDock/src/rDock_2013.1_src/data/scripts/dock_solv.prm

>  <Rbt.Receptor>
prm/pocket_docking_8.prm

>  <SCORE>
-6.85852

>  <SCORE.INTER>
-4.40312

>  <SCORE.INTER.CONST>
1

>  <SCORE.INTER.POLAR>
-0.69511

>  <SCORE.INTER.ROT>
6

>  <SCORE.INTER.SOLV>
17.9725

>  <SCORE.INTER.VDW>
-14.2092

>  <SCORE.INTER.norm>
-0.142036

>  <SCORE.INTRA>
-2.45539

>  <SCORE.INTRA.DIHEDRAL>
-4.49237

>  <SCORE.INTRA.DIHEDRAL.0>
9.37739

>  <SCORE.INTRA.POLAR>
0

>  <SCORE.INTRA.POLAR.0>
0

>  <SCORE.INTRA.REPUL>
0

>  <SCORE.INTRA.REPUL.0>
0

>  <SCORE.INTRA.SOLV>
-0.319238

>  <SCORE.INTRA.SOLV.lig_0>
-82.9274

>  <SCORE.INTRA.VDW>
-0.0495921

>  <SCORE.INTRA.VDW.0>
-3.84922

>  <SCORE.INTRA.norm>
-0.0792063

>  <SCORE.RESTR>
0

>  <SCORE.RESTR.CAVITY>
0

>  <SCORE.RESTR.norm>
0

>  <SCORE.SYSTEM>
0

>  <SCORE.SYSTEM.CONST>
0

>  <SCORE.SYSTEM.DIHEDRAL>
0

>  <SCORE.SYSTEM.SOLV>
0

>  <SCORE.SYSTEM.norm>
0

>  <SCORE.heavy>
31

>  <SCORE.norm>
-0.221242

>  <RMSD>
7.824

$$$$
2o3x_lig
 OpenBabel11021811463D
libRbt.so/2013.1/901 2013/11/27
 31 33  0  0  0  0  0  0  0  0999 V2000
   15.8630   11.0012   12.6282 C   0  0  2  0  0  0  0  0  0  0  0  0
   16.9386   10.2980   13.2638 O   0  0  0  0  0  0  0  0  0  0  0  0
   19.9958   13.0083   11.9965 C   0  0  2  0  0  0  0  0  0  0  0  0
   21.2988   13.6687   11.7607 N   0  0  0  0  0  0  0  0  0  0  0  0
   20.0558    8.6657   12.1269 C   0  0  1  0  0  0  0  0  0  0  0  0
   14.5345   10.2320   12.9145 C   0  0  2  0  0  0  0  0  0  0  0  0
   14.3859    9.8879   14.3516 N   0  0  0  0  0  0  0  0  0  0  0  0
   19.5976   13.0160   13.5100 C   0  0  0  0  0  0  0  0  0  0  0  0
   19.8279    7.1309   12.3234 C   0  0  2  0  0  0  0  0  0  0  0  0
   19.1556    6.7383   13.5515 O   0  0  0  0  0  0  0  0  0  0  0  0
   14.4470    8.9271   12.1007 C   0  0  1  0  0  0  0  0  0  0  0  0
   13.2229    8.2784   12.3355 O   0  0  0  0  0  0  0  0  0  0  0  0
   18.1933   12.3231   13.6524 C   0  0  2  0  0  0  0  0  0  0  0  0
   17.7302   12.3065   15.0724 N   0  0  0  0  0  0  0  0  0  0  0  0
   21.2695    6.6744   12.1742 C   0  0  2  0  0  0  0  0  0  0  0  0
   22.0260    6.8989   13.4131 O   0  0  0  0  0  0  0  0  0  0  0  0
   14.6127    9.2334   10.6217 C   0  0  2  0  0  0  0  0  0  0  0  0
   14.5111    8.0591    9.8825 O   0  0  0  0  0  0  0  0  0  0  0  0
   18.2538   10.8571   13.1363 C   0  0  2  0  0  0  0  0  0  0  0  0
   21.8222    7.5244   11.0362 C   0  0  2  0  0  0  0  0  0  0  0  0
   21.2557    8.7927   11.3542 O   0  0  0  0  0  0  0  0  0  0  0  0
   15.9908    9.9085   10.3713 C   0  0  2  0  0  0  0  0  0  0  0  0
   16.0895   11.1170   11.1553 O   0  0  0  0  0  0  0  0  0  0  0  0
   18.7308   10.7447   11.6747 C   0  0  2  0  0  0  0  0  0  0  0  0
   18.9622    9.3088   11.4541 O   0  0  0  0  0  0  0  0  0  0  0  0
   21.3875    7.0700    9.6017 C   0  0  0  0  0  0  0  0  0  0  0  0
   19.9776    7.2089    9.4508 N   0  0  0  0  0  0  0  0  0  0  0  0
   16.2084   10.2564    8.9170 C   0  0  0  0  0  0  0  0  0  0  0  0
   17.4594   10.8030    8.7073 O   0  0  0  0  0  0  0  0  0  0  0  0
   20.0806   11.5643   11.4701 C   0  0  1  0  0  0  0  0  0  0  0  0
   20.4301   11.6609   10.0810 O   0  0  0  0  0  0  0  0  0  0  0  0
  1  2  1  1  0  0  0
  1  6  1  0  0  0  0
  1 23  1  0  0  0  0
  3  4  1  1  0  0  0
  3  8  1  0  0  0  0
  3 30  1  0  0  0  0
  5  9  1  0  0  0  0
  5 21  1  0  0  0  0
  5 25  1  6  0  0  0
  6  7  1  1  0  0  0
  6 11  1  0  0  0  0
  8 13  1  0  0  0  0
  9 10  1  1  0  0  0
  9 15  1  0  0  0  0
 11 12  1  6  0  0  0
 11 17  1  0  0  0  0
 13 14  1  1  0  0  0
 13 19  1  0  0  0  0
 15 16  1  1  0  0  0
 15 20  1  0  0  0  0
 17 18  1  6  0  0  0
 17 22  1  0  0  0  0
 19  2  1  6  0  0  0
 19 24  1  0  0  0  0
 20 21  1  0  0  0  0
 20 26  1  6  0  0  0
 22 23  1  0  0  0  0
 22 28  1  6  0  0  0
 24 25  1  1  0  0  0
 24 30  1  0  0  0  0
 26 27  1  0  0  0  0
 28 29  1  0  0  0  0
 30 31  1  6  0  0  0
M  END
>  <CHROM.1>
-179.12354291,154.60468725,55.31193596,64.24862036,-177.46583506,-68.90306964
18.19746388,9.75114872,11.78958234,-2.94105014,0.00024434,-2.85198095

>  <Name>
2o3x_lig

>  <RI>
0

>  <Rbt.Current_Directory>
/home/itssahil/PROJECTS/Mol_Feturizer/New_Systems/rnas/2o3x

>  <Rbt.Executable>
rbdock ($Id: //depot/dev/client3/rdock/2013.1/src/exe/rbdock.cxx#4 $)

>  <Rbt.Library>
libRbt.so (2013.1, Build901 2013/11/27)

>  <Rbt.Parameter_File>
/export/apps/rDock/src/rDock_2013.1_src/data/scripts/dock_solv.prm

>  <Rbt.Receptor>
prm/pocket_docking_8.prm

>  <SCORE>
-11.6643

>  <SCORE.INTER>
-11.1854

>  <SCORE.INTER.CONST>
1

>  <SCORE.INTER.POLAR>
-1.70513

>  <SCORE.INTER.ROT>
6

>  <SCORE.INTER.SOLV>
11.8192

>  <SCORE.INTER.VDW>
-13.3129

>  <SCORE.INTER.norm>
-0.36082

>  <SCORE.INTRA>
-0.478884

>  <SCORE.INTRA.DIHEDRAL>
-5.88689

>  <SCORE.INTRA.DIHEDRAL.0>
9.37739

>  <SCORE.INTRA.POLAR>
0

>  <SCORE.INTRA.POLAR.0>
0

>  <SCORE.INTRA.REPUL>
0

>  <SCORE.INTRA.REPUL.0>
0

>  <SCORE.INTRA.SOLV>
1.82766

>  <SCORE.INTRA.SOLV.lig_0>
-82.9274

>  <SCORE.INTRA.VDW>
1.55073

>  <SCORE.INTRA.VDW.0>
-3.84922

>  <SCORE.INTRA.norm>
-0.0154479

>  <SCORE.RESTR>
0

>  <SCORE.RESTR.CAVITY>
0

>  <SCORE.RESTR.norm>
0

>  <SCORE.SYSTEM>
0

>  <SCORE.SYSTEM.CONST>
0

>  <SCORE.SYSTEM.DIHEDRAL>
0

>  <SCORE.SYSTEM.SOLV>
0

>  <SCORE.SYSTEM.norm>
0

>  <SCORE.heavy>
31

>  <SCORE.norm>
-0.376268

>  <RMSD>
7.825

$$$$
2o3x_lig
 OpenBabel11021811463D
libRbt.so/2013.1/901 2013/11/27
 31 33  0  0  0  0  0  0  0  0999 V2000
   22.2347    6.7720    9.9428 C   0  0  2  0  0  0  0  0  0  0  0  0
   22.4034    5.3676   10.1770 O   0  0  0  0  0  0  0  0  0  0  0  0
   22.9419    1.7935    7.8892 C   0  0  2  0  0  0  0  0  0  0  0  0
   23.0050    0.8114    6.7842 N   0  0  0  0  0  0  0  0  0  0  0  0
   24.0008    5.8468    6.8129 C   0  0  1  0  0  0  0  0  0  0  0  0
   23.4905    7.5177   10.4954 C   0  0  2  0  0  0  0  0  0  0  0  0
   24.7580    6.8864   10.0477 N   0  0  0  0  0  0  0  0  0  0  0  0
   21.4759    2.2572    8.1811 C   0  0  0  0  0  0  0  0  0  0  0  0
   24.0396    7.4059    6.6960 C   0  0  2  0  0  0  0  0  0  0  0  0
   22.8223    8.1043    7.0765 O   0  0  0  0  0  0  0  0  0  0  0  0
   23.4958    7.5570   12.0353 C   0  0  1  0  0  0  0  0  0  0  0  0
   24.6066    8.2759   12.5082 O   0  0  0  0  0  0  0  0  0  0  0  0
   21.5108    3.2700    9.3834 C   0  0  2  0  0  0  0  0  0  0  0  0
   20.1411    3.7482    9.7390 N   0  0  0  0  0  0  0  0  0  0  0  0
   24.4393    7.5062    5.2334 C   0  0  2  0  0  0  0  0  0  0  0  0
   23.2825    7.2935    4.3534 O   0  0  0  0  0  0  0  0  0  0  0  0
   22.2043    8.1814   12.5364 C   0  0  2  0  0  0  0  0  0  0  0  0
   22.2167    8.2390   13.9265 O   0  0  0  0  0  0  0  0  0  0  0  0
   22.3882    4.5050    9.0306 C   0  0  2  0  0  0  0  0  0  0  0  0
   25.4766    6.4053    5.0458 C   0  0  2  0  0  0  0  0  0  0  0  0
   24.8822    5.3510    5.7978 O   0  0  0  0  0  0  0  0  0  0  0  0
   20.9870    7.3489   12.0439 C   0  0  2  0  0  0  0  0  0  0  0  0
   20.9945    7.2839   10.6015 O   0  0  0  0  0  0  0  0  0  0  0  0
   23.8313    4.1345    8.6353 C   0  0  2  0  0  0  0  0  0  0  0  0
   24.4162    5.3753    8.1041 O   0  0  0  0  0  0  0  0  0  0  0  0
   26.9029    6.7414    5.5990 C   0  0  0  0  0  0  0  0  0  0  0  0
   27.8003    5.6702    5.3216 N   0  0  0  0  0  0  0  0  0  0  0  0
   19.6677    7.9314   12.4950 C   0  0  0  0  0  0  0  0  0  0  0  0
   19.5181    7.8483   13.8656 O   0  0  0  0  0  0  0  0  0  0  0  0
   23.8235    2.9996    7.5183 C   0  0  1  0  0  0  0  0  0  0  0  0
   25.1422    2.4803    7.2890 O   0  0  0  0  0  0  0  0  0  0  0  0
  1  2  1  1  0  0  0
  1  6  1  0  0  0  0
  1 23  1  0  0  0  0
  3  4  1  6  0  0  0
  3  8  1  0  0  0  0
  3 30  1  0  0  0  0
  5  9  1  0  0  0  0
  5 21  1  0  0  0  0
  5 25  1  1  0  0  0
  6  7  1  1  0  0  0
  6 11  1  0  0  0  0
  8 13  1  0  0  0  0
  9 10  1  6  0  0  0
  9 15  1  0  0  0  0
 11 12  1  6  0  0  0
 11 17  1  0  0  0  0
 13 14  1  6  0  0  0
 13 19  1  0  0  0  0
 15 16  1  6  0  0  0
 15 20  1  0  0  0  0
 17 18  1  1  0  0  0
 17 22  1  0  0  0  0
 19  2  1  1  0  0  0
 19 24  1  0  0  0  0
 20 21  1  0  0  0  0
 20 26  1  1  0  0  0
 22 23  1  0  0  0  0
 22 28  1  6  0  0  0
 24 25  1  6  0  0  0
 24 30  1  0  0  0  0
 26 27  1  0  0  0  0
 28 29  1  0  0  0  0
 30 31  1  1  0  0  0
M  END
>  <CHROM.1>
-120.96119570,148.84396972,-136.03964184,-177.60859484,-66.83717195,-72.98198489
23.18246510,5.86963906,8.90082211,-2.34554184,-0.89310418,-2.61147720

>  <Name>
2o3x_lig

>  <RI>
0

>  <Rbt.Current_Directory>
/home/itssahil/PROJECTS/Mol_Feturizer/New_Systems/rnas/2o3x

>  <Rbt.Executable>
rbdock ($Id: //depot/dev/client3/rdock/2013.1/src/exe/rbdock.cxx#4 $)

>  <Rbt.Library>
libRbt.so (2013.1, Build901 2013/11/27)

>  <Rbt.Parameter_File>
/export/apps/rDock/src/rDock_2013.1_src/data/scripts/dock_solv.prm

>  <Rbt.Receptor>
prm/pocket_docking_8.prm

>  <SCORE>
-2.68355

>  <SCORE.INTER>
-8.61737

>  <SCORE.INTER.CONST>
1

>  <SCORE.INTER.POLAR>
-0.330066

>  <SCORE.INTER.ROT>
6

>  <SCORE.INTER.SOLV>
13.7612

>  <SCORE.INTER.VDW>
-16.8317

>  <SCORE.INTER.norm>
-0.27798

>  <SCORE.INTRA>
5.93382

>  <SCORE.INTRA.DIHEDRAL>
8.70212

>  <SCORE.INTRA.DIHEDRAL.0>
9.37739

>  <SCORE.INTRA.POLAR>
0

>  <SCORE.INTRA.POLAR.0>
0

>  <SCORE.INTRA.REPUL>
0

>  <SCORE.INTRA.REPUL.0>
0

>  <SCORE.INTRA.SOLV>
1.79342

>  <SCORE.INTRA.SOLV.lig_0>
-82.9274

>  <SCORE.INTRA.VDW>
0.686048

>  <SCORE.INTRA.VDW.0>
-3.84922

>  <SCORE.INTRA.norm>
0.191413

>  <SCORE.RESTR>
0

>  <SCORE.RESTR.CAVITY>
0

>  <SCORE.RESTR.norm>
0

>  <SCORE.SYSTEM>
0

>  <SCORE.SYSTEM.CONST>
0

>  <SCORE.SYSTEM.DIHEDRAL>
0

>  <SCORE.SYSTEM.SOLV>
0

>  <SCORE.SYSTEM.norm>
0

>  <SCORE.heavy>
31

>  <SCORE.norm>
-0.0865662

>  <RMSD>
7.829

$$$$
2o3x_lig
 OpenBabel11021811463D
libRbt.so/2013.1/901 2013/11/27
 31 33  0  0  0  0  0  0  0  0999 V2000
   23.1209    5.8475    9.1678 C   0  0  2  0  0  0  0  0  0  0  0  0
   22.2636    6.0746    8.0413 O   0  0  0  0  0  0  0  0  0  0  0  0
   21.7585    8.9521    4.9167 C   0  0  2  0  0  0  0  0  0  0  0  0
   21.8738   10.1545    4.0621 N   0  0  0  0  0  0  0  0  0  0  0  0
   25.4307    6.1606    5.3594 C   0  0  1  0  0  0  0  0  0  0  0  0
   22.9710    4.3569    9.6081 C   0  0  2  0  0  0  0  0  0  0  0  0
   23.0716    3.4212    8.4591 N   0  0  0  0  0  0  0  0  0  0  0  0
   21.1433    9.2825    6.3173 C   0  0  0  0  0  0  0  0  0  0  0  0
   26.9376    6.3664    5.7240 C   0  0  2  0  0  0  0  0  0  0  0  0
   27.5360    7.6152    5.2804 O   0  0  0  0  0  0  0  0  0  0  0  0
   21.6237    4.1050   10.3111 C   0  0  1  0  0  0  0  0  0  0  0  0
   21.5325    2.7711   10.7430 O   0  0  0  0  0  0  0  0  0  0  0  0
   21.0345    7.9438    7.1347 C   0  0  2  0  0  0  0  0  0  0  0  0
   20.4357    8.1710    8.4842 N   0  0  0  0  0  0  0  0  0  0  0  0
   27.4905    5.0987    5.0948 C   0  0  2  0  0  0  0  0  0  0  0  0
   27.6397    5.2514    3.6415 O   0  0  0  0  0  0  0  0  0  0  0  0
   21.4727    5.0570   11.4856 C   0  0  2  0  0  0  0  0  0  0  0  0
   20.2666    4.8160   12.1361 O   0  0  0  0  0  0  0  0  0  0  0  0
   22.4393    7.3025    7.3202 C   0  0  2  0  0  0  0  0  0  0  0  0
   26.4587    4.0273    5.4272 C   0  0  2  0  0  0  0  0  0  0  0  0
   25.2491    4.7475    5.2067 O   0  0  0  0  0  0  0  0  0  0  0  0
   21.5291    6.5284   10.9861 C   0  0  2  0  0  0  0  0  0  0  0  0
   22.7781    6.7610   10.3000 O   0  0  0  0  0  0  0  0  0  0  0  0
   23.1646    7.0277    5.9880 C   0  0  2  0  0  0  0  0  0  0  0  0
   24.5405    6.6692    6.3649 O   0  0  0  0  0  0  0  0  0  0  0  0
   26.5188    3.4864    6.8960 C   0  0  0  0  0  0  0  0  0  0  0  0
   25.7435    2.2967    7.0114 N   0  0  0  0  0  0  0  0  0  0  0  0
   21.4032    7.5269   12.1133 C   0  0  0  0  0  0  0  0  0  0  0  0
   21.4555    8.8266   11.6486 O   0  0  0  0  0  0  0  0  0  0  0  0
   23.1590    8.3338    5.0770 C   0  0  1  0  0  0  0  0  0  0  0  0
   23.6292    8.0500    3.7505 O   0  0  0  0  0  0  0  0  0  0  0  0
  1  2  1  6  0  0  0
  1  6  1  0  0  0  0
  1 23  1  0  0  0  0
  3  4  1  6  0  0  0
  3  8  1  0  0  0  0
  3 30  1  0  0  0  0
  5  9  1  0  0  0  0
  5 21  1  0  0  0  0
  5 25  1  1  0  0  0
  6  7  1  6  0  0  0
  6 11  1  0  0  0  0
  8 13  1  0  0  0  0
  9 10  1  6  0  0  0
  9 15  1  0  0  0  0
 11 12  1  1  0  0  0
 11 17  1  0  0  0  0
 13 14  1  1  0  0  0
 13 19  1  0  0  0  0
 15 16  1  6  0  0  0
 15 20  1  0  0  0  0
 17 18  1  6  0  0  0
 17 22  1  0  0  0  0
 19  2  1  6  0  0  0
 19 24  1  0  0  0  0
 20 21  1  0  0  0  0
 20 26  1  1  0  0  0
 22 23  1  0  0  0  0
 22 28  1  1  0  0  0
 24 25  1  1  0  0  0
 24 30  1  0  0  0  0
 26 27  1  0  0  0  0
 28 29  1  0  0  0  0
 30 31  1  6  0  0  0
M  END
>  <CHROM.1>
-168.23463663,156.82050124,-131.42913321,-166.53774666,-179.99602782,170.87375867
23.41944055,6.22388262,7.56235445,-2.53330095,0.72538484,-0.79631820

>  <Name>
2o3x_lig

>  <RI>
0

>  <Rbt.Current_Directory>
/home/itssahil/PROJECTS/Mol_Feturizer/New_Systems/rnas/2o3x

>  <Rbt.Executable>
rbdock ($Id: //depot/dev/client3/rdock/2013.1/src/exe/rbdock.cxx#4 $)

>  <Rbt.Library>
libRbt.so (2013.1, Build901 2013/11/27)

>  <Rbt.Parameter_File>
/export/apps/rDock/src/rDock_2013.1_src/data/scripts/dock_solv.prm

>  <Rbt.Receptor>
prm/pocket_docking_8.prm

>  <SCORE>
-12.8429

>  <SCORE.INTER>
-14.1226

>  <SCORE.INTER.CONST>
1

>  <SCORE.INTER.POLAR>
-1.43524

>  <SCORE.INTER.ROT>
6

>  <SCORE.INTER.SOLV>
14.1752

>  <SCORE.INTER.VDW>
-16.956

>  <SCORE.INTER.norm>
-0.455567

>  <SCORE.INTRA>
1.27971

>  <SCORE.INTRA.DIHEDRAL>
1.27267

>  <SCORE.INTRA.DIHEDRAL.0>
9.37739

>  <SCORE.INTRA.POLAR>
0

>  <SCORE.INTRA.POLAR.0>
0

>  <SCORE.INTRA.REPUL>
0

>  <SCORE.INTRA.REPUL.0>
0

>  <SCORE.INTRA.SOLV>
1.63462

>  <SCORE.INTRA.SOLV.lig_0>
-82.9274

>  <SCORE.INTRA.VDW>
-0.17393

>  <SCORE.INTRA.VDW.0>
-3.84922

>  <SCORE.INTRA.norm>
0.0412811

>  <SCORE.RESTR>
0

>  <SCORE.RESTR.CAVITY>
0

>  <SCORE.RESTR.norm>
0

>  <SCORE.SYSTEM>
0

>  <SCORE.SYSTEM.CONST>
0

>  <SCORE.SYSTEM.DIHEDRAL>
0

>  <SCORE.SYSTEM.SOLV>
0

>  <SCORE.SYSTEM.norm>
0

>  <SCORE.heavy>
31

>  <SCORE.norm>
-0.414286

>  <RMSD>
7.833

$$$$
2o3x_lig
 OpenBabel11021811463D
libRbt.so/2013.1/901 2013/11/27
 31 33  0  0  0  0  0  0  0  0999 V2000
   22.1289    6.1176   12.5675 C   0  0  2  0  0  0  0  0  0  0  0  0
   22.1310    6.4606   11.1755 O   0  0  0  0  0  0  0  0  0  0  0  0
   22.3135    2.7988    8.9719 C   0  0  2  0  0  0  0  0  0  0  0  0
   22.0296    1.6926    8.0310 N   0  0  0  0  0  0  0  0  0  0  0  0
   23.6356    7.2649    7.7010 C   0  0  1  0  0  0  0  0  0  0  0  0
   20.8447    6.7194   13.2211 C   0  0  2  0  0  0  0  0  0  0  0  0
   19.6229    6.4222   12.4308 N   0  0  0  0  0  0  0  0  0  0  0  0
   21.2109    2.9308   10.0746 C   0  0  0  0  0  0  0  0  0  0  0  0
   24.4562    6.3066    6.7766 C   0  0  2  0  0  0  0  0  0  0  0  0
   25.5352    5.5719    7.4173 O   0  0  0  0  0  0  0  0  0  0  0  0
   20.9504    8.2482   13.3780 C   0  0  1  0  0  0  0  0  0  0  0  0
   19.8069    8.7607   14.0136 O   0  0  0  0  0  0  0  0  0  0  0  0
   21.6162    4.1064   11.0369 C   0  0  2  0  0  0  0  0  0  0  0  0
   20.6194    4.2864   12.1347 N   0  0  0  0  0  0  0  0  0  0  0  0
   24.8702    7.3200    5.7227 C   0  0  2  0  0  0  0  0  0  0  0  0
   26.0045    8.1305    6.1854 O   0  0  0  0  0  0  0  0  0  0  0  0
   22.2006    8.5970   14.1680 C   0  0  2  0  0  0  0  0  0  0  0  0
   22.2861    9.9761   14.3308 O   0  0  0  0  0  0  0  0  0  0  0  0
   21.7280    5.4425   10.2484 C   0  0  2  0  0  0  0  0  0  0  0  0
   23.6310    8.1834    5.5172 C   0  0  2  0  0  0  0  0  0  0  0  0
   23.1911    8.3392    6.8636 O   0  0  0  0  0  0  0  0  0  0  0  0
   23.4605    8.0639   13.4290 C   0  0  2  0  0  0  0  0  0  0  0  0
   23.3522    6.6349   13.2528 O   0  0  0  0  0  0  0  0  0  0  0  0
   22.7272    5.3767    9.0764 C   0  0  2  0  0  0  0  0  0  0  0  0
   22.5111    6.6170    8.3155 O   0  0  0  0  0  0  0  0  0  0  0  0
   22.5087    7.5292    4.6422 C   0  0  0  0  0  0  0  0  0  0  0  0
   21.8524    6.5003    5.3773 N   0  0  0  0  0  0  0  0  0  0  0  0
   24.7391    8.3636   14.1765 C   0  0  0  0  0  0  0  0  0  0  0  0
   25.8508    8.1652   13.3809 O   0  0  0  0  0  0  0  0  0  0  0  0
   22.4270    4.1053    8.1659 C   0  0  1  0  0  0  0  0  0  0  0  0
   23.4679    3.8945    7.1998 O   0  0  0  0  0  0  0  0  0  0  0  0
  1  2  1  6  0  0  0
  1  6  1  0  0  0  0
  1 23  1  0  0  0  0
  3  4  1  6  0  0  0
  3  8  1  0  0  0  0
  3 30  1  0  0  0  0
  5  9  1  0  0  0  0
  5 21  1  0  0  0  0
  5 25  1  6  0  0  0
  6  7  1  6  0  0  0
  6 11  1  0  0  0  0
  8 13  1  0  0  0  0
  9 10  1  1  0  0  0
  9 15  1  0  0  0  0
 11 12  1  1  0  0  0
 11 17  1  0  0  0  0
 13 14  1  1  0  0  0
 13 19  1  0  0  0  0
 15 16  1  1  0  0  0
 15 20  1  0  0  0  0
 17 18  1  6  0  0  0
 17 22  1  0  0  0  0
 19  2  1  1  0  0  0
 19 24  1  0  0  0  0
 20 21  1  0  0  0  0
 20 26  1  6  0  0  0
 22 23  1  0  0  0  0
 22 28  1  1  0  0  0
 24 25  1  6  0  0  0
 24 30  1  0  0  0  0
 26 27  1  0  0  0  0
 28 29  1  0  0  0  0
 30 31  1  6  0  0  0
M  END
>  <CHROM.1>
-101.53488215,53.72385273,-9.56798452,73.01144398,-166.20113258,144.48429887
22.73443652,6.45754826,9.97730058,1.95403500,0.99206106,1.02434836

>  <Name>
2o3x_lig

>  <RI>
0

>  <Rbt.Current_Directory>
/home/itssahil/PROJECTS/Mol_Feturizer/New_Systems/rnas/2o3x

>  <Rbt.Executable>
rbdock ($Id: //depot/dev/client3/rdock/2013.1/src/exe/rbdock.cxx#4 $)

>  <Rbt.Library>
libRbt.so (2013.1, Build901 2013/11/27)

>  <Rbt.Parameter_File>
/export/apps/rDock/src/rDock_2013.1_src/data/scripts/dock_solv.prm

>  <Rbt.Receptor>
prm/blind_docking_60.prm

>  <SCORE>
26.2687

>  <SCORE.INTER>
-2.78724

>  <SCORE.INTER.CONST>
1

>  <SCORE.INTER.POLAR>
0

>  <SCORE.INTER.ROT>
6

>  <SCORE.INTER.SOLV>
15.5491

>  <SCORE.INTER.VDW>
-14.6412

>  <SCORE.INTER.norm>
-0.0899108

>  <SCORE.INTRA>
20.1163

>  <SCORE.INTRA.DIHEDRAL>
9.1288

>  <SCORE.INTRA.DIHEDRAL.0>
9.37739

>  <SCORE.INTRA.POLAR>
0

>  <SCORE.INTRA.POLAR.0>
0

>  <SCORE.INTRA.REPUL>
0

>  <SCORE.INTRA.REPUL.0>
0

>  <SCORE.INTRA.SOLV>
7.90311

>  <SCORE.INTRA.SOLV.lig_0>
-82.9274

>  <SCORE.INTRA.VDW>
11.6003

>  <SCORE.INTRA.VDW.0>
-3.84922

>  <SCORE.INTRA.norm>
0.648912

>  <SCORE.RESTR>
8.93965

>  <SCORE.RESTR.CAVITY>
8.93965

>  <SCORE.RESTR.norm>
0.288376

>  <SCORE.SYSTEM>
0

>  <SCORE.SYSTEM.CONST>
0

>  <SCORE.SYSTEM.DIHEDRAL>
0

>  <SCORE.SYSTEM.SOLV>
0

>  <SCORE.SYSTEM.norm>
0

>  <SCORE.heavy>
31

>  <SCORE.norm>
0.847377

>  <RMSD>
7.840

$$$$
2o3x_lig
 OpenBabel11021811463D
libRbt.so/2013.1/901 2013/11/27
 31 33  0  0  0  0  0  0  0  0999 V2000
   21.8356    6.2357   12.8647 C   0  0  2  0  0  0  0  0  0  0  0  0
   22.3779    6.3998   11.5477 O   0  0  0  0  0  0  0  0  0  0  0  0
   22.1665    2.6780    9.4497 C   0  0  2  0  0  0  0  0  0  0  0  0
   21.8506    1.6194    8.4654 N   0  0  0  0  0  0  0  0  0  0  0  0
   22.5086    6.7264    7.8880 C   0  0  1  0  0  0  0  0  0  0  0  0
   20.7847    7.3646   13.1088 C   0  0  2  0  0  0  0  0  0  0  0  0
   19.8321    7.4964   11.9770 N   0  0  0  0  0  0  0  0  0  0  0  0
   20.9000    3.1381   10.2458 C   0  0  0  0  0  0  0  0  0  0  0  0
   22.5057    8.2786    7.6961 C   0  0  2  0  0  0  0  0  0  0  0  0
   21.6005    9.0254    8.5547 O   0  0  0  0  0  0  0  0  0  0  0  0
   21.4600    8.7322   13.3248 C   0  0  1  0  0  0  0  0  0  0  0  0
   20.4992    9.7218   13.5926 O   0  0  0  0  0  0  0  0  0  0  0  0
   21.3421    4.2360   11.2810 C   0  0  2  0  0  0  0  0  0  0  0  0
   20.1881    4.7166   12.0987 N   0  0  0  0  0  0  0  0  0  0  0  0
   22.1993    8.3149    6.2082 C   0  0  2  0  0  0  0  0  0  0  0  0
   20.7672    8.1050    5.9581 O   0  0  0  0  0  0  0  0  0  0  0  0
   22.4585    8.6361   14.4661 C   0  0  2  0  0  0  0  0  0  0  0  0
   23.0531    9.8759   14.6782 O   0  0  0  0  0  0  0  0  0  0  0  0
   21.9688    5.4560   10.5475 C   0  0  2  0  0  0  0  0  0  0  0  0
   23.0276    7.1781    5.6211 C   0  0  2  0  0  0  0  0  0  0  0  0
   22.8287    6.1691    6.6074 O   0  0  0  0  0  0  0  0  0  0  0  0
   23.5412    7.5704   14.1348 C   0  0  2  0  0  0  0  0  0  0  0  0
   22.9102    6.2927   13.9020 O   0  0  0  0  0  0  0  0  0  0  0  0
   23.1713    5.0811    9.6589 C   0  0  2  0  0  0  0  0  0  0  0  0
   23.4599    6.2892    8.8709 O   0  0  0  0  0  0  0  0  0  0  0  0
   24.5530    7.4918    5.4526 C   0  0  0  0  0  0  0  0  0  0  0  0
   25.0888    7.9865    6.6766 N   0  0  0  0  0  0  0  0  0  0  0  0
   24.5562    7.4137   15.2432 C   0  0  0  0  0  0  0  0  0  0  0  0
   25.3305    8.5485   15.3869 O   0  0  0  0  0  0  0  0  0  0  0  0
   22.7916    3.8680    8.6996 C   0  0  1  0  0  0  0  0  0  0  0  0
   23.9477    3.3548    8.0205 O   0  0  0  0  0  0  0  0  0  0  0  0
  1  2  1  6  0  0  0
  1  6  1  0  0  0  0
  1 23  1  0  0  0  0
  3  4  1  6  0  0  0
  3  8  1  0  0  0  0
  3 30  1  0  0  0  0
  5  9  1  0  0  0  0
  5 21  1  0  0  0  0
  5 25  1  1  0  0  0
  6  7  1  6  0  0  0
  6 11  1  0  0  0  0
  8 13  1  0  0  0  0
  9 10  1  1  0  0  0
  9 15  1  0  0  0  0
 11 12  1  1  0  0  0
 11 17  1  0  0  0  0
 13 14  1  6  0  0  0
 13 19  1  0  0  0  0
 15 16  1  1  0  0  0
 15 20  1  0  0  0  0
 17 18  1  6  0  0  0
 17 22  1  0  0  0  0
 19  2  1  1  0  0  0
 19 24  1  0  0  0  0
 20 21  1  0  0  0  0
 20 26  1  1  0  0  0
 22 23  1  0  0  0  0
 22 28  1  1  0  0  0
 24 25  1  6  0  0  0
 24 30  1  0  0  0  0
 26 27  1  0  0  0  0
 28 29  1  0  0  0  0
 30 31  1  1  0  0  0
M  END
>  <CHROM.1>
-107.12014687,149.22152351,-16.34479629,51.50720676,-67.01619831,-67.41653971
22.45195574,6.62067391,10.41007392,1.71784310,1.42471150,1.15646995

>  <Name>
2o3x_lig

>  <RI>
0

>  <Rbt.Current_Directory>
/home/itssahil/PROJECTS/Mol_Feturizer/New_Systems/rnas/2o3x

>  <Rbt.Executable>
rbdock ($Id: //depot/dev/client3/rdock/2013.1/src/exe/rbdock.cxx#4 $)

>  <Rbt.Library>
libRbt.so (2013.1, Build901 2013/11/27)

>  <Rbt.Parameter_File>
/export/apps/rDock/src/rDock_2013.1_src/data/scripts/dock_solv.prm

>  <Rbt.Receptor>
prm/blind_docking_40.prm

>  <SCORE>
16.8749

>  <SCORE.INTER>
-4.55469

>  <SCORE.INTER.CONST>
1

>  <SCORE.INTER.POLAR>
-0.00197648

>  <SCORE.INTER.ROT>
6

>  <SCORE.INTER.SOLV>
19.577

>  <SCORE.INTER.VDW>
-17.1556

>  <SCORE.INTER.norm>
-0.146925

>  <SCORE.INTRA>
16.7741

>  <SCORE.INTRA.DIHEDRAL>
7.5329

>  <SCORE.INTRA.DIHEDRAL.0>
9.37739

>  <SCORE.INTRA.POLAR>
0

>  <SCORE.INTRA.POLAR.0>
0

>  <SCORE.INTRA.REPUL>
0

>  <SCORE.INTRA.REPUL.0>
0

>  <SCORE.INTRA.SOLV>
5.63431

>  <SCORE.INTRA.SOLV.lig_0>
-82.9274

>  <SCORE.INTRA.VDW>
10.1905

>  <SCORE.INTRA.VDW.0>
-3.84922

>  <SCORE.INTRA.norm>
0.5411

>  <SCORE.RESTR>
4.65553

>  <SCORE.RESTR.CAVITY>
4.65553

>  <SCORE.RESTR.norm>
0.150178

>  <SCORE.SYSTEM>
0

>  <SCORE.SYSTEM.CONST>
0

>  <SCORE.SYSTEM.DIHEDRAL>
0

>  <SCORE.SYSTEM.SOLV>
0

>  <SCORE.SYSTEM.norm>
0

>  <SCORE.heavy>
31

>  <SCORE.norm>
0.544353

>  <RMSD>
7.916

$$$$
2o3x_lig
 OpenBabel11021811463D
libRbt.so/2013.1/901 2013/11/27
 31 33  0  0  0  0  0  0  0  0999 V2000
   23.3050    6.4409   10.2726 C   0  0  2  0  0  0  0  0  0  0  0  0
   22.0375    7.1010   10.3873 O   0  0  0  0  0  0  0  0  0  0  0  0
   18.8590    7.4984   13.2223 C   0  0  2  0  0  0  0  0  0  0  0  0
   18.0481    7.4657   14.4596 N   0  0  0  0  0  0  0  0  0  0  0  0
   22.9467    8.4993   13.9561 C   0  0  1  0  0  0  0  0  0  0  0  0
   23.8834    6.7289    8.8510 C   0  0  2  0  0  0  0  0  0  0  0  0
   23.8174    8.1709    8.5017 N   0  0  0  0  0  0  0  0  0  0  0  0
   19.1930    6.0616   12.6995 C   0  0  0  0  0  0  0  0  0  0  0  0
   23.6982    7.1278   13.9745 C   0  0  2  0  0  0  0  0  0  0  0  0
   22.8793    5.9555   14.2377 O   0  0  0  0  0  0  0  0  0  0  0  0
   23.1325    5.9400    7.7617 C   0  0  1  0  0  0  0  0  0  0  0  0
   23.7019    6.1751    6.4989 O   0  0  0  0  0  0  0  0  0  0  0  0
   20.0260    6.2023   11.3733 C   0  0  2  0  0  0  0  0  0  0  0  0
   20.3707    4.8681   10.7968 N   0  0  0  0  0  0  0  0  0  0  0  0
   24.7427    7.4643   15.0256 C   0  0  2  0  0  0  0  0  0  0  0  0
   24.1791    7.3731   16.3791 O   0  0  0  0  0  0  0  0  0  0  0  0
   23.1610    4.4570    8.0914 C   0  0  2  0  0  0  0  0  0  0  0  0
   22.5031    3.7400    7.0970 O   0  0  0  0  0  0  0  0  0  0  0  0
   21.3461    6.9808   11.6387 C   0  0  2  0  0  0  0  0  0  0  0  0
   25.1595    8.8947   14.7040 C   0  0  2  0  0  0  0  0  0  0  0  0
   23.8947    9.4770   14.4013 O   0  0  0  0  0  0  0  0  0  0  0  0
   22.4862    4.2073    9.4698 C   0  0  2  0  0  0  0  0  0  0  0  0
   23.1684    4.9684   10.4897 O   0  0  0  0  0  0  0  0  0  0  0  0
   21.1176    8.3788   12.2467 C   0  0  2  0  0  0  0  0  0  0  0  0
   22.4522    8.8452   12.6531 O   0  0  0  0  0  0  0  0  0  0  0  0
   26.1383    9.0395   13.4897 C   0  0  0  0  0  0  0  0  0  0  0  0
   27.4884    8.9506   13.9362 N   0  0  0  0  0  0  0  0  0  0  0  0
   22.5000    2.7487    9.8644 C   0  0  0  0  0  0  0  0  0  0  0  0
   21.6662    1.9970    9.0595 O   0  0  0  0  0  0  0  0  0  0  0  0
   20.1534    8.2802   13.5102 C   0  0  1  0  0  0  0  0  0  0  0  0
   19.7473    9.5807   13.9628 O   0  0  0  0  0  0  0  0  0  0  0  0
  1  2  1  6  0  0  0
  1  6  1  0  0  0  0
  1 23  1  0  0  0  0
  3  4  1  1  0  0  0
  3  8  1  0  0  0  0
  3 30  1  0  0  0  0
  5  9  1  0  0  0  0
  5 21  1  0  0  0  0
  5 25  1  6  0  0  0
  6  7  1  6  0  0  0
  6 11  1  0  0  0  0
  8 13  1  0  0  0  0
  9 10  1  1  0  0  0
  9 15  1  0  0  0  0
 11 12  1  6  0  0  0
 11 17  1  0  0  0  0
 13 14  1  1  0  0  0
 13 19  1  0  0  0  0
 15 16  1  1  0  0  0
 15 20  1  0  0  0  0
 17 18  1  6  0  0  0
 17 22  1  0  0  0  0
 19  2  1  6  0  0  0
 19 24  1  0  0  0  0
 20 21  1  0  0  0  0
 20 26  1  6  0  0  0
 22 23  1  0  0  0  0
 22 28  1  1  0  0  0
 24 25  1  1  0  0  0
 24 30  1  0  0  0  0
 26 27  1  0  0  0  0
 28 29  1  0  0  0  0
 30 31  1  6  0  0  0
M  END
>  <CHROM.1>
-178.85156658,88.04925641,-115.73462381,-89.31376380,-69.00636293,-87.33726381
22.51742237,6.74543458,11.70100369,-1.65888467,0.21002365,1.01982442

>  <Name>
2o3x_lig

>  <RI>
0

>  <Rbt.Current_Directory>
/home/itssahil/PROJECTS/Mol_Feturizer/New_Systems/rnas/2o3x

>  <Rbt.Executable>
rbdock ($Id: //depot/dev/client3/rdock/2013.1/src/exe/rbdock.cxx#4 $)

>  <Rbt.Library>
libRbt.so (2013.1, Build901 2013/11/27)

>  <Rbt.Parameter_File>
/export/apps/rDock/src/rDock_2013.1_src/data/scripts/dock_solv.prm

>  <Rbt.Receptor>
prm/blind_docking_40.prm

>  <SCORE>
12.8333

>  <SCORE.INTER>
-1.50612

>  <SCORE.INTER.CONST>
1

>  <SCORE.INTER.POLAR>
-0.286796

>  <SCORE.INTER.ROT>
6

>  <SCORE.INTER.SOLV>
24.3459

>  <SCORE.INTER.VDW>
-15.7634

>  <SCORE.INTER.norm>
-0.0485844

>  <SCORE.INTRA>
5.86711

>  <SCORE.INTRA.DIHEDRAL>
6.91655

>  <SCORE.INTRA.DIHEDRAL.0>
9.37739

>  <SCORE.INTRA.POLAR>
0

>  <SCORE.INTRA.POLAR.0>
0

>  <SCORE.INTRA.REPUL>
0

>  <SCORE.INTRA.REPUL.0>
0

>  <SCORE.INTRA.SOLV>
1.53976

>  <SCORE.INTRA.SOLV.lig_0>
-82.9274

>  <SCORE.INTRA.VDW>
1.63896

>  <SCORE.INTRA.VDW.0>
-3.84922

>  <SCORE.INTRA.norm>
0.189262

>  <SCORE.RESTR>
8.47226

>  <SCORE.RESTR.CAVITY>
8.47226

>  <SCORE.RESTR.norm>
0.273299

>  <SCORE.SYSTEM>
0

>  <SCORE.SYSTEM.CONST>
0

>  <SCORE.SYSTEM.DIHEDRAL>
0

>  <SCORE.SYSTEM.SOLV>
0

>  <SCORE.SYSTEM.norm>
0

>  <SCORE.heavy>
31

>  <SCORE.norm>
0.413976

>  <RMSD>
7.919

$$$$
2o3x_lig
 OpenBabel11021811463D
libRbt.so/2013.1/901 2013/11/27
 31 33  0  0  0  0  0  0  0  0999 V2000
   23.2996    7.5537   11.0480 C   0  0  2  0  0  0  0  0  0  0  0  0
   23.3720    6.1230   11.1057 O   0  0  0  0  0  0  0  0  0  0  0  0
   21.0783    2.7519    9.8122 C   0  0  2  0  0  0  0  0  0  0  0  0
   20.1272    1.8720    9.0976 N   0  0  0  0  0  0  0  0  0  0  0  0
   23.0347    6.3425    7.8709 C   0  0  1  0  0  0  0  0  0  0  0  0
   24.5631    8.1397   11.7540 C   0  0  2  0  0  0  0  0  0  0  0  0
   25.8151    7.4885   11.2912 N   0  0  0  0  0  0  0  0  0  0  0  0
   20.3461    3.8528   10.6496 C   0  0  0  0  0  0  0  0  0  0  0  0
   23.9870    7.5446    7.5640 C   0  0  2  0  0  0  0  0  0  0  0  0
   24.2081    8.4780    8.6568 O   0  0  0  0  0  0  0  0  0  0  0  0
   24.4824    7.9834   13.2843 C   0  0  1  0  0  0  0  0  0  0  0  0
   25.6045    8.5623   13.9008 O   0  0  0  0  0  0  0  0  0  0  0  0
   21.4346    4.7118   11.3909 C   0  0  2  0  0  0  0  0  0  0  0  0
   20.8136    5.7789   12.2318 N   0  0  0  0  0  0  0  0  0  0  0  0
   23.2592    8.0964    6.3496 C   0  0  2  0  0  0  0  0  0  0  0  0
   22.0930    8.8948    6.7498 O   0  0  0  0  0  0  0  0  0  0  0  0
   23.2032    8.6225   13.7980 C   0  0  2  0  0  0  0  0  0  0  0  0
   23.1392    8.5028   15.1826 O   0  0  0  0  0  0  0  0  0  0  0  0
   22.3892    5.3860   10.3645 C   0  0  2  0  0  0  0  0  0  0  0  0
   22.8310    6.8599    5.5680 C   0  0  2  0  0  0  0  0  0  0  0  0
   22.4004    6.0122    6.6293 O   0  0  0  0  0  0  0  0  0  0  0  0
   21.9694    7.9405   13.1420 C   0  0  2  0  0  0  0  0  0  0  0  0
   22.0557    8.0582   11.7055 O   0  0  0  0  0  0  0  0  0  0  0  0
   23.0864    4.3793    9.4281 C   0  0  2  0  0  0  0  0  0  0  0  0
   23.7313    5.1998    8.3915 O   0  0  0  0  0  0  0  0  0  0  0  0
   23.9713    6.1738    4.7419 C   0  0  0  0  0  0  0  0  0  0  0  0
   24.2882    6.9612    3.5976 N   0  0  0  0  0  0  0  0  0  0  0  0
   20.6628    8.5463   13.5993 C   0  0  0  0  0  0  0  0  0  0  0  0
   20.5202    9.8446   13.1497 O   0  0  0  0  0  0  0  0  0  0  0  0
   22.0145    3.3988    8.7756 C   0  0  1  0  0  0  0  0  0  0  0  0
   22.6499    2.3183    8.0757 O   0  0  0  0  0  0  0  0  0  0  0  0
  1  2  1  1  0  0  0
  1  6  1  0  0  0  0
  1 23  1  0  0  0  0
  3  4  1  6  0  0  0
  3  8  1  0  0  0  0
  3 30  1  0  0  0  0
  5  9  1  0  0  0  0
  5 21  1  0  0  0  0
  5 25  1  6  0  0  0
  6  7  1  6  0  0  0
  6 11  1  0  0  0  0
  8 13  1  0  0  0  0
  9 10  1  1  0  0  0
  9 15  1  0  0  0  0
 11 12  1  1  0  0  0
 11 17  1  0  0  0  0
 13 14  1  6  0  0  0
 13 19  1  0  0  0  0
 15 16  1  1  0  0  0
 15 20  1  0  0  0  0
 17 18  1  1  0  0  0
 17 22  1  0  0  0  0
 19  2  1  1  0  0  0
 19 24  1  0  0  0  0
 20 21  1  0  0  0  0
 20 26  1  1  0  0  0
 22 23  1  0  0  0  0
 22 28  1  1  0  0  0
 24 25  1  6  0  0  0
 24 30  1  0  0  0  0
 26 27  1  0  0  0  0
 28 29  1  0  0  0  0
 30 31  1  1  0  0  0
M  END
>  <CHROM.1>
-172.33807276,143.26452291,-109.99859219,-73.37547154,67.14805525,-39.93642312
22.79293033,6.56243294,9.98090056,-1.58710192,-1.06698318,-1.95172245

>  <Name>
2o3x_lig

>  <RI>
0

>  <Rbt.Current_Directory>
/home/itssahil/PROJECTS/Mol_Feturizer/New_Systems/rnas/2o3x

>  <Rbt.Executable>
rbdock ($Id: //depot/dev/client3/rdock/2013.1/src/exe/rbdock.cxx#4 $)

>  <Rbt.Library>
libRbt.so (2013.1, Build901 2013/11/27)

>  <Rbt.Parameter_File>
/export/apps/rDock/src/rDock_2013.1_src/data/scripts/dock_solv.prm

>  <Rbt.Receptor>
prm/blind_docking_40.prm

>  <SCORE>
8.23473

>  <SCORE.INTER>
-2.62204

>  <SCORE.INTER.CONST>
1

>  <SCORE.INTER.POLAR>
-0.334396

>  <SCORE.INTER.ROT>
6

>  <SCORE.INTER.SOLV>
24.5038

>  <SCORE.INTER.VDW>
-16.4013

>  <SCORE.INTER.norm>
-0.084582

>  <SCORE.INTRA>
6.62701

>  <SCORE.INTRA.DIHEDRAL>
5.17309

>  <SCORE.INTRA.DIHEDRAL.0>
9.37739

>  <SCORE.INTRA.POLAR>
0

>  <SCORE.INTRA.POLAR.0>
0

>  <SCORE.INTRA.REPUL>
0

>  <SCORE.INTRA.REPUL.0>
0

>  <SCORE.INTRA.SOLV>
2.75351

>  <SCORE.INTRA.SOLV.lig_0>
-82.9274

>  <SCORE.INTRA.VDW>
2.66371

>  <SCORE.INTRA.VDW.0>
-3.84922

>  <SCORE.INTRA.norm>
0.213775

>  <SCORE.RESTR>
4.22976

>  <SCORE.RESTR.CAVITY>
4.22976

>  <SCORE.RESTR.norm>
0.136444

>  <SCORE.SYSTEM>
0

>  <SCORE.SYSTEM.CONST>
0

>  <SCORE.SYSTEM.DIHEDRAL>
0

>  <SCORE.SYSTEM.SOLV>
0

>  <SCORE.SYSTEM.norm>
0

>  <SCORE.heavy>
31

>  <SCORE.norm>
0.265636

>  <RMSD>
7.927

$$$$
2o3x_lig
 OpenBabel11021811463D
libRbt.so/2013.1/901 2013/11/27
 31 33  0  0  0  0  0  0  0  0999 V2000
   18.9639    7.6080   11.0889 C   0  0  2  0  0  0  0  0  0  0  0  0
   18.4071    8.6783   11.8636 O   0  0  0  0  0  0  0  0  0  0  0  0
   19.4122   12.8289   12.1086 C   0  0  2  0  0  0  0  0  0  0  0  0
   20.1461   14.1056   12.2532 N   0  0  0  0  0  0  0  0  0  0  0  0
   20.3185   10.0613    8.4773 C   0  0  1  0  0  0  0  0  0  0  0  0
   18.0782    6.3385   11.2947 C   0  0  2  0  0  0  0  0  0  0  0  0
   16.6316    6.6334   11.1328 N   0  0  0  0  0  0  0  0  0  0  0  0
   19.4014   12.0026   13.4377 C   0  0  0  0  0  0  0  0  0  0  0  0
   20.8519    8.8554    7.6362 C   0  0  2  0  0  0  0  0  0  0  0  0
   22.2959    8.7701    7.4887 O   0  0  0  0  0  0  0  0  0  0  0  0
   18.2853    5.7218   12.6910 C   0  0  1  0  0  0  0  0  0  0  0  0
   17.5178    4.5536   12.8349 O   0  0  0  0  0  0  0  0  0  0  0  0
   18.5769   10.6866   13.1917 C   0  0  2  0  0  0  0  0  0  0  0  0
   18.5024    9.8463   14.4245 N   0  0  0  0  0  0  0  0  0  0  0  0
   20.0629    9.1102    6.3628 C   0  0  2  0  0  0  0  0  0  0  0  0
   20.6839   10.1719    5.5597 O   0  0  0  0  0  0  0  0  0  0  0  0
   19.7592    5.4207   12.9048 C   0  0  2  0  0  0  0  0  0  0  0  0
   19.9457    4.8423   14.1563 O   0  0  0  0  0  0  0  0  0  0  0  0
   19.2240    9.8417   12.0574 C   0  0  2  0  0  0  0  0  0  0  0  0
   18.6812    9.5319    6.8489 C   0  0  2  0  0  0  0  0  0  0  0  0
   19.0319   10.3843    7.9356 O   0  0  0  0  0  0  0  0  0  0  0  0
   20.5899    6.7298   12.7886 C   0  0  2  0  0  0  0  0  0  0  0  0
   20.3757    7.3278   11.4919 O   0  0  0  0  0  0  0  0  0  0  0  0
   19.3635   10.6105   10.7286 C   0  0  2  0  0  0  0  0  0  0  0  0
   20.2056    9.7572    9.8761 O   0  0  0  0  0  0  0  0  0  0  0  0
   17.7682    8.3582    7.3409 C   0  0  0  0  0  0  0  0  0  0  0  0
   16.4683    8.8487    7.6566 N   0  0  0  0  0  0  0  0  0  0  0  0
   22.0709    6.4930   12.9732 C   0  0  0  0  0  0  0  0  0  0  0  0
   22.7757    7.6807   12.9986 O   0  0  0  0  0  0  0  0  0  0  0  0
   20.0671   12.0174   10.9763 C   0  0  1  0  0  0  0  0  0  0  0  0
   20.0134   12.8443    9.8039 O   0  0  0  0  0  0  0  0  0  0  0  0
  1  2  1  1  0  0  0
  1  6  1  0  0  0  0
  1 23  1  0  0  0  0
  3  4  1  1  0  0  0
  3  8  1  0  0  0  0
  3 30  1  0  0  0  0
  5  9  1  0  0  0  0
  5 21  1  0  0  0  0
  5 25  1  1  0  0  0
  6  7  1  1  0  0  0
  6 11  1  0  0  0  0
  8 13  1  0  0  0  0
  9 10  1  6  0  0  0
  9 15  1  0  0  0  0
 11 12  1  6  0  0  0
 11 17  1  0  0  0  0
 13 14  1  1  0  0  0
 13 19  1  0  0  0  0
 15 16  1  1  0  0  0
 15 20  1  0  0  0  0
 17 18  1  1  0  0  0
 17 22  1  0  0  0  0
 19  2  1  6  0  0  0
 19 24  1  0  0  0  0
 20 21  1  0  0  0  0
 20 26  1  1  0  0  0
 22 23  1  0  0  0  0
 22 28  1  6  0  0  0
 24 25  1  6  0  0  0
 24 30  1  0  0  0  0
 26 27  1  0  0  0  0
 28 29  1  0  0  0  0
 30 31  1  6  0  0  0
M  END
>  <CHROM.1>
166.36157667,-161.91855910,-166.09672137,-174.81064082,-174.03378287,168.10034286
19.52929192,8.90444031,10.70974370,2.13890675,1.44636097,1.71636161

>  <Name>
2o3x_lig

>  <RI>
0

>  <Rbt.Current_Directory>
/home/itssahil/PROJECTS/Mol_Feturizer/New_Systems/rnas/2o3x

>  <Rbt.Executable>
rbdock ($Id: //depot/dev/client3/rdock/2013.1/src/exe/rbdock.cxx#4 $)

>  <Rbt.Library>
libRbt.so (2013.1, Build901 2013/11/27)

>  <Rbt.Parameter_File>
/export/apps/rDock/src/rDock_2013.1_src/data/scripts/dock_solv.prm

>  <Rbt.Receptor>
prm/pocket_docking_5.prm

>  <SCORE>
-16.2456

>  <SCORE.INTER>
-14.5028

>  <SCORE.INTER.CONST>
1

>  <SCORE.INTER.POLAR>
-1.85747

>  <SCORE.INTER.ROT>
6

>  <SCORE.INTER.SOLV>
13.4526

>  <SCORE.INTER.VDW>
-15.5612

>  <SCORE.INTER.norm>
-0.467834

>  <SCORE.INTRA>
-2.94666

>  <SCORE.INTRA.DIHEDRAL>
-5.03269

>  <SCORE.INTRA.DIHEDRAL.0>
9.37739

>  <SCORE.INTRA.POLAR>
0

>  <SCORE.INTRA.POLAR.0>
0

>  <SCORE.INTRA.REPUL>
0

>  <SCORE.INTRA.REPUL.0>
0

>  <SCORE.INTRA.SOLV>
-2.187

>  <SCORE.INTRA.SOLV.lig_0>
-82.9274

>  <SCORE.INTRA.VDW>
0.663183

>  <SCORE.INTRA.VDW.0>
-3.84922

>  <SCORE.INTRA.norm>
-0.0950536

>  <SCORE.RESTR>
1.20395

>  <SCORE.RESTR.CAVITY>
1.20395

>  <SCORE.RESTR.norm>
0.038837

>  <SCORE.SYSTEM>
0

>  <SCORE.SYSTEM.CONST>
0

>  <SCORE.SYSTEM.DIHEDRAL>
0

>  <SCORE.SYSTEM.SOLV>
0

>  <SCORE.SYSTEM.norm>
0

>  <SCORE.heavy>
31

>  <SCORE.norm>
-0.52405

>  <RMSD>
7.979

$$$$
2o3x_lig
 OpenBabel11021811463D
libRbt.so/2013.1/901 2013/11/27
 31 33  0  0  0  0  0  0  0  0999 V2000
   17.6122   11.5095   12.1680 C   0  0  2  0  0  0  0  0  0  0  0  0
   17.8831   10.2007   12.6868 O   0  0  0  0  0  0  0  0  0  0  0  0
   16.0085    6.4104   12.0407 C   0  0  2  0  0  0  0  0  0  0  0  0
   15.4546    5.1889   11.4157 N   0  0  0  0  0  0  0  0  0  0  0  0
   20.7012    7.7592   12.2826 C   0  0  1  0  0  0  0  0  0  0  0  0
   18.4865   11.7242   10.8921 C   0  0  2  0  0  0  0  0  0  0  0  0
   18.4013   10.5747    9.9556 N   0  0  0  0  0  0  0  0  0  0  0  0
   15.2163    7.6948   11.6255 C   0  0  0  0  0  0  0  0  0  0  0  0
   20.9254    6.2217   12.4615 C   0  0  2  0  0  0  0  0  0  0  0  0
   20.3636    5.6313   13.6658 O   0  0  0  0  0  0  0  0  0  0  0  0
   19.9694   11.9389   11.2493 C   0  0  1  0  0  0  0  0  0  0  0  0
   20.7275   12.1803   10.0911 O   0  0  0  0  0  0  0  0  0  0  0  0
   15.8586    8.9275   12.3604 C   0  0  2  0  0  0  0  0  0  0  0  0
   15.1443   10.1972   12.0305 N   0  0  0  0  0  0  0  0  0  0  0  0
   22.4410    6.2071   12.3533 C   0  0  2  0  0  0  0  0  0  0  0  0
   23.0652    6.6230   13.6163 O   0  0  0  0  0  0  0  0  0  0  0  0
   20.0994   13.0984   12.2226 C   0  0  2  0  0  0  0  0  0  0  0  0
   21.4402   13.3090   12.5289 O   0  0  0  0  0  0  0  0  0  0  0  0
   17.3531    9.0838   11.9588 C   0  0  2  0  0  0  0  0  0  0  0  0
   22.7526    7.1989   11.2386 C   0  0  2  0  0  0  0  0  0  0  0  0
   21.8325    8.2420   11.5479 O   0  0  0  0  0  0  0  0  0  0  0  0
   19.2934   12.7965   13.5175 C   0  0  2  0  0  0  0  0  0  0  0  0
   17.9077   12.5648   13.1843 O   0  0  0  0  0  0  0  0  0  0  0  0
   18.1959    7.8251   12.2448 C   0  0  2  0  0  0  0  0  0  0  0  0
   19.4864    8.0663   11.5812 O   0  0  0  0  0  0  0  0  0  0  0  0
   22.5085    6.6597    9.7884 C   0  0  0  0  0  0  0  0  0  0  0  0
   22.9211    7.6297    8.8299 N   0  0  0  0  0  0  0  0  0  0  0  0
   19.3676   13.9239   14.5208 C   0  0  0  0  0  0  0  0  0  0  0  0
   19.0006   15.1303   13.9570 O   0  0  0  0  0  0  0  0  0  0  0  0
   17.4878    6.5362   11.6341 C   0  0  1  0  0  0  0  0  0  0  0  0
   18.1303    5.3287   12.0700 O   0  0  0  0  0  0  0  0  0  0  0  0
  1  2  1  1  0  0  0
  1  6  1  0  0  0  0
  1 23  1  0  0  0  0
  3  4  1  6  0  0  0
  3  8  1  0  0  0  0
  3 30  1  0  0  0  0
  5  9  1  0  0  0  0
  5 21  1  0  0  0  0
  5 25  1  6  0  0  0
  6  7  1  6  0  0  0
  6 11  1  0  0  0  0
  8 13  1  0  0  0  0
  9 10  1  1  0  0  0
  9 15  1  0  0  0  0
 11 12  1  6  0  0  0
 11 17  1  0  0  0  0
 13 14  1  6  0  0  0
 13 19  1  0  0  0  0
 15 16  1  1  0  0  0
 15 20  1  0  0  0  0
 17 18  1  1  0  0  0
 17 22  1  0  0  0  0
 19  2  1  1  0  0  0
 19 24  1  0  0  0  0
 20 21  1  0  0  0  0
 20 26  1  6  0  0  0
 22 23  1  0  0  0  0
 22 28  1  1  0  0  0
 24 25  1  6  0  0  0
 24 30  1  0  0  0  0
 26 27  1  0  0  0  0
 28 29  1  0  0  0  0
 30 31  1  1  0  0  0
M  END
>  <CHROM.1>
-73.13146373,69.99239197,-80.86480201,-175.84268853,53.38947718,135.39763997
19.26564402,9.26503703,12.01199880,1.70660966,0.08267486,0.12164332

>  <Name>
2o3x_lig

>  <RI>
0

>  <Rbt.Current_Directory>
/home/itssahil/PROJECTS/Mol_Feturizer/New_Systems/rnas/2o3x

>  <Rbt.Executable>
rbdock ($Id: //depot/dev/client3/rdock/2013.1/src/exe/rbdock.cxx#4 $)

>  <Rbt.Library>
libRbt.so (2013.1, Build901 2013/11/27)

>  <Rbt.Parameter_File>
/export/apps/rDock/src/rDock_2013.1_src/data/scripts/dock_solv.prm

>  <Rbt.Receptor>
prm/pocket_docking_8.prm

>  <SCORE>
-9.135

>  <SCORE.INTER>
-11.6674

>  <SCORE.INTER.CONST>
1

>  <SCORE.INTER.POLAR>
-1.40644

>  <SCORE.INTER.ROT>
6

>  <SCORE.INTER.SOLV>
11.0263

>  <SCORE.INTER.VDW>
-14.3656

>  <SCORE.INTER.norm>
-0.376368

>  <SCORE.INTRA>
2.50205

>  <SCORE.INTRA.DIHEDRAL>
0.312764

>  <SCORE.INTRA.DIHEDRAL.0>
9.37739

>  <SCORE.INTRA.POLAR>
0

>  <SCORE.INTRA.POLAR.0>
0

>  <SCORE.INTRA.REPUL>
0

>  <SCORE.INTRA.REPUL.0>
0

>  <SCORE.INTRA.SOLV>
2.20578

>  <SCORE.INTRA.SOLV.lig_0>
-82.9274

>  <SCORE.INTRA.VDW>
1.24278

>  <SCORE.INTRA.VDW.0>
-3.84922

>  <SCORE.INTRA.norm>
0.0807114

>  <SCORE.RESTR>
0.0303415

>  <SCORE.RESTR.CAVITY>
0.0303415

>  <SCORE.RESTR.norm>
0.00097876

>  <SCORE.SYSTEM>
0

>  <SCORE.SYSTEM.CONST>
0

>  <SCORE.SYSTEM.DIHEDRAL>
0

>  <SCORE.SYSTEM.SOLV>
0

>  <SCORE.SYSTEM.norm>
0

>  <SCORE.heavy>
31

>  <SCORE.norm>
-0.294677

>  <RMSD>
7.980

$$$$
2o3x_lig
 OpenBabel11021811463D
libRbt.so/2013.1/901 2013/11/27
 31 33  0  0  0  0  0  0  0  0999 V2000
   18.8599    7.8887   11.0379 C   0  0  2  0  0  0  0  0  0  0  0  0
   18.4420    8.9775   11.8718 O   0  0  0  0  0  0  0  0  0  0  0  0
   18.8671   13.2138   11.4586 C   0  0  2  0  0  0  0  0  0  0  0  0
   19.4163   14.5713   11.2463 N   0  0  0  0  0  0  0  0  0  0  0  0
   18.8014   10.0962    7.9581 C   0  0  1  0  0  0  0  0  0  0  0  0
   17.9627    6.6511   11.3575 C   0  0  2  0  0  0  0  0  0  0  0  0
   16.5185    6.9970   11.3762 N   0  0  0  0  0  0  0  0  0  0  0  0
   19.4276   12.5493   12.7600 C   0  0  0  0  0  0  0  0  0  0  0  0
   19.7121    9.3326    6.9413 C   0  0  2  0  0  0  0  0  0  0  0  0
   20.7932   10.1041    6.3496 O   0  0  0  0  0  0  0  0  0  0  0  0
   18.3207    6.0266   12.7194 C   0  0  1  0  0  0  0  0  0  0  0  0
   17.5366    4.8862   12.9624 O   0  0  0  0  0  0  0  0  0  0  0  0
   18.7654   11.1313   12.9123 C   0  0  2  0  0  0  0  0  0  0  0  0
   19.2358   10.4349   14.1472 N   0  0  0  0  0  0  0  0  0  0  0  0
   18.6276    8.8597    5.9879 C   0  0  2  0  0  0  0  0  0  0  0  0
   18.2161    9.9377    5.0788 O   0  0  0  0  0  0  0  0  0  0  0  0
   19.7983    5.6736   12.7487 C   0  0  2  0  0  0  0  0  0  0  0  0
   20.1192    5.0882   13.9694 O   0  0  0  0  0  0  0  0  0  0  0  0
   19.1012   10.2379   11.6842 C   0  0  2  0  0  0  0  0  0  0  0  0
   17.4767    8.4438    6.8964 C   0  0  2  0  0  0  0  0  0  0  0  0
   17.5042    9.4961    7.8567 O   0  0  0  0  0  0  0  0  0  0  0  0
   20.6535    6.9526   12.5247 C   0  0  2  0  0  0  0  0  0  0  0  0
   20.3002    7.5585   11.2626 O   0  0  0  0  0  0  0  0  0  0  0  0
   18.6687   10.8599   10.3416 C   0  0  2  0  0  0  0  0  0  0  0  0
   19.2828   10.0119    9.3083 O   0  0  0  0  0  0  0  0  0  0  0  0
   17.6572    7.0539    7.5957 C   0  0  0  0  0  0  0  0  0  0  0  0
   17.6922    6.0162    6.6201 N   0  0  0  0  0  0  0  0  0  0  0  0
   22.1367    6.6636   12.5241 C   0  0  0  0  0  0  0  0  0  0  0  0
   22.8784    7.8154   12.3479 O   0  0  0  0  0  0  0  0  0  0  0  0
   19.2061   12.3545   10.2273 C   0  0  1  0  0  0  0  0  0  0  0  0
   18.6390   13.0305    9.0948 O   0  0  0  0  0  0  0  0  0  0  0  0
  1  2  1  1  0  0  0
  1  6  1  0  0  0  0
  1 23  1  0  0  0  0
  3  4  1  6  0  0  0
  3  8  1  0  0  0  0
  3 30  1  0  0  0  0
  5  9  1  0  0  0  0
  5 21  1  0  0  0  0
  5 25  1  1  0  0  0
  6  7  1  1  0  0  0
  6 11  1  0  0  0  0
  8 13  1  0  0  0  0
  9 10  1  6  0  0  0
  9 15  1  0  0  0  0
 11 12  1  6  0  0  0
 11 17  1  0  0  0  0
 13 14  1  1  0  0  0
 13 19  1  0  0  0  0
 15 16  1  6  0  0  0
 15 20  1  0  0  0  0
 17 18  1  1  0  0  0
 17 22  1  0  0  0  0
 19  2  1  1  0  0  0
 19 24  1  0  0  0  0
 20 21  1  0  0  0  0
 20 26  1  1  0  0  0
 22 23  1  0  0  0  0
 22 28  1  6  0  0  0
 24 25  1  6  0  0  0
 24 30  1  0  0  0  0
 26 27  1  0  0  0  0
 28 29  1  0  0  0  0
 30 31  1  6  0  0  0
M  END
>  <CHROM.1>
-176.92615577,169.78926009,-165.35692337,-64.05495051,-178.91375618,163.69200326
19.07097930,8.97937896,10.34505104,0.90693635,1.35126631,2.88140284

>  <Name>
2o3x_lig

>  <RI>
0

>  <Rbt.Current_Directory>
/home/itssahil/PROJECTS/Mol_Feturizer/New_Systems/rnas/2o3x

>  <Rbt.Executable>
rbdock ($Id: //depot/dev/client3/rdock/2013.1/src/exe/rbdock.cxx#4 $)

>  <Rbt.Library>
libRbt.so (2013.1, Build901 2013/11/27)

>  <Rbt.Parameter_File>
/export/apps/rDock/src/rDock_2013.1_src/data/scripts/dock_solv.prm

>  <Rbt.Receptor>
prm/pocket_docking_8.prm

>  <SCORE>
-11.859

>  <SCORE.INTER>
-7.95779

>  <SCORE.INTER.CONST>
1

>  <SCORE.INTER.POLAR>
-1.17496

>  <SCORE.INTER.ROT>
6

>  <SCORE.INTER.SOLV>
13.2837

>  <SCORE.INTER.VDW>
-13.4166

>  <SCORE.INTER.norm>
-0.256703

>  <SCORE.INTRA>
-3.90121

>  <SCORE.INTRA.DIHEDRAL>
-6.34605

>  <SCORE.INTRA.DIHEDRAL.0>
9.37739

>  <SCORE.INTRA.POLAR>
0

>  <SCORE.INTRA.POLAR.0>
0

>  <SCORE.INTRA.REPUL>
0

>  <SCORE.INTRA.REPUL.0>
0

>  <SCORE.INTRA.SOLV>
-2.41333

>  <SCORE.INTRA.SOLV.lig_0>
-82.9274

>  <SCORE.INTRA.VDW>
0.478479

>  <SCORE.INTRA.VDW.0>
-3.84922

>  <SCORE.INTRA.norm>
-0.125846

>  <SCORE.RESTR>
0

>  <SCORE.RESTR.CAVITY>
0

>  <SCORE.RESTR.norm>
0

>  <SCORE.SYSTEM>
0

>  <SCORE.SYSTEM.CONST>
0

>  <SCORE.SYSTEM.DIHEDRAL>
0

>  <SCORE.SYSTEM.SOLV>
0

>  <SCORE.SYSTEM.norm>
0

>  <SCORE.heavy>
31

>  <SCORE.norm>
-0.382548

>  <RMSD>
7.988

$$$$
2o3x_lig
 OpenBabel11021811463D
libRbt.so/2013.1/901 2013/11/27
 31 33  0  0  0  0  0  0  0  0999 V2000
   23.2998    5.9677   10.3930 C   0  0  2  0  0  0  0  0  0  0  0  0
   22.4924    7.1484   10.2961 O   0  0  0  0  0  0  0  0  0  0  0  0
   20.2730    9.5283   13.0726 C   0  0  2  0  0  0  0  0  0  0  0  0
   19.4264    9.9728   14.2018 N   0  0  0  0  0  0  0  0  0  0  0  0
   24.7469    7.3696   13.0395 C   0  0  1  0  0  0  0  0  0  0  0  0
   23.9687    5.7132    9.0051 C   0  0  2  0  0  0  0  0  0  0  0  0
   24.5968    6.9407    8.4533 N   0  0  0  0  0  0  0  0  0  0  0  0
   19.4669    8.6849   12.0293 C   0  0  0  0  0  0  0  0  0  0  0  0
   25.1335    8.7006   12.3149 C   0  0  2  0  0  0  0  0  0  0  0  0
   25.3697    8.6021   10.8836 O   0  0  0  0  0  0  0  0  0  0  0  0
   22.9520    5.1925    7.9716 C   0  0  1  0  0  0  0  0  0  0  0  0
   23.5854    4.9226    6.7467 O   0  0  0  0  0  0  0  0  0  0  0  0
   20.4407    8.2880   10.8603 C   0  0  2  0  0  0  0  0  0  0  0  0
   19.7401    7.4928    9.8076 N   0  0  0  0  0  0  0  0  0  0  0  0
   26.3350    9.0732   13.1674 C   0  0  2  0  0  0  0  0  0  0  0  0
   27.5232    8.3063   12.7702 O   0  0  0  0  0  0  0  0  0  0  0  0
   22.2718    3.9434    8.5063 C   0  0  2  0  0  0  0  0  0  0  0  0
   21.3696    3.4580    7.5649 O   0  0  0  0  0  0  0  0  0  0  0  0
   21.6306    7.4466   11.4038 C   0  0  2  0  0  0  0  0  0  0  0  0
   25.9138    8.7275   14.5908 C   0  0  2  0  0  0  0  0  0  0  0  0
   25.2504    7.4848   14.3759 O   0  0  0  0  0  0  0  0  0  0  0  0
   21.5367    4.2687    9.8373 C   0  0  2  0  0  0  0  0  0  0  0  0
   22.4807    4.7855   10.7999 O   0  0  0  0  0  0  0  0  0  0  0  0
   22.4294    8.1640   12.5099 C   0  0  2  0  0  0  0  0  0  0  0  0
   23.3296    7.1396   13.0615 O   0  0  0  0  0  0  0  0  0  0  0  0
   24.9464    9.7605   15.2620 C   0  0  0  0  0  0  0  0  0  0  0  0
   24.4962    9.2639   16.5192 N   0  0  0  0  0  0  0  0  0  0  0  0
   20.8539    3.0586   10.4312 C   0  0  0  0  0  0  0  0  0  0  0  0
   21.7627    2.0691   10.7521 O   0  0  0  0  0  0  0  0  0  0  0  0
   21.4450    8.7062   13.6382 C   0  0  1  0  0  0  0  0  0  0  0  0
   22.1299    9.5637   14.5638 O   0  0  0  0  0  0  0  0  0  0  0  0
  1  2  1  6  0  0  0
  1  6  1  0  0  0  0
  1 23  1  0  0  0  0
  3  4  1  1  0  0  0
  3  8  1  0  0  0  0
  3 30  1  0  0  0  0
  5  9  1  0  0  0  0
  5 21  1  0  0  0  0
  5 25  1  1  0  0  0
  6  7  1  6  0  0  0
  6 11  1  0  0  0  0
  8 13  1  0  0  0  0
  9 10  1  6  0  0  0
  9 15  1  0  0  0  0
 11 12  1  6  0  0  0
 11 17  1  0  0  0  0
 13 14  1  6  0  0  0
 13 19  1  0  0  0  0
 15 16  1  6  0  0  0
 15 20  1  0  0  0  0
 17 18  1  6  0  0  0
 17 22  1  0  0  0  0
 19  2  1  6  0  0  0
 19 24  1  0  0  0  0
 20 21  1  0  0  0  0
 20 26  1  6  0  0  0
 22 23  1  0  0  0  0
 22 28  1  1  0  0  0
 24 25  1  1  0  0  0
 24 30  1  0  0  0  0
 26 27  1  0  0  0  0
 28 29  1  0  0  0  0
 30 31  1  1  0  0  0
M  END
>  <CHROM.1>
170.81122363,-3.77815264,-153.97748828,173.21283561,62.05205510,122.05260575
22.96560216,7.05085159,11.56138141,-1.84858061,-0.02246890,0.85498691

>  <Name>
2o3x_lig

>  <RI>
0

>  <Rbt.Current_Directory>
/home/itssahil/PROJECTS/Mol_Feturizer/New_Systems/rnas/2o3x

>  <Rbt.Executable>
rbdock ($Id: //depot/dev/client3/rdock/2013.1/src/exe/rbdock.cxx#4 $)

>  <Rbt.Library>
libRbt.so (2013.1, Build901 2013/11/27)

>  <Rbt.Parameter_File>
/export/apps/rDock/src/rDock_2013.1_src/data/scripts/dock_solv.prm

>  <Rbt.Receptor>
prm/blind_docking_40.prm

>  <SCORE>
7.35301

>  <SCORE.INTER>
-4.73069

>  <SCORE.INTER.CONST>
1

>  <SCORE.INTER.POLAR>
-0.0988369

>  <SCORE.INTER.ROT>
6

>  <SCORE.INTER.SOLV>
22.8128

>  <SCORE.INTER.VDW>
-18.0286

>  <SCORE.INTER.norm>
-0.152603

>  <SCORE.INTRA>
5.71308

>  <SCORE.INTRA.DIHEDRAL>
8.50832

>  <SCORE.INTRA.DIHEDRAL.0>
9.37739

>  <SCORE.INTRA.POLAR>
0

>  <SCORE.INTRA.POLAR.0>
0

>  <SCORE.INTRA.REPUL>
0

>  <SCORE.INTRA.REPUL.0>
0

>  <SCORE.INTRA.SOLV>
1.53049

>  <SCORE.INTRA.SOLV.lig_0>
-82.9274

>  <SCORE.INTRA.VDW>
0.693674

>  <SCORE.INTRA.VDW.0>
-3.84922

>  <SCORE.INTRA.norm>
0.184293

>  <SCORE.RESTR>
6.37062

>  <SCORE.RESTR.CAVITY>
6.37062

>  <SCORE.RESTR.norm>
0.205504

>  <SCORE.SYSTEM>
0

>  <SCORE.SYSTEM.CONST>
0

>  <SCORE.SYSTEM.DIHEDRAL>
0

>  <SCORE.SYSTEM.SOLV>
0

>  <SCORE.SYSTEM.norm>
0

>  <SCORE.heavy>
31

>  <SCORE.norm>
0.237194

>  <RMSD>
7.995

$$$$
2o3x_lig
 OpenBabel11021811463D
libRbt.so/2013.1/901 2013/11/27
 31 33  0  0  0  0  0  0  0  0999 V2000
   24.3510    7.3690   13.5039 C   0  0  2  0  0  0  0  0  0  0  0  0
   24.2524    8.0164   12.2285 O   0  0  0  0  0  0  0  0  0  0  0  0
   24.1506    6.9748    8.0809 C   0  0  2  0  0  0  0  0  0  0  0  0
   24.1601    6.2259    6.8048 N   0  0  0  0  0  0  0  0  0  0  0  0
   20.7646    5.9645   10.8801 C   0  0  1  0  0  0  0  0  0  0  0  0
   23.1366    7.8157   14.3781 C   0  0  2  0  0  0  0  0  0  0  0  0
   21.8500    7.7110   13.6437 N   0  0  0  0  0  0  0  0  0  0  0  0
   25.5301    6.9013    8.8165 C   0  0  0  0  0  0  0  0  0  0  0  0
   20.4060    4.4947   11.2765 C   0  0  2  0  0  0  0  0  0  0  0  0
   20.7553    3.4694   10.3063 O   0  0  0  0  0  0  0  0  0  0  0  0
   23.2908    9.2693   14.8640 C   0  0  1  0  0  0  0  0  0  0  0  0
   22.2131    9.6323   15.6893 O   0  0  0  0  0  0  0  0  0  0  0  0
   25.4283    7.7475   10.1378 C   0  0  2  0  0  0  0  0  0  0  0  0
   26.7170    7.7441   10.8931 N   0  0  0  0  0  0  0  0  0  0  0  0
   18.9219    4.6934   11.5352 C   0  0  2  0  0  0  0  0  0  0  0  0
   18.1653    4.7247   10.2765 O   0  0  0  0  0  0  0  0  0  0  0  0
   24.6069    9.4243   15.6073 C   0  0  2  0  0  0  0  0  0  0  0  0
   24.7379   10.7309   16.0671 O   0  0  0  0  0  0  0  0  0  0  0  0
   24.3131    7.1821   11.0629 C   0  0  2  0  0  0  0  0  0  0  0  0
   18.8371    6.0338   12.2557 C   0  0  2  0  0  0  0  0  0  0  0  0
   19.7813    6.7959   11.5085 O   0  0  0  0  0  0  0  0  0  0  0  0
   25.7921    9.0640   14.6675 C   0  0  2  0  0  0  0  0  0  0  0  0
   25.6362    7.7119   14.1855 O   0  0  0  0  0  0  0  0  0  0  0  0
   22.9293    7.1274   10.3859 C   0  0  2  0  0  0  0  0  0  0  0  0
   22.0822    6.3488   11.3025 O   0  0  0  0  0  0  0  0  0  0  0  0
   19.2343    5.9952   13.7703 C   0  0  0  0  0  0  0  0  0  0  0  0
   18.8223    7.1970   14.4151 N   0  0  0  0  0  0  0  0  0  0  0  0
   27.1320    9.1804   15.3563 C   0  0  0  0  0  0  0  0  0  0  0  0
   28.1715    9.1888   14.4466 O   0  0  0  0  0  0  0  0  0  0  0  0
   23.0346    6.4013    8.9726 C   0  0  1  0  0  0  0  0  0  0  0  0
   21.8153    6.5287    8.2254 O   0  0  0  0  0  0  0  0  0  0  0  0
  1  2  1  6  0  0  0
  1  6  1  0  0  0  0
  1 23  1  0  0  0  0
  3  4  1  6  0  0  0
  3  8  1  0  0  0  0
  3 30  1  0  0  0  0
  5  9  1  0  0  0  0
  5 21  1  0  0  0  0
  5 25  1  1  0  0  0
  6  7  1  6  0  0  0
  6 11  1  0  0  0  0
  8 13  1  0  0  0  0
  9 10  1  6  0  0  0
  9 15  1  0  0  0  0
 11 12  1  1  0  0  0
 11 17  1  0  0  0  0
 13 14  1  1  0  0  0
 13 19  1  0  0  0  0
 15 16  1  6  0  0  0
 15 20  1  0  0  0  0
 17 18  1  6  0  0  0
 17 22  1  0  0  0  0
 19  2  1  1  0  0  0
 19 24  1  0  0  0  0
 20 21  1  0  0  0  0
 20 26  1  1  0  0  0
 22 23  1  0  0  0  0
 22 28  1  1  0  0  0
 24 25  1  1  0  0  0
 24 30  1  0  0  0  0
 26 27  1  0  0  0  0
 28 29  1  0  0  0  0
 30 31  1  6  0  0  0
M  END
>  <CHROM.1>
-127.16627843,138.03635944,-126.62886673,-166.20195485,-164.90090114,-171.98359877
22.93088221,7.22276376,12.13286988,0.75342805,0.33077944,1.18504351

>  <Name>
2o3x_lig

>  <RI>
0

>  <Rbt.Current_Directory>
/home/itssahil/PROJECTS/Mol_Feturizer/New_Systems/rnas/2o3x

>  <Rbt.Executable>
rbdock ($Id: //depot/dev/client3/rdock/2013.1/src/exe/rbdock.cxx#4 $)

>  <Rbt.Library>
libRbt.so (2013.1, Build901 2013/11/27)

>  <Rbt.Parameter_File>
/export/apps/rDock/src/rDock_2013.1_src/data/scripts/dock_solv.prm

>  <Rbt.Receptor>
prm/blind_docking_80.prm

>  <SCORE>
69.1054

>  <SCORE.INTER>
49.2249

>  <SCORE.INTER.CONST>
1

>  <SCORE.INTER.POLAR>
-0.629765

>  <SCORE.INTER.ROT>
6

>  <SCORE.INTER.SOLV>
29.4633

>  <SCORE.INTER.VDW>
17.4947

>  <SCORE.INTER.norm>
1.5879

>  <SCORE.INTRA>
7.86082

>  <SCORE.INTRA.DIHEDRAL>
12.0406

>  <SCORE.INTRA.DIHEDRAL.0>
9.37739

>  <SCORE.INTRA.POLAR>
0

>  <SCORE.INTRA.POLAR.0>
0

>  <SCORE.INTRA.REPUL>
0

>  <SCORE.INTRA.REPUL.0>
0

>  <SCORE.INTRA.SOLV>
3.62948

>  <SCORE.INTRA.SOLV.lig_0>
-82.9274

>  <SCORE.INTRA.VDW>
0.0257967

>  <SCORE.INTRA.VDW.0>
-3.84922

>  <SCORE.INTRA.norm>
0.253575

>  <SCORE.RESTR>
12.0198

>  <SCORE.RESTR.CAVITY>
12.0198

>  <SCORE.RESTR.norm>
0.387735

>  <SCORE.SYSTEM>
0

>  <SCORE.SYSTEM.CONST>
0

>  <SCORE.SYSTEM.DIHEDRAL>
0

>  <SCORE.SYSTEM.SOLV>
0

>  <SCORE.SYSTEM.norm>
0

>  <SCORE.heavy>
31

>  <SCORE.norm>
2.22921

>  <RMSD>
8.007

$$$$
2o3x_lig
 OpenBabel11021811463D
libRbt.so/2013.1/901 2013/11/27
 31 33  0  0  0  0  0  0  0  0999 V2000
   23.1772    7.6220   10.7945 C   0  0  2  0  0  0  0  0  0  0  0  0
   23.2154    6.1912   10.7122 O   0  0  0  0  0  0  0  0  0  0  0  0
   20.8491    2.9991    9.1281 C   0  0  2  0  0  0  0  0  0  0  0  0
   19.7589    2.2106    8.5123 N   0  0  0  0  0  0  0  0  0  0  0  0
   23.8298    6.7315    7.5094 C   0  0  1  0  0  0  0  0  0  0  0  0
   24.4740    8.1086   11.5156 C   0  0  2  0  0  0  0  0  0  0  0  0
   25.6961    7.4776   10.9552 N   0  0  0  0  0  0  0  0  0  0  0  0
   20.4340    3.5945   10.5146 C   0  0  0  0  0  0  0  0  0  0  0  0
   24.4965    5.8019    6.4430 C   0  0  2  0  0  0  0  0  0  0  0  0
   25.3011    4.7085    6.9640 O   0  0  0  0  0  0  0  0  0  0  0  0
   24.4316    7.8066   13.0256 C   0  0  1  0  0  0  0  0  0  0  0  0
   25.5844    8.2980   13.6611 O   0  0  0  0  0  0  0  0  0  0  0  0
   21.6620    4.3844   11.0980 C   0  0  2  0  0  0  0  0  0  0  0  0
   21.3524    4.9712   12.4363 N   0  0  0  0  0  0  0  0  0  0  0  0
   25.2434    6.8680    5.6591 C   0  0  2  0  0  0  0  0  0  0  0  0
   26.4805    7.2605    6.3470 O   0  0  0  0  0  0  0  0  0  0  0  0
   23.1834    8.4212   13.6362 C   0  0  2  0  0  0  0  0  0  0  0  0
   23.1546    8.1694   15.0042 O   0  0  0  0  0  0  0  0  0  0  0  0
   22.0751    5.5365   10.1381 C   0  0  2  0  0  0  0  0  0  0  0  0
   24.2683    8.0369    5.5818 C   0  0  2  0  0  0  0  0  0  0  0  0
   23.7382    8.0271    6.9044 O   0  0  0  0  0  0  0  0  0  0  0  0
   21.9153    7.8335   12.9548 C   0  0  2  0  0  0  0  0  0  0  0  0
   21.9650    8.0879   11.5344 O   0  0  0  0  0  0  0  0  0  0  0  0
   22.4118    5.0520    8.7139 C   0  0  2  0  0  0  0  0  0  0  0  0
   22.5271    6.2767    7.9073 O   0  0  0  0  0  0  0  0  0  0  0  0
   23.1224    7.8716    4.5269 C   0  0  0  0  0  0  0  0  0  0  0  0
   22.2990    9.0342    4.5125 N   0  0  0  0  0  0  0  0  0  0  0  0
   20.6374    8.4211   13.5070 C   0  0  0  0  0  0  0  0  0  0  0  0
   20.5543    9.7777   13.2607 O   0  0  0  0  0  0  0  0  0  0  0  0
   21.2434    4.1253    8.1556 C   0  0  1  0  0  0  0  0  0  0  0  0
   21.6234    3.4843    6.9285 O   0  0  0  0  0  0  0  0  0  0  0  0
  1  2  1  1  0  0  0
  1  6  1  0  0  0  0
  1 23  1  0  0  0  0
  3  4  1  6  0  0  0
  3  8  1  0  0  0  0
  3 30  1  0  0  0  0
  5  9  1  0  0  0  0
  5 21  1  0  0  0  0
  5 25  1  6  0  0  0
  6  7  1  6  0  0  0
  6 11  1  0  0  0  0
  8 13  1  0  0  0  0
  9 10  1  1  0  0  0
  9 15  1  0  0  0  0
 11 12  1  1  0  0  0
 11 17  1  0  0  0  0
 13 14  1  1  0  0  0
 13 19  1  0  0  0  0
 15 16  1  1  0  0  0
 15 20  1  0  0  0  0
 17 18  1  1  0  0  0
 17 22  1  0  0  0  0
 19  2  1  1  0  0  0
 19 24  1  0  0  0  0
 20 21  1  0  0  0  0
 20 26  1  6  0  0  0
 22 23  1  0  0  0  0
 22 28  1  1  0  0  0
 24 25  1  6  0  0  0
 24 30  1  0  0  0  0
 26 27  1  0  0  0  0
 28 29  1  0  0  0  0
 30 31  1  6  0  0  0
M  END
>  <CHROM.1>
176.97688367,69.95129019,-131.20822208,-178.24897733,63.40605667,105.62177786
22.94270086,6.58140891,9.64465616,-1.76244337,-0.84917989,-1.94182502

>  <Name>
2o3x_lig

>  <RI>
224

>  <Rbt.Current_Directory>
/home/itssahil/PROJECTS/Mol_Feturizer/New_Systems/rnas/2o3x

>  <Rbt.Executable>
rbdock ($Id: //depot/dev/client3/rdock/2013.1/src/exe/rbdock.cxx#4 $)

>  <Rbt.Library>
libRbt.so (2013.1, Build901 2013/11/27)

>  <Rbt.Parameter_File>
/export/apps/rDock/src/rDock_2013.1_src/data/scripts/dock_solv.prm

>  <Rbt.Receptor>
prm/blind_docking_100.prm

>  <SCORE>
3.83461

>  <SCORE.INTER>
-3.69594

>  <SCORE.INTER.CONST>
1

>  <SCORE.INTER.POLAR>
-0.311136

>  <SCORE.INTER.ROT>
6

>  <SCORE.INTER.SOLV>
23.1603

>  <SCORE.INTER.VDW>
-16.7469

>  <SCORE.INTER.norm>
-0.119224

>  <SCORE.INTRA>
2.09866

>  <SCORE.INTRA.DIHEDRAL>
4.115

>  <SCORE.INTRA.DIHEDRAL.0>
9.37739

>  <SCORE.INTRA.POLAR>
0

>  <SCORE.INTRA.POLAR.0>
0

>  <SCORE.INTRA.REPUL>
0

>  <SCORE.INTRA.REPUL.0>
0

>  <SCORE.INTRA.SOLV>
0.31068

>  <SCORE.INTRA.SOLV.lig_0>
-82.9274

>  <SCORE.INTRA.VDW>
-0.114182

>  <SCORE.INTRA.VDW.0>
-3.84922

>  <SCORE.INTRA.norm>
0.0676986

>  <SCORE.RESTR>
5.43189

>  <SCORE.RESTR.CAVITY>
5.43189

>  <SCORE.RESTR.norm>
0.175222

>  <SCORE.SYSTEM>
0

>  <SCORE.SYSTEM.CONST>
0

>  <SCORE.SYSTEM.DIHEDRAL>
0

>  <SCORE.SYSTEM.SOLV>
0

>  <SCORE.SYSTEM.norm>
0

>  <SCORE.heavy>
31

>  <SCORE.norm>
0.123697

>  <RMSD>
8.018

$$$$
2o3x_lig
 OpenBabel11021811463D
libRbt.so/2013.1/901 2013/11/27
 31 33  0  0  0  0  0  0  0  0999 V2000
   21.7604    5.2897   10.3309 C   0  0  2  0  0  0  0  0  0  0  0  0
   22.2507    5.2930   11.6782 O   0  0  0  0  0  0  0  0  0  0  0  0
   19.7443    8.3990   13.2173 C   0  0  2  0  0  0  0  0  0  0  0  0
   18.9646    9.2801   14.1146 N   0  0  0  0  0  0  0  0  0  0  0  0
   23.9150    8.1739   14.4389 C   0  0  1  0  0  0  0  0  0  0  0  0
   22.2304    3.9710    9.6390 C   0  0  2  0  0  0  0  0  0  0  0  0
   21.9652    2.7742   10.4774 N   0  0  0  0  0  0  0  0  0  0  0  0
   19.1551    6.9503   13.1576 C   0  0  0  0  0  0  0  0  0  0  0  0
   25.0172    7.6050   15.3915 C   0  0  2  0  0  0  0  0  0  0  0  0
   24.5444    7.0195   16.6357 O   0  0  0  0  0  0  0  0  0  0  0  0
   23.7366    4.0037    9.3181 C   0  0  1  0  0  0  0  0  0  0  0  0
   24.1261    2.8298    8.6512 O   0  0  0  0  0  0  0  0  0  0  0  0
   20.0294    6.1047   12.1612 C   0  0  2  0  0  0  0  0  0  0  0  0
   19.5189    4.7069   12.0324 N   0  0  0  0  0  0  0  0  0  0  0  0
   25.8636    8.8603   15.5218 C   0  0  2  0  0  0  0  0  0  0  0  0
   25.2706    9.8004   16.4821 O   0  0  0  0  0  0  0  0  0  0  0  0
   24.0544    5.2265    8.4740 C   0  0  2  0  0  0  0  0  0  0  0  0
   25.4105    5.2458    8.1635 O   0  0  0  0  0  0  0  0  0  0  0  0
   21.5065    6.0476   12.6452 C   0  0  2  0  0  0  0  0  0  0  0  0
   25.8824    9.4542   14.1182 C   0  0  2  0  0  0  0  0  0  0  0  0
   24.5250    9.2599   13.7306 O   0  0  0  0  0  0  0  0  0  0  0  0
   23.6609    6.5188    9.2439 C   0  0  2  0  0  0  0  0  0  0  0  0
   22.2556    6.4792    9.5734 O   0  0  0  0  0  0  0  0  0  0  0  0
   22.1431    7.4399   12.8252 C   0  0  2  0  0  0  0  0  0  0  0  0
   23.4198    7.1940   13.5133 O   0  0  0  0  0  0  0  0  0  0  0  0
   26.8503    8.7423   13.1134 C   0  0  0  0  0  0  0  0  0  0  0  0
   26.6037    9.2017   11.7875 N   0  0  0  0  0  0  0  0  0  0  0  0
   23.9356    7.7728    8.4468 C   0  0  0  0  0  0  0  0  0  0  0  0
   23.0583    7.9039    7.3880 O   0  0  0  0  0  0  0  0  0  0  0  0
   21.2011    8.3669   13.7135 C   0  0  1  0  0  0  0  0  0  0  0  0
   21.6568    9.7283   13.7161 O   0  0  0  0  0  0  0  0  0  0  0  0
  1  2  1  1  0  0  0
  1  6  1  0  0  0  0
  1 23  1  0  0  0  0
  3  4  1  1  0  0  0
  3  8  1  0  0  0  0
  3 30  1  0  0  0  0
  5  9  1  0  0  0  0
  5 21  1  0  0  0  0
  5 25  1  6  0  0  0
  6  7  1  1  0  0  0
  6 11  1  0  0  0  0
  8 13  1  0  0  0  0
  9 10  1  1  0  0  0
  9 15  1  0  0  0  0
 11 12  1  6  0  0  0
 11 17  1  0  0  0  0
 13 14  1  1  0  0  0
 13 19  1  0  0  0  0
 15 16  1  1  0  0  0
 15 20  1  0  0  0  0
 17 18  1  1  0  0  0
 17 22  1  0  0  0  0
 19  2  1  6  0  0  0
 19 24  1  0  0  0  0
 20 21  1  0  0  0  0
 20 26  1  6  0  0  0
 22 23  1  0  0  0  0
 22 28  1  6  0  0  0
 24 25  1  1  0  0  0
 24 30  1  0  0  0  0
 26 27  1  0  0  0  0
 28 29  1  0  0  0  0
 30 31  1  6  0  0  0
M  END
>  <CHROM.1>
-153.40769477,162.68192005,27.02045451,168.89448610,70.94284328,-146.93125467
23.07232202,6.96606618,12.04509532,1.74194608,-0.22407988,-2.13204425

>  <Name>
2o3x_lig

>  <RI>
0

>  <Rbt.Current_Directory>
/home/itssahil/PROJECTS/Mol_Feturizer/New_Systems/rnas/2o3x

>  <Rbt.Executable>
rbdock ($Id: //depot/dev/client3/rdock/2013.1/src/exe/rbdock.cxx#4 $)

>  <Rbt.Library>
libRbt.so (2013.1, Build901 2013/11/27)

>  <Rbt.Parameter_File>
/export/apps/rDock/src/rDock_2013.1_src/data/scripts/dock_solv.prm

>  <Rbt.Receptor>
prm/blind_docking_60.prm

>  <SCORE>
4.30512

>  <SCORE.INTER>
-10.2114

>  <SCORE.INTER.CONST>
1

>  <SCORE.INTER.POLAR>
-1.11275

>  <SCORE.INTER.ROT>
6

>  <SCORE.INTER.SOLV>
28.9437

>  <SCORE.INTER.VDW>
-20.3463

>  <SCORE.INTER.norm>
-0.329401

>  <SCORE.INTRA>
6.89532

>  <SCORE.INTRA.DIHEDRAL>
4.28424

>  <SCORE.INTRA.DIHEDRAL.0>
9.37739

>  <SCORE.INTRA.POLAR>
0

>  <SCORE.INTRA.POLAR.0>
0

>  <SCORE.INTRA.REPUL>
0

>  <SCORE.INTRA.REPUL.0>
0

>  <SCORE.INTRA.SOLV>
0.344523

>  <SCORE.INTRA.SOLV.lig_0>
-82.9274

>  <SCORE.INTRA.VDW>
4.58093

>  <SCORE.INTRA.VDW.0>
-3.84922

>  <SCORE.INTRA.norm>
0.22243

>  <SCORE.RESTR>
7.62123

>  <SCORE.RESTR.CAVITY>
7.62123

>  <SCORE.RESTR.norm>
0.245846

>  <SCORE.SYSTEM>
0

>  <SCORE.SYSTEM.CONST>
0

>  <SCORE.SYSTEM.DIHEDRAL>
0

>  <SCORE.SYSTEM.SOLV>
0

>  <SCORE.SYSTEM.norm>
0

>  <SCORE.heavy>
31

>  <SCORE.norm>
0.138875

>  <RMSD>
8.041

$$$$
2o3x_lig
 OpenBabel11021811463D
libRbt.so/2013.1/901 2013/11/27
 31 33  0  0  0  0  0  0  0  0999 V2000
   23.6660    7.8933   11.2687 C   0  0  2  0  0  0  0  0  0  0  0  0
   23.6174    6.4604   11.2771 O   0  0  0  0  0  0  0  0  0  0  0  0
   20.9003    3.3372   10.1999 C   0  0  2  0  0  0  0  0  0  0  0  0
   19.7826    2.5699    9.6071 N   0  0  0  0  0  0  0  0  0  0  0  0
   22.5361    6.4182    7.6561 C   0  0  1  0  0  0  0  0  0  0  0  0
   25.0402    8.3430   11.8585 C   0  0  2  0  0  0  0  0  0  0  0  0
   26.1777    7.6060   11.2513 N   0  0  0  0  0  0  0  0  0  0  0  0
   20.3985    4.4228   11.2094 C   0  0  0  0  0  0  0  0  0  0  0  0
   22.5952    7.9658    7.8741 C   0  0  2  0  0  0  0  0  0  0  0  0
   21.7090    8.5001    8.8956 O   0  0  0  0  0  0  0  0  0  0  0  0
   25.0985    8.1363   13.3838 C   0  0  1  0  0  0  0  0  0  0  0  0
   26.3230    8.5943   13.8989 O   0  0  0  0  0  0  0  0  0  0  0  0
   21.6542    5.1588   11.8042 C   0  0  2  0  0  0  0  0  0  0  0  0
   21.2600    6.2034   12.7965 N   0  0  0  0  0  0  0  0  0  0  0  0
   22.3088    8.3993    6.4461 C   0  0  2  0  0  0  0  0  0  0  0  0
   20.8728    8.3195    6.1474 O   0  0  0  0  0  0  0  0  0  0  0  0
   23.9380    8.8616   14.0440 C   0  0  2  0  0  0  0  0  0  0  0  0
   24.0016    8.6956   15.4239 O   0  0  0  0  0  0  0  0  0  0  0  0
   22.4747    5.8392   10.6715 C   0  0  2  0  0  0  0  0  0  0  0  0
   23.0999    7.4214    5.5854 C   0  0  2  0  0  0  0  0  0  0  0  0
   22.8501    6.1999    6.2753 O   0  0  0  0  0  0  0  0  0  0  0  0
   22.5899    8.3119   13.4981 C   0  0  2  0  0  0  0  0  0  0  0  0
   22.5430    8.4762   12.0644 O   0  0  0  0  0  0  0  0  0  0  0  0
   22.9327    4.8563    9.5759 C   0  0  2  0  0  0  0  0  0  0  0  0
   23.4576    5.7028    8.4934 O   0  0  0  0  0  0  0  0  0  0  0  0
   24.6381    7.7062    5.5070 C   0  0  0  0  0  0  0  0  0  0  0  0
   25.2518    7.4277    6.7623 N   0  0  0  0  0  0  0  0  0  0  0  0
   21.3937    9.0086   14.1041 C   0  0  0  0  0  0  0  0  0  0  0  0
   20.2113    8.5697   13.5409 O   0  0  0  0  0  0  0  0  0  0  0  0
   21.6990    3.9924    9.0588 C   0  0  1  0  0  0  0  0  0  0  0  0
   22.1295    2.9238    8.2021 O   0  0  0  0  0  0  0  0  0  0  0  0
  1  2  1  1  0  0  0
  1  6  1  0  0  0  0
  1 23  1  0  0  0  0
  3  4  1  6  0  0  0
  3  8  1  0  0  0  0
  3 30  1  0  0  0  0
  5  9  1  0  0  0  0
  5 21  1  0  0  0  0
  5 25  1  1  0  0  0
  6  7  1  6  0  0  0
  6 11  1  0  0  0  0
  8 13  1  0  0  0  0
  9 10  1  1  0  0  0
  9 15  1  0  0  0  0
 11 12  1  1  0  0  0
 11 17  1  0  0  0  0
 13 14  1  1  0  0  0
 13 19  1  0  0  0  0
 15 16  1  6  0  0  0
 15 20  1  0  0  0  0
 17 18  1  1  0  0  0
 17 22  1  0  0  0  0
 19  2  1  1  0  0  0
 19 24  1  0  0  0  0
 20 21  1  0  0  0  0
 20 26  1  1  0  0  0
 22 23  1  0  0  0  0
 22 28  1  1  0  0  0
 24 25  1  6  0  0  0
 24 30  1  0  0  0  0
 26 27  1  0  0  0  0
 28 29  1  0  0  0  0
 30 31  1  6  0  0  0
M  END
>  <CHROM.1>
-175.04384824,111.24787540,-112.26636595,69.86052926,175.92324589,-74.77431382
22.80679966,6.86912564,10.27916066,-1.34479752,-0.86353957,-1.70895490

>  <Name>
2o3x_lig

>  <RI>
0

>  <Rbt.Current_Directory>
/home/itssahil/PROJECTS/Mol_Feturizer/New_Systems/rnas/2o3x

>  <Rbt.Executable>
rbdock ($Id: //depot/dev/client3/rdock/2013.1/src/exe/rbdock.cxx#4 $)

>  <Rbt.Library>
libRbt.so (2013.1, Build901 2013/11/27)

>  <Rbt.Parameter_File>
/export/apps/rDock/src/rDock_2013.1_src/data/scripts/dock_solv.prm

>  <Rbt.Receptor>
prm/blind_docking_40.prm

>  <SCORE>
2.4774

>  <SCORE.INTER>
-7.20845

>  <SCORE.INTER.CONST>
1

>  <SCORE.INTER.POLAR>
-0.471152

>  <SCORE.INTER.ROT>
6

>  <SCORE.INTER.SOLV>
23.9147

>  <SCORE.INTER.VDW>
-18.8067

>  <SCORE.INTER.norm>
-0.232531

>  <SCORE.INTRA>
7.22803

>  <SCORE.INTRA.DIHEDRAL>
5.95036

>  <SCORE.INTRA.DIHEDRAL.0>
9.37739

>  <SCORE.INTRA.POLAR>
0

>  <SCORE.INTRA.POLAR.0>
0

>  <SCORE.INTRA.REPUL>
0.0112389

>  <SCORE.INTRA.REPUL.0>
0

>  <SCORE.INTRA.SOLV>
5.53299

>  <SCORE.INTRA.SOLV.lig_0>
-82.9274

>  <SCORE.INTRA.VDW>
1.43016

>  <SCORE.INTRA.VDW.0>
-3.84922

>  <SCORE.INTRA.norm>
0.233162

>  <SCORE.RESTR>
2.45782

>  <SCORE.RESTR.CAVITY>
2.45782

>  <SCORE.RESTR.norm>
0.0792847

>  <SCORE.SYSTEM>
0

>  <SCORE.SYSTEM.CONST>
0

>  <SCORE.SYSTEM.DIHEDRAL>
0

>  <SCORE.SYSTEM.SOLV>
0

>  <SCORE.SYSTEM.norm>
0

>  <SCORE.heavy>
31

>  <SCORE.norm>
0.0799161

>  <RMSD>
8.042

$$$$
2o3x_lig
 OpenBabel11021811463D
libRbt.so/2013.1/901 2013/11/27
 31 33  0  0  0  0  0  0  0  0999 V2000
   23.6843    7.8893   11.2869 C   0  0  2  0  0  0  0  0  0  0  0  0
   23.5959    6.4584   11.2990 O   0  0  0  0  0  0  0  0  0  0  0  0
   20.7824    3.4002   10.2846 C   0  0  2  0  0  0  0  0  0  0  0  0
   19.6212    2.6648    9.7366 N   0  0  0  0  0  0  0  0  0  0  0  0
   22.2936    6.5980    7.7896 C   0  0  1  0  0  0  0  0  0  0  0  0
   25.1015    8.2996   11.7985 C   0  0  2  0  0  0  0  0  0  0  0  0
   26.1820    7.5314   11.1291 N   0  0  0  0  0  0  0  0  0  0  0  0
   20.3571    4.4524   11.3622 C   0  0  0  0  0  0  0  0  0  0  0  0
   22.3862    8.1201    8.1371 C   0  0  2  0  0  0  0  0  0  0  0  0
   21.5684    8.5705    9.2519 O   0  0  0  0  0  0  0  0  0  0  0  0
   25.2393    8.0900   13.3184 C   0  0  1  0  0  0  0  0  0  0  0  0
   26.5031    8.5129   13.7637 O   0  0  0  0  0  0  0  0  0  0  0  0
   21.6558    5.1553   11.9024 C   0  0  2  0  0  0  0  0  0  0  0  0
   21.3363    6.1663   12.9546 N   0  0  0  0  0  0  0  0  0  0  0  0
   22.0228    8.6792    6.7717 C   0  0  2  0  0  0  0  0  0  0  0  0
   20.5709    8.6377    6.5528 O   0  0  0  0  0  0  0  0  0  0  0  0
   24.1385    8.8471   14.0420 C   0  0  2  0  0  0  0  0  0  0  0  0
   24.2746    8.6781   15.4162 O   0  0  0  0  0  0  0  0  0  0  0  0
   22.4106    5.8696   10.7451 C   0  0  2  0  0  0  0  0  0  0  0  0
   22.7491    7.7736    5.7840 C   0  0  2  0  0  0  0  0  0  0  0  0
   22.5235    6.4987    6.3789 O   0  0  0  0  0  0  0  0  0  0  0  0
   22.7470    8.3361   13.5729 C   0  0  2  0  0  0  0  0  0  0  0  0
   22.6245    8.5029   12.1439 O   0  0  0  0  0  0  0  0  0  0  0  0
   22.7878    4.9235    9.5880 C   0  0  2  0  0  0  0  0  0  0  0  0
   23.2527    5.8046    8.5056 O   0  0  0  0  0  0  0  0  0  0  0  0
   24.2838    8.0514    5.6396 C   0  0  0  0  0  0  0  0  0  0  0  0
   24.8763    7.0871    4.7742 N   0  0  0  0  0  0  0  0  0  0  0  0
   21.6067    9.0656   14.2444 C   0  0  0  0  0  0  0  0  0  0  0  0
   20.3843    8.6818   13.7283 O   0  0  0  0  0  0  0  0  0  0  0  0
   21.5146    4.0898    9.1194 C   0  0  1  0  0  0  0  0  0  0  0  0
   21.8786    3.0496    8.1992 O   0  0  0  0  0  0  0  0  0  0  0  0
  1  2  1  1  0  0  0
  1  6  1  0  0  0  0
  1 23  1  0  0  0  0
  3  4  1  6  0  0  0
  3  8  1  0  0  0  0
  3 30  1  0  0  0  0
  5  9  1  0  0  0  0
  5 21  1  0  0  0  0
  5 25  1  1  0  0  0
  6  7  1  6  0  0  0
  6 11  1  0  0  0  0
  8 13  1  0  0  0  0
  9 10  1  1  0  0  0
  9 15  1  0  0  0  0
 11 12  1  1  0  0  0
 11 17  1  0  0  0  0
 13 14  1  1  0  0  0
 13 19  1  0  0  0  0
 15 16  1  6  0  0  0
 15 20  1  0  0  0  0
 17 18  1  1  0  0  0
 17 22  1  0  0  0  0
 19  2  1  1  0  0  0
 19 24  1  0  0  0  0
 20 21  1  0  0  0  0
 20 26  1  1  0  0  0
 22 23  1  0  0  0  0
 22 28  1  1  0  0  0
 24 25  1  6  0  0  0
 24 30  1  0  0  0  0
 26 27  1  0  0  0  0
 28 29  1  0  0  0  0
 30 31  1  6  0  0  0
M  END
>  <CHROM.1>
-174.36258357,108.05251621,-114.86251323,175.57356187,174.61393765,-72.33477258
22.73674388,6.93973091,10.30776560,-1.29313339,-0.86966132,-1.62756065

>  <Name>
2o3x_lig

>  <RI>
224

>  <Rbt.Current_Directory>
/home/itssahil/PROJECTS/Mol_Feturizer/New_Systems/rnas/2o3x

>  <Rbt.Executable>
rbdock ($Id: //depot/dev/client3/rdock/2013.1/src/exe/rbdock.cxx#4 $)

>  <Rbt.Library>
libRbt.so (2013.1, Build901 2013/11/27)

>  <Rbt.Parameter_File>
/export/apps/rDock/src/rDock_2013.1_src/data/scripts/dock_solv.prm

>  <Rbt.Receptor>
prm/blind_docking_100.prm

>  <SCORE>
1.6289

>  <SCORE.INTER>
-5.16347

>  <SCORE.INTER.CONST>
1

>  <SCORE.INTER.POLAR>
-0.474837

>  <SCORE.INTER.ROT>
6

>  <SCORE.INTER.SOLV>
23.881

>  <SCORE.INTER.VDW>
-17.4199

>  <SCORE.INTER.norm>
-0.166564

>  <SCORE.INTRA>
4.61987

>  <SCORE.INTRA.DIHEDRAL>
5.34863

>  <SCORE.INTRA.DIHEDRAL.0>
9.37739

>  <SCORE.INTRA.POLAR>
0

>  <SCORE.INTRA.POLAR.0>
0

>  <SCORE.INTRA.REPUL>
0.0133764

>  <SCORE.INTRA.REPUL.0>
0

>  <SCORE.INTRA.SOLV>
2.30727

>  <SCORE.INTRA.SOLV.lig_0>
-82.9274

>  <SCORE.INTRA.VDW>
0.725041

>  <SCORE.INTRA.VDW.0>
-3.84922

>  <SCORE.INTRA.norm>
0.149028

>  <SCORE.RESTR>
2.1725

>  <SCORE.RESTR.CAVITY>
2.1725

>  <SCORE.RESTR.norm>
0.0700806

>  <SCORE.SYSTEM>
0

>  <SCORE.SYSTEM.CONST>
0

>  <SCORE.SYSTEM.DIHEDRAL>
0

>  <SCORE.SYSTEM.SOLV>
0

>  <SCORE.SYSTEM.norm>
0

>  <SCORE.heavy>
31

>  <SCORE.norm>
0.0525451

>  <RMSD>
8.046

$$$$
2o3x_lig
 OpenBabel11021811463D
libRbt.so/2013.1/901 2013/11/27
 31 33  0  0  0  0  0  0  0  0999 V2000
   23.7584    6.2493   10.0067 C   0  0  2  0  0  0  0  0  0  0  0  0
   22.7016    7.1948   10.2182 O   0  0  0  0  0  0  0  0  0  0  0  0
   19.9021    8.2710   13.2682 C   0  0  2  0  0  0  0  0  0  0  0  0
   19.1115    8.3139   14.5182 N   0  0  0  0  0  0  0  0  0  0  0  0
   24.2488    8.6847   13.9575 C   0  0  1  0  0  0  0  0  0  0  0  0
   24.1638    6.2929    8.4993 C   0  0  2  0  0  0  0  0  0  0  0  0
   24.3673    7.6819    8.0146 N   0  0  0  0  0  0  0  0  0  0  0  0
   19.6044    6.9849   12.4276 C   0  0  0  0  0  0  0  0  0  0  0  0
   24.9940    7.6949   14.9119 C   0  0  2  0  0  0  0  0  0  0  0  0
   24.1721    7.0339   15.9129 O   0  0  0  0  0  0  0  0  0  0  0  0
   23.1000    5.6275    7.6057 C   0  0  1  0  0  0  0  0  0  0  0  0
   23.5091    5.6330    6.2614 O   0  0  0  0  0  0  0  0  0  0  0  0
   20.4646    7.0469   11.1128 C   0  0  2  0  0  0  0  0  0  0  0  0
   20.2227    5.8581   10.2413 N   0  0  0  0  0  0  0  0  0  0  0  0
   26.0501    8.6519   15.4389 C   0  0  2  0  0  0  0  0  0  0  0  0
   25.4993    9.5229   16.4856 O   0  0  0  0  0  0  0  0  0  0  0  0
   22.8483    4.2062    8.0802 C   0  0  2  0  0  0  0  0  0  0  0  0
   21.9046    3.5954    7.2604 O   0  0  0  0  0  0  0  0  0  0  0  0
   21.9806    7.1068   11.4555 C   0  0  2  0  0  0  0  0  0  0  0  0
   26.4706    9.4638   14.2194 C   0  0  2  0  0  0  0  0  0  0  0  0
   25.2057    9.6908   13.6038 O   0  0  0  0  0  0  0  0  0  0  0  0
   22.3521    4.2193    9.5537 C   0  0  2  0  0  0  0  0  0  0  0  0
   23.3328    4.8690   10.3909 O   0  0  0  0  0  0  0  0  0  0  0  0
   22.3536    8.2949   12.3641 C   0  0  2  0  0  0  0  0  0  0  0  0
   23.7433    8.0438   12.7760 O   0  0  0  0  0  0  0  0  0  0  0  0
   27.4383    8.7233   13.2352 C   0  0  0  0  0  0  0  0  0  0  0  0
   26.8808    8.7022   11.9243 N   0  0  0  0  0  0  0  0  0  0  0  0
   22.1014    2.8297   10.0917 C   0  0  0  0  0  0  0  0  0  0  0  0
   21.3016    2.8577   11.2176 O   0  0  0  0  0  0  0  0  0  0  0  0
   21.3954    8.3397   13.6352 C   0  0  1  0  0  0  0  0  0  0  0  0
   21.5721    9.5527   14.3826 O   0  0  0  0  0  0  0  0  0  0  0  0
  1  2  1  6  0  0  0
  1  6  1  0  0  0  0
  1 23  1  0  0  0  0
  3  4  1  1  0  0  0
  3  8  1  0  0  0  0
  3 30  1  0  0  0  0
  5  9  1  0  0  0  0
  5 21  1  0  0  0  0
  5 25  1  6  0  0  0
  6  7  1  6  0  0  0
  6 11  1  0  0  0  0
  8 13  1  0  0  0  0
  9 10  1  1  0  0  0
  9 15  1  0  0  0  0
 11 12  1  6  0  0  0
 11 17  1  0  0  0  0
 13 14  1  6  0  0  0
 13 19  1  0  0  0  0
 15 16  1  1  0  0  0
 15 20  1  0  0  0  0
 17 18  1  6  0  0  0
 17 22  1  0  0  0  0
 19  2  1  6  0  0  0
 19 24  1  0  0  0  0
 20 21  1  0  0  0  0
 20 26  1  6  0  0  0
 22 23  1  0  0  0  0
 22 28  1  1  0  0  0
 24 25  1  1  0  0  0
 24 30  1  0  0  0  0
 26 27  1  0  0  0  0
 28 29  1  0  0  0  0
 30 31  1  6  0  0  0
M  END
>  <CHROM.1>
166.44018361,132.15319110,-128.04178886,123.94641965,-161.90821359,-158.90766828
23.12795700,6.99354737,11.71798688,-1.87700476,0.24735077,1.05733420

>  <Name>
2o3x_lig

>  <RI>
0

>  <Rbt.Current_Directory>
/home/itssahil/PROJECTS/Mol_Feturizer/New_Systems/rnas/2o3x

>  <Rbt.Executable>
rbdock ($Id: //depot/dev/client3/rdock/2013.1/src/exe/rbdock.cxx#4 $)

>  <Rbt.Library>
libRbt.so (2013.1, Build901 2013/11/27)

>  <Rbt.Parameter_File>
/export/apps/rDock/src/rDock_2013.1_src/data/scripts/dock_solv.prm

>  <Rbt.Receptor>
prm/blind_docking_40.prm

>  <SCORE>
12.0009

>  <SCORE.INTER>
-4.37017

>  <SCORE.INTER.CONST>
1

>  <SCORE.INTER.POLAR>
-1.0768

>  <SCORE.INTER.ROT>
6

>  <SCORE.INTER.SOLV>
26.455

>  <SCORE.INTER.VDW>
-15.7424

>  <SCORE.INTER.norm>
-0.140973

>  <SCORE.INTRA>
9.43889

>  <SCORE.INTRA.DIHEDRAL>
13.0438

>  <SCORE.INTRA.DIHEDRAL.0>
9.37739

>  <SCORE.INTRA.POLAR>
0

>  <SCORE.INTRA.POLAR.0>
0

>  <SCORE.INTRA.REPUL>
0

>  <SCORE.INTRA.REPUL.0>
0

>  <SCORE.INTRA.SOLV>
3.3116

>  <SCORE.INTRA.SOLV.lig_0>
-82.9274

>  <SCORE.INTRA.VDW>
1.26117

>  <SCORE.INTRA.VDW.0>
-3.84922

>  <SCORE.INTRA.norm>
0.30448

>  <SCORE.RESTR>
6.93222

>  <SCORE.RESTR.CAVITY>
6.93222

>  <SCORE.RESTR.norm>
0.22362

>  <SCORE.SYSTEM>
0

>  <SCORE.SYSTEM.CONST>
0

>  <SCORE.SYSTEM.DIHEDRAL>
0

>  <SCORE.SYSTEM.SOLV>
0

>  <SCORE.SYSTEM.norm>
0

>  <SCORE.heavy>
31

>  <SCORE.norm>
0.387127

>  <RMSD>
8.051

$$$$
2o3x_lig
 OpenBabel11021811463D
libRbt.so/2013.1/901 2013/11/27
 31 33  0  0  0  0  0  0  0  0999 V2000
   20.0111   11.1063   12.1673 C   0  0  2  0  0  0  0  0  0  0  0  0
   19.1424   11.0825   13.3076 O   0  0  0  0  0  0  0  0  0  0  0  0
   16.9579    7.8636   15.0866 C   0  0  2  0  0  0  0  0  0  0  0  0
   16.0569    6.7109   15.3077 N   0  0  0  0  0  0  0  0  0  0  0  0
   20.2492    7.1111   12.1432 C   0  0  1  0  0  0  0  0  0  0  0  0
   20.5007   12.5733   11.9516 C   0  0  2  0  0  0  0  0  0  0  0  0
   20.9905   13.1904   13.2107 N   0  0  0  0  0  0  0  0  0  0  0  0
   16.1693    9.1657   14.7232 C   0  0  0  0  0  0  0  0  0  0  0  0
   21.1158    7.0476   10.8428 C   0  0  2  0  0  0  0  0  0  0  0  0
   20.4149    6.6648    9.6276 O   0  0  0  0  0  0  0  0  0  0  0  0
   19.3817   13.4683   11.3863 C   0  0  1  0  0  0  0  0  0  0  0  0
   19.8587   14.7692   11.1529 O   0  0  0  0  0  0  0  0  0  0  0  0
   17.2062   10.3332   14.5388 C   0  0  2  0  0  0  0  0  0  0  0  0
   16.5287   11.6225   14.2071 N   0  0  0  0  0  0  0  0  0  0  0  0
   22.1792    6.0803   11.3350 C   0  0  2  0  0  0  0  0  0  0  0  0
   21.6947    4.6943   11.2901 O   0  0  0  0  0  0  0  0  0  0  0  0
   18.8392   12.8615   10.1033 C   0  0  2  0  0  0  0  0  0  0  0  0
   17.8440   13.6800    9.5785 O   0  0  0  0  0  0  0  0  0  0  0  0
   18.2098    9.9961   13.3993 C   0  0  2  0  0  0  0  0  0  0  0  0
   22.4549    6.5153   12.7696 C   0  0  2  0  0  0  0  0  0  0  0  0
   21.1311    6.7829   13.2238 O   0  0  0  0  0  0  0  0  0  0  0  0
   18.2730   11.4413   10.3866 C   0  0  2  0  0  0  0  0  0  0  0  0
   19.3109   10.6070   10.9448 O   0  0  0  0  0  0  0  0  0  0  0  0
   18.9681    8.6733   13.6265 C   0  0  2  0  0  0  0  0  0  0  0  0
   19.6616    8.4037   12.3576 O   0  0  0  0  0  0  0  0  0  0  0  0
   23.3550    7.7893   12.9114 C   0  0  0  0  0  0  0  0  0  0  0  0
   23.5660    8.0885   14.2883 N   0  0  0  0  0  0  0  0  0  0  0  0
   17.7339   10.7750    9.1421 C   0  0  0  0  0  0  0  0  0  0  0  0
   16.5795   11.3890    8.6969 O   0  0  0  0  0  0  0  0  0  0  0  0
   17.9440    7.5008   13.9617 C   0  0  1  0  0  0  0  0  0  0  0  0
   18.6281    6.3141   14.3917 O   0  0  0  0  0  0  0  0  0  0  0  0
  1  2  1  1  0  0  0
  1  6  1  0  0  0  0
  1 23  1  0  0  0  0
  3  4  1  6  0  0  0
  3  8  1  0  0  0  0
  3 30  1  0  0  0  0
  5  9  1  0  0  0  0
  5 21  1  0  0  0  0
  5 25  1  1  0  0  0
  6  7  1  1  0  0  0
  6 11  1  0  0  0  0
  8 13  1  0  0  0  0
  9 10  1  6  0  0  0
  9 15  1  0  0  0  0
 11 12  1  6  0  0  0
 11 17  1  0  0  0  0
 13 14  1  6  0  0  0
 13 19  1  0  0  0  0
 15 16  1  1  0  0  0
 15 20  1  0  0  0  0
 17 18  1  1  0  0  0
 17 22  1  0  0  0  0
 19  2  1  1  0  0  0
 19 24  1  0  0  0  0
 20 21  1  0  0  0  0
 20 26  1  6  0  0  0
 22 23  1  0  0  0  0
 22 28  1  6  0  0  0
 24 25  1  6  0  0  0
 24 30  1  0  0  0  0
 26 27  1  0  0  0  0
 28 29  1  0  0  0  0
 30 31  1  1  0  0  0
M  END
>  <CHROM.1>
157.52348618,-171.92747621,-168.89014978,-178.93942746,-69.48738997,-167.84818635
19.38552914,9.49184191,12.28268583,-1.98013629,-0.56328475,2.63269678

>  <Name>
2o3x_lig

>  <RI>
0

>  <Rbt.Current_Directory>
/home/itssahil/PROJECTS/Mol_Feturizer/New_Systems/rnas/2o3x

>  <Rbt.Executable>
rbdock ($Id: //depot/dev/client3/rdock/2013.1/src/exe/rbdock.cxx#4 $)

>  <Rbt.Library>
libRbt.so (2013.1, Build901 2013/11/27)

>  <Rbt.Parameter_File>
/export/apps/rDock/src/rDock_2013.1_src/data/scripts/dock_solv.prm

>  <Rbt.Receptor>
prm/pocket_docking_8.prm

>  <SCORE>
-11.2374

>  <SCORE.INTER>
-9.68058

>  <SCORE.INTER.CONST>
1

>  <SCORE.INTER.POLAR>
-0.283281

>  <SCORE.INTER.ROT>
6

>  <SCORE.INTER.SOLV>
15.5519

>  <SCORE.INTER.VDW>
-18.2934

>  <SCORE.INTER.norm>
-0.312277

>  <SCORE.INTRA>
-1.55686

>  <SCORE.INTRA.DIHEDRAL>
-5.0585

>  <SCORE.INTRA.DIHEDRAL.0>
9.37739

>  <SCORE.INTRA.POLAR>
0

>  <SCORE.INTRA.POLAR.0>
0

>  <SCORE.INTRA.REPUL>
0.0558711

>  <SCORE.INTRA.REPUL.0>
0

>  <SCORE.INTRA.SOLV>
-2.40507

>  <SCORE.INTRA.SOLV.lig_0>
-82.9274

>  <SCORE.INTRA.VDW>
1.89556

>  <SCORE.INTRA.VDW.0>
-3.84922

>  <SCORE.INTRA.norm>
-0.0502214

>  <SCORE.RESTR>
0

>  <SCORE.RESTR.CAVITY>
0

>  <SCORE.RESTR.norm>
0

>  <SCORE.SYSTEM>
0

>  <SCORE.SYSTEM.CONST>
0

>  <SCORE.SYSTEM.DIHEDRAL>
0

>  <SCORE.SYSTEM.SOLV>
0

>  <SCORE.SYSTEM.norm>
0

>  <SCORE.heavy>
31

>  <SCORE.norm>
-0.362498

>  <RMSD>
8.068

$$$$
2o3x_lig
 OpenBabel11021811463D
libRbt.so/2013.1/901 2013/11/27
 31 33  0  0  0  0  0  0  0  0999 V2000
   23.0251    7.6347   11.5027 C   0  0  2  0  0  0  0  0  0  0  0  0
   22.9877    6.2021   11.4602 O   0  0  0  0  0  0  0  0  0  0  0  0
   20.4690    3.1187    9.8961 C   0  0  2  0  0  0  0  0  0  0  0  0
   19.4716    2.3664    9.1032 N   0  0  0  0  0  0  0  0  0  0  0  0
   22.6187    6.1995    7.7407 C   0  0  1  0  0  0  0  0  0  0  0  0
   24.4120    8.1073   10.9627 C   0  0  2  0  0  0  0  0  0  0  0  0
   24.7715    7.4409    9.6850 N   0  0  0  0  0  0  0  0  0  0  0  0
   19.8034    4.2217   10.7848 C   0  0  0  0  0  0  0  0  0  0  0  0
   22.5012    7.7066    8.1418 C   0  0  2  0  0  0  0  0  0  0  0  0
   21.3474    8.0628    8.9517 O   0  0  0  0  0  0  0  0  0  0  0  0
   25.5393    7.8341   11.9762 C   0  0  1  0  0  0  0  0  0  0  0  0
   26.7679    8.3130   11.4910 O   0  0  0  0  0  0  0  0  0  0  0  0
   20.9353    4.9402   11.6064 C   0  0  2  0  0  0  0  0  0  0  0  0
   20.3778    6.0002   12.4990 N   0  0  0  0  0  0  0  0  0  0  0  0
   22.5519    8.3090    6.7476 C   0  0  2  0  0  0  0  0  0  0  0  0
   21.2485    8.2039    6.0786 O   0  0  0  0  0  0  0  0  0  0  0  0
   25.2013    8.4857   13.3066 C   0  0  2  0  0  0  0  0  0  0  0  0
   26.2289    8.2597   14.2170 O   0  0  0  0  0  0  0  0  0  0  0  0
   21.9710    5.5962   10.6492 C   0  0  2  0  0  0  0  0  0  0  0  0
   23.6078    7.4882    6.0164 C   0  0  2  0  0  0  0  0  0  0  0  0
   23.2870    6.1773    6.4735 O   0  0  0  0  0  0  0  0  0  0  0  0
   23.8634    7.9121   13.8531 C   0  0  2  0  0  0  0  0  0  0  0  0
   22.8092    8.1393   12.8929 O   0  0  0  0  0  0  0  0  0  0  0  0
   22.6122    4.5959    9.6670 C   0  0  2  0  0  0  0  0  0  0  0  0
   23.3515    5.4236    8.7016 O   0  0  0  0  0  0  0  0  0  0  0  0
   25.0892    7.8501    6.3739 C   0  0  0  0  0  0  0  0  0  0  0  0
   25.9841    6.9698    5.7001 N   0  0  0  0  0  0  0  0  0  0  0  0
   23.4616    8.5362   15.1693 C   0  0  0  0  0  0  0  0  0  0  0  0
   23.4653    9.9157   15.0992 O   0  0  0  0  0  0  0  0  0  0  0  0
   21.4845    3.7497    8.9266 C   0  0  1  0  0  0  0  0  0  0  0  0
   22.0511    2.6663    8.1740 O   0  0  0  0  0  0  0  0  0  0  0  0
  1  2  1  1  0  0  0
  1  6  1  0  0  0  0
  1 23  1  0  0  0  0
  3  4  1  6  0  0  0
  3  8  1  0  0  0  0
  3 30  1  0  0  0  0
  5  9  1  0  0  0  0
  5 21  1  0  0  0  0
  5 25  1  1  0  0  0
  6  7  1  6  0  0  0
  6 11  1  0  0  0  0
  8 13  1  0  0  0  0
  9 10  1  6  0  0  0
  9 15  1  0  0  0  0
 11 12  1  6  0  0  0
 11 17  1  0  0  0  0
 13 14  1  6  0  0  0
 13 19  1  0  0  0  0
 15 16  1  6  0  0  0
 15 20  1  0  0  0  0
 17 18  1  1  0  0  0
 17 22  1  0  0  0  0
 19  2  1  1  0  0  0
 19 24  1  0  0  0  0
 20 21  1  0  0  0  0
 20 26  1  1  0  0  0
 22 23  1  0  0  0  0
 22 28  1  1  0  0  0
 24 25  1  6  0  0  0
 24 30  1  0  0  0  0
 26 27  1  0  0  0  0
 28 29  1  0  0  0  0
 30 31  1  1  0  0  0
M  END
>  <CHROM.1>
-119.64828310,100.56478697,-109.45621980,176.37149989,51.98179087,-71.74892425
23.02814913,6.68403119,10.13629331,1.11894915,0.77583619,1.44834816

>  <Name>
2o3x_lig

>  <RI>
0

>  <Rbt.Current_Directory>
/home/itssahil/PROJECTS/Mol_Feturizer/New_Systems/rnas/2o3x

>  <Rbt.Executable>
rbdock ($Id: //depot/dev/client3/rdock/2013.1/src/exe/rbdock.cxx#4 $)

>  <Rbt.Library>
libRbt.so (2013.1, Build901 2013/11/27)

>  <Rbt.Parameter_File>
/export/apps/rDock/src/rDock_2013.1_src/data/scripts/dock_solv.prm

>  <Rbt.Receptor>
prm/blind_docking_40.prm

>  <SCORE>
1.63664

>  <SCORE.INTER>
-9.77408

>  <SCORE.INTER.CONST>
1

>  <SCORE.INTER.POLAR>
-1.08635

>  <SCORE.INTER.ROT>
6

>  <SCORE.INTER.SOLV>
21.1617

>  <SCORE.INTER.VDW>
-17.5488

>  <SCORE.INTER.norm>
-0.315293

>  <SCORE.INTRA>
8.18252

>  <SCORE.INTRA.DIHEDRAL>
10.9889

>  <SCORE.INTRA.DIHEDRAL.0>
9.37739

>  <SCORE.INTRA.POLAR>
0

>  <SCORE.INTRA.POLAR.0>
0

>  <SCORE.INTRA.REPUL>
0.009023

>  <SCORE.INTRA.REPUL.0>
0

>  <SCORE.INTRA.SOLV>
5.07015

>  <SCORE.INTRA.SOLV.lig_0>
-82.9274

>  <SCORE.INTRA.VDW>
0.107897

>  <SCORE.INTRA.VDW.0>
-3.84922

>  <SCORE.INTRA.norm>
0.263952

>  <SCORE.RESTR>
3.2282

>  <SCORE.RESTR.CAVITY>
3.2282

>  <SCORE.RESTR.norm>
0.104135

>  <SCORE.SYSTEM>
0

>  <SCORE.SYSTEM.CONST>
0

>  <SCORE.SYSTEM.DIHEDRAL>
0

>  <SCORE.SYSTEM.SOLV>
0

>  <SCORE.SYSTEM.norm>
0

>  <SCORE.heavy>
31

>  <SCORE.norm>
0.0527948

>  <RMSD>
8.071

$$$$
2o3x_lig
 OpenBabel11021811463D
libRbt.so/2013.1/901 2013/11/27
 31 33  0  0  0  0  0  0  0  0999 V2000
   18.5765    5.5848   12.5854 C   0  0  2  0  0  0  0  0  0  0  0  0
   18.9831    6.4738   11.5368 O   0  0  0  0  0  0  0  0  0  0  0  0
   22.6815    7.6007   13.3671 C   0  0  2  0  0  0  0  0  0  0  0  0
   23.9609    8.2723   13.6860 N   0  0  0  0  0  0  0  0  0  0  0  0
   19.4268    9.9232   11.4598 C   0  0  1  0  0  0  0  0  0  0  0  0
   17.3980    4.7068   12.0573 C   0  0  2  0  0  0  0  0  0  0  0  0
   17.6906    4.1207   10.7244 N   0  0  0  0  0  0  0  0  0  0  0  0
   22.7477    6.8225   12.0108 C   0  0  0  0  0  0  0  0  0  0  0  0
   18.3283   11.0130   11.2326 C   0  0  2  0  0  0  0  0  0  0  0  0
   17.1786   10.6042   10.4417 O   0  0  0  0  0  0  0  0  0  0  0  0
   16.0923    5.5165   11.9455 C   0  0  1  0  0  0  0  0  0  0  0  0
   15.0357    4.6950   11.5177 O   0  0  0  0  0  0  0  0  0  0  0  0
   21.3591    6.1228   11.7773 C   0  0  2  0  0  0  0  0  0  0  0  0
   21.3456    5.3391   10.5058 N   0  0  0  0  0  0  0  0  0  0  0  0
   19.2106   12.0900   10.6238 C   0  0  2  0  0  0  0  0  0  0  0  0
   19.4794   11.8144    9.2062 O   0  0  0  0  0  0  0  0  0  0  0  0
   15.7654    6.1496   13.2875 C   0  0  2  0  0  0  0  0  0  0  0  0
   14.5743    6.8626   13.1950 O   0  0  0  0  0  0  0  0  0  0  0  0
   20.2193    7.1794   11.7175 C   0  0  2  0  0  0  0  0  0  0  0  0
   20.4951   12.0376   11.4425 C   0  0  2  0  0  0  0  0  0  0  0  0
   20.6685   10.6293   11.5728 O   0  0  0  0  0  0  0  0  0  0  0  0
   16.9227    7.0912   13.7254 C   0  0  2  0  0  0  0  0  0  0  0  0
   18.1551    6.3428   13.8027 O   0  0  0  0  0  0  0  0  0  0  0  0
   20.1388    8.0613   12.9792 C   0  0  2  0  0  0  0  0  0  0  0  0
   19.1945    9.1365   12.6385 O   0  0  0  0  0  0  0  0  0  0  0  0
   20.4075   12.7154   12.8518 C   0  0  0  0  0  0  0  0  0  0  0  0
   20.0974   14.0988   12.7110 N   0  0  0  0  0  0  0  0  0  0  0  0
   16.6652    7.7387   15.0662 C   0  0  0  0  0  0  0  0  0  0  0  0
   16.4788    6.7957   16.0581 O   0  0  0  0  0  0  0  0  0  0  0  0
   21.5715    8.6662   13.3220 C   0  0  1  0  0  0  0  0  0  0  0  0
   21.5760    9.3083   14.6061 O   0  0  0  0  0  0  0  0  0  0  0  0
  1  2  1  6  0  0  0
  1  6  1  0  0  0  0
  1 23  1  0  0  0  0
  3  4  1  6  0  0  0
  3  8  1  0  0  0  0
  3 30  1  0  0  0  0
  5  9  1  0  0  0  0
  5 21  1  0  0  0  0
  5 25  1  1  0  0  0
  6  7  1  6  0  0  0
  6 11  1  0  0  0  0
  8 13  1  0  0  0  0
  9 10  1  6  0  0  0
  9 15  1  0  0  0  0
 11 12  1  1  0  0  0
 11 17  1  0  0  0  0
 13 14  1  6  0  0  0
 13 19  1  0  0  0  0
 15 16  1  6  0  0  0
 15 20  1  0  0  0  0
 17 18  1  6  0  0  0
 17 22  1  0  0  0  0
 19  2  1  1  0  0  0
 19 24  1  0  0  0  0
 20 21  1  0  0  0  0
 20 26  1  1  0  0  0
 22 23  1  0  0  0  0
 22 28  1  1  0  0  0
 24 25  1  6  0  0  0
 24 30  1  0  0  0  0
 26 27  1  0  0  0  0
 28 29  1  0  0  0  0
 30 31  1  1  0  0  0
M  END
>  <CHROM.1>
-167.85925222,179.48154739,63.39193737,-60.87011913,58.24028708,-54.09201241
19.06488139,8.18813199,12.38367826,-2.18760926,-0.01113546,-0.14933810

>  <Name>
2o3x_lig

>  <RI>
0

>  <Rbt.Current_Directory>
/home/itssahil/PROJECTS/Mol_Feturizer/New_Systems/rnas/2o3x

>  <Rbt.Executable>
rbdock ($Id: //depot/dev/client3/rdock/2013.1/src/exe/rbdock.cxx#4 $)

>  <Rbt.Library>
libRbt.so (2013.1, Build901 2013/11/27)

>  <Rbt.Parameter_File>
/export/apps/rDock/src/rDock_2013.1_src/data/scripts/dock_solv.prm

>  <Rbt.Receptor>
prm/pocket_docking_8.prm

>  <SCORE>
-14.2471

>  <SCORE.INTER>
-11.8198

>  <SCORE.INTER.CONST>
1

>  <SCORE.INTER.POLAR>
-1.15677

>  <SCORE.INTER.ROT>
6

>  <SCORE.INTER.SOLV>
12.3754

>  <SCORE.INTER.VDW>
-15.7491

>  <SCORE.INTER.norm>
-0.381282

>  <SCORE.INTRA>
-2.42737

>  <SCORE.INTRA.DIHEDRAL>
-8.24733

>  <SCORE.INTRA.DIHEDRAL.0>
9.37739

>  <SCORE.INTRA.POLAR>
0

>  <SCORE.INTRA.POLAR.0>
0

>  <SCORE.INTRA.REPUL>
0

>  <SCORE.INTRA.REPUL.0>
0

>  <SCORE.INTRA.SOLV>
-0.877803

>  <SCORE.INTRA.SOLV.lig_0>
-82.9274

>  <SCORE.INTRA.VDW>
2.13519

>  <SCORE.INTRA.VDW.0>
-3.84922

>  <SCORE.INTRA.norm>
-0.0783024

>  <SCORE.RESTR>
0

>  <SCORE.RESTR.CAVITY>
0

>  <SCORE.RESTR.norm>
0

>  <SCORE.SYSTEM>
0

>  <SCORE.SYSTEM.CONST>
0

>  <SCORE.SYSTEM.DIHEDRAL>
0

>  <SCORE.SYSTEM.SOLV>
0

>  <SCORE.SYSTEM.norm>
0

>  <SCORE.heavy>
31

>  <SCORE.norm>
-0.459585

>  <RMSD>
8.074

$$$$
2o3x_lig
 OpenBabel11021811463D
libRbt.so/2013.1/901 2013/11/27
 31 33  0  0  0  0  0  0  0  0999 V2000
   22.0495    7.2119   12.2633 C   0  0  2  0  0  0  0  0  0  0  0  0
   22.7829    6.8965   13.4541 O   0  0  0  0  0  0  0  0  0  0  0  0
   26.2611    9.3823   13.5973 C   0  0  2  0  0  0  0  0  0  0  0  0
   27.6580    9.8704   13.5977 N   0  0  0  0  0  0  0  0  0  0  0  0
   24.5663    7.4328    9.7473 C   0  0  1  0  0  0  0  0  0  0  0  0
   20.6900    7.8582   12.6787 C   0  0  2  0  0  0  0  0  0  0  0  0
   20.8666    8.9313   13.6901 N   0  0  0  0  0  0  0  0  0  0  0  0
   25.9469    8.4970   14.8490 C   0  0  0  0  0  0  0  0  0  0  0  0
   24.7837    6.2487    8.7489 C   0  0  2  0  0  0  0  0  0  0  0  0
   26.1663    5.8892    8.4775 O   0  0  0  0  0  0  0  0  0  0  0  0
   19.7177    6.8131   13.2578 C   0  0  1  0  0  0  0  0  0  0  0  0
   18.4850    7.4072   13.5769 O   0  0  0  0  0  0  0  0  0  0  0  0
   24.4398    8.0550   14.7727 C   0  0  2  0  0  0  0  0  0  0  0  0
   24.0526    7.2176   15.9474 N   0  0  0  0  0  0  0  0  0  0  0  0
   23.9937    6.8036    7.5755 C   0  0  2  0  0  0  0  0  0  0  0  0
   24.7770    7.8021    6.8357 O   0  0  0  0  0  0  0  0  0  0  0  0
   19.5229    5.6852   12.2585 C   0  0  2  0  0  0  0  0  0  0  0  0
   18.6272    4.7514   12.7699 O   0  0  0  0  0  0  0  0  0  0  0  0
   24.1763    7.2375   13.4760 C   0  0  2  0  0  0  0  0  0  0  0  0
   22.7626    7.4384    8.2114 C   0  0  2  0  0  0  0  0  0  0  0  0
   23.3476    8.0708    9.3464 O   0  0  0  0  0  0  0  0  0  0  0  0
   20.8882    5.0078   11.9508 C   0  0  2  0  0  0  0  0  0  0  0  0
   21.8128    5.9900   11.4356 O   0  0  0  0  0  0  0  0  0  0  0  0
   24.5489    7.9994   12.1888 C   0  0  2  0  0  0  0  0  0  0  0  0
   24.4731    6.9990   11.1130 O   0  0  0  0  0  0  0  0  0  0  0  0
   21.6527    6.4261    8.6549 C   0  0  0  0  0  0  0  0  0  0  0  0
   22.2398    5.1718    8.9893 N   0  0  0  0  0  0  0  0  0  0  0  0
   20.7638    3.8866   10.9455 C   0  0  0  0  0  0  0  0  0  0  0  0
   21.9740    3.2541   10.7378 O   0  0  0  0  0  0  0  0  0  0  0  0
   26.0255    8.5849   12.3019 C   0  0  1  0  0  0  0  0  0  0  0  0
   26.3193    9.4795   11.2181 O   0  0  0  0  0  0  0  0  0  0  0  0
  1  2  1  1  0  0  0
  1  6  1  0  0  0  0
  1 23  1  0  0  0  0
  3  4  1  1  0  0  0
  3  8  1  0  0  0  0
  3 30  1  0  0  0  0
  5  9  1  0  0  0  0
  5 21  1  0  0  0  0
  5 25  1  1  0  0  0
  6  7  1  1  0  0  0
  6 11  1  0  0  0  0
  8 13  1  0  0  0  0
  9 10  1  6  0  0  0
  9 15  1  0  0  0  0
 11 12  1  6  0  0  0
 11 17  1  0  0  0  0
 13 14  1  1  0  0  0
 13 19  1  0  0  0  0
 15 16  1  1  0  0  0
 15 20  1  0  0  0  0
 17 18  1  1  0  0  0
 17 22  1  0  0  0  0
 19  2  1  6  0  0  0
 19 24  1  0  0  0  0
 20 21  1  0  0  0  0
 20 26  1  1  0  0  0
 22 23  1  0  0  0  0
 22 28  1  6  0  0  0
 24 25  1  6  0  0  0
 24 30  1  0  0  0  0
 26 27  1  0  0  0  0
 28 29  1  0  0  0  0
 30 31  1  6  0  0  0
M  END
>  <CHROM.1>
-135.20847353,167.42062583,128.29454495,28.81290822,-176.91030709,170.56368243
23.09619162,7.01714045,11.53708161,3.09958190,-0.43740211,-1.86982395

>  <Name>
2o3x_lig

>  <RI>
0

>  <Rbt.Current_Directory>
/home/itssahil/PROJECTS/Mol_Feturizer/New_Systems/rnas/2o3x

>  <Rbt.Executable>
rbdock ($Id: //depot/dev/client3/rdock/2013.1/src/exe/rbdock.cxx#4 $)

>  <Rbt.Library>
libRbt.so (2013.1, Build901 2013/11/27)

>  <Rbt.Parameter_File>
/export/apps/rDock/src/rDock_2013.1_src/data/scripts/dock_solv.prm

>  <Rbt.Receptor>
prm/blind_docking_60.prm

>  <SCORE>
10.6988

>  <SCORE.INTER>
-8.15426

>  <SCORE.INTER.CONST>
1

>  <SCORE.INTER.POLAR>
-0.0133321

>  <SCORE.INTER.ROT>
6

>  <SCORE.INTER.SOLV>
29.9123

>  <SCORE.INTER.VDW>
-22.9625

>  <SCORE.INTER.norm>
-0.263041

>  <SCORE.INTRA>
11.3523

>  <SCORE.INTRA.DIHEDRAL>
7.63485

>  <SCORE.INTRA.DIHEDRAL.0>
9.37739

>  <SCORE.INTRA.POLAR>
0

>  <SCORE.INTRA.POLAR.0>
0

>  <SCORE.INTRA.REPUL>
0

>  <SCORE.INTRA.REPUL.0>
0

>  <SCORE.INTRA.SOLV>
5.35169

>  <SCORE.INTRA.SOLV.lig_0>
-82.9274

>  <SCORE.INTRA.VDW>
4.85907

>  <SCORE.INTRA.VDW.0>
-3.84922

>  <SCORE.INTRA.norm>
0.366205

>  <SCORE.RESTR>
7.50073

>  <SCORE.RESTR.CAVITY>
7.50073

>  <SCORE.RESTR.norm>
0.241959

>  <SCORE.SYSTEM>
0

>  <SCORE.SYSTEM.CONST>
0

>  <SCORE.SYSTEM.DIHEDRAL>
0

>  <SCORE.SYSTEM.SOLV>
0

>  <SCORE.SYSTEM.norm>
0

>  <SCORE.heavy>
31

>  <SCORE.norm>
0.345123

>  <RMSD>
8.111

$$$$
2o3x_lig
 OpenBabel11021811463D
libRbt.so/2013.1/901 2013/11/27
 31 33  0  0  0  0  0  0  0  0999 V2000
   23.4887    7.7213   11.2712 C   0  0  2  0  0  0  0  0  0  0  0  0
   23.4481    6.2903   11.3493 O   0  0  0  0  0  0  0  0  0  0  0  0
   20.8813    3.1024   10.1056 C   0  0  2  0  0  0  0  0  0  0  0  0
   19.8694    2.2897    9.3948 N   0  0  0  0  0  0  0  0  0  0  0  0
   23.1428    6.3249    7.9836 C   0  0  1  0  0  0  0  0  0  0  0  0
   24.8494    8.2084   11.8627 C   0  0  2  0  0  0  0  0  0  0  0  0
   26.0019    7.4499   11.3130 N   0  0  0  0  0  0  0  0  0  0  0  0
   20.2353    4.2949   10.8866 C   0  0  0  0  0  0  0  0  0  0  0  0
   24.1097    7.5214    7.7015 C   0  0  2  0  0  0  0  0  0  0  0  0
   24.1787    8.5425    8.7345 O   0  0  0  0  0  0  0  0  0  0  0  0
   24.8810    8.0773   13.3972 C   0  0  1  0  0  0  0  0  0  0  0  0
   26.0933    8.5680   13.9109 O   0  0  0  0  0  0  0  0  0  0  0  0
   21.3813    5.0751   11.6283 C   0  0  2  0  0  0  0  0  0  0  0  0
   20.8428    6.2238   12.4169 N   0  0  0  0  0  0  0  0  0  0  0  0
   23.5330    7.9589    6.3655 C   0  0  2  0  0  0  0  0  0  0  0  0
   22.3149    8.7584    6.5518 O   0  0  0  0  0  0  0  0  0  0  0  0
   23.7046    8.8265   13.9999 C   0  0  2  0  0  0  0  0  0  0  0  0
   23.7440    8.7288   15.3872 O   0  0  0  0  0  0  0  0  0  0  0  0
   22.4187    5.6217   10.6065 C   0  0  2  0  0  0  0  0  0  0  0  0
   23.2236    6.6552    5.6391 C   0  0  2  0  0  0  0  0  0  0  0  0
   22.6744    5.8833    6.7035 O   0  0  0  0  0  0  0  0  0  0  0  0
   22.3697    8.2419   13.4577 C   0  0  2  0  0  0  0  0  0  0  0  0
   22.3481    8.3352   12.0169 O   0  0  0  0  0  0  0  0  0  0  0  0
   23.0409    4.5227    9.7226 C   0  0  2  0  0  0  0  0  0  0  0  0
   23.7839    5.2433    8.6773 O   0  0  0  0  0  0  0  0  0  0  0  0
   24.4681    5.9337    5.0194 C   0  0  0  0  0  0  0  0  0  0  0  0
   25.4952    6.8813    4.7419 N   0  0  0  0  0  0  0  0  0  0  0  0
   21.1588    8.9596   14.0070 C   0  0  0  0  0  0  0  0  0  0  0  0
   19.9870    8.4614   13.4718 O   0  0  0  0  0  0  0  0  0  0  0  0
   21.8981    3.6233    9.0739 C   0  0  1  0  0  0  0  0  0  0  0  0
   22.4463    2.4648    8.4270 O   0  0  0  0  0  0  0  0  0  0  0  0
  1  2  1  1  0  0  0
  1  6  1  0  0  0  0
  1 23  1  0  0  0  0
  3  4  1  6  0  0  0
  3  8  1  0  0  0  0
  3 30  1  0  0  0  0
  5  9  1  0  0  0  0
  5 21  1  0  0  0  0
  5 25  1  6  0  0  0
  6  7  1  6  0  0  0
  6 11  1  0  0  0  0
  8 13  1  0  0  0  0
  9 10  1  1  0  0  0
  9 15  1  0  0  0  0
 11 12  1  1  0  0  0
 11 17  1  0  0  0  0
 13 14  1  6  0  0  0
 13 19  1  0  0  0  0
 15 16  1  1  0  0  0
 15 20  1  0  0  0  0
 17 18  1  1  0  0  0
 17 22  1  0  0  0  0
 19  2  1  1  0  0  0
 19 24  1  0  0  0  0
 20 21  1  0  0  0  0
 20 26  1  1  0  0  0
 22 23  1  0  0  0  0
 22 28  1  1  0  0  0
 24 25  1  6  0  0  0
 24 30  1  0  0  0  0
 26 27  1  0  0  0  0
 28 29  1  0  0  0  0
 30 31  1  1  0  0  0
M  END
>  <CHROM.1>
-167.03434556,141.08510055,-108.37931813,-25.75456104,177.54253538,-47.66578405
22.97100171,6.63194431,10.20262201,-1.59284909,-0.85435888,-1.94112491

>  <Name>
2o3x_lig

>  <RI>
0

>  <Rbt.Current_Directory>
/home/itssahil/PROJECTS/Mol_Feturizer/New_Systems/rnas/2o3x

>  <Rbt.Executable>
rbdock ($Id: //depot/dev/client3/rdock/2013.1/src/exe/rbdock.cxx#4 $)

>  <Rbt.Library>
libRbt.so (2013.1, Build901 2013/11/27)

>  <Rbt.Parameter_File>
/export/apps/rDock/src/rDock_2013.1_src/data/scripts/dock_solv.prm

>  <Rbt.Receptor>
prm/blind_docking_40.prm

>  <SCORE>
8.94827

>  <SCORE.INTER>
-2.76739

>  <SCORE.INTER.CONST>
1

>  <SCORE.INTER.POLAR>
-0.302257

>  <SCORE.INTER.ROT>
6

>  <SCORE.INTER.SOLV>
22.54

>  <SCORE.INTER.VDW>
-15.9507

>  <SCORE.INTER.norm>
-0.0892705

>  <SCORE.INTRA>
7.79867

>  <SCORE.INTRA.DIHEDRAL>
7.06909

>  <SCORE.INTRA.DIHEDRAL.0>
9.37739

>  <SCORE.INTRA.POLAR>
0

>  <SCORE.INTRA.POLAR.0>
0

>  <SCORE.INTRA.REPUL>
0

>  <SCORE.INTRA.REPUL.0>
0

>  <SCORE.INTRA.SOLV>
4.61291

>  <SCORE.INTRA.SOLV.lig_0>
-82.9274

>  <SCORE.INTRA.VDW>
1.95767

>  <SCORE.INTRA.VDW.0>
-3.84922

>  <SCORE.INTRA.norm>
0.25157

>  <SCORE.RESTR>
3.91698

>  <SCORE.RESTR.CAVITY>
3.91698

>  <SCORE.RESTR.norm>
0.126354

>  <SCORE.SYSTEM>
0

>  <SCORE.SYSTEM.CONST>
0

>  <SCORE.SYSTEM.DIHEDRAL>
0

>  <SCORE.SYSTEM.SOLV>
0

>  <SCORE.SYSTEM.norm>
0

>  <SCORE.heavy>
31

>  <SCORE.norm>
0.288654

>  <RMSD>
8.138

$$$$
2o3x_lig
 OpenBabel11021811463D
libRbt.so/2013.1/901 2013/11/27
 31 33  0  0  0  0  0  0  0  0999 V2000
   23.0829    7.6557   11.6121 C   0  0  2  0  0  0  0  0  0  0  0  0
   23.0566    6.2222   11.6046 O   0  0  0  0  0  0  0  0  0  0  0  0
   20.7024    3.0644    9.9360 C   0  0  2  0  0  0  0  0  0  0  0  0
   19.7557    2.2848    9.1082 N   0  0  0  0  0  0  0  0  0  0  0  0
   22.7828    6.2305    7.8532 C   0  0  1  0  0  0  0  0  0  0  0  0
   24.4726    8.1256   11.0771 C   0  0  2  0  0  0  0  0  0  0  0  0
   24.8526    7.4307    9.8208 N   0  0  0  0  0  0  0  0  0  0  0  0
   19.9716    4.1272   10.8225 C   0  0  0  0  0  0  0  0  0  0  0  0
   22.8017    7.7747    8.1009 C   0  0  2  0  0  0  0  0  0  0  0  0
   21.7326    8.2998    8.9349 O   0  0  0  0  0  0  0  0  0  0  0  0
   25.5896    7.8861   12.1105 C   0  0  1  0  0  0  0  0  0  0  0  0
   26.8204    8.3624   11.6283 O   0  0  0  0  0  0  0  0  0  0  0  0
   21.0533    4.8780   11.6819 C   0  0  2  0  0  0  0  0  0  0  0  0
   20.4321    5.9020   12.5746 N   0  0  0  0  0  0  0  0  0  0  0  0
   22.8041    8.2292    6.6510 C   0  0  2  0  0  0  0  0  0  0  0  0
   21.4553    8.1612    6.0734 O   0  0  0  0  0  0  0  0  0  0  0  0
   25.2307    8.5676   13.4203 C   0  0  2  0  0  0  0  0  0  0  0  0
   26.2488    8.3721   14.3482 O   0  0  0  0  0  0  0  0  0  0  0  0
   22.0853    5.5883   10.7601 C   0  0  2  0  0  0  0  0  0  0  0  0
   23.7472    7.2589    5.9493 C   0  0  2  0  0  0  0  0  0  0  0  0
   23.3629    6.0294    6.5586 O   0  0  0  0  0  0  0  0  0  0  0  0
   23.8905    7.9973   13.9647 C   0  0  2  0  0  0  0  0  0  0  0  0
   22.8463    8.1926   12.9868 O   0  0  0  0  0  0  0  0  0  0  0  0
   22.7898    4.6286    9.7809 C   0  0  2  0  0  0  0  0  0  0  0  0
   23.5190    5.4989    8.8457 O   0  0  0  0  0  0  0  0  0  0  0  0
   25.2713    7.5365    6.1805 C   0  0  0  0  0  0  0  0  0  0  0  0
   26.0547    6.7044    5.3298 N   0  0  0  0  0  0  0  0  0  0  0  0
   23.4681    8.6505   15.2602 C   0  0  0  0  0  0  0  0  0  0  0  0
   22.9466    9.9116   15.0466 O   0  0  0  0  0  0  0  0  0  0  0  0
   21.7155    3.7492    9.0010 C   0  0  1  0  0  0  0  0  0  0  0  0
   22.3433    2.7002    8.2484 O   0  0  0  0  0  0  0  0  0  0  0  0
  1  2  1  1  0  0  0
  1  6  1  0  0  0  0
  1 23  1  0  0  0  0
  3  4  1  6  0  0  0
  3  8  1  0  0  0  0
  3 30  1  0  0  0  0
  5  9  1  0  0  0  0
  5 21  1  0  0  0  0
  5 25  1  1  0  0  0
  6  7  1  6  0  0  0
  6 11  1  0  0  0  0
  8 13  1  0  0  0  0
  9 10  1  1  0  0  0
  9 15  1  0  0  0  0
 11 12  1  6  0  0  0
 11 17  1  0  0  0  0
 13 14  1  6  0  0  0
 13 19  1  0  0  0  0
 15 16  1  6  0  0  0
 15 20  1  0  0  0  0
 17 18  1  1  0  0  0
 17 22  1  0  0  0  0
 19  2  1  1  0  0  0
 19 24  1  0  0  0  0
 20 21  1  0  0  0  0
 20 26  1  1  0  0  0
 22 23  1  0  0  0  0
 22 28  1  1  0  0  0
 24 25  1  6  0  0  0
 24 30  1  0  0  0  0
 26 27  1  0  0  0  0
 28 29  1  0  0  0  0
 30 31  1  1  0  0  0
M  END
>  <CHROM.1>
-117.49925139,111.93890127,-112.72116839,-171.41111580,76.24911225,-73.45546652
23.14151871,6.67295556,10.18285126,1.23351053,0.79475526,1.39328458

>  <Name>
2o3x_lig

>  <RI>
224

>  <Rbt.Current_Directory>
/home/itssahil/PROJECTS/Mol_Feturizer/New_Systems/rnas/2o3x

>  <Rbt.Executable>
rbdock ($Id: //depot/dev/client3/rdock/2013.1/src/exe/rbdock.cxx#4 $)

>  <Rbt.Library>
libRbt.so (2013.1, Build901 2013/11/27)

>  <Rbt.Parameter_File>
/export/apps/rDock/src/rDock_2013.1_src/data/scripts/dock_solv.prm

>  <Rbt.Receptor>
prm/blind_docking_100.prm

>  <SCORE>
-0.718705

>  <SCORE.INTER>
-12.6454

>  <SCORE.INTER.CONST>
1

>  <SCORE.INTER.POLAR>
-1.22841

>  <SCORE.INTER.ROT>
6

>  <SCORE.INTER.SOLV>
21.5898

>  <SCORE.INTER.VDW>
-19.1322

>  <SCORE.INTER.norm>
-0.407917

>  <SCORE.INTRA>
9.72247

>  <SCORE.INTRA.DIHEDRAL>
13.6774

>  <SCORE.INTRA.DIHEDRAL.0>
9.37739

>  <SCORE.INTRA.POLAR>
0

>  <SCORE.INTRA.POLAR.0>
0

>  <SCORE.INTRA.REPUL>
0.0256067

>  <SCORE.INTRA.REPUL.0>
0

>  <SCORE.INTRA.SOLV>
4.16272

>  <SCORE.INTRA.SOLV.lig_0>
-82.9274

>  <SCORE.INTRA.VDW>
0.674363

>  <SCORE.INTRA.VDW.0>
-3.84922

>  <SCORE.INTRA.norm>
0.313628

>  <SCORE.RESTR>
2.20425

>  <SCORE.RESTR.CAVITY>
2.20425

>  <SCORE.RESTR.norm>
0.0711049

>  <SCORE.SYSTEM>
0

>  <SCORE.SYSTEM.CONST>
0

>  <SCORE.SYSTEM.DIHEDRAL>
0

>  <SCORE.SYSTEM.SOLV>
0

>  <SCORE.SYSTEM.norm>
0

>  <SCORE.heavy>
31

>  <SCORE.norm>
-0.023184

>  <RMSD>
8.142

$$$$
2o3x_lig
 OpenBabel11021811463D
libRbt.so/2013.1/901 2013/11/27
 31 33  0  0  0  0  0  0  0  0999 V2000
   23.1408    7.7196   11.6162 C   0  0  2  0  0  0  0  0  0  0  0  0
   23.0743    6.2875   11.6086 O   0  0  0  0  0  0  0  0  0  0  0  0
   20.5549    3.2078   10.0382 C   0  0  2  0  0  0  0  0  0  0  0  0
   19.5611    2.4560    9.2402 N   0  0  0  0  0  0  0  0  0  0  0  0
   22.7412    6.2340    7.8599 C   0  0  1  0  0  0  0  0  0  0  0  0
   24.5674    8.1489   11.1484 C   0  0  2  0  0  0  0  0  0  0  0  0
   24.9875    7.4408    9.9123 N   0  0  0  0  0  0  0  0  0  0  0  0
   19.8866    4.3189   10.9147 C   0  0  0  0  0  0  0  0  0  0  0  0
   22.7786    7.7777    8.1089 C   0  0  2  0  0  0  0  0  0  0  0  0
   21.7099    8.3164    8.9346 O   0  0  0  0  0  0  0  0  0  0  0  0
   25.6261    7.8802   12.2345 C   0  0  1  0  0  0  0  0  0  0  0  0
   26.8917    8.3205   11.8118 O   0  0  0  0  0  0  0  0  0  0  0  0
   21.0144    5.0365   11.7427 C   0  0  2  0  0  0  0  0  0  0  0  0
   20.4539    6.1040   12.6244 N   0  0  0  0  0  0  0  0  0  0  0  0
   22.7988    8.2330    6.6594 C   0  0  2  0  0  0  0  0  0  0  0  0
   21.4539    8.1833    6.0708 O   0  0  0  0  0  0  0  0  0  0  0  0
   25.2241    8.5745   13.5249 C   0  0  2  0  0  0  0  0  0  0  0  0
   26.1904    8.3523   14.5009 O   0  0  0  0  0  0  0  0  0  0  0  0
   22.0621    5.6821   10.7916 C   0  0  2  0  0  0  0  0  0  0  0  0
   23.7345    7.2507    5.9646 C   0  0  2  0  0  0  0  0  0  0  0  0
   23.3290    6.0261    6.5699 O   0  0  0  0  0  0  0  0  0  0  0  0
   23.8436    8.0435   14.0047 C   0  0  2  0  0  0  0  0  0  0  0  0
   22.8537    8.2661   12.9774 O   0  0  0  0  0  0  0  0  0  0  0  0
   22.7073    4.6733    9.8208 C   0  0  2  0  0  0  0  0  0  0  0  0
   23.4596    5.4921    8.8577 O   0  0  0  0  0  0  0  0  0  0  0  0
   25.2602    7.5079    6.2083 C   0  0  0  0  0  0  0  0  0  0  0  0
   26.0369    6.7699    5.2691 N   0  0  0  0  0  0  0  0  0  0  0  0
   23.3781    8.7112   15.2778 C   0  0  0  0  0  0  0  0  0  0  0  0
   22.8446    9.9610   15.0299 O   0  0  0  0  0  0  0  0  0  0  0  0
   21.5824    3.8285    9.0747 C   0  0  1  0  0  0  0  0  0  0  0  0
   22.1506    2.7382    8.3333 O   0  0  0  0  0  0  0  0  0  0  0  0
  1  2  1  1  0  0  0
  1  6  1  0  0  0  0
  1 23  1  0  0  0  0
  3  4  1  6  0  0  0
  3  8  1  0  0  0  0
  3 30  1  0  0  0  0
  5  9  1  0  0  0  0
  5 21  1  0  0  0  0
  5 25  1  1  0  0  0
  6  7  1  6  0  0  0
  6 11  1  0  0  0  0
  8 13  1  0  0  0  0
  9 10  1  6  0  0  0
  9 15  1  0  0  0  0
 11 12  1  6  0  0  0
 11 17  1  0  0  0  0
 13 14  1  6  0  0  0
 13 19  1  0  0  0  0
 15 16  1  6  0  0  0
 15 20  1  0  0  0  0
 17 18  1  1  0  0  0
 17 22  1  0  0  0  0
 19  2  1  1  0  0  0
 19 24  1  0  0  0  0
 20 21  1  0  0  0  0
 20 26  1  1  0  0  0
 22 23  1  0  0  0  0
 22 28  1  1  0  0  0
 24 25  1  6  0  0  0
 24 30  1  0  0  0  0
 26 27  1  0  0  0  0
 28 29  1  0  0  0  0
 30 31  1  1  0  0  0
M  END
>  <CHROM.1>
-121.87783846,109.49985662,-111.04716424,-165.40025618,79.12559628,-73.63801615
23.10923469,6.72075789,10.22964730,-1.24284699,-0.75919291,-1.74931753

>  <Name>
2o3x_lig

>  <RI>
224

>  <Rbt.Current_Directory>
/home/itssahil/PROJECTS/Mol_Feturizer/New_Systems/rnas/2o3x

>  <Rbt.Executable>
rbdock ($Id: //depot/dev/client3/rdock/2013.1/src/exe/rbdock.cxx#4 $)

>  <Rbt.Library>
libRbt.so (2013.1, Build901 2013/11/27)

>  <Rbt.Parameter_File>
/export/apps/rDock/src/rDock_2013.1_src/data/scripts/dock_solv.prm

>  <Rbt.Receptor>
prm/blind_docking_100.prm

>  <SCORE>
-0.0179271

>  <SCORE.INTER>
-11.0139

>  <SCORE.INTER.CONST>
1

>  <SCORE.INTER.POLAR>
-1.23374

>  <SCORE.INTER.ROT>
6

>  <SCORE.INTER.SOLV>
21.6987

>  <SCORE.INTER.VDW>
-18.063

>  <SCORE.INTER.norm>
-0.355287

>  <SCORE.INTRA>
8.87619

>  <SCORE.INTRA.DIHEDRAL>
14.1293

>  <SCORE.INTRA.DIHEDRAL.0>
9.37739

>  <SCORE.INTRA.POLAR>
0

>  <SCORE.INTRA.POLAR.0>
0

>  <SCORE.INTRA.REPUL>
0.00622172

>  <SCORE.INTRA.REPUL.0>
0

>  <SCORE.INTRA.SOLV>
3.62266

>  <SCORE.INTRA.SOLV.lig_0>
-82.9274

>  <SCORE.INTRA.VDW>
-0.03091

>  <SCORE.INTRA.VDW.0>
-3.84922

>  <SCORE.INTRA.norm>
0.286329

>  <SCORE.RESTR>
2.1198

>  <SCORE.RESTR.CAVITY>
2.1198

>  <SCORE.RESTR.norm>
0.0683805

>  <SCORE.SYSTEM>
0

>  <SCORE.SYSTEM.CONST>
0

>  <SCORE.SYSTEM.DIHEDRAL>
0

>  <SCORE.SYSTEM.SOLV>
0

>  <SCORE.SYSTEM.norm>
0

>  <SCORE.heavy>
31

>  <SCORE.norm>
-0.000578293

>  <RMSD>
8.176

$$$$
2o3x_lig
 OpenBabel11021811463D
libRbt.so/2013.1/901 2013/11/27
 31 33  0  0  0  0  0  0  0  0999 V2000
   22.5915    7.1809   12.3570 C   0  0  2  0  0  0  0  0  0  0  0  0
   22.8028    5.8278   11.9330 O   0  0  0  0  0  0  0  0  0  0  0  0
   20.1342    3.1259    9.9641 C   0  0  2  0  0  0  0  0  0  0  0  0
   19.2468    2.4765    8.9740 N   0  0  0  0  0  0  0  0  0  0  0  0
   23.6137    5.7170    8.7372 C   0  0  1  0  0  0  0  0  0  0  0  0
   23.5055    8.1137   11.5009 C   0  0  2  0  0  0  0  0  0  0  0  0
   23.4042    7.8170   10.0492 N   0  0  0  0  0  0  0  0  0  0  0  0
   19.5478    4.4823   10.4795 C   0  0  0  0  0  0  0  0  0  0  0  0
   24.5182    5.6882    7.4616 C   0  0  2  0  0  0  0  0  0  0  0  0
   25.8656    6.2104    7.6236 O   0  0  0  0  0  0  0  0  0  0  0  0
   24.9854    7.9902   11.9102 C   0  0  1  0  0  0  0  0  0  0  0  0
   25.7812    8.8745   11.1625 O   0  0  0  0  0  0  0  0  0  0  0  0
   20.5427    5.0756   11.5428 C   0  0  2  0  0  0  0  0  0  0  0  0
   20.0439    6.3684   12.1006 N   0  0  0  0  0  0  0  0  0  0  0  0
   23.6063    6.4670    6.5286 C   0  0  2  0  0  0  0  0  0  0  0  0
   23.7028    7.9112    6.7788 O   0  0  0  0  0  0  0  0  0  0  0  0
   25.1309    8.2694   13.3967 C   0  0  2  0  0  0  0  0  0  0  0  0
   26.4698    8.1810   13.7643 O   0  0  0  0  0  0  0  0  0  0  0  0
   21.9401    5.3201   10.9051 C   0  0  2  0  0  0  0  0  0  0  0  0
   22.2074    5.9512    6.8451 C   0  0  2  0  0  0  0  0  0  0  0  0
   22.2695    5.8739    8.2666 O   0  0  0  0  0  0  0  0  0  0  0  0
   24.2815    7.2541   14.2124 C   0  0  2  0  0  0  0  0  0  0  0  0
   22.8976    7.3451   13.8108 O   0  0  0  0  0  0  0  0  0  0  0  0
   22.5569    4.0515   10.2836 C   0  0  2  0  0  0  0  0  0  0  0  0
   23.7267    4.5227    9.5265 O   0  0  0  0  0  0  0  0  0  0  0  0
   21.8656    4.5515    6.2309 C   0  0  0  0  0  0  0  0  0  0  0  0
   20.5940    4.1097    6.6974 N   0  0  0  0  0  0  0  0  0  0  0  0
   24.3694    7.4921   15.7021 C   0  0  0  0  0  0  0  0  0  0  0  0
   24.3486    8.8400   16.0031 O   0  0  0  0  0  0  0  0  0  0  0  0
   21.5102    3.3486    9.3109 C   0  0  1  0  0  0  0  0  0  0  0  0
   21.9714    2.0557    8.8903 O   0  0  0  0  0  0  0  0  0  0  0  0
  1  2  1  6  0  0  0
  1  6  1  0  0  0  0
  1 23  1  0  0  0  0
  3  4  1  6  0  0  0
  3  8  1  0  0  0  0
  3 30  1  0  0  0  0
  5  9  1  0  0  0  0
  5 21  1  0  0  0  0
  5 25  1  6  0  0  0
  6  7  1  6  0  0  0
  6 11  1  0  0  0  0
  8 13  1  0  0  0  0
  9 10  1  1  0  0  0
  9 15  1  0  0  0  0
 11 12  1  6  0  0  0
 11 17  1  0  0  0  0
 13 14  1  6  0  0  0
 13 19  1  0  0  0  0
 15 16  1  1  0  0  0
 15 20  1  0  0  0  0
 17 18  1  1  0  0  0
 17 22  1  0  0  0  0
 19  2  1  1  0  0  0
 19 24  1  0  0  0  0
 20 21  1  0  0  0  0
 20 26  1  6  0  0  0
 22 23  1  0  0  0  0
 22 28  1  1  0  0  0
 24 25  1  6  0  0  0
 24 30  1  0  0  0  0
 26 27  1  0  0  0  0
 28 29  1  0  0  0  0
 30 31  1  1  0  0  0
M  END
>  <CHROM.1>
-91.78464657,-148.30922796,-73.31603867,174.21115304,40.30202319,-42.46162366
22.95193153,6.04216214,10.43599336,1.05463287,0.68687760,1.35717585

>  <Name>
2o3x_lig

>  <RI>
0

>  <Rbt.Current_Directory>
/home/itssahil/PROJECTS/Mol_Feturizer/New_Systems/rnas/2o3x

>  <Rbt.Executable>
rbdock ($Id: //depot/dev/client3/rdock/2013.1/src/exe/rbdock.cxx#4 $)

>  <Rbt.Library>
libRbt.so (2013.1, Build901 2013/11/27)

>  <Rbt.Parameter_File>
/export/apps/rDock/src/rDock_2013.1_src/data/scripts/dock_solv.prm

>  <Rbt.Receptor>
prm/blind_docking_40.prm

>  <SCORE>
11.033

>  <SCORE.INTER>
-6.52437

>  <SCORE.INTER.CONST>
1

>  <SCORE.INTER.POLAR>
-0.693435

>  <SCORE.INTER.ROT>
6

>  <SCORE.INTER.SOLV>
16.3915

>  <SCORE.INTER.VDW>
-15.1019

>  <SCORE.INTER.norm>
-0.210464

>  <SCORE.INTRA>
11.0132

>  <SCORE.INTRA.DIHEDRAL>
2.28693

>  <SCORE.INTRA.DIHEDRAL.0>
9.37739

>  <SCORE.INTRA.POLAR>
0

>  <SCORE.INTRA.POLAR.0>
0

>  <SCORE.INTRA.REPUL>
0

>  <SCORE.INTRA.REPUL.0>
0

>  <SCORE.INTRA.SOLV>
10.4817

>  <SCORE.INTRA.SOLV.lig_0>
-82.9274

>  <SCORE.INTRA.VDW>
4.62883

>  <SCORE.INTRA.VDW.0>
-3.84922

>  <SCORE.INTRA.norm>
0.355263

>  <SCORE.RESTR>
6.54425

>  <SCORE.RESTR.CAVITY>
6.54425

>  <SCORE.RESTR.norm>
0.211105

>  <SCORE.SYSTEM>
0

>  <SCORE.SYSTEM.CONST>
0

>  <SCORE.SYSTEM.DIHEDRAL>
0

>  <SCORE.SYSTEM.SOLV>
0

>  <SCORE.SYSTEM.norm>
0

>  <SCORE.heavy>
31

>  <SCORE.norm>
0.355904

>  <RMSD>
8.178

$$$$
2o3x_lig
 OpenBabel11021811463D
libRbt.so/2013.1/901 2013/11/27
 31 33  0  0  0  0  0  0  0  0999 V2000
   15.5998    8.4780    8.7596 C   0  0  2  0  0  0  0  0  0  0  0  0
   14.9261    9.5582    9.4188 O   0  0  0  0  0  0  0  0  0  0  0  0
   16.5340   13.2566   10.8452 C   0  0  2  0  0  0  0  0  0  0  0  0
   17.3242   14.2742   11.5728 N   0  0  0  0  0  0  0  0  0  0  0  0
   18.6345   10.3310    7.8576 C   0  0  1  0  0  0  0  0  0  0  0  0
   14.5858    7.7768    7.8011 C   0  0  2  0  0  0  0  0  0  0  0  0
   13.8465    8.7514    6.9589 N   0  0  0  0  0  0  0  0  0  0  0  0
   15.5781   12.4629   11.7970 C   0  0  0  0  0  0  0  0  0  0  0  0
   19.8030    9.2926    7.8064 C   0  0  2  0  0  0  0  0  0  0  0  0
   20.9955    9.6369    8.5639 O   0  0  0  0  0  0  0  0  0  0  0  0
   13.5531    6.9406    8.5802 C   0  0  1  0  0  0  0  0  0  0  0  0
   12.6837    6.2792    7.6964 O   0  0  0  0  0  0  0  0  0  0  0  0
   14.7651   11.4333   10.9302 C   0  0  2  0  0  0  0  0  0  0  0  0
   13.8107   10.6445   11.7657 N   0  0  0  0  0  0  0  0  0  0  0  0
   19.9663    9.2206    6.2974 C   0  0  2  0  0  0  0  0  0  0  0  0
   20.7306   10.3691    5.7930 O   0  0  0  0  0  0  0  0  0  0  0  0
   14.2705    5.9400    9.4705 C   0  0  2  0  0  0  0  0  0  0  0  0
   13.3394    5.1679   10.1580 O   0  0  0  0  0  0  0  0  0  0  0  0
   15.7276   10.4437   10.2138 C   0  0  2  0  0  0  0  0  0  0  0  0
   18.5404    9.2358    5.7590 C   0  0  2  0  0  0  0  0  0  0  0  0
   17.9490   10.2186    6.6045 O   0  0  0  0  0  0  0  0  0  0  0  0
   15.1931    6.6888   10.4734 C   0  0  2  0  0  0  0  0  0  0  0  0
   16.1440    7.4977    9.7480 O   0  0  0  0  0  0  0  0  0  0  0  0
   16.7717   11.1459    9.3232 C   0  0  2  0  0  0  0  0  0  0  0  0
   17.7255   10.0924    8.9434 O   0  0  0  0  0  0  0  0  0  0  0  0
   17.7759    7.8739    5.8773 C   0  0  0  0  0  0  0  0  0  0  0  0
   17.9059    7.3528    7.1969 N   0  0  0  0  0  0  0  0  0  0  0  0
   15.9514    5.7446   11.3772 C   0  0  0  0  0  0  0  0  0  0  0  0
   16.7294    6.4302   12.2897 O   0  0  0  0  0  0  0  0  0  0  0  0
   17.5092   12.2968   10.1402 C   0  0  1  0  0  0  0  0  0  0  0  0
   18.3250   13.1087    9.2820 O   0  0  0  0  0  0  0  0  0  0  0  0
  1  2  1  1  0  0  0
  1  6  1  0  0  0  0
  1 23  1  0  0  0  0
  3  4  1  1  0  0  0
  3  8  1  0  0  0  0
  3 30  1  0  0  0  0
  5  9  1  0  0  0  0
  5 21  1  0  0  0  0
  5 25  1  1  0  0  0
  6  7  1  1  0  0  0
  6 11  1  0  0  0  0
  8 13  1  0  0  0  0
  9 10  1  1  0  0  0
  9 15  1  0  0  0  0
 11 12  1  6  0  0  0
 11 17  1  0  0  0  0
 13 14  1  1  0  0  0
 13 19  1  0  0  0  0
 15 16  1  6  0  0  0
 15 20  1  0  0  0  0
 17 18  1  1  0  0  0
 17 22  1  0  0  0  0
 19  2  1  6  0  0  0
 19 24  1  0  0  0  0
 20 21  1  0  0  0  0
 20 26  1  1  0  0  0
 22 23  1  0  0  0  0
 22 28  1  6  0  0  0
 24 25  1  1  0  0  0
 24 30  1  0  0  0  0
 26 27  1  0  0  0  0
 28 29  1  0  0  0  0
 30 31  1  6  0  0  0
M  END
>  <CHROM.1>
-172.01008885,165.52740857,-174.51282762,48.81595573,-177.94720511,164.83019275
16.57346513,9.26246571,9.00679137,-2.62572709,0.65240374,0.55377405

>  <Name>
2o3x_lig

>  <RI>
2.78316e+07

>  <Rbt.Current_Directory>
/home/itssahil/PROJECTS/Mol_Feturizer/New_Systems/rnas/2o3x

>  <Rbt.Executable>
rbdock ($Id: //depot/dev/client3/rdock/2013.1/src/exe/rbdock.cxx#4 $)

>  <Rbt.Library>
libRbt.so (2013.1, Build901 2013/11/27)

>  <Rbt.Parameter_File>
/export/apps/rDock/src/rDock_2013.1_src/data/scripts/dock_solv.prm

>  <Rbt.Receptor>
prm/pocket_docking_7.prm

>  <SCORE>
-11.3166

>  <SCORE.INTER>
-10.4282

>  <SCORE.INTER.CONST>
1

>  <SCORE.INTER.POLAR>
-1.32501

>  <SCORE.INTER.ROT>
6

>  <SCORE.INTER.SOLV>
15.5937

>  <SCORE.INTER.VDW>
-15.3333

>  <SCORE.INTER.norm>
-0.336393

>  <SCORE.INTRA>
-0.88842

>  <SCORE.INTRA.DIHEDRAL>
-6.21721

>  <SCORE.INTRA.DIHEDRAL.0>
9.37739

>  <SCORE.INTRA.POLAR>
0

>  <SCORE.INTRA.POLAR.0>
0

>  <SCORE.INTRA.REPUL>
0

>  <SCORE.INTRA.REPUL.0>
0

>  <SCORE.INTRA.SOLV>
2.82146

>  <SCORE.INTRA.SOLV.lig_0>
-82.9274

>  <SCORE.INTRA.VDW>
0.809455

>  <SCORE.INTRA.VDW.0>
-3.84922

>  <SCORE.INTRA.norm>
-0.0286587

>  <SCORE.RESTR>
0

>  <SCORE.RESTR.CAVITY>
0

>  <SCORE.RESTR.norm>
0

>  <SCORE.SYSTEM>
0

>  <SCORE.SYSTEM.CONST>
0

>  <SCORE.SYSTEM.DIHEDRAL>
0

>  <SCORE.SYSTEM.SOLV>
0

>  <SCORE.SYSTEM.norm>
0

>  <SCORE.heavy>
31

>  <SCORE.norm>
-0.365052

>  <RMSD>
8.179

$$$$
2o3x_lig
 OpenBabel11021811463D
libRbt.so/2013.1/901 2013/11/27
 31 33  0  0  0  0  0  0  0  0999 V2000
   23.6790    7.7696   11.2164 C   0  0  2  0  0  0  0  0  0  0  0  0
   23.6220    6.3384   11.2796 O   0  0  0  0  0  0  0  0  0  0  0  0
   20.8512    3.2347   10.2858 C   0  0  2  0  0  0  0  0  0  0  0  0
   19.7649    2.4484    9.6604 N   0  0  0  0  0  0  0  0  0  0  0  0
   23.0689    6.2007    7.8519 C   0  0  1  0  0  0  0  0  0  0  0  0
   25.0921    8.2279   11.6976 C   0  0  2  0  0  0  0  0  0  0  0  0
   26.1821    7.4599   11.0436 N   0  0  0  0  0  0  0  0  0  0  0  0
   20.3046    4.4763   11.0662 C   0  0  0  0  0  0  0  0  0  0  0  0
   23.9208    7.4958    7.6445 C   0  0  2  0  0  0  0  0  0  0  0  0
   23.7722    8.5261    8.6598 O   0  0  0  0  0  0  0  0  0  0  0  0
   25.2502    8.0750   13.2223 C   0  0  1  0  0  0  0  0  0  0  0  0
   26.5090    8.5402   13.6385 O   0  0  0  0  0  0  0  0  0  0  0  0
   21.5252    5.2251   11.7157 C   0  0  2  0  0  0  0  0  0  0  0  0
   21.0844    6.4183   12.4988 N   0  0  0  0  0  0  0  0  0  0  0  0
   23.4365    7.8557    6.2499 C   0  0  2  0  0  0  0  0  0  0  0  0
   22.1249    8.5152    6.2996 O   0  0  0  0  0  0  0  0  0  0  0  0
   24.1406    8.8334   13.9311 C   0  0  2  0  0  0  0  0  0  0  0  0
   24.2945    8.7158   15.3088 O   0  0  0  0  0  0  0  0  0  0  0  0
   22.5224    5.6960   10.6189 C   0  0  2  0  0  0  0  0  0  0  0  0
   23.3479    6.5200    5.5211 C   0  0  2  0  0  0  0  0  0  0  0  0
   22.7833    5.6996    6.5403 O   0  0  0  0  0  0  0  0  0  0  0  0
   22.7558    8.2765   13.4956 C   0  0  2  0  0  0  0  0  0  0  0  0
   22.6150    8.3902   12.0631 O   0  0  0  0  0  0  0  0  0  0  0  0
   23.0431    4.5459    9.7342 C   0  0  2  0  0  0  0  0  0  0  0  0
   23.7528    5.2030    8.6259 O   0  0  0  0  0  0  0  0  0  0  0  0
   24.7205    5.9377    5.0413 C   0  0  0  0  0  0  0  0  0  0  0  0
   25.6149    6.9979    4.7159 N   0  0  0  0  0  0  0  0  0  0  0  0
   21.6069    9.0047   14.1537 C   0  0  0  0  0  0  0  0  0  0  0  0
   20.3916    8.6256   13.6176 O   0  0  0  0  0  0  0  0  0  0  0  0
   21.8261    3.6806    9.1811 C   0  0  1  0  0  0  0  0  0  0  0  0
   22.2846    2.4811    8.5392 O   0  0  0  0  0  0  0  0  0  0  0  0
  1  2  1  1  0  0  0
  1  6  1  0  0  0  0
  1 23  1  0  0  0  0
  3  4  1  6  0  0  0
  3  8  1  0  0  0  0
  3 30  1  0  0  0  0
  5  9  1  0  0  0  0
  5 21  1  0  0  0  0
  5 25  1  1  0  0  0
  6  7  1  6  0  0  0
  6 11  1  0  0  0  0
  8 13  1  0  0  0  0
  9 10  1  1  0  0  0
  9 15  1  0  0  0  0
 11 12  1  1  0  0  0
 11 17  1  0  0  0  0
 13 14  1  6  0  0  0
 13 19  1  0  0  0  0
 15 16  1  1  0  0  0
 15 20  1  0  0  0  0
 17 18  1  1  0  0  0
 17 22  1  0  0  0  0
 19  2  1  1  0  0  0
 19 24  1  0  0  0  0
 20 21  1  0  0  0  0
 20 26  1  1  0  0  0
 22 23  1  0  0  0  0
 22 28  1  1  0  0  0
 24 25  1  6  0  0  0
 24 30  1  0  0  0  0
 26 27  1  0  0  0  0
 28 29  1  0  0  0  0
 30 31  1  1  0  0  0
M  END
>  <CHROM.1>
-167.10590714,132.49886238,-105.08701097,-31.77276805,171.57544522,-53.84085281
23.09596188,6.65040978,10.17819436,-1.52182185,-0.82027103,-1.88642720

>  <Name>
2o3x_lig

>  <RI>
224

>  <Rbt.Current_Directory>
/home/itssahil/PROJECTS/Mol_Feturizer/New_Systems/rnas/2o3x

>  <Rbt.Executable>
rbdock ($Id: //depot/dev/client3/rdock/2013.1/src/exe/rbdock.cxx#4 $)

>  <Rbt.Library>
libRbt.so (2013.1, Build901 2013/11/27)

>  <Rbt.Parameter_File>
/export/apps/rDock/src/rDock_2013.1_src/data/scripts/dock_solv.prm

>  <Rbt.Receptor>
prm/blind_docking_100.prm

>  <SCORE>
6.17521

>  <SCORE.INTER>
-4.58633

>  <SCORE.INTER.CONST>
1

>  <SCORE.INTER.POLAR>
-0.425073

>  <SCORE.INTER.ROT>
6

>  <SCORE.INTER.SOLV>
23.4034

>  <SCORE.INTER.VDW>
-17.0418

>  <SCORE.INTER.norm>
-0.147946

>  <SCORE.INTRA>
8.29347

>  <SCORE.INTRA.DIHEDRAL>
6.79836

>  <SCORE.INTRA.DIHEDRAL.0>
9.37739

>  <SCORE.INTRA.POLAR>
0

>  <SCORE.INTRA.POLAR.0>
0

>  <SCORE.INTRA.REPUL>
0

>  <SCORE.INTRA.REPUL.0>
0

>  <SCORE.INTRA.SOLV>
4.51776

>  <SCORE.INTRA.SOLV.lig_0>
-82.9274

>  <SCORE.INTRA.VDW>
2.63541

>  <SCORE.INTRA.VDW.0>
-3.84922

>  <SCORE.INTRA.norm>
0.267531

>  <SCORE.RESTR>
2.46808

>  <SCORE.RESTR.CAVITY>
2.46808

>  <SCORE.RESTR.norm>
0.0796154

>  <SCORE.SYSTEM>
0

>  <SCORE.SYSTEM.CONST>
0

>  <SCORE.SYSTEM.DIHEDRAL>
0

>  <SCORE.SYSTEM.SOLV>
0

>  <SCORE.SYSTEM.norm>
0

>  <SCORE.heavy>
31

>  <SCORE.norm>
0.1992

>  <RMSD>
8.183

$$$$
2o3x_lig
 OpenBabel11021811463D
libRbt.so/2013.1/901 2013/11/27
 31 33  0  0  0  0  0  0  0  0999 V2000
   16.5480   11.6059   11.2855 C   0  0  2  0  0  0  0  0  0  0  0  0
   17.6270   11.4922   12.2226 O   0  0  0  0  0  0  0  0  0  0  0  0
   20.8097    8.6661   12.6490 C   0  0  2  0  0  0  0  0  0  0  0  0
   21.5934    7.4147   12.7459 N   0  0  0  0  0  0  0  0  0  0  0  0
   18.5509   10.2490    8.6822 C   0  0  1  0  0  0  0  0  0  0  0  0
   15.9628   13.0505   11.3810 C   0  0  2  0  0  0  0  0  0  0  0  0
   17.0251   14.0878   11.3461 N   0  0  0  0  0  0  0  0  0  0  0  0
   19.8202    8.8351   13.8497 C   0  0  0  0  0  0  0  0  0  0  0  0
   19.7207    9.4487    8.0211 C   0  0  2  0  0  0  0  0  0  0  0  0
   21.0624    9.9373    8.2954 O   0  0  0  0  0  0  0  0  0  0  0  0
   15.1461   13.2482   12.6721 C   0  0  1  0  0  0  0  0  0  0  0  0
   14.5879   14.5370   12.7121 O   0  0  0  0  0  0  0  0  0  0  0  0
   19.0607   10.2004   13.6724 C   0  0  2  0  0  0  0  0  0  0  0  0
   18.1053   10.4474   14.7938 N   0  0  0  0  0  0  0  0  0  0  0  0
   19.2582    9.5379    6.5764 C   0  0  2  0  0  0  0  0  0  0  0  0
   19.5902   10.8453    5.9948 O   0  0  0  0  0  0  0  0  0  0  0  0
   14.0565   12.1926   12.7559 C   0  0  2  0  0  0  0  0  0  0  0  0
   13.3029   12.3832   13.9098 O   0  0  0  0  0  0  0  0  0  0  0  0
   18.2656   10.2124   12.3357 C   0  0  2  0  0  0  0  0  0  0  0  0
   17.7486    9.3401    6.6469 C   0  0  2  0  0  0  0  0  0  0  0  0
   17.4327   10.1224    7.7952 O   0  0  0  0  0  0  0  0  0  0  0  0
   14.6920   10.7736   12.7574 C   0  0  2  0  0  0  0  0  0  0  0  0
   15.4832   10.5943   11.5630 O   0  0  0  0  0  0  0  0  0  0  0  0
   19.1494    9.9574   11.0986 C   0  0  2  0  0  0  0  0  0  0  0  0
   18.2075    9.7566    9.9867 O   0  0  0  0  0  0  0  0  0  0  0  0
   17.2860    7.8568    6.8455 C   0  0  0  0  0  0  0  0  0  0  0  0
   17.6624    7.0718    5.7177 N   0  0  0  0  0  0  0  0  0  0  0  0
   13.6554    9.6759   12.8201 C   0  0  0  0  0  0  0  0  0  0  0  0
   14.2414    8.4294   12.9240 O   0  0  0  0  0  0  0  0  0  0  0  0
   20.0404    8.6556   11.3158 C   0  0  1  0  0  0  0  0  0  0  0  0
   21.0266    8.5167   10.2817 O   0  0  0  0  0  0  0  0  0  0  0  0
  1  2  1  1  0  0  0
  1  6  1  0  0  0  0
  1 23  1  0  0  0  0
  3  4  1  1  0  0  0
  3  8  1  0  0  0  0
  3 30  1  0  0  0  0
  5  9  1  0  0  0  0
  5 21  1  0  0  0  0
  5 25  1  1  0  0  0
  6  7  1  1  0  0  0
  6 11  1  0  0  0  0
  8 13  1  0  0  0  0
  9 10  1  6  0  0  0
  9 15  1  0  0  0  0
 11 12  1  6  0  0  0
 11 17  1  0  0  0  0
 13 14  1  1  0  0  0
 13 19  1  0  0  0  0
 15 16  1  1  0  0  0
 15 20  1  0  0  0  0
 17 18  1  1  0  0  0
 17 22  1  0  0  0  0
 19  2  1  6  0  0  0
 19 24  1  0  0  0  0
 20 21  1  0  0  0  0
 20 26  1  1  0  0  0
 22 23  1  0  0  0  0
 22 28  1  6  0  0  0
 24 25  1  6  0  0  0
 24 30  1  0  0  0  0
 26 27  1  0  0  0  0
 28 29  1  0  0  0  0
 30 31  1  6  0  0  0
M  END
>  <CHROM.1>
177.22861377,69.79921909,-162.59119261,-64.14593123,-175.37889424,143.97541237
17.61409680,10.30454188,10.81527810,2.34538061,-0.52829209,1.50404379

>  <Name>
2o3x_lig

>  <RI>
0

>  <Rbt.Current_Directory>
/home/itssahil/PROJECTS/Mol_Feturizer/New_Systems/rnas/2o3x

>  <Rbt.Executable>
rbdock ($Id: //depot/dev/client3/rdock/2013.1/src/exe/rbdock.cxx#4 $)

>  <Rbt.Library>
libRbt.so (2013.1, Build901 2013/11/27)

>  <Rbt.Parameter_File>
/export/apps/rDock/src/rDock_2013.1_src/data/scripts/dock_solv.prm

>  <Rbt.Receptor>
prm/pocket_docking_8.prm

>  <SCORE>
-10.4807

>  <SCORE.INTER>
-9.9758

>  <SCORE.INTER.CONST>
1

>  <SCORE.INTER.POLAR>
-1.06663

>  <SCORE.INTER.ROT>
6

>  <SCORE.INTER.SOLV>
10.3211

>  <SCORE.INTER.VDW>
-14.1355

>  <SCORE.INTER.norm>
-0.3218

>  <SCORE.INTRA>
-0.504929

>  <SCORE.INTRA.DIHEDRAL>
-2.45466

>  <SCORE.INTRA.DIHEDRAL.0>
9.37739

>  <SCORE.INTRA.POLAR>
0

>  <SCORE.INTRA.POLAR.0>
0

>  <SCORE.INTRA.REPUL>
0.00269529

>  <SCORE.INTRA.REPUL.0>
0

>  <SCORE.INTRA.SOLV>
-2.01633

>  <SCORE.INTRA.SOLV.lig_0>
-82.9274

>  <SCORE.INTRA.VDW>
1.71709

>  <SCORE.INTRA.VDW.0>
-3.84922

>  <SCORE.INTRA.norm>
-0.016288

>  <SCORE.RESTR>
0

>  <SCORE.RESTR.CAVITY>
0

>  <SCORE.RESTR.norm>
0

>  <SCORE.SYSTEM>
0

>  <SCORE.SYSTEM.CONST>
0

>  <SCORE.SYSTEM.DIHEDRAL>
0

>  <SCORE.SYSTEM.SOLV>
0

>  <SCORE.SYSTEM.norm>
0

>  <SCORE.heavy>
31

>  <SCORE.norm>
-0.338088

>  <RMSD>
8.190

$$$$
2o3x_lig
 OpenBabel11021811463D
libRbt.so/2013.1/901 2013/11/27
 31 33  0  0  0  0  0  0  0  0999 V2000
   23.4112    7.9755   11.3172 C   0  0  2  0  0  0  0  0  0  0  0  0
   23.2672    6.5524   11.2197 O   0  0  0  0  0  0  0  0  0  0  0  0
   20.6956    3.7586    9.2502 C   0  0  2  0  0  0  0  0  0  0  0  0
   19.5558    3.1312    8.5453 N   0  0  0  0  0  0  0  0  0  0  0  0
   22.3829    7.1745    7.0401 C   0  0  1  0  0  0  0  0  0  0  0  0
   24.7754    8.2862   12.0106 C   0  0  2  0  0  0  0  0  0  0  0  0
   25.8950    7.5143   11.4136 N   0  0  0  0  0  0  0  0  0  0  0  0
   20.3200    4.1927   10.7061 C   0  0  0  0  0  0  0  0  0  0  0  0
   22.4162    8.6596    6.5507 C   0  0  2  0  0  0  0  0  0  0  0  0
   21.1423    9.3607    6.5536 O   0  0  0  0  0  0  0  0  0  0  0  0
   24.7309    7.9723   13.5180 C   0  0  1  0  0  0  0  0  0  0  0  0
   25.9509    8.3069   14.1295 O   0  0  0  0  0  0  0  0  0  0  0  0
   21.5974    4.8167   11.3780 C   0  0  2  0  0  0  0  0  0  0  0  0
   21.3266    5.2416   12.7842 N   0  0  0  0  0  0  0  0  0  0  0  0
   23.0493    8.4274    5.1889 C   0  0  2  0  0  0  0  0  0  0  0  0
   22.0563    7.9461    4.2195 O   0  0  0  0  0  0  0  0  0  0  0  0
   23.5845    8.7307   14.1657 C   0  0  2  0  0  0  0  0  0  0  0  0
   23.5564    8.4667   15.5314 O   0  0  0  0  0  0  0  0  0  0  0  0
   22.0864    6.0552   10.5741 C   0  0  2  0  0  0  0  0  0  0  0  0
   24.1202    7.3727    5.4417 C   0  0  2  0  0  0  0  0  0  0  0  0
   23.4266    6.4988    6.3281 O   0  0  0  0  0  0  0  0  0  0  0  0
   22.2370    8.3156   13.5103 C   0  0  2  0  0  0  0  0  0  0  0  0
   22.2848    8.5802   12.0916 O   0  0  0  0  0  0  0  0  0  0  0  0
   22.3910    5.7409    9.0960 C   0  0  2  0  0  0  0  0  0  0  0  0
   22.5876    7.0507    8.4560 O   0  0  0  0  0  0  0  0  0  0  0  0
   25.4308    7.9101    6.1101 C   0  0  0  0  0  0  0  0  0  0  0  0
   26.2202    6.8226    6.5833 N   0  0  0  0  0  0  0  0  0  0  0  0
   21.0564    9.0516   14.1000 C   0  0  0  0  0  0  0  0  0  0  0  0
   19.8644    8.6245   13.5479 O   0  0  0  0  0  0  0  0  0  0  0  0
   21.1641    4.9744    8.4306 C   0  0  1  0  0  0  0  0  0  0  0  0
   21.5015    4.4766    7.1269 O   0  0  0  0  0  0  0  0  0  0  0  0
  1  2  1  1  0  0  0
  1  6  1  0  0  0  0
  1 23  1  0  0  0  0
  3  4  1  6  0  0  0
  3  8  1  0  0  0  0
  3 30  1  0  0  0  0
  5  9  1  0  0  0  0
  5 21  1  0  0  0  0
  5 25  1  1  0  0  0
  6  7  1  6  0  0  0
  6 11  1  0  0  0  0
  8 13  1  0  0  0  0
  9 10  1  6  0  0  0
  9 15  1  0  0  0  0
 11 12  1  1  0  0  0
 11 17  1  0  0  0  0
 13 14  1  1  0  0  0
 13 19  1  0  0  0  0
 15 16  1  6  0  0  0
 15 20  1  0  0  0  0
 17 18  1  1  0  0  0
 17 22  1  0  0  0  0
 19  2  1  1  0  0  0
 19 24  1  0  0  0  0
 20 21  1  0  0  0  0
 20 26  1  1  0  0  0
 22 23  1  0  0  0  0
 22 28  1  1  0  0  0
 24 25  1  6  0  0  0
 24 30  1  0  0  0  0
 26 27  1  0  0  0  0
 28 29  1  0  0  0  0
 30 31  1  6  0  0  0
M  END
>  <CHROM.1>
-178.33818201,171.23191531,-139.91762246,166.41120722,-177.22213002,-156.33448304
22.70412435,7.05738375,9.90411014,-1.51522113,-0.70447999,-1.67633130

>  <Name>
2o3x_lig

>  <RI>
0

>  <Rbt.Current_Directory>
/home/itssahil/PROJECTS/Mol_Feturizer/New_Systems/rnas/2o3x

>  <Rbt.Executable>
rbdock ($Id: //depot/dev/client3/rdock/2013.1/src/exe/rbdock.cxx#4 $)

>  <Rbt.Library>
libRbt.so (2013.1, Build901 2013/11/27)

>  <Rbt.Parameter_File>
/export/apps/rDock/src/rDock_2013.1_src/data/scripts/dock_solv.prm

>  <Rbt.Receptor>
prm/blind_docking_40.prm

>  <SCORE>
6.24177

>  <SCORE.INTER>
0.581369

>  <SCORE.INTER.CONST>
1

>  <SCORE.INTER.POLAR>
-0.171375

>  <SCORE.INTER.ROT>
6

>  <SCORE.INTER.SOLV>
24.5584

>  <SCORE.INTER.VDW>
-14.8273

>  <SCORE.INTER.norm>
0.0187538

>  <SCORE.INTRA>
0.825737

>  <SCORE.INTRA.DIHEDRAL>
-0.366755

>  <SCORE.INTRA.DIHEDRAL.0>
9.37739

>  <SCORE.INTRA.POLAR>
0

>  <SCORE.INTRA.POLAR.0>
0

>  <SCORE.INTRA.REPUL>
0

>  <SCORE.INTRA.REPUL.0>
0

>  <SCORE.INTRA.SOLV>
-0.424507

>  <SCORE.INTRA.SOLV.lig_0>
-82.9274

>  <SCORE.INTRA.VDW>
1.22137

>  <SCORE.INTRA.VDW.0>
-3.84922

>  <SCORE.INTRA.norm>
0.0266367

>  <SCORE.RESTR>
4.83466

>  <SCORE.RESTR.CAVITY>
4.83466

>  <SCORE.RESTR.norm>
0.155957

>  <SCORE.SYSTEM>
0

>  <SCORE.SYSTEM.CONST>
0

>  <SCORE.SYSTEM.DIHEDRAL>
0

>  <SCORE.SYSTEM.SOLV>
0

>  <SCORE.SYSTEM.norm>
0

>  <SCORE.heavy>
31

>  <SCORE.norm>
0.201347

>  <RMSD>
8.193

$$$$
2o3x_lig
 OpenBabel11021811463D
libRbt.so/2013.1/901 2013/11/27
 31 33  0  0  0  0  0  0  0  0999 V2000
   19.4212    7.4874   11.1974 C   0  0  2  0  0  0  0  0  0  0  0  0
   18.2756    7.0050   11.9120 O   0  0  0  0  0  0  0  0  0  0  0  0
   14.5877    5.0944   10.8890 C   0  0  2  0  0  0  0  0  0  0  0  0
   13.3617    4.6607   10.1830 N   0  0  0  0  0  0  0  0  0  0  0  0
   18.5159    4.0392    8.8840 C   0  0  1  0  0  0  0  0  0  0  0  0
   20.6015    7.6447   12.2076 C   0  0  2  0  0  0  0  0  0  0  0  0
   20.7715    6.4412   13.0611 N   0  0  0  0  0  0  0  0  0  0  0  0
   14.5400    6.6108   11.2733 C   0  0  0  0  0  0  0  0  0  0  0  0
   19.6902    4.2010    7.8637 C   0  0  2  0  0  0  0  0  0  0  0  0
   19.3202    4.6527    6.5320 O   0  0  0  0  0  0  0  0  0  0  0  0
   20.3994    8.8599   13.1325 C   0  0  1  0  0  0  0  0  0  0  0  0
   21.4963    9.0113   13.9976 O   0  0  0  0  0  0  0  0  0  0  0  0
   15.8657    6.9653   12.0411 C   0  0  2  0  0  0  0  0  0  0  0  0
   15.8906    8.3983   12.4618 N   0  0  0  0  0  0  0  0  0  0  0  0
   20.2591    2.7952    7.9597 C   0  0  2  0  0  0  0  0  0  0  0  0
   19.4658    1.8485    7.1646 O   0  0  0  0  0  0  0  0  0  0  0  0
   20.2032   10.1132   12.2963 C   0  0  2  0  0  0  0  0  0  0  0  0
   20.0434   11.2159   13.1296 O   0  0  0  0  0  0  0  0  0  0  0  0
   17.1056    6.6936   11.1422 C   0  0  2  0  0  0  0  0  0  0  0  0
   20.1865    2.4555    9.4437 C   0  0  2  0  0  0  0  0  0  0  0  0
   18.9062    2.9866    9.7743 O   0  0  0  0  0  0  0  0  0  0  0  0
   18.9591    9.9486   11.3783 C   0  0  2  0  0  0  0  0  0  0  0  0
   19.1307    8.7929   10.5300 O   0  0  0  0  0  0  0  0  0  0  0  0
   17.1843    5.2398   10.6355 C   0  0  2  0  0  0  0  0  0  0  0  0
   18.2516    5.2417    9.6232 O   0  0  0  0  0  0  0  0  0  0  0  0
   21.3011    3.1128   10.3264 C   0  0  0  0  0  0  0  0  0  0  0  0
   22.5885    2.7948    9.8057 N   0  0  0  0  0  0  0  0  0  0  0  0
   18.7210   11.1585   10.5049 C   0  0  0  0  0  0  0  0  0  0  0  0
   19.8683   11.5337    9.8333 O   0  0  0  0  0  0  0  0  0  0  0  0
   15.7979    4.8073    9.9822 C   0  0  1  0  0  0  0  0  0  0  0  0
   15.7670    3.3997    9.7014 O   0  0  0  0  0  0  0  0  0  0  0  0
  1  2  1  1  0  0  0
  1  6  1  0  0  0  0
  1 23  1  0  0  0  0
  3  4  1  6  0  0  0
  3  8  1  0  0  0  0
  3 30  1  0  0  0  0
  5  9  1  0  0  0  0
  5 21  1  0  0  0  0
  5 25  1  1  0  0  0
  6  7  1  1  0  0  0
  6 11  1  0  0  0  0
  8 13  1  0  0  0  0
  9 10  1  6  0  0  0
  9 15  1  0  0  0  0
 11 12  1  1  0  0  0
 11 17  1  0  0  0  0
 13 14  1  6  0  0  0
 13 19  1  0  0  0  0
 15 16  1  6  0  0  0
 15 20  1  0  0  0  0
 17 18  1  1  0  0  0
 17 22  1  0  0  0  0
 19  2  1  1  0  0  0
 19 24  1  0  0  0  0
 20 21  1  0  0  0  0
 20 26  1  1  0  0  0
 22 23  1  0  0  0  0
 22 28  1  6  0  0  0
 24 25  1  6  0  0  0
 24 30  1  0  0  0  0
 26 27  1  0  0  0  0
 28 29  1  0  0  0  0
 30 31  1  1  0  0  0
M  END
>  <CHROM.1>
-175.32277363,-179.20925827,-149.17924241,-54.56325281,50.47015789,-175.75102613
18.62014138,6.31356636,10.58984625,-1.45463344,-0.04360356,-2.66970618

>  <Name>
2o3x_lig

>  <RI>
2.78316e+07

>  <Rbt.Current_Directory>
/home/itssahil/PROJECTS/Mol_Feturizer/New_Systems/rnas/2o3x

>  <Rbt.Executable>
rbdock ($Id: //depot/dev/client3/rdock/2013.1/src/exe/rbdock.cxx#4 $)

>  <Rbt.Library>
libRbt.so (2013.1, Build901 2013/11/27)

>  <Rbt.Parameter_File>
/export/apps/rDock/src/rDock_2013.1_src/data/scripts/dock_solv.prm

>  <Rbt.Receptor>
prm/pocket_docking_7.prm

>  <SCORE>
-6.46592

>  <SCORE.INTER>
-4.4228

>  <SCORE.INTER.CONST>
1

>  <SCORE.INTER.POLAR>
-0.94261

>  <SCORE.INTER.ROT>
6

>  <SCORE.INTER.SOLV>
9.72111

>  <SCORE.INTER.VDW>
-10.6469

>  <SCORE.INTER.norm>
-0.142671

>  <SCORE.INTRA>
-2.04312

>  <SCORE.INTRA.DIHEDRAL>
-4.87993

>  <SCORE.INTRA.DIHEDRAL.0>
9.37739

>  <SCORE.INTRA.POLAR>
0

>  <SCORE.INTRA.POLAR.0>
0

>  <SCORE.INTRA.REPUL>
0

>  <SCORE.INTRA.REPUL.0>
0

>  <SCORE.INTRA.SOLV>
-1.11833

>  <SCORE.INTRA.SOLV.lig_0>
-82.9274

>  <SCORE.INTRA.VDW>
0.956011

>  <SCORE.INTRA.VDW.0>
-3.84922

>  <SCORE.INTRA.norm>
-0.0659071

>  <SCORE.RESTR>
0

>  <SCORE.RESTR.CAVITY>
0

>  <SCORE.RESTR.norm>
0

>  <SCORE.SYSTEM>
0

>  <SCORE.SYSTEM.CONST>
0

>  <SCORE.SYSTEM.DIHEDRAL>
0

>  <SCORE.SYSTEM.SOLV>
0

>  <SCORE.SYSTEM.norm>
0

>  <SCORE.heavy>
31

>  <SCORE.norm>
-0.208578

>  <RMSD>
8.195

$$$$
2o3x_lig
 OpenBabel11021811463D
libRbt.so/2013.1/901 2013/11/27
 31 33  0  0  0  0  0  0  0  0999 V2000
   23.7222    7.9851   11.4836 C   0  0  2  0  0  0  0  0  0  0  0  0
   23.6645    6.5527   11.5080 O   0  0  0  0  0  0  0  0  0  0  0  0
   20.9290    3.4488   10.4212 C   0  0  2  0  0  0  0  0  0  0  0  0
   19.8284    2.6806    9.7983 N   0  0  0  0  0  0  0  0  0  0  0  0
   22.8115    6.3565    7.8398 C   0  0  1  0  0  0  0  0  0  0  0  0
   25.1232    8.4305   12.0100 C   0  0  2  0  0  0  0  0  0  0  0  0
   26.2289    7.6798   11.3622 N   0  0  0  0  0  0  0  0  0  0  0  0
   20.3973    4.5995   11.3392 C   0  0  0  0  0  0  0  0  0  0  0  0
   22.7484    7.8926    8.1270 C   0  0  2  0  0  0  0  0  0  0  0  0
   21.7056    8.3278    9.0422 O   0  0  0  0  0  0  0  0  0  0  0  0
   25.2451    8.2378   13.5335 C   0  0  1  0  0  0  0  0  0  0  0  0
   26.4934    8.6919   13.9915 O   0  0  0  0  0  0  0  0  0  0  0  0
   21.6345    5.3330   11.9745 C   0  0  2  0  0  0  0  0  0  0  0  0
   21.2100    6.4390   12.8843 N   0  0  0  0  0  0  0  0  0  0  0  0
   22.6257    8.3789    6.6926 C   0  0  2  0  0  0  0  0  0  0  0  0
   21.2485    8.2359    6.2019 O   0  0  0  0  0  0  0  0  0  0  0  0
   24.1186    8.9776   14.2353 C   0  0  2  0  0  0  0  0  0  0  0  0
   24.2399    8.8240   15.6128 O   0  0  0  0  0  0  0  0  0  0  0  0
   22.5441    5.9303   10.8632 C   0  0  2  0  0  0  0  0  0  0  0  0
   23.5800    7.4883    5.9057 C   0  0  2  0  0  0  0  0  0  0  0  0
   23.3160    6.2230    6.5054 O   0  0  0  0  0  0  0  0  0  0  0  0
   22.7448    8.4323   13.7526 C   0  0  2  0  0  0  0  0  0  0  0  0
   22.6381    8.5834   12.3206 O   0  0  0  0  0  0  0  0  0  0  0  0
   23.0405    4.8787    9.8512 C   0  0  2  0  0  0  0  0  0  0  0  0
   23.6570    5.6524    8.7625 O   0  0  0  0  0  0  0  0  0  0  0  0
   25.0953    7.8596    6.0450 C   0  0  0  0  0  0  0  0  0  0  0  0
   25.8917    6.9615    5.2775 N   0  0  0  0  0  0  0  0  0  0  0  0
   21.5802    9.1432   14.4021 C   0  0  0  0  0  0  0  0  0  0  0  0
   20.3783    8.7784   13.8274 O   0  0  0  0  0  0  0  0  0  0  0  0
   21.8166    4.0211    9.3013 C   0  0  1  0  0  0  0  0  0  0  0  0
   22.2682    2.8975    8.5302 O   0  0  0  0  0  0  0  0  0  0  0  0
  1  2  1  1  0  0  0
  1  6  1  0  0  0  0
  1 23  1  0  0  0  0
  3  4  1  6  0  0  0
  3  8  1  0  0  0  0
  3 30  1  0  0  0  0
  5  9  1  0  0  0  0
  5 21  1  0  0  0  0
  5 25  1  1  0  0  0
  6  7  1  6  0  0  0
  6 11  1  0  0  0  0
  8 13  1  0  0  0  0
  9 10  1  1  0  0  0
  9 15  1  0  0  0  0
 11 12  1  1  0  0  0
 11 17  1  0  0  0  0
 13 14  1  1  0  0  0
 13 19  1  0  0  0  0
 15 16  1  6  0  0  0
 15 20  1  0  0  0  0
 17 18  1  1  0  0  0
 17 22  1  0  0  0  0
 19  2  1  1  0  0  0
 19 24  1  0  0  0  0
 20 21  1  0  0  0  0
 20 26  1  1  0  0  0
 22 23  1  0  0  0  0
 22 28  1  1  0  0  0
 24 25  1  6  0  0  0
 24 30  1  0  0  0  0
 26 27  1  0  0  0  0
 28 29  1  0  0  0  0
 30 31  1  1  0  0  0
M  END
>  <CHROM.1>
-170.21850353,102.56218345,-109.37671857,179.67107349,171.57004967,-74.17818739
22.98152065,6.91959503,10.44145547,-1.45812559,-0.79297556,-1.80259127

>  <Name>
2o3x_lig

>  <RI>
0

>  <Rbt.Current_Directory>
/home/itssahil/PROJECTS/Mol_Feturizer/New_Systems/rnas/2o3x

>  <Rbt.Executable>
rbdock ($Id: //depot/dev/client3/rdock/2013.1/src/exe/rbdock.cxx#4 $)

>  <Rbt.Library>
libRbt.so (2013.1, Build901 2013/11/27)

>  <Rbt.Parameter_File>
/export/apps/rDock/src/rDock_2013.1_src/data/scripts/dock_solv.prm

>  <Rbt.Receptor>
prm/blind_docking_40.prm

>  <SCORE>
-0.0781798

>  <SCORE.INTER>
-7.75774

>  <SCORE.INTER.CONST>
1

>  <SCORE.INTER.POLAR>
-0.544186

>  <SCORE.INTER.ROT>
6

>  <SCORE.INTER.SOLV>
23.9085

>  <SCORE.INTER.VDW>
-18.9274

>  <SCORE.INTER.norm>
-0.25025

>  <SCORE.INTRA>
4.75133

>  <SCORE.INTRA.DIHEDRAL>
4.82342

>  <SCORE.INTRA.DIHEDRAL.0>
9.37739

>  <SCORE.INTRA.POLAR>
0

>  <SCORE.INTRA.POLAR.0>
0

>  <SCORE.INTRA.REPUL>
0

>  <SCORE.INTRA.REPUL.0>
0

>  <SCORE.INTRA.SOLV>
2.39156

>  <SCORE.INTRA.SOLV.lig_0>
-82.9274

>  <SCORE.INTRA.VDW>
1.14384

>  <SCORE.INTRA.VDW.0>
-3.84922

>  <SCORE.INTRA.norm>
0.153269

>  <SCORE.RESTR>
2.92823

>  <SCORE.RESTR.CAVITY>
2.92823

>  <SCORE.RESTR.norm>
0.0944589

>  <SCORE.SYSTEM>
0

>  <SCORE.SYSTEM.CONST>
0

>  <SCORE.SYSTEM.DIHEDRAL>
0

>  <SCORE.SYSTEM.SOLV>
0

>  <SCORE.SYSTEM.norm>
0

>  <SCORE.heavy>
31

>  <SCORE.norm>
-0.00252193

>  <RMSD>
8.217

$$$$
2o3x_lig
 OpenBabel11021811463D
libRbt.so/2013.1/901 2013/11/27
 31 33  0  0  0  0  0  0  0  0999 V2000
   23.2621    7.8543   11.6644 C   0  0  2  0  0  0  0  0  0  0  0  0
   23.1302    6.4311   11.7773 O   0  0  0  0  0  0  0  0  0  0  0  0
   20.5655    3.3184   10.3521 C   0  0  2  0  0  0  0  0  0  0  0  0
   19.5630    2.5436    9.5877 N   0  0  0  0  0  0  0  0  0  0  0  0
   22.8185    6.1597    8.0133 C   0  0  1  0  0  0  0  0  0  0  0  0
   24.7065    8.1769   11.1663 C   0  0  2  0  0  0  0  0  0  0  0  0
   25.0927    7.3486    9.9956 N   0  0  0  0  0  0  0  0  0  0  0  0
   19.9122    4.4847   11.1659 C   0  0  0  0  0  0  0  0  0  0  0  0
   22.9084    7.7174    8.1202 C   0  0  2  0  0  0  0  0  0  0  0  0
   21.8619    8.3648    8.8948 O   0  0  0  0  0  0  0  0  0  0  0  0
   25.7527    7.9528   12.2745 C   0  0  1  0  0  0  0  0  0  0  0  0
   27.0368    8.2975   11.8199 O   0  0  0  0  0  0  0  0  0  0  0  0
   21.0479    5.2245   11.9628 C   0  0  2  0  0  0  0  0  0  0  0  0
   20.5015    6.3457   12.7848 N   0  0  0  0  0  0  0  0  0  0  0  0
   22.9372    8.0377    6.6351 C   0  0  2  0  0  0  0  0  0  0  0  0
   21.5887    7.9798    6.0555 O   0  0  0  0  0  0  0  0  0  0  0  0
   25.3840    8.7710   13.5005 C   0  0  2  0  0  0  0  0  0  0  0  0
   26.3399    8.5880   14.4946 O   0  0  0  0  0  0  0  0  0  0  0  0
   22.1119    5.8019   10.9863 C   0  0  2  0  0  0  0  0  0  0  0  0
   23.8365    6.9652    6.0316 C   0  0  2  0  0  0  0  0  0  0  0  0
   23.3932    5.8153    6.7467 O   0  0  0  0  0  0  0  0  0  0  0  0
   23.9811    8.3460   14.0192 C   0  0  2  0  0  0  0  0  0  0  0  0
   23.0015    8.5262   12.9738 O   0  0  0  0  0  0  0  0  0  0  0  0
   22.7445    4.7333   10.0729 C   0  0  2  0  0  0  0  0  0  0  0  0
   23.5162    5.4881    9.0736 O   0  0  0  0  0  0  0  0  0  0  0  0
   25.3711    7.1921    6.2485 C   0  0  0  0  0  0  0  0  0  0  0  0
   25.9046    7.9771    5.1860 N   0  0  0  0  0  0  0  0  0  0  0  0
   23.5477    9.1393   15.2300 C   0  0  0  0  0  0  0  0  0  0  0  0
   22.1754    9.2901   15.2737 O   0  0  0  0  0  0  0  0  0  0  0  0
   21.6089    3.8706    9.3643 C   0  0  1  0  0  0  0  0  0  0  0  0
   22.1618    2.7339    8.6837 O   0  0  0  0  0  0  0  0  0  0  0  0
  1  2  1  1  0  0  0
  1  6  1  0  0  0  0
  1 23  1  0  0  0  0
  3  4  1  6  0  0  0
  3  8  1  0  0  0  0
  3 30  1  0  0  0  0
  5  9  1  0  0  0  0
  5 21  1  0  0  0  0
  5 25  1  1  0  0  0
  6  7  1  6  0  0  0
  6 11  1  0  0  0  0
  8 13  1  0  0  0  0
  9 10  1  6  0  0  0
  9 15  1  0  0  0  0
 11 12  1  6  0  0  0
 11 17  1  0  0  0  0
 13 14  1  6  0  0  0
 13 19  1  0  0  0  0
 15 16  1  6  0  0  0
 15 20  1  0  0  0  0
 17 18  1  1  0  0  0
 17 22  1  0  0  0  0
 19  2  1  1  0  0  0
 19 24  1  0  0  0  0
 20 21  1  0  0  0  0
 20 26  1  1  0  0  0
 22 23  1  0  0  0  0
 22 28  1  1  0  0  0
 24 25  1  6  0  0  0
 24 30  1  0  0  0  0
 26 27  1  0  0  0  0
 28 29  1  0  0  0  0
 30 31  1  1  0  0  0
M  END
>  <CHROM.1>
-120.39638511,112.35193822,-113.84916134,-88.91472105,148.99476798,-75.32123780
23.16682520,6.77889508,10.34001789,-1.28348911,-0.74191512,-1.76045670

>  <Name>
2o3x_lig

>  <RI>
224

>  <Rbt.Current_Directory>
/home/itssahil/PROJECTS/Mol_Feturizer/New_Systems/rnas/2o3x

>  <Rbt.Executable>
rbdock ($Id: //depot/dev/client3/rdock/2013.1/src/exe/rbdock.cxx#4 $)

>  <Rbt.Library>
libRbt.so (2013.1, Build901 2013/11/27)

>  <Rbt.Parameter_File>
/export/apps/rDock/src/rDock_2013.1_src/data/scripts/dock_solv.prm

>  <Rbt.Receptor>
prm/blind_docking_100.prm

>  <SCORE>
1.65126

>  <SCORE.INTER>
-10.9073

>  <SCORE.INTER.CONST>
1

>  <SCORE.INTER.POLAR>
-1.19462

>  <SCORE.INTER.ROT>
6

>  <SCORE.INTER.SOLV>
26.4227

>  <SCORE.INTER.VDW>
-19.6971

>  <SCORE.INTER.norm>
-0.351849

>  <SCORE.INTRA>
11.0868

>  <SCORE.INTRA.DIHEDRAL>
18.0999

>  <SCORE.INTRA.DIHEDRAL.0>
9.37739

>  <SCORE.INTRA.POLAR>
0

>  <SCORE.INTRA.POLAR.0>
0

>  <SCORE.INTRA.REPUL>
0.016127

>  <SCORE.INTRA.REPUL.0>
0

>  <SCORE.INTRA.SOLV>
3.27556

>  <SCORE.INTRA.SOLV.lig_0>
-82.9274

>  <SCORE.INTRA.VDW>
0.318405

>  <SCORE.INTRA.VDW.0>
-3.84922

>  <SCORE.INTRA.norm>
0.357638

>  <SCORE.RESTR>
1.4718

>  <SCORE.RESTR.CAVITY>
1.4718

>  <SCORE.RESTR.norm>
0.0474774

>  <SCORE.SYSTEM>
0

>  <SCORE.SYSTEM.CONST>
0

>  <SCORE.SYSTEM.DIHEDRAL>
0

>  <SCORE.SYSTEM.SOLV>
0

>  <SCORE.SYSTEM.norm>
0

>  <SCORE.heavy>
31

>  <SCORE.norm>
0.0532663

>  <RMSD>
8.231

$$$$
2o3x_lig
 OpenBabel11021811463D
libRbt.so/2013.1/901 2013/11/27
 31 33  0  0  0  0  0  0  0  0999 V2000
   23.6320    8.1049   11.4545 C   0  0  2  0  0  0  0  0  0  0  0  0
   23.4729    6.6826   11.3700 O   0  0  0  0  0  0  0  0  0  0  0  0
   20.6235    3.8720    9.8603 C   0  0  2  0  0  0  0  0  0  0  0  0
   19.3965    3.2455    9.3205 N   0  0  0  0  0  0  0  0  0  0  0  0
   23.6031    7.1772    7.7441 C   0  0  1  0  0  0  0  0  0  0  0  0
   25.0732    8.4094   11.9730 C   0  0  2  0  0  0  0  0  0  0  0  0
   26.1071    7.6374   11.2374 N   0  0  0  0  0  0  0  0  0  0  0  0
   20.4205    4.4027   11.3186 C   0  0  0  0  0  0  0  0  0  0  0  0
   23.8163    5.8977    6.8703 C   0  0  2  0  0  0  0  0  0  0  0  0
   24.7172    4.8955    7.4165 O   0  0  0  0  0  0  0  0  0  0  0  0
   25.2167    8.0890   13.4728 C   0  0  1  0  0  0  0  0  0  0  0  0
   26.5046    8.4180   13.9282 O   0  0  0  0  0  0  0  0  0  0  0  0
   21.7806    5.0190   11.8112 C   0  0  2  0  0  0  0  0  0  0  0  0
   21.6761    5.5339   13.2095 N   0  0  0  0  0  0  0  0  0  0  0  0
   24.2705    6.5794    5.5906 C   0  0  2  0  0  0  0  0  0  0  0  0
   25.6835    6.9721    5.6735 O   0  0  0  0  0  0  0  0  0  0  0  0
   24.1626    8.8472   14.2619 C   0  0  2  0  0  0  0  0  0  0  0  0
   24.3048    8.5773   15.6194 O   0  0  0  0  0  0  0  0  0  0  0  0
   22.2152    6.1908   10.8854 C   0  0  2  0  0  0  0  0  0  0  0  0
   23.3705    7.8038    5.4713 C   0  0  2  0  0  0  0  0  0  0  0  0
   23.3451    8.2462    6.8256 O   0  0  0  0  0  0  0  0  0  0  0  0
   22.7425    8.4381   13.7786 C   0  0  2  0  0  0  0  0  0  0  0  0
   22.6132    8.7089   12.3662 O   0  0  0  0  0  0  0  0  0  0  0  0
   22.3488    5.7810    9.4054 C   0  0  2  0  0  0  0  0  0  0  0  0
   22.5127    7.0438    8.6690 O   0  0  0  0  0  0  0  0  0  0  0  0
   21.9197    7.5090    4.9599 C   0  0  0  0  0  0  0  0  0  0  0  0
   21.2055    8.7292    4.7841 N   0  0  0  0  0  0  0  0  0  0  0  0
   21.6471    9.1743   14.5144 C   0  0  0  0  0  0  0  0  0  0  0  0
   20.3996    8.8680   14.0066 O   0  0  0  0  0  0  0  0  0  0  0  0
   21.0354    5.0210    8.9225 C   0  0  1  0  0  0  0  0  0  0  0  0
   21.2151    4.4370    7.6234 O   0  0  0  0  0  0  0  0  0  0  0  0
  1  2  1  1  0  0  0
  1  6  1  0  0  0  0
  1 23  1  0  0  0  0
  3  4  1  6  0  0  0
  3  8  1  0  0  0  0
  3 30  1  0  0  0  0
  5  9  1  0  0  0  0
  5 21  1  0  0  0  0
  5 25  1  1  0  0  0
  6  7  1  6  0  0  0
  6 11  1  0  0  0  0
  8 13  1  0  0  0  0
  9 10  1  1  0  0  0
  9 15  1  0  0  0  0
 11 12  1  1  0  0  0
 11 17  1  0  0  0  0
 13 14  1  1  0  0  0
 13 19  1  0  0  0  0
 15 16  1  1  0  0  0
 15 20  1  0  0  0  0
 17 18  1  1  0  0  0
 17 22  1  0  0  0  0
 19  2  1  1  0  0  0
 19 24  1  0  0  0  0
 20 21  1  0  0  0  0
 20 26  1  1  0  0  0
 22 23  1  0  0  0  0
 22 28  1  1  0  0  0
 24 25  1  6  0  0  0
 24 30  1  0  0  0  0
 26 27  1  0  0  0  0
 28 29  1  0  0  0  0
 30 31  1  6  0  0  0
M  END
>  <CHROM.1>
-178.82778086,42.26753064,-135.55266093,-175.30550956,175.72635015,129.11777577
22.95452612,6.93361010,10.15070294,-1.46710367,-0.63602638,-1.73203251

>  <Name>
2o3x_lig

>  <RI>
224

>  <Rbt.Current_Directory>
/home/itssahil/PROJECTS/Mol_Feturizer/New_Systems/rnas/2o3x

>  <Rbt.Executable>
rbdock ($Id: //depot/dev/client3/rdock/2013.1/src/exe/rbdock.cxx#4 $)

>  <Rbt.Library>
libRbt.so (2013.1, Build901 2013/11/27)

>  <Rbt.Parameter_File>
/export/apps/rDock/src/rDock_2013.1_src/data/scripts/dock_solv.prm

>  <Rbt.Receptor>
prm/blind_docking_100.prm

>  <SCORE>
11.4899

>  <SCORE.INTER>
5.31072

>  <SCORE.INTER.CONST>
1

>  <SCORE.INTER.POLAR>
-0.229451

>  <SCORE.INTER.ROT>
6

>  <SCORE.INTER.SOLV>
23.6732

>  <SCORE.INTER.VDW>
-11.1858

>  <SCORE.INTER.norm>
0.171314

>  <SCORE.INTRA>
2.67928

>  <SCORE.INTRA.DIHEDRAL>
5.16858

>  <SCORE.INTRA.DIHEDRAL.0>
9.37739

>  <SCORE.INTRA.POLAR>
0

>  <SCORE.INTRA.POLAR.0>
0

>  <SCORE.INTRA.REPUL>
0

>  <SCORE.INTRA.REPUL.0>
0

>  <SCORE.INTRA.SOLV>
-0.0534135

>  <SCORE.INTRA.SOLV.lig_0>
-82.9274

>  <SCORE.INTRA.VDW>
0.121697

>  <SCORE.INTRA.VDW.0>
-3.84922

>  <SCORE.INTRA.norm>
0.0864283

>  <SCORE.RESTR>
3.4999

>  <SCORE.RESTR.CAVITY>
3.4999

>  <SCORE.RESTR.norm>
0.1129

>  <SCORE.SYSTEM>
0

>  <SCORE.SYSTEM.CONST>
0

>  <SCORE.SYSTEM.DIHEDRAL>
0

>  <SCORE.SYSTEM.SOLV>
0

>  <SCORE.SYSTEM.norm>
0

>  <SCORE.heavy>
31

>  <SCORE.norm>
0.370642

>  <RMSD>
8.254

$$$$
2o3x_lig
 OpenBabel11021811463D
libRbt.so/2013.1/901 2013/11/27
 31 33  0  0  0  0  0  0  0  0999 V2000
   23.8443    7.8558   11.1466 C   0  0  2  0  0  0  0  0  0  0  0  0
   23.8633    6.4222   11.1384 O   0  0  0  0  0  0  0  0  0  0  0  0
   21.3725    3.2302    9.7585 C   0  0  2  0  0  0  0  0  0  0  0  0
   20.3901    2.4206    9.0041 N   0  0  0  0  0  0  0  0  0  0  0  0
   23.5674    6.1802    7.4502 C   0  0  1  0  0  0  0  0  0  0  0  0
   25.1717    8.3623   11.7945 C   0  0  2  0  0  0  0  0  0  0  0  0
   26.3656    7.6869   11.2250 N   0  0  0  0  0  0  0  0  0  0  0  0
   20.6907    4.3961   10.5491 C   0  0  0  0  0  0  0  0  0  0  0  0
   23.8257    7.7204    7.5347 C   0  0  2  0  0  0  0  0  0  0  0  0
   22.9217    8.4726    8.3899 O   0  0  0  0  0  0  0  0  0  0  0  0
   25.1806    8.1402   13.3188 C   0  0  1  0  0  0  0  0  0  0  0  0
   26.3611    8.6489   13.8862 O   0  0  0  0  0  0  0  0  0  0  0  0
   21.8069    5.1742   11.3373 C   0  0  2  0  0  0  0  0  0  0  0  0
   21.2330    6.2975   12.1373 N   0  0  0  0  0  0  0  0  0  0  0  0
   23.7595    8.0355    6.0497 C   0  0  2  0  0  0  0  0  0  0  0  0
   22.3674    8.1167    5.5880 O   0  0  0  0  0  0  0  0  0  0  0  0
   23.9623    8.8022   13.9402 C   0  0  2  0  0  0  0  0  0  0  0  0
   23.9802    8.6226   15.3198 O   0  0  0  0  0  0  0  0  0  0  0  0
   22.8623    5.7573   10.3547 C   0  0  2  0  0  0  0  0  0  0  0  0
   24.4886    6.8758    5.3815 C   0  0  2  0  0  0  0  0  0  0  0  0
   23.9926    5.7779    6.1425 O   0  0  0  0  0  0  0  0  0  0  0  0
   22.6639    8.1965   13.3362 C   0  0  2  0  0  0  0  0  0  0  0  0
   22.6650    8.3757   11.9034 O   0  0  0  0  0  0  0  0  0  0  0  0
   23.5216    4.6869    9.4627 C   0  0  2  0  0  0  0  0  0  0  0  0
   24.2809    5.4406    8.4532 O   0  0  0  0  0  0  0  0  0  0  0  0
   26.0513    6.9433    5.4644 C   0  0  0  0  0  0  0  0  0  0  0  0
   26.4834    6.6635    6.7929 N   0  0  0  0  0  0  0  0  0  0  0  0
   21.4135    8.8289   13.9018 C   0  0  0  0  0  0  0  0  0  0  0  0
   21.6123    9.2819   15.1914 O   0  0  0  0  0  0  0  0  0  0  0  0
   22.4079    3.7875    8.7651 C   0  0  1  0  0  0  0  0  0  0  0  0
   22.9880    2.6513    8.1067 O   0  0  0  0  0  0  0  0  0  0  0  0
  1  2  1  1  0  0  0
  1  6  1  0  0  0  0
  1 23  1  0  0  0  0
  3  4  1  6  0  0  0
  3  8  1  0  0  0  0
  3 30  1  0  0  0  0
  5  9  1  0  0  0  0
  5 21  1  0  0  0  0
  5 25  1  1  0  0  0
  6  7  1  6  0  0  0
  6 11  1  0  0  0  0
  8 13  1  0  0  0  0
  9 10  1  1  0  0  0
  9 15  1  0  0  0  0
 11 12  1  1  0  0  0
 11 17  1  0  0  0  0
 13 14  1  6  0  0  0
 13 19  1  0  0  0  0
 15 16  1  6  0  0  0
 15 20  1  0  0  0  0
 17 18  1  1  0  0  0
 17 22  1  0  0  0  0
 19  2  1  1  0  0  0
 19 24  1  0  0  0  0
 20 21  1  0  0  0  0
 20 26  1  1  0  0  0
 22 23  1  0  0  0  0
 22 28  1  1  0  0  0
 24 25  1  6  0  0  0
 24 30  1  0  0  0  0
 26 27  1  0  0  0  0
 28 29  1  0  0  0  0
 30 31  1  1  0  0  0
M  END
>  <CHROM.1>
-168.12652220,116.89260357,-105.33041531,72.30097187,-29.03055141,-69.62179252
23.42481697,6.72884383,10.10931721,-1.61614097,-0.82247501,-1.96133502

>  <Name>
2o3x_lig

>  <RI>
0

>  <Rbt.Current_Directory>
/home/itssahil/PROJECTS/Mol_Feturizer/New_Systems/rnas/2o3x

>  <Rbt.Executable>
rbdock ($Id: //depot/dev/client3/rdock/2013.1/src/exe/rbdock.cxx#4 $)

>  <Rbt.Library>
libRbt.so (2013.1, Build901 2013/11/27)

>  <Rbt.Parameter_File>
/export/apps/rDock/src/rDock_2013.1_src/data/scripts/dock_solv.prm

>  <Rbt.Receptor>
prm/blind_docking_60.prm

>  <SCORE>
4.68939

>  <SCORE.INTER>
-8.45551

>  <SCORE.INTER.CONST>
1

>  <SCORE.INTER.POLAR>
-0.787999

>  <SCORE.INTER.ROT>
6

>  <SCORE.INTER.SOLV>
25.0803

>  <SCORE.INTER.VDW>
-18.9704

>  <SCORE.INTER.norm>
-0.272758

>  <SCORE.INTRA>
9.54444

>  <SCORE.INTRA.DIHEDRAL>
8.43026

>  <SCORE.INTRA.DIHEDRAL.0>
9.37739

>  <SCORE.INTRA.POLAR>
0

>  <SCORE.INTRA.POLAR.0>
0

>  <SCORE.INTRA.REPUL>
0

>  <SCORE.INTRA.REPUL.0>
0

>  <SCORE.INTRA.SOLV>
5.22441

>  <SCORE.INTRA.SOLV.lig_0>
-82.9274

>  <SCORE.INTRA.VDW>
2.71711

>  <SCORE.INTRA.VDW.0>
-3.84922

>  <SCORE.INTRA.norm>
0.307885

>  <SCORE.RESTR>
3.60045

>  <SCORE.RESTR.CAVITY>
3.60045

>  <SCORE.RESTR.norm>
0.116144

>  <SCORE.SYSTEM>
0

>  <SCORE.SYSTEM.CONST>
0

>  <SCORE.SYSTEM.DIHEDRAL>
0

>  <SCORE.SYSTEM.SOLV>
0

>  <SCORE.SYSTEM.norm>
0

>  <SCORE.heavy>
31

>  <SCORE.norm>
0.151271

>  <RMSD>
8.257

$$$$
2o3x_lig
 OpenBabel11021811463D
libRbt.so/2013.1/901 2013/11/27
 31 33  0  0  0  0  0  0  0  0999 V2000
   17.5233    7.4081   11.7893 C   0  0  2  0  0  0  0  0  0  0  0  0
   18.1397    8.6566   12.1310 O   0  0  0  0  0  0  0  0  0  0  0  0
   17.4470   12.7174   10.9787 C   0  0  2  0  0  0  0  0  0  0  0  0
   17.1625   13.9433   10.2005 N   0  0  0  0  0  0  0  0  0  0  0  0
   15.1899    9.3273    9.6616 C   0  0  1  0  0  0  0  0  0  0  0  0
   17.4540    6.5248   13.0752 C   0  0  2  0  0  0  0  0  0  0  0  0
   16.9112    7.2718   14.2384 N   0  0  0  0  0  0  0  0  0  0  0  0
   18.8141   12.0698   10.5776 C   0  0  0  0  0  0  0  0  0  0  0  0
   16.4062    9.0254    8.7259 C   0  0  2  0  0  0  0  0  0  0  0  0
   17.1668   10.1802    8.2763 O   0  0  0  0  0  0  0  0  0  0  0  0
   18.8407    5.9788   13.4647 C   0  0  1  0  0  0  0  0  0  0  0  0
   18.7460    5.1469   14.5931 O   0  0  0  0  0  0  0  0  0  0  0  0
   19.0384   10.7988   11.4758 C   0  0  2  0  0  0  0  0  0  0  0  0
   20.3377   10.1299   11.1668 N   0  0  0  0  0  0  0  0  0  0  0  0
   15.6666    8.2503    7.6483 C   0  0  2  0  0  0  0  0  0  0  0  0
   14.9628    9.1582    6.7328 O   0  0  0  0  0  0  0  0  0  0  0  0
   19.4407    5.2206   12.2925 C   0  0  2  0  0  0  0  0  0  0  0  0
   20.6834    4.7069   12.6495 O   0  0  0  0  0  0  0  0  0  0  0  0
   17.8912    9.7705   11.2617 C   0  0  2  0  0  0  0  0  0  0  0  0
   14.6804    7.3777    8.4158 C   0  0  2  0  0  0  0  0  0  0  0  0
   14.2267    8.2982    9.4044 O   0  0  0  0  0  0  0  0  0  0  0  0
   19.5821    6.1661   11.0662 C   0  0  2  0  0  0  0  0  0  0  0  0
   18.2888    6.7041   10.7158 O   0  0  0  0  0  0  0  0  0  0  0  0
   16.4914   10.3517   11.5428 C   0  0  2  0  0  0  0  0  0  0  0  0
   15.5468    9.3362   11.0525 O   0  0  0  0  0  0  0  0  0  0  0  0
   15.3065    6.1095    9.0888 C   0  0  0  0  0  0  0  0  0  0  0  0
   15.8093    5.2244    8.0920 N   0  0  0  0  0  0  0  0  0  0  0  0
   20.1573    5.4639    9.8582 C   0  0  0  0  0  0  0  0  0  0  0  0
   20.2934    6.3253    8.7871 O   0  0  0  0  0  0  0  0  0  0  0  0
   16.2944   11.7218   10.7556 C   0  0  1  0  0  0  0  0  0  0  0  0
   15.0945   12.3947   11.1662 O   0  0  0  0  0  0  0  0  0  0  0  0
  1  2  1  1  0  0  0
  1  6  1  0  0  0  0
  1 23  1  0  0  0  0
  3  4  1  6  0  0  0
  3  8  1  0  0  0  0
  3 30  1  0  0  0  0
  5  9  1  0  0  0  0
  5 21  1  0  0  0  0
  5 25  1  1  0  0  0
  6  7  1  1  0  0  0
  6 11  1  0  0  0  0
  8 13  1  0  0  0  0
  9 10  1  6  0  0  0
  9 15  1  0  0  0  0
 11 12  1  1  0  0  0
 11 17  1  0  0  0  0
 13 14  1  6  0  0  0
 13 19  1  0  0  0  0
 15 16  1  6  0  0  0
 15 20  1  0  0  0  0
 17 18  1  1  0  0  0
 17 22  1  0  0  0  0
 19  2  1  1  0  0  0
 19 24  1  0  0  0  0
 20 21  1  0  0  0  0
 20 26  1  1  0  0  0
 22 23  1  0  0  0  0
 22 28  1  6  0  0  0
 24 25  1  6  0  0  0
 24 30  1  0  0  0  0
 26 27  1  0  0  0  0
 28 29  1  0  0  0  0
 30 31  1  1  0  0  0
M  END
>  <CHROM.1>
-158.68827957,63.82284414,-158.25905960,-64.27534788,-179.09314333,-84.49725769
17.40612866,8.42233767,10.66193139,-0.81355720,-0.86075914,0.19409458

>  <Name>
2o3x_lig

>  <RI>
3.34184e+07

>  <Rbt.Current_Directory>
/home/itssahil/PROJECTS/Mol_Feturizer/New_Systems/rnas/2o3x

>  <Rbt.Executable>
rbdock ($Id: //depot/dev/client3/rdock/2013.1/src/exe/rbdock.cxx#4 $)

>  <Rbt.Library>
libRbt.so (2013.1, Build901 2013/11/27)

>  <Rbt.Parameter_File>
/export/apps/rDock/src/rDock_2013.1_src/data/scripts/dock_solv.prm

>  <Rbt.Receptor>
prm/pocket_docking_6.prm

>  <SCORE>
-5.47464

>  <SCORE.INTER>
-4.1097

>  <SCORE.INTER.CONST>
1

>  <SCORE.INTER.POLAR>
-0.706217

>  <SCORE.INTER.ROT>
6

>  <SCORE.INTER.SOLV>
14.6182

>  <SCORE.INTER.VDW>
-12.8585

>  <SCORE.INTER.norm>
-0.132571

>  <SCORE.INTRA>
-1.36494

>  <SCORE.INTRA.DIHEDRAL>
-2.39072

>  <SCORE.INTRA.DIHEDRAL.0>
9.37739

>  <SCORE.INTRA.POLAR>
0

>  <SCORE.INTRA.POLAR.0>
0

>  <SCORE.INTRA.REPUL>
0

>  <SCORE.INTRA.REPUL.0>
0

>  <SCORE.INTRA.SOLV>
-0.66839

>  <SCORE.INTRA.SOLV.lig_0>
-82.9274

>  <SCORE.INTRA.VDW>
0.164613

>  <SCORE.INTRA.VDW.0>
-3.84922

>  <SCORE.INTRA.norm>
-0.0440304

>  <SCORE.RESTR>
0

>  <SCORE.RESTR.CAVITY>
0

>  <SCORE.RESTR.norm>
0

>  <SCORE.SYSTEM>
0

>  <SCORE.SYSTEM.CONST>
0

>  <SCORE.SYSTEM.DIHEDRAL>
0

>  <SCORE.SYSTEM.SOLV>
0

>  <SCORE.SYSTEM.norm>
0

>  <SCORE.heavy>
31

>  <SCORE.norm>
-0.176601

>  <RMSD>
8.259

$$$$
2o3x_lig
 OpenBabel11021811463D
libRbt.so/2013.1/901 2013/11/27
 31 33  0  0  0  0  0  0  0  0999 V2000
   23.8210    7.9559   11.4625 C   0  0  2  0  0  0  0  0  0  0  0  0
   23.7642    6.5239   11.5012 O   0  0  0  0  0  0  0  0  0  0  0  0
   20.9505    3.4448   10.5523 C   0  0  2  0  0  0  0  0  0  0  0  0
   19.8423    2.6711    9.9501 N   0  0  0  0  0  0  0  0  0  0  0  0
   23.0245    6.1288    7.8590 C   0  0  1  0  0  0  0  0  0  0  0  0
   25.2486    8.4044   11.9088 C   0  0  2  0  0  0  0  0  0  0  0  0
   26.3174    7.6478   11.2080 N   0  0  0  0  0  0  0  0  0  0  0  0
   20.4333    4.6788   11.3642 C   0  0  0  0  0  0  0  0  0  0  0  0
   23.0430    7.6776    8.0762 C   0  0  2  0  0  0  0  0  0  0  0  0
   22.0086    8.2115    8.9476 O   0  0  0  0  0  0  0  0  0  0  0  0
   25.4527    8.2235   13.4249 C   0  0  1  0  0  0  0  0  0  0  0  0
   26.7242    8.6803   13.8111 O   0  0  0  0  0  0  0  0  0  0  0  0
   21.6763    5.4141   11.9861 C   0  0  2  0  0  0  0  0  0  0  0  0
   21.2647    6.5992   12.7969 N   0  0  0  0  0  0  0  0  0  0  0  0
   22.9765    8.1040    6.6193 C   0  0  2  0  0  0  0  0  0  0  0  0
   21.6035    8.0159    6.1047 O   0  0  0  0  0  0  0  0  0  0  0  0
   24.3662    8.9695   14.1809 C   0  0  2  0  0  0  0  0  0  0  0  0
   24.5617    8.8266   15.5509 O   0  0  0  0  0  0  0  0  0  0  0  0
   22.6423    5.8945   10.8658 C   0  0  2  0  0  0  0  0  0  0  0  0
   23.8942    7.1266    5.8942 C   0  0  2  0  0  0  0  0  0  0  0  0
   23.5471    5.9067    6.5435 O   0  0  0  0  0  0  0  0  0  0  0  0
   22.9680    8.4216   13.7775 C   0  0  2  0  0  0  0  0  0  0  0  0
   22.7840    8.5616   12.3523 O   0  0  0  0  0  0  0  0  0  0  0  0
   23.1310    4.7535    9.9517 C   0  0  2  0  0  0  0  0  0  0  0  0
   23.8102    5.4215    8.8308 O   0  0  0  0  0  0  0  0  0  0  0  0
   25.4251    7.4188    6.0508 C   0  0  0  0  0  0  0  0  0  0  0  0
   26.0024    6.5145    6.9883 N   0  0  0  0  0  0  0  0  0  0  0  0
   21.8406    9.1383   14.4835 C   0  0  0  0  0  0  0  0  0  0  0  0
   20.6163    8.8410   13.9171 O   0  0  0  0  0  0  0  0  0  0  0  0
   21.8940    3.9004    9.4246 C   0  0  1  0  0  0  0  0  0  0  0  0
   22.3274    2.7071    8.7542 O   0  0  0  0  0  0  0  0  0  0  0  0
  1  2  1  1  0  0  0
  1  6  1  0  0  0  0
  1 23  1  0  0  0  0
  3  4  1  6  0  0  0
  3  8  1  0  0  0  0
  3 30  1  0  0  0  0
  5  9  1  0  0  0  0
  5 21  1  0  0  0  0
  5 25  1  1  0  0  0
  6  7  1  6  0  0  0
  6 11  1  0  0  0  0
  8 13  1  0  0  0  0
  9 10  1  1  0  0  0
  9 15  1  0  0  0  0
 11 12  1  1  0  0  0
 11 17  1  0  0  0  0
 13 14  1  6  0  0  0
 13 19  1  0  0  0  0
 15 16  1  6  0  0  0
 15 20  1  0  0  0  0
 17 18  1  1  0  0  0
 17 22  1  0  0  0  0
 19  2  1  1  0  0  0
 19 24  1  0  0  0  0
 20 21  1  0  0  0  0
 20 26  1  1  0  0  0
 22 23  1  0  0  0  0
 22 28  1  1  0  0  0
 24 25  1  6  0  0  0
 24 30  1  0  0  0  0
 26 27  1  0  0  0  0
 28 29  1  0  0  0  0
 30 31  1  1  0  0  0
M  END
>  <CHROM.1>
-167.27558545,101.51399307,-104.65156069,103.11828761,167.39765779,-71.72755517
23.15873995,6.81800307,10.49676307,-1.42553689,-0.74505929,-1.85464047

>  <Name>
2o3x_lig

>  <RI>
224

>  <Rbt.Current_Directory>
/home/itssahil/PROJECTS/Mol_Feturizer/New_Systems/rnas/2o3x

>  <Rbt.Executable>
rbdock ($Id: //depot/dev/client3/rdock/2013.1/src/exe/rbdock.cxx#4 $)

>  <Rbt.Library>
libRbt.so (2013.1, Build901 2013/11/27)

>  <Rbt.Parameter_File>
/export/apps/rDock/src/rDock_2013.1_src/data/scripts/dock_solv.prm

>  <Rbt.Receptor>
prm/blind_docking_100.prm

>  <SCORE>
1.50096

>  <SCORE.INTER>
-8.39957

>  <SCORE.INTER.CONST>
1

>  <SCORE.INTER.POLAR>
-0.516934

>  <SCORE.INTER.ROT>
6

>  <SCORE.INTER.SOLV>
24.5448

>  <SCORE.INTER.VDW>
-19.6582

>  <SCORE.INTER.norm>
-0.270954

>  <SCORE.INTRA>
8.63873

>  <SCORE.INTRA.DIHEDRAL>
8.5238

>  <SCORE.INTRA.DIHEDRAL.0>
9.37739

>  <SCORE.INTRA.POLAR>
0

>  <SCORE.INTRA.POLAR.0>
0

>  <SCORE.INTRA.REPUL>
0

>  <SCORE.INTRA.REPUL.0>
0

>  <SCORE.INTRA.SOLV>
5.41723

>  <SCORE.INTRA.SOLV.lig_0>
-82.9274

>  <SCORE.INTRA.VDW>
1.66822

>  <SCORE.INTRA.VDW.0>
-3.84922

>  <SCORE.INTRA.norm>
0.278669

>  <SCORE.RESTR>
1.2618

>  <SCORE.RESTR.CAVITY>
1.2618

>  <SCORE.RESTR.norm>
0.0407032

>  <SCORE.SYSTEM>
0

>  <SCORE.SYSTEM.CONST>
0

>  <SCORE.SYSTEM.DIHEDRAL>
0

>  <SCORE.SYSTEM.SOLV>
0

>  <SCORE.SYSTEM.norm>
0

>  <SCORE.heavy>
31

>  <SCORE.norm>
0.0484182

>  <RMSD>
8.268

$$$$
2o3x_lig
 OpenBabel11021811463D
libRbt.so/2013.1/901 2013/11/27
 31 33  0  0  0  0  0  0  0  0999 V2000
   23.1789    7.5957   11.6233 C   0  0  2  0  0  0  0  0  0  0  0  0
   23.2315    6.1633   11.6543 O   0  0  0  0  0  0  0  0  0  0  0  0
   21.2996    2.8352    9.7864 C   0  0  2  0  0  0  0  0  0  0  0  0
   20.5069    1.9844    8.8713 N   0  0  0  0  0  0  0  0  0  0  0  0
   23.4012    6.0542    7.8457 C   0  0  1  0  0  0  0  0  0  0  0  0
   24.5684    8.1295   11.1513 C   0  0  2  0  0  0  0  0  0  0  0  0
   25.0550    7.4260    9.9372 N   0  0  0  0  0  0  0  0  0  0  0  0
   20.4034    3.8523   10.5685 C   0  0  0  0  0  0  0  0  0  0  0  0
   23.3788    7.6161    7.9239 C   0  0  2  0  0  0  0  0  0  0  0  0
   22.2296    8.2047    8.5926 O   0  0  0  0  0  0  0  0  0  0  0  0
   25.6377    7.9788   12.2499 C   0  0  1  0  0  0  0  0  0  0  0  0
   26.8655    8.5113   11.8218 O   0  0  0  0  0  0  0  0  0  0  0  0
   21.3283    4.6839   11.5305 C   0  0  2  0  0  0  0  0  0  0  0  0
   20.5427    5.6700   12.3315 N   0  0  0  0  0  0  0  0  0  0  0  0
   23.5134    7.9118    6.4395 C   0  0  2  0  0  0  0  0  0  0  0  0
   22.2261    7.7527    5.7500 O   0  0  0  0  0  0  0  0  0  0  0  0
   25.1699    8.6714   13.5188 C   0  0  2  0  0  0  0  0  0  0  0  0
   26.1440    8.5564   14.5055 O   0  0  0  0  0  0  0  0  0  0  0  0
   22.4063    5.4561   10.7176 C   0  0  2  0  0  0  0  0  0  0  0  0
   24.5296    6.8922    5.9387 C   0  0  2  0  0  0  0  0  0  0  0  0
   24.1035    5.7275    6.6403 O   0  0  0  0  0  0  0  0  0  0  0  0
   23.8348    8.0405   14.0057 C   0  0  2  0  0  0  0  0  0  0  0  0
   22.8374    8.1526   12.9676 O   0  0  0  0  0  0  0  0  0  0  0  0
   23.2799    4.5392    9.8388 C   0  0  2  0  0  0  0  0  0  0  0  0
   24.0484    5.4499    8.9762 O   0  0  0  0  0  0  0  0  0  0  0  0
   26.0217    7.2260    6.2787 C   0  0  0  0  0  0  0  0  0  0  0  0
   26.8940    6.5009    5.4167 N   0  0  0  0  0  0  0  0  0  0  0  0
   23.3060    8.7010   15.2577 C   0  0  0  0  0  0  0  0  0  0  0  0
   22.7525    9.9368   14.9849 O   0  0  0  0  0  0  0  0  0  0  0  0
   22.3621    3.5805    8.9587 C   0  0  1  0  0  0  0  0  0  0  0  0
   23.1403    2.5711    8.2979 O   0  0  0  0  0  0  0  0  0  0  0  0
  1  2  1  1  0  0  0
  1  6  1  0  0  0  0
  1 23  1  0  0  0  0
  3  4  1  6  0  0  0
  3  8  1  0  0  0  0
  3 30  1  0  0  0  0
  5  9  1  0  0  0  0
  5 21  1  0  0  0  0
  5 25  1  1  0  0  0
  6  7  1  6  0  0  0
  6 11  1  0  0  0  0
  8 13  1  0  0  0  0
  9 10  1  6  0  0  0
  9 15  1  0  0  0  0
 11 12  1  6  0  0  0
 11 17  1  0  0  0  0
 13 14  1  6  0  0  0
 13 19  1  0  0  0  0
 15 16  1  6  0  0  0
 15 20  1  0  0  0  0
 17 18  1  1  0  0  0
 17 22  1  0  0  0  0
 19  2  1  1  0  0  0
 19 24  1  0  0  0  0
 20 21  1  0  0  0  0
 20 26  1  1  0  0  0
 22 23  1  0  0  0  0
 22 28  1  1  0  0  0
 24 25  1  6  0  0  0
 24 30  1  0  0  0  0
 26 27  1  0  0  0  0
 28 29  1  0  0  0  0
 30 31  1  1  0  0  0
M  END
>  <CHROM.1>
-113.66517015,119.20460917,-113.92120802,-160.47809285,75.06789302,-77.35943826
23.50450540,6.55729464,10.15499506,1.42215801,0.81692624,1.24207323

>  <Name>
2o3x_lig

>  <RI>
0

>  <Rbt.Current_Directory>
/home/itssahil/PROJECTS/Mol_Feturizer/New_Systems/rnas/2o3x

>  <Rbt.Executable>
rbdock ($Id: //depot/dev/client3/rdock/2013.1/src/exe/rbdock.cxx#4 $)

>  <Rbt.Library>
libRbt.so (2013.1, Build901 2013/11/27)

>  <Rbt.Parameter_File>
/export/apps/rDock/src/rDock_2013.1_src/data/scripts/dock_solv.prm

>  <Rbt.Receptor>
prm/blind_docking_60.prm

>  <SCORE>
3.61085

>  <SCORE.INTER>
-11.6656

>  <SCORE.INTER.CONST>
1

>  <SCORE.INTER.POLAR>
-1.09774

>  <SCORE.INTER.ROT>
6

>  <SCORE.INTER.SOLV>
23.0265

>  <SCORE.INTER.VDW>
-19.3934

>  <SCORE.INTER.norm>
-0.376309

>  <SCORE.INTRA>
11.7644

>  <SCORE.INTRA.DIHEDRAL>
15.2513

>  <SCORE.INTRA.DIHEDRAL.0>
9.37739

>  <SCORE.INTRA.POLAR>
0

>  <SCORE.INTRA.POLAR.0>
0

>  <SCORE.INTRA.REPUL>
0.0572608

>  <SCORE.INTRA.REPUL.0>
0

>  <SCORE.INTRA.SOLV>
3.96554

>  <SCORE.INTRA.SOLV.lig_0>
-82.9274

>  <SCORE.INTRA.VDW>
1.8697

>  <SCORE.INTRA.VDW.0>
-3.84922

>  <SCORE.INTRA.norm>
0.379497

>  <SCORE.RESTR>
3.51204

>  <SCORE.RESTR.CAVITY>
3.51204

>  <SCORE.RESTR.norm>
0.113292

>  <SCORE.SYSTEM>
0

>  <SCORE.SYSTEM.CONST>
0

>  <SCORE.SYSTEM.DIHEDRAL>
0

>  <SCORE.SYSTEM.SOLV>
0

>  <SCORE.SYSTEM.norm>
0

>  <SCORE.heavy>
31

>  <SCORE.norm>
0.116479

>  <RMSD>
8.275

$$$$
2o3x_lig
 OpenBabel11021811463D
libRbt.so/2013.1/901 2013/11/27
 31 33  0  0  0  0  0  0  0  0999 V2000
   21.6677    7.7832   13.0848 C   0  0  2  0  0  0  0  0  0  0  0  0
   21.3138    9.1587   12.8891 O   0  0  0  0  0  0  0  0  0  0  0  0
   17.6752   11.3474   13.4066 C   0  0  2  0  0  0  0  0  0  0  0  0
   16.2565   11.7674   13.3884 N   0  0  0  0  0  0  0  0  0  0  0  0
   18.6115    7.0404   13.6490 C   0  0  1  0  0  0  0  0  0  0  0  0
   23.1967    7.7070   13.3929 C   0  0  2  0  0  0  0  0  0  0  0  0
   23.6072    8.6845   14.4330 N   0  0  0  0  0  0  0  0  0  0  0  0
   18.2887   11.2843   11.9682 C   0  0  0  0  0  0  0  0  0  0  0  0
   18.9112    5.5546   14.0349 C   0  0  2  0  0  0  0  0  0  0  0  0
   20.0919    4.9635   13.4259 O   0  0  0  0  0  0  0  0  0  0  0  0
   24.0436    7.9682   12.1330 C   0  0  1  0  0  0  0  0  0  0  0  0
   25.4129    7.8445   12.4227 O   0  0  0  0  0  0  0  0  0  0  0  0
   19.7976   10.8608   12.0954 C   0  0  2  0  0  0  0  0  0  0  0  0
   20.4644   10.7955   10.7604 N   0  0  0  0  0  0  0  0  0  0  0  0
   17.5766    4.9501   13.6322 C   0  0  2  0  0  0  0  0  0  0  0  0
   17.5068    4.7429   12.1796 O   0  0  0  0  0  0  0  0  0  0  0  0
   23.6414    6.9980   11.0350 C   0  0  2  0  0  0  0  0  0  0  0  0
   24.4209    7.2167    9.9035 O   0  0  0  0  0  0  0  0  0  0  0  0
   19.9173    9.4670   12.7752 C   0  0  2  0  0  0  0  0  0  0  0  0
   16.5424    5.9731   14.0872 C   0  0  2  0  0  0  0  0  0  0  0  0
   17.1875    7.1867   13.7110 O   0  0  0  0  0  0  0  0  0  0  0  0
   22.1353    7.1788   10.6932 C   0  0  2  0  0  0  0  0  0  0  0  0
   21.3390    6.9644   11.8784 O   0  0  0  0  0  0  0  0  0  0  0  0
   19.2532    9.4077   14.1651 C   0  0  2  0  0  0  0  0  0  0  0  0
   19.2456    7.9822   14.5282 O   0  0  0  0  0  0  0  0  0  0  0  0
   16.2368    5.9640   15.6234 C   0  0  0  0  0  0  0  0  0  0  0  0
   15.6219    4.7330   15.9927 N   0  0  0  0  0  0  0  0  0  0  0  0
   21.6681    6.2258    9.6177 C   0  0  0  0  0  0  0  0  0  0  0  0
   22.3215    6.4503    8.4216 O   0  0  0  0  0  0  0  0  0  0  0  0
   17.7658    9.9714   14.0906 C   0  0  1  0  0  0  0  0  0  0  0  0
   17.2001   10.1335   15.4001 O   0  0  0  0  0  0  0  0  0  0  0  0
  1  2  1  6  0  0  0
  1  6  1  0  0  0  0
  1 23  1  0  0  0  0
  3  4  1  6  0  0  0
  3  8  1  0  0  0  0
  3 30  1  0  0  0  0
  5  9  1  0  0  0  0
  5 21  1  0  0  0  0
  5 25  1  1  0  0  0
  6  7  1  1  0  0  0
  6 11  1  0  0  0  0
  8 13  1  0  0  0  0
  9 10  1  6  0  0  0
  9 15  1  0  0  0  0
 11 12  1  1  0  0  0
 11 17  1  0  0  0  0
 13 14  1  6  0  0  0
 13 19  1  0  0  0  0
 15 16  1  6  0  0  0
 15 20  1  0  0  0  0
 17 18  1  6  0  0  0
 17 22  1  0  0  0  0
 19  2  1  1  0  0  0
 19 24  1  0  0  0  0
 20 21  1  0  0  0  0
 20 26  1  1  0  0  0
 22 23  1  0  0  0  0
 22 28  1  6  0  0  0
 24 25  1  6  0  0  0
 24 30  1  0  0  0  0
 26 27  1  0  0  0  0
 28 29  1  0  0  0  0
 30 31  1  1  0  0  0
M  END
>  <CHROM.1>
-171.66270435,169.51735532,-160.72635365,-65.41206165,-63.03822837,-56.59584559
19.99113440,7.84871412,12.84260045,0.01617991,-0.46652027,3.12821809

>  <Name>
2o3x_lig

>  <RI>
2.78316e+07

>  <Rbt.Current_Directory>
/home/itssahil/PROJECTS/Mol_Feturizer/New_Systems/rnas/2o3x

>  <Rbt.Executable>
rbdock ($Id: //depot/dev/client3/rdock/2013.1/src/exe/rbdock.cxx#4 $)

>  <Rbt.Library>
libRbt.so (2013.1, Build901 2013/11/27)

>  <Rbt.Parameter_File>
/export/apps/rDock/src/rDock_2013.1_src/data/scripts/dock_solv.prm

>  <Rbt.Receptor>
prm/pocket_docking_7.prm

>  <SCORE>
-16.047

>  <SCORE.INTER>
-13.0201

>  <SCORE.INTER.CONST>
1

>  <SCORE.INTER.POLAR>
-0.449376

>  <SCORE.INTER.ROT>
6

>  <SCORE.INTER.SOLV>
16.1582

>  <SCORE.INTER.VDW>
-20.1682

>  <SCORE.INTER.norm>
-0.420003

>  <SCORE.INTRA>
-3.02692

>  <SCORE.INTRA.DIHEDRAL>
-6.46502

>  <SCORE.INTRA.DIHEDRAL.0>
9.37739

>  <SCORE.INTRA.POLAR>
0

>  <SCORE.INTRA.POLAR.0>
0

>  <SCORE.INTRA.REPUL>
0

>  <SCORE.INTRA.REPUL.0>
0

>  <SCORE.INTRA.SOLV>
-1.36027

>  <SCORE.INTRA.SOLV.lig_0>
-82.9274

>  <SCORE.INTRA.VDW>
0.885722

>  <SCORE.INTRA.VDW.0>
-3.84922

>  <SCORE.INTRA.norm>
-0.0976426

>  <SCORE.RESTR>
0

>  <SCORE.RESTR.CAVITY>
0

>  <SCORE.RESTR.norm>
0

>  <SCORE.SYSTEM>
0

>  <SCORE.SYSTEM.CONST>
0

>  <SCORE.SYSTEM.DIHEDRAL>
0

>  <SCORE.SYSTEM.SOLV>
0

>  <SCORE.SYSTEM.norm>
0

>  <SCORE.heavy>
31

>  <SCORE.norm>
-0.517646

>  <RMSD>
8.278

$$$$
2o3x_lig
 OpenBabel11021811463D
libRbt.so/2013.1/901 2013/11/27
 31 33  0  0  0  0  0  0  0  0999 V2000
   23.2863    7.6913   11.4796 C   0  0  2  0  0  0  0  0  0  0  0  0
   23.2010    6.2693   11.6414 O   0  0  0  0  0  0  0  0  0  0  0  0
   21.2785    2.9191    9.8034 C   0  0  2  0  0  0  0  0  0  0  0  0
   20.4872    2.0582    8.8968 N   0  0  0  0  0  0  0  0  0  0  0  0
   23.3456    6.1819    7.8709 C   0  0  1  0  0  0  0  0  0  0  0  0
   24.7705    8.0634   11.1681 C   0  0  2  0  0  0  0  0  0  0  0  0
   25.3500    7.2072   10.1019 N   0  0  0  0  0  0  0  0  0  0  0  0
   20.3800    3.9384   10.5800 C   0  0  0  0  0  0  0  0  0  0  0  0
   23.5483    7.7327    7.8632 C   0  0  2  0  0  0  0  0  0  0  0  0
   22.5661    8.5078    8.6040 O   0  0  0  0  0  0  0  0  0  0  0  0
   25.6621    7.9368   12.4179 C   0  0  1  0  0  0  0  0  0  0  0  0
   26.9807    8.3249   12.1266 O   0  0  0  0  0  0  0  0  0  0  0  0
   21.3037    4.7812   11.5333 C   0  0  2  0  0  0  0  0  0  0  0  0
   20.5159    5.7701   12.3288 N   0  0  0  0  0  0  0  0  0  0  0  0
   23.5705    7.9434    6.3585 C   0  0  2  0  0  0  0  0  0  0  0  0
   22.2101    7.9421    5.8044 O   0  0  0  0  0  0  0  0  0  0  0  0
   25.0926    8.7861   13.5418 C   0  0  2  0  0  0  0  0  0  0  0  0
   25.9089    8.6915   14.6645 O   0  0  0  0  0  0  0  0  0  0  0  0
   22.3766    5.5516   10.7121 C   0  0  2  0  0  0  0  0  0  0  0  0
   24.3790    6.7683    5.8214 C   0  0  2  0  0  0  0  0  0  0  0  0
   23.8691    5.7074    6.6244 O   0  0  0  0  0  0  0  0  0  0  0  0
   23.6510    8.3148   13.8842 C   0  0  2  0  0  0  0  0  0  0  0  0
   22.8186    8.4033   12.7078 O   0  0  0  0  0  0  0  0  0  0  0  0
   23.2519    4.6316    9.8381 C   0  0  2  0  0  0  0  0  0  0  0  0
   24.0145    5.5389    8.9669 O   0  0  0  0  0  0  0  0  0  0  0  0
   25.9298    6.8983    5.9989 C   0  0  0  0  0  0  0  0  0  0  0  0
   26.3598    6.1330    7.1210 N   0  0  0  0  0  0  0  0  0  0  0  0
   23.0208    9.1354   14.9855 C   0  0  0  0  0  0  0  0  0  0  0  0
   23.8541    9.2386   16.0822 O   0  0  0  0  0  0  0  0  0  0  0  0
   22.3360    3.6625    8.9676 C   0  0  1  0  0  0  0  0  0  0  0  0
   23.1167    2.6513    8.3126 O   0  0  0  0  0  0  0  0  0  0  0  0
  1  2  1  1  0  0  0
  1  6  1  0  0  0  0
  1 23  1  0  0  0  0
  3  4  1  6  0  0  0
  3  8  1  0  0  0  0
  3 30  1  0  0  0  0
  5  9  1  0  0  0  0
  5 21  1  0  0  0  0
  5 25  1  1  0  0  0
  6  7  1  6  0  0  0
  6 11  1  0  0  0  0
  8 13  1  0  0  0  0
  9 10  1  1  0  0  0
  9 15  1  0  0  0  0
 11 12  1  6  0  0  0
 11 17  1  0  0  0  0
 13 14  1  6  0  0  0
 13 19  1  0  0  0  0
 15 16  1  6  0  0  0
 15 20  1  0  0  0  0
 17 18  1  1  0  0  0
 17 22  1  0  0  0  0
 19  2  1  1  0  0  0
 19 24  1  0  0  0  0
 20 21  1  0  0  0  0
 20 26  1  1  0  0  0
 22 23  1  0  0  0  0
 22 28  1  1  0  0  0
 24 25  1  6  0  0  0
 24 30  1  0  0  0  0
 26 27  1  0  0  0  0
 28 29  1  0  0  0  0
 30 31  1  1  0  0  0
M  END
>  <CHROM.1>
-117.67574824,127.75725810,-122.35892446,100.27927120,-50.39553116,-74.40660824
23.51650731,6.58831338,10.23882327,-1.33484943,-0.82047920,-1.85053590

>  <Name>
2o3x_lig

>  <RI>
0

>  <Rbt.Current_Directory>
/home/itssahil/PROJECTS/Mol_Feturizer/New_Systems/rnas/2o3x

>  <Rbt.Executable>
rbdock ($Id: //depot/dev/client3/rdock/2013.1/src/exe/rbdock.cxx#4 $)

>  <Rbt.Library>
libRbt.so (2013.1, Build901 2013/11/27)

>  <Rbt.Parameter_File>
/export/apps/rDock/src/rDock_2013.1_src/data/scripts/dock_solv.prm

>  <Rbt.Receptor>
prm/blind_docking_60.prm

>  <SCORE>
7.60663

>  <SCORE.INTER>
-10.5833

>  <SCORE.INTER.CONST>
1

>  <SCORE.INTER.POLAR>
-1.09545

>  <SCORE.INTER.ROT>
6

>  <SCORE.INTER.SOLV>
23.6707

>  <SCORE.INTER.VDW>
-18.8943

>  <SCORE.INTER.norm>
-0.341398

>  <SCORE.INTRA>
13.7345

>  <SCORE.INTRA.DIHEDRAL>
17.0303

>  <SCORE.INTRA.DIHEDRAL.0>
9.37739

>  <SCORE.INTRA.POLAR>
0

>  <SCORE.INTRA.POLAR.0>
0

>  <SCORE.INTRA.REPUL>
0.0237766

>  <SCORE.INTRA.REPUL.0>
0

>  <SCORE.INTRA.SOLV>
7.3737

>  <SCORE.INTRA.SOLV.lig_0>
-82.9274

>  <SCORE.INTRA.VDW>
1.41359

>  <SCORE.INTRA.VDW.0>
-3.84922

>  <SCORE.INTRA.norm>
0.443048

>  <SCORE.RESTR>
4.45549

>  <SCORE.RESTR.CAVITY>
4.45549

>  <SCORE.RESTR.norm>
0.143726

>  <SCORE.SYSTEM>
0

>  <SCORE.SYSTEM.CONST>
0

>  <SCORE.SYSTEM.DIHEDRAL>
0

>  <SCORE.SYSTEM.SOLV>
0

>  <SCORE.SYSTEM.norm>
0

>  <SCORE.heavy>
31

>  <SCORE.norm>
0.245375

>  <RMSD>
8.282

$$$$
2o3x_lig
 OpenBabel11021811463D
libRbt.so/2013.1/901 2013/11/27
 31 33  0  0  0  0  0  0  0  0999 V2000
   16.3833    8.0877   11.1507 C   0  0  2  0  0  0  0  0  0  0  0  0
   16.1063    9.3639   10.5592 O   0  0  0  0  0  0  0  0  0  0  0  0
   18.4671   12.9222   10.3075 C   0  0  2  0  0  0  0  0  0  0  0  0
   19.3096   14.0930   10.6374 N   0  0  0  0  0  0  0  0  0  0  0  0
   20.2892    8.9102   11.2594 C   0  0  1  0  0  0  0  0  0  0  0  0
   15.6272    6.9920   10.3345 C   0  0  2  0  0  0  0  0  0  0  0  0
   15.8371    7.1396    8.8716 N   0  0  0  0  0  0  0  0  0  0  0  0
   17.0280   13.0443   10.9104 C   0  0  0  0  0  0  0  0  0  0  0  0
   20.6930    7.6657   12.1164 C   0  0  2  0  0  0  0  0  0  0  0  0
   21.0666    7.9353   13.4955 O   0  0  0  0  0  0  0  0  0  0  0  0
   14.1110    7.0279   10.6042 C   0  0  1  0  0  0  0  0  0  0  0  0
   13.4585    6.0022    9.8995 O   0  0  0  0  0  0  0  0  0  0  0  0
   16.2060   11.7744   10.4816 C   0  0  2  0  0  0  0  0  0  0  0  0
   14.8074   11.8229   11.0039 N   0  0  0  0  0  0  0  0  0  0  0  0
   21.7941    7.1286   11.2174 C   0  0  2  0  0  0  0  0  0  0  0  0
   23.0420    7.8810   11.4028 O   0  0  0  0  0  0  0  0  0  0  0  0
   13.8526    6.8974   12.0958 C   0  0  2  0  0  0  0  0  0  0  0  0
   12.4829    6.9065   12.3398 O   0  0  0  0  0  0  0  0  0  0  0  0
   16.8859   10.4800   11.0122 C   0  0  2  0  0  0  0  0  0  0  0  0
   21.2536    7.3091    9.8038 C   0  0  2  0  0  0  0  0  0  0  0  0
   20.6598    8.6000    9.9106 O   0  0  0  0  0  0  0  0  0  0  0  0
   14.5418    8.0648   12.8573 C   0  0  2  0  0  0  0  0  0  0  0  0
   15.9595    8.0535   12.5836 O   0  0  0  0  0  0  0  0  0  0  0  0
   18.3462   10.3227   10.5441 C   0  0  2  0  0  0  0  0  0  0  0  0
   18.8856    9.2045   11.3330 O   0  0  0  0  0  0  0  0  0  0  0  0
   20.1897    6.2471    9.3635 C   0  0  0  0  0  0  0  0  0  0  0  0
   20.7768    4.9493    9.3348 N   0  0  0  0  0  0  0  0  0  0  0  0
   14.3371    7.9806   14.3521 C   0  0  0  0  0  0  0  0  0  0  0  0
   13.0050    8.1178   14.6907 O   0  0  0  0  0  0  0  0  0  0  0  0
   19.1658   11.6565   10.8358 C   0  0  1  0  0  0  0  0  0  0  0  0
   20.4608   11.6221   10.2169 O   0  0  0  0  0  0  0  0  0  0  0  0
  1  2  1  6  0  0  0
  1  6  1  0  0  0  0
  1 23  1  0  0  0  0
  3  4  1  1  0  0  0
  3  8  1  0  0  0  0
  3 30  1  0  0  0  0
  5  9  1  0  0  0  0
  5 21  1  0  0  0  0
  5 25  1  6  0  0  0
  6  7  1  6  0  0  0
  6 11  1  0  0  0  0
  8 13  1  0  0  0  0
  9 10  1  1  0  0  0
  9 15  1  0  0  0  0
 11 12  1  6  0  0  0
 11 17  1  0  0  0  0
 13 14  1  1  0  0  0
 13 19  1  0  0  0  0
 15 16  1  6  0  0  0
 15 20  1  0  0  0  0
 17 18  1  6  0  0  0
 17 22  1  0  0  0  0
 19  2  1  6  0  0  0
 19 24  1  0  0  0  0
 20 21  1  0  0  0  0
 20 26  1  1  0  0  0
 22 23  1  0  0  0  0
 22 28  1  1  0  0  0
 24 25  1  1  0  0  0
 24 30  1  0  0  0  0
 26 27  1  0  0  0  0
 28 29  1  0  0  0  0
 30 31  1  6  0  0  0
M  END
>  <CHROM.1>
-169.46288404,-178.03101680,-167.55398006,-63.50470952,-64.23468013,-172.01209661
17.57512125,8.82056880,11.17175249,-2.97381481,0.17925635,-0.02521848

>  <Name>
2o3x_lig

>  <RI>
0

>  <Rbt.Current_Directory>
/home/itssahil/PROJECTS/Mol_Feturizer/New_Systems/rnas/2o3x

>  <Rbt.Executable>
rbdock ($Id: //depot/dev/client3/rdock/2013.1/src/exe/rbdock.cxx#4 $)

>  <Rbt.Library>
libRbt.so (2013.1, Build901 2013/11/27)

>  <Rbt.Parameter_File>
/export/apps/rDock/src/rDock_2013.1_src/data/scripts/dock_solv.prm

>  <Rbt.Receptor>
prm/pocket_docking_8.prm

>  <SCORE>
-7.96787

>  <SCORE.INTER>
-4.74035

>  <SCORE.INTER.CONST>
1

>  <SCORE.INTER.POLAR>
-1.45381

>  <SCORE.INTER.ROT>
6

>  <SCORE.INTER.SOLV>
13.1896

>  <SCORE.INTER.VDW>
-10.3107

>  <SCORE.INTER.norm>
-0.152914

>  <SCORE.INTRA>
-3.22752

>  <SCORE.INTRA.DIHEDRAL>
-7.48901

>  <SCORE.INTRA.DIHEDRAL.0>
9.37739

>  <SCORE.INTRA.POLAR>
0

>  <SCORE.INTRA.POLAR.0>
0

>  <SCORE.INTRA.REPUL>
0

>  <SCORE.INTRA.REPUL.0>
0

>  <SCORE.INTRA.SOLV>
-2.28088

>  <SCORE.INTRA.SOLV.lig_0>
-82.9274

>  <SCORE.INTRA.VDW>
1.65743

>  <SCORE.INTRA.VDW.0>
-3.84922

>  <SCORE.INTRA.norm>
-0.104113

>  <SCORE.RESTR>
0

>  <SCORE.RESTR.CAVITY>
0

>  <SCORE.RESTR.norm>
0

>  <SCORE.SYSTEM>
0

>  <SCORE.SYSTEM.CONST>
0

>  <SCORE.SYSTEM.DIHEDRAL>
0

>  <SCORE.SYSTEM.SOLV>
0

>  <SCORE.SYSTEM.norm>
0

>  <SCORE.heavy>
31

>  <SCORE.norm>
-0.257028

>  <RMSD>
8.284

$$$$
2o3x_lig
 OpenBabel11021811463D
libRbt.so/2013.1/901 2013/11/27
 31 33  0  0  0  0  0  0  0  0999 V2000
   23.8231    7.8951   11.2655 C   0  0  2  0  0  0  0  0  0  0  0  0
   23.8547    6.4619   11.2444 O   0  0  0  0  0  0  0  0  0  0  0  0
   21.3701    3.2797    9.8310 C   0  0  2  0  0  0  0  0  0  0  0  0
   20.4055    2.4695    9.0547 N   0  0  0  0  0  0  0  0  0  0  0  0
   23.7015    6.1096    7.5260 C   0  0  1  0  0  0  0  0  0  0  0  0
   25.1469    8.4074   11.9164 C   0  0  2  0  0  0  0  0  0  0  0  0
   26.3459    7.7477   11.3393 N   0  0  0  0  0  0  0  0  0  0  0  0
   20.6762    4.4717   10.5706 C   0  0  0  0  0  0  0  0  0  0  0  0
   23.8028    7.6651    7.6540 C   0  0  2  0  0  0  0  0  0  0  0  0
   22.7404    8.3135    8.4057 O   0  0  0  0  0  0  0  0  0  0  0  0
   25.1598    8.1716   13.4386 C   0  0  1  0  0  0  0  0  0  0  0  0
   26.3365    8.6855   14.0092 O   0  0  0  0  0  0  0  0  0  0  0  0
   21.7727    5.2491   11.3866 C   0  0  2  0  0  0  0  0  0  0  0  0
   21.1856    6.3972   12.1406 N   0  0  0  0  0  0  0  0  0  0  0  0
   23.8776    8.0023    6.1742 C   0  0  2  0  0  0  0  0  0  0  0  0
   22.5460    7.9641    5.5553 O   0  0  0  0  0  0  0  0  0  0  0  0
   23.9365    8.8172   14.0675 C   0  0  2  0  0  0  0  0  0  0  0  0
   23.9578    8.6253   15.4453 O   0  0  0  0  0  0  0  0  0  0  0  0
   22.8749    5.7960   10.4351 C   0  0  2  0  0  0  0  0  0  0  0  0
   24.7840    6.9283    5.5843 C   0  0  2  0  0  0  0  0  0  0  0  0
   24.3094    5.7744    6.2726 O   0  0  0  0  0  0  0  0  0  0  0  0
   22.6427    8.2056   13.4596 C   0  0  2  0  0  0  0  0  0  0  0  0
   22.6403    8.3978   12.0286 O   0  0  0  0  0  0  0  0  0  0  0  0
   23.5518    4.6977    9.5915 C   0  0  2  0  0  0  0  0  0  0  0  0
   24.3619    5.4190    8.5980 O   0  0  0  0  0  0  0  0  0  0  0  0
   26.3137    7.1379    5.8481 C   0  0  0  0  0  0  0  0  0  0  0  0
   27.0793    6.3985    4.9010 N   0  0  0  0  0  0  0  0  0  0  0  0
   21.3875    8.8218   14.0325 C   0  0  0  0  0  0  0  0  0  0  0  0
   21.2365   10.1343   13.6292 O   0  0  0  0  0  0  0  0  0  0  0  0
   22.4523    3.8009    8.8685 C   0  0  1  0  0  0  0  0  0  0  0  0
   23.0399    2.6428    8.2564 O   0  0  0  0  0  0  0  0  0  0  0  0
  1  2  1  1  0  0  0
  1  6  1  0  0  0  0
  1 23  1  0  0  0  0
  3  4  1  6  0  0  0
  3  8  1  0  0  0  0
  3 30  1  0  0  0  0
  5  9  1  0  0  0  0
  5 21  1  0  0  0  0
  5 25  1  1  0  0  0
  6  7  1  6  0  0  0
  6 11  1  0  0  0  0
  8 13  1  0  0  0  0
  9 10  1  6  0  0  0
  9 15  1  0  0  0  0
 11 12  1  1  0  0  0
 11 17  1  0  0  0  0
 13 14  1  6  0  0  0
 13 19  1  0  0  0  0
 15 16  1  6  0  0  0
 15 20  1  0  0  0  0
 17 18  1  1  0  0  0
 17 22  1  0  0  0  0
 19  2  1  1  0  0  0
 19 24  1  0  0  0  0
 20 21  1  0  0  0  0
 20 26  1  1  0  0  0
 22 23  1  0  0  0  0
 22 28  1  1  0  0  0
 24 25  1  6  0  0  0
 24 30  1  0  0  0  0
 26 27  1  0  0  0  0
 28 29  1  0  0  0  0
 30 31  1  1  0  0  0
M  END
>  <CHROM.1>
-166.93805943,110.31189215,-102.86136298,-159.51083094,68.89967324,-71.77971501
23.46250870,6.76408028,10.09340395,-1.69797968,-0.79137449,-2.02236107

>  <Name>
2o3x_lig

>  <RI>
0

>  <Rbt.Current_Directory>
/home/itssahil/PROJECTS/Mol_Feturizer/New_Systems/rnas/2o3x

>  <Rbt.Executable>
rbdock ($Id: //depot/dev/client3/rdock/2013.1/src/exe/rbdock.cxx#4 $)

>  <Rbt.Library>
libRbt.so (2013.1, Build901 2013/11/27)

>  <Rbt.Parameter_File>
/export/apps/rDock/src/rDock_2013.1_src/data/scripts/dock_solv.prm

>  <Rbt.Receptor>
prm/blind_docking_60.prm

>  <SCORE>
-0.547715

>  <SCORE.INTER>
-9.2532

>  <SCORE.INTER.CONST>
1

>  <SCORE.INTER.POLAR>
-0.759953

>  <SCORE.INTER.ROT>
6

>  <SCORE.INTER.SOLV>
23.1217

>  <SCORE.INTER.VDW>
-18.9428

>  <SCORE.INTER.norm>
-0.29849

>  <SCORE.INTRA>
5.59962

>  <SCORE.INTRA.DIHEDRAL>
6.34727

>  <SCORE.INTRA.DIHEDRAL.0>
9.37739

>  <SCORE.INTRA.POLAR>
0

>  <SCORE.INTRA.POLAR.0>
0

>  <SCORE.INTRA.REPUL>
0

>  <SCORE.INTRA.REPUL.0>
0

>  <SCORE.INTRA.SOLV>
1.63228

>  <SCORE.INTRA.SOLV.lig_0>
-82.9274

>  <SCORE.INTRA.VDW>
1.60985

>  <SCORE.INTRA.VDW.0>
-3.84922

>  <SCORE.INTRA.norm>
0.180633

>  <SCORE.RESTR>
3.10586

>  <SCORE.RESTR.CAVITY>
3.10586

>  <SCORE.RESTR.norm>
0.100189

>  <SCORE.SYSTEM>
0

>  <SCORE.SYSTEM.CONST>
0

>  <SCORE.SYSTEM.DIHEDRAL>
0

>  <SCORE.SYSTEM.SOLV>
0

>  <SCORE.SYSTEM.norm>
0

>  <SCORE.heavy>
31

>  <SCORE.norm>
-0.0176682

>  <RMSD>
8.291

$$$$
2o3x_lig
 OpenBabel11021811463D
libRbt.so/2013.1/901 2013/11/27
 31 33  0  0  0  0  0  0  0  0999 V2000
   23.8325    7.8705   11.2205 C   0  0  2  0  0  0  0  0  0  0  0  0
   23.8890    6.4383   11.1882 O   0  0  0  0  0  0  0  0  0  0  0  0
   21.4467    3.2530    9.7093 C   0  0  2  0  0  0  0  0  0  0  0  0
   20.5194    2.4350    8.8966 N   0  0  0  0  0  0  0  0  0  0  0  0
   23.9585    6.0188    7.5009 C   0  0  1  0  0  0  0  0  0  0  0  0
   25.1277    8.3989   11.9147 C   0  0  2  0  0  0  0  0  0  0  0  0
   26.3541    7.7644   11.3679 N   0  0  0  0  0  0  0  0  0  0  0  0
   20.7273    4.4749   10.3717 C   0  0  0  0  0  0  0  0  0  0  0  0
   24.0924    7.5716    7.6319 C   0  0  2  0  0  0  0  0  0  0  0  0
   23.0081    8.2488    8.3246 O   0  0  0  0  0  0  0  0  0  0  0  0
   25.0995    8.1497   13.4346 C   0  0  1  0  0  0  0  0  0  0  0  0
   26.2500    8.6779   14.0442 O   0  0  0  0  0  0  0  0  0  0  0  0
   21.7832    5.2593   11.2331 C   0  0  2  0  0  0  0  0  0  0  0  0
   21.1688    6.4361   11.9177 N   0  0  0  0  0  0  0  0  0  0  0  0
   24.2551    7.9027    6.1579 C   0  0  2  0  0  0  0  0  0  0  0  0
   22.9581    7.8966    5.4684 O   0  0  0  0  0  0  0  0  0  0  0  0
   23.8475    8.7692   14.0323 C   0  0  2  0  0  0  0  0  0  0  0  0
   23.8312    8.5653   15.4085 O   0  0  0  0  0  0  0  0  0  0  0  0
   22.9507    5.7638   10.3377 C   0  0  2  0  0  0  0  0  0  0  0  0
   25.1642    6.8044    5.6190 C   0  0  2  0  0  0  0  0  0  0  0  0
   24.6240    5.6648    6.2824 O   0  0  0  0  0  0  0  0  0  0  0  0
   22.5827    8.1416   13.3811 C   0  0  2  0  0  0  0  0  0  0  0  0
   22.6193    8.3465   11.9523 O   0  0  0  0  0  0  0  0  0  0  0  0
   23.6612    4.6329    9.5680 C   0  0  2  0  0  0  0  0  0  0  0  0
   24.5426    5.3147    8.6077 O   0  0  0  0  0  0  0  0  0  0  0  0
   26.6823    6.9757    5.9643 C   0  0  0  0  0  0  0  0  0  0  0  0
   27.0558    6.0647    6.9940 N   0  0  0  0  0  0  0  0  0  0  0  0
   21.3009    8.7317   13.9216 C   0  0  0  0  0  0  0  0  0  0  0  0
   21.2606   10.1017   13.7500 O   0  0  0  0  0  0  0  0  0  0  0  0
   22.5946    3.7318    8.8024 C   0  0  1  0  0  0  0  0  0  0  0  0
   23.2006    2.5488    8.2597 O   0  0  0  0  0  0  0  0  0  0  0  0
  1  2  1  1  0  0  0
  1  6  1  0  0  0  0
  1 23  1  0  0  0  0
  3  4  1  6  0  0  0
  3  8  1  0  0  0  0
  3 30  1  0  0  0  0
  5  9  1  0  0  0  0
  5 21  1  0  0  0  0
  5 25  1  1  0  0  0
  6  7  1  6  0  0  0
  6 11  1  0  0  0  0
  8 13  1  0  0  0  0
  9 10  1  6  0  0  0
  9 15  1  0  0  0  0
 11 12  1  1  0  0  0
 11 17  1  0  0  0  0
 13 14  1  6  0  0  0
 13 19  1  0  0  0  0
 15 16  1  6  0  0  0
 15 20  1  0  0  0  0
 17 18  1  1  0  0  0
 17 22  1  0  0  0  0
 19  2  1  1  0  0  0
 19 24  1  0  0  0  0
 20 21  1  0  0  0  0
 20 26  1  1  0  0  0
 22 23  1  0  0  0  0
 22 28  1  1  0  0  0
 24 25  1  6  0  0  0
 24 30  1  0  0  0  0
 26 27  1  0  0  0  0
 28 29  1  0  0  0  0
 30 31  1  1  0  0  0
M  END
>  <CHROM.1>
-166.53354464,109.45424781,-99.73551656,104.74968321,57.21704171,-69.88987243
23.56220813,6.70146095,10.11745742,-1.71518747,-0.74849522,-2.07525908

>  <Name>
2o3x_lig

>  <RI>
0

>  <Rbt.Current_Directory>
/home/itssahil/PROJECTS/Mol_Feturizer/New_Systems/rnas/2o3x

>  <Rbt.Executable>
rbdock ($Id: //depot/dev/client3/rdock/2013.1/src/exe/rbdock.cxx#4 $)

>  <Rbt.Library>
libRbt.so (2013.1, Build901 2013/11/27)

>  <Rbt.Parameter_File>
/export/apps/rDock/src/rDock_2013.1_src/data/scripts/dock_solv.prm

>  <Rbt.Receptor>
prm/blind_docking_60.prm

>  <SCORE>
1.70106

>  <SCORE.INTER>
-11.6623

>  <SCORE.INTER.CONST>
1

>  <SCORE.INTER.POLAR>
-1.30424

>  <SCORE.INTER.ROT>
6

>  <SCORE.INTER.SOLV>
24.299

>  <SCORE.INTER.VDW>
-19.1271

>  <SCORE.INTER.norm>
-0.376203

>  <SCORE.INTRA>
8.98287

>  <SCORE.INTRA.DIHEDRAL>
8.35825

>  <SCORE.INTRA.DIHEDRAL.0>
9.37739

>  <SCORE.INTRA.POLAR>
0

>  <SCORE.INTRA.POLAR.0>
0

>  <SCORE.INTRA.REPUL>
0

>  <SCORE.INTRA.REPUL.0>
0

>  <SCORE.INTRA.SOLV>
4.90439

>  <SCORE.INTRA.SOLV.lig_0>
-82.9274

>  <SCORE.INTRA.VDW>
2.35155

>  <SCORE.INTRA.VDW.0>
-3.84922

>  <SCORE.INTRA.norm>
0.28977

>  <SCORE.RESTR>
4.38049

>  <SCORE.RESTR.CAVITY>
4.38049

>  <SCORE.RESTR.norm>
0.141306

>  <SCORE.SYSTEM>
0

>  <SCORE.SYSTEM.CONST>
0

>  <SCORE.SYSTEM.DIHEDRAL>
0

>  <SCORE.SYSTEM.SOLV>
0

>  <SCORE.SYSTEM.norm>
0

>  <SCORE.heavy>
31

>  <SCORE.norm>
0.0548728

>  <RMSD>
8.292

$$$$
2o3x_lig
 OpenBabel11021811463D
libRbt.so/2013.1/901 2013/11/27
 31 33  0  0  0  0  0  0  0  0999 V2000
   23.3505    7.7205   11.4817 C   0  0  2  0  0  0  0  0  0  0  0  0
   23.2531    6.2982   11.6339 O   0  0  0  0  0  0  0  0  0  0  0  0
   21.2748    2.9819    9.7937 C   0  0  2  0  0  0  0  0  0  0  0  0
   20.4798    2.1325    8.8794 N   0  0  0  0  0  0  0  0  0  0  0  0
   23.4888    6.1431    7.8614 C   0  0  1  0  0  0  0  0  0  0  0  0
   24.8527    8.0917   11.2725 C   0  0  2  0  0  0  0  0  0  0  0  0
   25.5025    7.2374   10.2461 N   0  0  0  0  0  0  0  0  0  0  0  0
   20.3891    4.0383   10.5346 C   0  0  0  0  0  0  0  0  0  0  0  0
   23.7139    7.6907    7.8398 C   0  0  2  0  0  0  0  0  0  0  0  0
   22.7166    8.4898    8.5334 O   0  0  0  0  0  0  0  0  0  0  0  0
   25.6573    7.9613   12.5797 C   0  0  1  0  0  0  0  0  0  0  0  0
   26.9930    8.3486   12.3794 O   0  0  0  0  0  0  0  0  0  0  0  0
   21.3147    4.8662   11.4991 C   0  0  2  0  0  0  0  0  0  0  0  0
   20.5383    5.8892   12.2619 N   0  0  0  0  0  0  0  0  0  0  0  0
   23.7937    7.8795    6.3341 C   0  0  2  0  0  0  0  0  0  0  0  0
   22.4545    7.8891    5.7308 O   0  0  0  0  0  0  0  0  0  0  0  0
   25.0136    8.8086   13.6643 C   0  0  2  0  0  0  0  0  0  0  0  0
   25.7517    8.7105   14.8396 O   0  0  0  0  0  0  0  0  0  0  0  0
   22.4299    5.5927   10.6942 C   0  0  2  0  0  0  0  0  0  0  0  0
   24.6043    6.6858    5.8432 C   0  0  2  0  0  0  0  0  0  0  0  0
   24.0504    5.6436    6.6416 O   0  0  0  0  0  0  0  0  0  0  0  0
   23.5517    8.3380   13.9069 C   0  0  2  0  0  0  0  0  0  0  0  0
   22.8011    8.4301   12.6769 O   0  0  0  0  0  0  0  0  0  0  0  0
   23.2976    4.6348    9.8541 C   0  0  2  0  0  0  0  0  0  0  0  0
   24.1081    5.5067    8.9899 O   0  0  0  0  0  0  0  0  0  0  0  0
   26.1494    6.7969    6.0754 C   0  0  0  0  0  0  0  0  0  0  0  0
   26.6701    7.9218    5.3730 N   0  0  0  0  0  0  0  0  0  0  0  0
   22.8489    9.1568   14.9648 C   0  0  0  0  0  0  0  0  0  0  0  0
   21.4831    9.1856   14.7605 O   0  0  0  0  0  0  0  0  0  0  0  0
   22.3740    3.6816    8.9743 C   0  0  1  0  0  0  0  0  0  0  0  0
   23.1393    2.6385    8.3519 O   0  0  0  0  0  0  0  0  0  0  0  0
  1  2  1  1  0  0  0
  1  6  1  0  0  0  0
  1 23  1  0  0  0  0
  3  4  1  6  0  0  0
  3  8  1  0  0  0  0
  3 30  1  0  0  0  0
  5  9  1  0  0  0  0
  5 21  1  0  0  0  0
  5 25  1  1  0  0  0
  6  7  1  6  0  0  0
  6 11  1  0  0  0  0
  8 13  1  0  0  0  0
  9 10  1  6  0  0  0
  9 15  1  0  0  0  0
 11 12  1  6  0  0  0
 11 17  1  0  0  0  0
 13 14  1  6  0  0  0
 13 19  1  0  0  0  0
 15 16  1  6  0  0  0
 15 20  1  0  0  0  0
 17 18  1  1  0  0  0
 17 22  1  0  0  0  0
 19  2  1  1  0  0  0
 19 24  1  0  0  0  0
 20 21  1  0  0  0  0
 20 26  1  1  0  0  0
 22 23  1  0  0  0  0
 22 28  1  1  0  0  0
 24 25  1  6  0  0  0
 24 30  1  0  0  0  0
 26 27  1  0  0  0  0
 28 29  1  0  0  0  0
 30 31  1  1  0  0  0
M  END
>  <CHROM.1>
-121.18604604,127.05879619,-120.38641964,-61.23639925,152.14106565,-75.04851570
23.49408467,6.65136965,10.15926260,-1.52889539,-0.79780244,-1.92679094

>  <Name>
2o3x_lig

>  <RI>
0

>  <Rbt.Current_Directory>
/home/itssahil/PROJECTS/Mol_Feturizer/New_Systems/rnas/2o3x

>  <Rbt.Executable>
rbdock ($Id: //depot/dev/client3/rdock/2013.1/src/exe/rbdock.cxx#4 $)

>  <Rbt.Library>
libRbt.so (2013.1, Build901 2013/11/27)

>  <Rbt.Parameter_File>
/export/apps/rDock/src/rDock_2013.1_src/data/scripts/dock_solv.prm

>  <Rbt.Receptor>
prm/blind_docking_60.prm

>  <SCORE>
1.75062

>  <SCORE.INTER>
-11.098

>  <SCORE.INTER.CONST>
1

>  <SCORE.INTER.POLAR>
-1.09938

>  <SCORE.INTER.ROT>
6

>  <SCORE.INTER.SOLV>
27.184

>  <SCORE.INTER.VDW>
-20.3955

>  <SCORE.INTER.norm>
-0.358001

>  <SCORE.INTRA>
9.80099

>  <SCORE.INTRA.DIHEDRAL>
15.431

>  <SCORE.INTRA.DIHEDRAL.0>
9.37739

>  <SCORE.INTRA.POLAR>
0

>  <SCORE.INTRA.POLAR.0>
0

>  <SCORE.INTRA.REPUL>
0

>  <SCORE.INTRA.REPUL.0>
0

>  <SCORE.INTRA.SOLV>
3.12164

>  <SCORE.INTRA.SOLV.lig_0>
-82.9274

>  <SCORE.INTRA.VDW>
0.524675

>  <SCORE.INTRA.VDW.0>
-3.84922

>  <SCORE.INTRA.norm>
0.316161

>  <SCORE.RESTR>
3.04766

>  <SCORE.RESTR.CAVITY>
3.04766

>  <SCORE.RESTR.norm>
0.0983117

>  <SCORE.SYSTEM>
0

>  <SCORE.SYSTEM.CONST>
0

>  <SCORE.SYSTEM.DIHEDRAL>
0

>  <SCORE.SYSTEM.SOLV>
0

>  <SCORE.SYSTEM.norm>
0

>  <SCORE.heavy>
31

>  <SCORE.norm>
0.0564716

>  <RMSD>
8.293

$$$$
2o3x_lig
 OpenBabel11021811463D
libRbt.so/2013.1/901 2013/11/27
 31 33  0  0  0  0  0  0  0  0999 V2000
   25.0644    7.3572   13.5185 C   0  0  2  0  0  0  0  0  0  0  0  0
   24.1038    7.7652   12.5356 O   0  0  0  0  0  0  0  0  0  0  0  0
   23.6915    7.6074    8.2808 C   0  0  2  0  0  0  0  0  0  0  0  0
   23.7793    7.2030    6.8602 N   0  0  0  0  0  0  0  0  0  0  0  0
   21.3381    5.0891   11.5824 C   0  0  1  0  0  0  0  0  0  0  0  0
   24.3477    7.2757   14.9035 C   0  0  2  0  0  0  0  0  0  0  0  0
   23.0690    6.5240   14.8282 N   0  0  0  0  0  0  0  0  0  0  0  0
   25.0849    8.0190    8.8625 C   0  0  0  0  0  0  0  0  0  0  0  0
   20.3501    5.7392   10.5590 C   0  0  2  0  0  0  0  0  0  0  0  0
   19.7560    7.0038   10.9616 O   0  0  0  0  0  0  0  0  0  0  0  0
   24.0445    8.6759   15.4694 C   0  0  1  0  0  0  0  0  0  0  0  0
   23.4464    8.5785   16.7372 O   0  0  0  0  0  0  0  0  0  0  0  0
   24.8826    8.4585   10.3586 C   0  0  2  0  0  0  0  0  0  0  0  0
   26.1696    8.8869   10.9843 N   0  0  0  0  0  0  0  0  0  0  0  0
   19.3929    4.5691   10.4050 C   0  0  2  0  0  0  0  0  0  0  0  0
   18.4556    4.5007   11.5339 O   0  0  0  0  0  0  0  0  0  0  0  0
   25.3275    9.4863   15.5463 C   0  0  2  0  0  0  0  0  0  0  0  0
   25.0599   10.7436   16.0787 O   0  0  0  0  0  0  0  0  0  0  0  0
   24.2929    7.2878   11.1959 C   0  0  2  0  0  0  0  0  0  0  0  0
   20.2951    3.3411   10.3704 C   0  0  2  0  0  0  0  0  0  0  0  0
   21.2328    3.6731   11.3906 O   0  0  0  0  0  0  0  0  0  0  0  0
   25.9528    9.6247   14.1294 C   0  0  2  0  0  0  0  0  0  0  0  0
   26.2112    8.3137   13.5822 O   0  0  0  0  0  0  0  0  0  0  0  0
   22.9597    6.7510   10.6385 C   0  0  2  0  0  0  0  0  0  0  0  0
   22.6961    5.5157   11.3925 O   0  0  0  0  0  0  0  0  0  0  0  0
   21.0265    3.0978    9.0068 C   0  0  0  0  0  0  0  0  0  0  0  0
   21.8099    1.9099    9.0769 N   0  0  0  0  0  0  0  0  0  0  0  0
   27.2455   10.4070   14.1420 C   0  0  0  0  0  0  0  0  0  0  0  0
   28.1673    9.8507   15.0073 O   0  0  0  0  0  0  0  0  0  0  0  0
   23.0985    6.4357    9.0838 C   0  0  1  0  0  0  0  0  0  0  0  0
   21.8232    6.1451    8.4918 O   0  0  0  0  0  0  0  0  0  0  0  0
  1  2  1  6  0  0  0
  1  6  1  0  0  0  0
  1 23  1  0  0  0  0
  3  4  1  6  0  0  0
  3  8  1  0  0  0  0
  3 30  1  0  0  0  0
  5  9  1  0  0  0  0
  5 21  1  0  0  0  0
  5 25  1  6  0  0  0
  6  7  1  6  0  0  0
  6 11  1  0  0  0  0
  8 13  1  0  0  0  0
  9 10  1  1  0  0  0
  9 15  1  0  0  0  0
 11 12  1  1  0  0  0
 11 17  1  0  0  0  0
 13 14  1  1  0  0  0
 13 19  1  0  0  0  0
 15 16  1  1  0  0  0
 15 20  1  0  0  0  0
 17 18  1  6  0  0  0
 17 22  1  0  0  0  0
 19  2  1  1  0  0  0
 19 24  1  0  0  0  0
 20 21  1  0  0  0  0
 20 26  1  6  0  0  0
 22 23  1  0  0  0  0
 22 28  1  1  0  0  0
 24 25  1  1  0  0  0
 24 30  1  0  0  0  0
 26 27  1  0  0  0  0
 28 29  1  0  0  0  0
 30 31  1  6  0  0  0
M  END
>  <CHROM.1>
-149.48419830,19.37036036,-103.02517649,-178.44655739,56.11948741,152.23435034
23.35314686,6.97315124,11.89641764,0.75406552,0.65428104,1.37972896

>  <Name>
2o3x_lig

>  <RI>
0

>  <Rbt.Current_Directory>
/home/itssahil/PROJECTS/Mol_Feturizer/New_Systems/rnas/2o3x

>  <Rbt.Executable>
rbdock ($Id: //depot/dev/client3/rdock/2013.1/src/exe/rbdock.cxx#4 $)

>  <Rbt.Library>
libRbt.so (2013.1, Build901 2013/11/27)

>  <Rbt.Parameter_File>
/export/apps/rDock/src/rDock_2013.1_src/data/scripts/dock_solv.prm

>  <Rbt.Receptor>
prm/blind_docking_60.prm

>  <SCORE>
80.5615

>  <SCORE.INTER>
67.1996

>  <SCORE.INTER.CONST>
1

>  <SCORE.INTER.POLAR>
-0.669598

>  <SCORE.INTER.ROT>
6

>  <SCORE.INTER.SOLV>
33.5326

>  <SCORE.INTER.VDW>
28.2542

>  <SCORE.INTER.norm>
2.16773

>  <SCORE.INTRA>
7.76046

>  <SCORE.INTRA.DIHEDRAL>
9.01454

>  <SCORE.INTRA.DIHEDRAL.0>
9.37739

>  <SCORE.INTRA.POLAR>
0

>  <SCORE.INTRA.POLAR.0>
0

>  <SCORE.INTRA.REPUL>
0

>  <SCORE.INTRA.REPUL.0>
0

>  <SCORE.INTRA.SOLV>
2.05253

>  <SCORE.INTRA.SOLV.lig_0>
-82.9274

>  <SCORE.INTRA.VDW>
2.22692

>  <SCORE.INTRA.VDW.0>
-3.84922

>  <SCORE.INTRA.norm>
0.250338

>  <SCORE.RESTR>
5.60142

>  <SCORE.RESTR.CAVITY>
5.60142

>  <SCORE.RESTR.norm>
0.180691

>  <SCORE.SYSTEM>
0

>  <SCORE.SYSTEM.CONST>
0

>  <SCORE.SYSTEM.DIHEDRAL>
0

>  <SCORE.SYSTEM.SOLV>
0

>  <SCORE.SYSTEM.norm>
0

>  <SCORE.heavy>
31

>  <SCORE.norm>
2.59876

>  <RMSD>
8.294

$$$$
2o3x_lig
 OpenBabel11021811463D
libRbt.so/2013.1/901 2013/11/27
 31 33  0  0  0  0  0  0  0  0999 V2000
   23.8632    7.8750   11.2628 C   0  0  2  0  0  0  0  0  0  0  0  0
   23.8588    6.4414   11.2757 O   0  0  0  0  0  0  0  0  0  0  0  0
   21.3550    3.2760    9.8581 C   0  0  2  0  0  0  0  0  0  0  0  0
   20.3886    2.4714    9.0783 N   0  0  0  0  0  0  0  0  0  0  0  0
   23.7288    6.0860    7.5659 C   0  0  1  0  0  0  0  0  0  0  0  0
   25.2252    8.3686   11.8457 C   0  0  2  0  0  0  0  0  0  0  0  0
   26.3825    7.6651   11.2361 N   0  0  0  0  0  0  0  0  0  0  0  0
   20.6669    4.4777   10.5874 C   0  0  0  0  0  0  0  0  0  0  0  0
   23.9201    7.6356    7.6565 C   0  0  2  0  0  0  0  0  0  0  0  0
   22.9142    8.3587    8.4178 O   0  0  0  0  0  0  0  0  0  0  0  0
   25.2959    8.1686   13.3714 C   0  0  1  0  0  0  0  0  0  0  0  0
   26.5076    8.6657   13.8802 O   0  0  0  0  0  0  0  0  0  0  0  0
   21.7646    5.2485   11.4079 C   0  0  2  0  0  0  0  0  0  0  0  0
   21.1827    6.4053   12.1526 N   0  0  0  0  0  0  0  0  0  0  0  0
   23.9775    7.9367    6.1682 C   0  0  2  0  0  0  0  0  0  0  0  0
   22.6311    7.9606    5.5813 O   0  0  0  0  0  0  0  0  0  0  0  0
   24.1162    8.8598   14.0341 C   0  0  2  0  0  0  0  0  0  0  0  0
   24.1903    8.7000   15.4142 O   0  0  0  0  0  0  0  0  0  0  0  0
   22.8787    5.7810   10.4622 C   0  0  2  0  0  0  0  0  0  0  0  0
   24.8077    6.8009    5.5817 C   0  0  2  0  0  0  0  0  0  0  0  0
   24.2863    5.6905    6.3066 O   0  0  0  0  0  0  0  0  0  0  0  0
   22.7835    8.2672   13.4953 C   0  0  2  0  0  0  0  0  0  0  0  0
   22.7259    8.4255   12.0613 O   0  0  0  0  0  0  0  0  0  0  0  0
   23.5515    4.6727    9.6283 C   0  0  2  0  0  0  0  0  0  0  0  0
   24.3755    5.3821    8.6376 O   0  0  0  0  0  0  0  0  0  0  0  0
   26.3527    6.9294    5.8052 C   0  0  0  0  0  0  0  0  0  0  0  0
   26.8355    8.1290    5.2073 N   0  0  0  0  0  0  0  0  0  0  0  0
   21.5688    8.9285   14.1040 C   0  0  0  0  0  0  0  0  0  0  0  0
   20.4027    8.5081   13.4945 O   0  0  0  0  0  0  0  0  0  0  0  0
   22.4490    3.7830    8.9012 C   0  0  1  0  0  0  0  0  0  0  0  0
   23.0302    2.6167    8.2985 O   0  0  0  0  0  0  0  0  0  0  0  0
  1  2  1  1  0  0  0
  1  6  1  0  0  0  0
  1 23  1  0  0  0  0
  3  4  1  6  0  0  0
  3  8  1  0  0  0  0
  3 30  1  0  0  0  0
  5  9  1  0  0  0  0
  5 21  1  0  0  0  0
  5 25  1  1  0  0  0
  6  7  1  6  0  0  0
  6 11  1  0  0  0  0
  8 13  1  0  0  0  0
  9 10  1  6  0  0  0
  9 15  1  0  0  0  0
 11 12  1  1  0  0  0
 11 17  1  0  0  0  0
 13 14  1  6  0  0  0
 13 19  1  0  0  0  0
 15 16  1  6  0  0  0
 15 20  1  0  0  0  0
 17 18  1  1  0  0  0
 17 22  1  0  0  0  0
 19  2  1  1  0  0  0
 19 24  1  0  0  0  0
 20 21  1  0  0  0  0
 20 26  1  1  0  0  0
 22 23  1  0  0  0  0
 22 28  1  1  0  0  0
 24 25  1  6  0  0  0
 24 30  1  0  0  0  0
 26 27  1  0  0  0  0
 28 29  1  0  0  0  0
 30 31  1  1  0  0  0
M  END
>  <CHROM.1>
-163.39753033,113.31867815,-104.46957032,-59.98619683,172.47780149,-71.11821362
23.48260910,6.74524162,10.10083234,-1.69589227,-0.77454830,-1.96453304

>  <Name>
2o3x_lig

>  <RI>
0

>  <Rbt.Current_Directory>
/home/itssahil/PROJECTS/Mol_Feturizer/New_Systems/rnas/2o3x

>  <Rbt.Executable>
rbdock ($Id: //depot/dev/client3/rdock/2013.1/src/exe/rbdock.cxx#4 $)

>  <Rbt.Library>
libRbt.so (2013.1, Build901 2013/11/27)

>  <Rbt.Parameter_File>
/export/apps/rDock/src/rDock_2013.1_src/data/scripts/dock_solv.prm

>  <Rbt.Receptor>
prm/blind_docking_60.prm

>  <SCORE>
-1.21821

>  <SCORE.INTER>
-9.69057

>  <SCORE.INTER.CONST>
1

>  <SCORE.INTER.POLAR>
-0.655707

>  <SCORE.INTER.ROT>
6

>  <SCORE.INTER.SOLV>
27.6811

>  <SCORE.INTER.VDW>
-21.1017

>  <SCORE.INTER.norm>
-0.312599

>  <SCORE.INTRA>
5.34281

>  <SCORE.INTRA.DIHEDRAL>
5.83337

>  <SCORE.INTRA.DIHEDRAL.0>
9.37739

>  <SCORE.INTRA.POLAR>
0

>  <SCORE.INTRA.POLAR.0>
0

>  <SCORE.INTRA.REPUL>
0

>  <SCORE.INTRA.REPUL.0>
0

>  <SCORE.INTRA.SOLV>
2.77748

>  <SCORE.INTRA.SOLV.lig_0>
-82.9274

>  <SCORE.INTRA.VDW>
1.03739

>  <SCORE.INTRA.VDW.0>
-3.84922

>  <SCORE.INTRA.norm>
0.172349

>  <SCORE.RESTR>
3.12955

>  <SCORE.RESTR.CAVITY>
3.12955

>  <SCORE.RESTR.norm>
0.100953

>  <SCORE.SYSTEM>
0

>  <SCORE.SYSTEM.CONST>
0

>  <SCORE.SYSTEM.DIHEDRAL>
0

>  <SCORE.SYSTEM.SOLV>
0

>  <SCORE.SYSTEM.norm>
0

>  <SCORE.heavy>
31

>  <SCORE.norm>
-0.039297

>  <RMSD>
8.308

$$$$
2o3x_lig
 OpenBabel11021811463D
libRbt.so/2013.1/901 2013/11/27
 31 33  0  0  0  0  0  0  0  0999 V2000
   23.3980    7.8101   11.6256 C   0  0  2  0  0  0  0  0  0  0  0  0
   23.2855    6.3879   11.7675 O   0  0  0  0  0  0  0  0  0  0  0  0
   21.2340    3.1117    9.9354 C   0  0  2  0  0  0  0  0  0  0  0  0
   20.4009    2.2827    9.0366 N   0  0  0  0  0  0  0  0  0  0  0  0
   23.3793    6.2444    7.9244 C   0  0  1  0  0  0  0  0  0  0  0  0
   24.8821    8.1551   11.2839 C   0  0  2  0  0  0  0  0  0  0  0  0
   25.4169    7.3038   10.1907 N   0  0  0  0  0  0  0  0  0  0  0  0
   20.3800    4.1468   10.7409 C   0  0  0  0  0  0  0  0  0  0  0  0
   23.5522    7.7972    7.8536 C   0  0  2  0  0  0  0  0  0  0  0  0
   22.5311    8.5838    8.5266 O   0  0  0  0  0  0  0  0  0  0  0  0
   25.8005    7.9894   12.5094 C   0  0  1  0  0  0  0  0  0  0  0  0
   27.1199    8.3536   12.1920 O   0  0  0  0  0  0  0  0  0  0  0  0
   21.3460    4.9535   11.6835 C   0  0  2  0  0  0  0  0  0  0  0  0
   20.6022    5.9549   12.5052 N   0  0  0  0  0  0  0  0  0  0  0  0
   23.6204    7.9415    6.3425 C   0  0  2  0  0  0  0  0  0  0  0  0
   22.2795    7.8874    5.7452 O   0  0  0  0  0  0  0  0  0  0  0  0
   25.2770    8.8327   13.6598 C   0  0  2  0  0  0  0  0  0  0  0  0
   26.1177    8.7026   14.7607 O   0  0  0  0  0  0  0  0  0  0  0  0
   22.4227    5.7032   10.8481 C   0  0  2  0  0  0  0  0  0  0  0  0
   24.4689    6.7607    5.8852 C   0  0  2  0  0  0  0  0  0  0  0  0
   23.9531    5.7261    6.7181 O   0  0  0  0  0  0  0  0  0  0  0  0
   23.8340    8.3871   14.0300 C   0  0  2  0  0  0  0  0  0  0  0  0
   22.9757    8.5123   12.8757 O   0  0  0  0  0  0  0  0  0  0  0  0
   23.2542    4.7691    9.9468 C   0  0  2  0  0  0  0  0  0  0  0  0
   24.0236    5.6645    9.0693 O   0  0  0  0  0  0  0  0  0  0  0  0
   26.0101    6.9306    6.1068 C   0  0  0  0  0  0  0  0  0  0  0  0
   26.4801    8.0829    5.4132 N   0  0  0  0  0  0  0  0  0  0  0  0
   23.2486    9.2034   15.1588 C   0  0  0  0  0  0  0  0  0  0  0  0
   21.8707    9.2617   15.0818 O   0  0  0  0  0  0  0  0  0  0  0  0
   22.2943    3.8349    9.0855 C   0  0  1  0  0  0  0  0  0  0  0  0
   23.0333    2.8099    8.4041 O   0  0  0  0  0  0  0  0  0  0  0  0
  1  2  1  1  0  0  0
  1  6  1  0  0  0  0
  1 23  1  0  0  0  0
  3  4  1  6  0  0  0
  3  8  1  0  0  0  0
  3 30  1  0  0  0  0
  5  9  1  0  0  0  0
  5 21  1  0  0  0  0
  5 25  1  1  0  0  0
  6  7  1  6  0  0  0
  6 11  1  0  0  0  0
  8 13  1  0  0  0  0
  9 10  1  6  0  0  0
  9 15  1  0  0  0  0
 11 12  1  6  0  0  0
 11 17  1  0  0  0  0
 13 14  1  6  0  0  0
 13 19  1  0  0  0  0
 15 16  1  6  0  0  0
 15 20  1  0  0  0  0
 17 18  1  1  0  0  0
 17 22  1  0  0  0  0
 19  2  1  1  0  0  0
 19 24  1  0  0  0  0
 20 21  1  0  0  0  0
 20 26  1  1  0  0  0
 22 23  1  0  0  0  0
 22 28  1  1  0  0  0
 24 25  1  6  0  0  0
 24 30  1  0  0  0  0
 26 27  1  0  0  0  0
 28 29  1  0  0  0  0
 30 31  1  1  0  0  0
M  END
>  <CHROM.1>
-117.71639521,128.43885423,-121.85296847,-58.77757451,152.15207945,-79.88119786
23.51015837,6.73780203,10.23717427,-1.45179873,-0.79344232,-1.85689454

>  <Name>
2o3x_lig

>  <RI>
0

>  <Rbt.Current_Directory>
/home/itssahil/PROJECTS/Mol_Feturizer/New_Systems/rnas/2o3x

>  <Rbt.Executable>
rbdock ($Id: //depot/dev/client3/rdock/2013.1/src/exe/rbdock.cxx#4 $)

>  <Rbt.Library>
libRbt.so (2013.1, Build901 2013/11/27)

>  <Rbt.Parameter_File>
/export/apps/rDock/src/rDock_2013.1_src/data/scripts/dock_solv.prm

>  <Rbt.Receptor>
prm/blind_docking_60.prm

>  <SCORE>
4.81376

>  <SCORE.INTER>
-9.34233

>  <SCORE.INTER.CONST>
1

>  <SCORE.INTER.POLAR>
-1.09545

>  <SCORE.INTER.ROT>
6

>  <SCORE.INTER.SOLV>
28.0674

>  <SCORE.INTER.VDW>
-19.5325

>  <SCORE.INTER.norm>
-0.301365

>  <SCORE.INTRA>
10.9903

>  <SCORE.INTRA.DIHEDRAL>
16.0059

>  <SCORE.INTRA.DIHEDRAL.0>
9.37739

>  <SCORE.INTRA.POLAR>
0

>  <SCORE.INTRA.POLAR.0>
0

>  <SCORE.INTRA.REPUL>
0.0326367

>  <SCORE.INTRA.REPUL.0>
0

>  <SCORE.INTRA.SOLV>
3.19152

>  <SCORE.INTRA.SOLV.lig_0>
-82.9274

>  <SCORE.INTRA.VDW>
1.2284

>  <SCORE.INTRA.VDW.0>
-3.84922

>  <SCORE.INTRA.norm>
0.354526

>  <SCORE.RESTR>
3.16578

>  <SCORE.RESTR.CAVITY>
3.16578

>  <SCORE.RESTR.norm>
0.102122

>  <SCORE.SYSTEM>
0

>  <SCORE.SYSTEM.CONST>
0

>  <SCORE.SYSTEM.DIHEDRAL>
0

>  <SCORE.SYSTEM.SOLV>
0

>  <SCORE.SYSTEM.norm>
0

>  <SCORE.heavy>
31

>  <SCORE.norm>
0.155283

>  <RMSD>
8.321

$$$$
2o3x_lig
 OpenBabel11021811463D
libRbt.so/2013.1/901 2013/11/27
 31 33  0  0  0  0  0  0  0  0999 V2000
   23.2202    7.8227   11.5297 C   0  0  2  0  0  0  0  0  0  0  0  0
   23.0574    6.4027   11.6418 O   0  0  0  0  0  0  0  0  0  0  0  0
   21.1262    3.3018    9.4161 C   0  0  2  0  0  0  0  0  0  0  0  0
   20.2119    2.5507    8.5277 N   0  0  0  0  0  0  0  0  0  0  0  0
   24.2445    6.6699    7.9493 C   0  0  1  0  0  0  0  0  0  0  0  0
   24.7246    8.1246   11.2401 C   0  0  2  0  0  0  0  0  0  0  0  0
   25.2656    7.2753   10.1484 N   0  0  0  0  0  0  0  0  0  0  0  0
   20.3937    3.8517   10.6852 C   0  0  0  0  0  0  0  0  0  0  0  0
   24.2083    5.6833    6.7363 C   0  0  2  0  0  0  0  0  0  0  0  0
   24.7441    4.3537    6.9798 O   0  0  0  0  0  0  0  0  0  0  0  0
   25.5983    7.9075   12.4900 C   0  0  1  0  0  0  0  0  0  0  0  0
   26.9382    8.2335   12.2201 O   0  0  0  0  0  0  0  0  0  0  0  0
   21.4496    4.6036   11.5752 C   0  0  2  0  0  0  0  0  0  0  0  0
   20.8310    5.1451   12.8223 N   0  0  0  0  0  0  0  0  0  0  0  0
   24.9680    6.5382    5.7358 C   0  0  2  0  0  0  0  0  0  0  0  0
   26.4159    6.4697    5.9738 O   0  0  0  0  0  0  0  0  0  0  0  0
   25.0666    8.7474   13.6391 C   0  0  2  0  0  0  0  0  0  0  0  0
   25.8677    8.5706   14.7628 O   0  0  0  0  0  0  0  0  0  0  0  0
   22.0850    5.7844   10.7870 C   0  0  2  0  0  0  0  0  0  0  0  0
   24.4439    7.9507    5.9664 C   0  0  2  0  0  0  0  0  0  0  0  0
   24.3840    7.9815    7.3897 O   0  0  0  0  0  0  0  0  0  0  0  0
   23.5991    8.3431   13.9565 C   0  0  2  0  0  0  0  0  0  0  0  0
   22.7818    8.5166   12.7788 O   0  0  0  0  0  0  0  0  0  0  0  0
   22.7508    5.3478    9.4670 C   0  0  2  0  0  0  0  0  0  0  0  0
   23.0607    6.5995    8.7591 O   0  0  0  0  0  0  0  0  0  0  0  0
   23.0340    8.2404    5.3485 C   0  0  0  0  0  0  0  0  0  0  0  0
   22.0346    7.4966    6.0398 N   0  0  0  0  0  0  0  0  0  0  0  0
   23.0053    9.1585   15.0816 C   0  0  0  0  0  0  0  0  0  0  0  0
   23.8868    9.2846   16.1375 O   0  0  0  0  0  0  0  0  0  0  0  0
   21.7463    4.4575    8.6102 C   0  0  1  0  0  0  0  0  0  0  0  0
   22.4064    3.8568    7.4857 O   0  0  0  0  0  0  0  0  0  0  0  0
  1  2  1  1  0  0  0
  1  6  1  0  0  0  0
  1 23  1  0  0  0  0
  3  4  1  6  0  0  0
  3  8  1  0  0  0  0
  3 30  1  0  0  0  0
  5  9  1  0  0  0  0
  5 21  1  0  0  0  0
  5 25  1  6  0  0  0
  6  7  1  6  0  0  0
  6 11  1  0  0  0  0
  8 13  1  0  0  0  0
  9 10  1  1  0  0  0
  9 15  1  0  0  0  0
 11 12  1  6  0  0  0
 11 17  1  0  0  0  0
 13 14  1  1  0  0  0
 13 19  1  0  0  0  0
 15 16  1  1  0  0  0
 15 20  1  0  0  0  0
 17 18  1  1  0  0  0
 17 22  1  0  0  0  0
 19  2  1  1  0  0  0
 19 24  1  0  0  0  0
 20 21  1  0  0  0  0
 20 26  1  6  0  0  0
 22 23  1  0  0  0  0
 22 28  1  1  0  0  0
 24 25  1  6  0  0  0
 24 30  1  0  0  0  0
 26 27  1  0  0  0  0
 28 29  1  0  0  0  0
 30 31  1  6  0  0  0
M  END
>  <CHROM.1>
-124.79421683,63.68757834,-145.63030528,68.37778913,-44.70047718,145.83195884
23.50775283,6.64320475,10.08060129,-1.42141511,-0.74095084,-1.82921235

>  <Name>
2o3x_lig

>  <RI>
0

>  <Rbt.Current_Directory>
/home/itssahil/PROJECTS/Mol_Feturizer/New_Systems/rnas/2o3x

>  <Rbt.Executable>
rbdock ($Id: //depot/dev/client3/rdock/2013.1/src/exe/rbdock.cxx#4 $)

>  <Rbt.Library>
libRbt.so (2013.1, Build901 2013/11/27)

>  <Rbt.Parameter_File>
/export/apps/rDock/src/rDock_2013.1_src/data/scripts/dock_solv.prm

>  <Rbt.Receptor>
prm/blind_docking_60.prm

>  <SCORE>
10.1631

>  <SCORE.INTER>
-7.6749

>  <SCORE.INTER.CONST>
1

>  <SCORE.INTER.POLAR>
-1.09545

>  <SCORE.INTER.ROT>
6

>  <SCORE.INTER.SOLV>
21.4355

>  <SCORE.INTER.VDW>
-16.2103

>  <SCORE.INTER.norm>
-0.247577

>  <SCORE.INTRA>
11.498

>  <SCORE.INTRA.DIHEDRAL>
7.71356

>  <SCORE.INTRA.DIHEDRAL.0>
9.37739

>  <SCORE.INTRA.POLAR>
0

>  <SCORE.INTRA.POLAR.0>
0

>  <SCORE.INTRA.REPUL>
0

>  <SCORE.INTRA.REPUL.0>
0

>  <SCORE.INTRA.SOLV>
6.7119

>  <SCORE.INTRA.SOLV.lig_0>
-82.9274

>  <SCORE.INTRA.VDW>
4.28525

>  <SCORE.INTRA.VDW.0>
-3.84922

>  <SCORE.INTRA.norm>
0.370902

>  <SCORE.RESTR>
6.34002

>  <SCORE.RESTR.CAVITY>
6.34002

>  <SCORE.RESTR.norm>
0.204517

>  <SCORE.SYSTEM>
0

>  <SCORE.SYSTEM.CONST>
0

>  <SCORE.SYSTEM.DIHEDRAL>
0

>  <SCORE.SYSTEM.SOLV>
0

>  <SCORE.SYSTEM.norm>
0

>  <SCORE.heavy>
31

>  <SCORE.norm>
0.327842

>  <RMSD>
8.325

$$$$
2o3x_lig
 OpenBabel11021811463D
libRbt.so/2013.1/901 2013/11/27
 31 33  0  0  0  0  0  0  0  0999 V2000
   23.2038    7.8298   11.5401 C   0  0  2  0  0  0  0  0  0  0  0  0
   23.0495    6.4110   11.6764 O   0  0  0  0  0  0  0  0  0  0  0  0
   21.1960    3.2594    9.4561 C   0  0  2  0  0  0  0  0  0  0  0  0
   20.3041    2.4854    8.5644 N   0  0  0  0  0  0  0  0  0  0  0  0
   24.2655    6.6668    7.9871 C   0  0  1  0  0  0  0  0  0  0  0  0
   24.7139    8.1393   11.2906 C   0  0  2  0  0  0  0  0  0  0  0  0
   25.2955    7.2728   10.2339 N   0  0  0  0  0  0  0  0  0  0  0  0
   20.4408    3.8063   10.7131 C   0  0  0  0  0  0  0  0  0  0  0  0
   24.2610    5.6518    6.7972 C   0  0  2  0  0  0  0  0  0  0  0  0
   24.8289    4.3421    7.0742 O   0  0  0  0  0  0  0  0  0  0  0  0
   25.5504    7.9556   12.5711 C   0  0  1  0  0  0  0  0  0  0  0  0
   26.8951    8.2882   12.3357 O   0  0  0  0  0  0  0  0  0  0  0  0
   21.4741    4.5836   11.6078 C   0  0  2  0  0  0  0  0  0  0  0  0
   20.8333    5.1240   12.8441 N   0  0  0  0  0  0  0  0  0  0  0  0
   25.0043    6.5022    5.7808 C   0  0  2  0  0  0  0  0  0  0  0  0
   26.4521    6.4761    6.0275 O   0  0  0  0  0  0  0  0  0  0  0  0
   24.9763    8.8140   13.6857 C   0  0  2  0  0  0  0  0  0  0  0  0
   25.7439    8.6674   14.8368 O   0  0  0  0  0  0  0  0  0  0  0  0
   22.0970    5.7690   10.8167 C   0  0  2  0  0  0  0  0  0  0  0  0
   24.4433    7.9059    5.9758 C   0  0  2  0  0  0  0  0  0  0  0  0
   24.3749    7.9682    7.3977 O   0  0  0  0  0  0  0  0  0  0  0  0
   23.5032    8.4031   13.9661 C   0  0  2  0  0  0  0  0  0  0  0  0
   22.7213    8.5450   12.7605 O   0  0  0  0  0  0  0  0  0  0  0  0
   22.7840    5.3338    9.5072 C   0  0  2  0  0  0  0  0  0  0  0  0
   23.0794    6.5852    8.7925 O   0  0  0  0  0  0  0  0  0  0  0  0
   23.0300    8.1453    5.3444 C   0  0  0  0  0  0  0  0  0  0  0  0
   23.1056    8.0492    3.9250 N   0  0  0  0  0  0  0  0  0  0  0  0
   22.8681    9.2358   15.0554 C   0  0  0  0  0  0  0  0  0  0  0  0
   21.4894    9.2128   14.9735 O   0  0  0  0  0  0  0  0  0  0  0  0
   21.8041    4.4194    8.6474 C   0  0  1  0  0  0  0  0  0  0  0  0
   22.4863    3.8215    7.5345 O   0  0  0  0  0  0  0  0  0  0  0  0
  1  2  1  1  0  0  0
  1  6  1  0  0  0  0
  1 23  1  0  0  0  0
  3  4  1  6  0  0  0
  3  8  1  0  0  0  0
  3 30  1  0  0  0  0
  5  9  1  0  0  0  0
  5 21  1  0  0  0  0
  5 25  1  6  0  0  0
  6  7  1  6  0  0  0
  6 11  1  0  0  0  0
  8 13  1  0  0  0  0
  9 10  1  1  0  0  0
  9 15  1  0  0  0  0
 11 12  1  6  0  0  0
 11 17  1  0  0  0  0
 13 14  1  1  0  0  0
 13 19  1  0  0  0  0
 15 16  1  1  0  0  0
 15 20  1  0  0  0  0
 17 18  1  1  0  0  0
 17 22  1  0  0  0  0
 19  2  1  1  0  0  0
 19 24  1  0  0  0  0
 20 21  1  0  0  0  0
 20 26  1  6  0  0  0
 22 23  1  0  0  0  0
 22 28  1  1  0  0  0
 24 25  1  6  0  0  0
 24 30  1  0  0  0  0
 26 27  1  0  0  0  0
 28 29  1  0  0  0  0
 30 31  1  6  0  0  0
M  END
>  <CHROM.1>
-125.55834913,62.52163252,-146.57928858,-65.45824302,158.36727325,146.25000948
23.45612213,6.65624433,10.00738926,-1.56781777,-0.76890509,-1.87674694

>  <Name>
2o3x_lig

>  <RI>
0

>  <Rbt.Current_Directory>
/home/itssahil/PROJECTS/Mol_Feturizer/New_Systems/rnas/2o3x

>  <Rbt.Executable>
rbdock ($Id: //depot/dev/client3/rdock/2013.1/src/exe/rbdock.cxx#4 $)

>  <Rbt.Library>
libRbt.so (2013.1, Build901 2013/11/27)

>  <Rbt.Parameter_File>
/export/apps/rDock/src/rDock_2013.1_src/data/scripts/dock_solv.prm

>  <Rbt.Receptor>
prm/blind_docking_60.prm

>  <SCORE>
7.12357

>  <SCORE.INTER>
-6.90695

>  <SCORE.INTER.CONST>
1

>  <SCORE.INTER.POLAR>
-1.02495

>  <SCORE.INTER.ROT>
6

>  <SCORE.INTER.SOLV>
25.2951

>  <SCORE.INTER.VDW>
-17.2198

>  <SCORE.INTER.norm>
-0.222805

>  <SCORE.INTRA>
8.51856

>  <SCORE.INTRA.DIHEDRAL>
7.9816

>  <SCORE.INTRA.DIHEDRAL.0>
9.37739

>  <SCORE.INTRA.POLAR>
0

>  <SCORE.INTRA.POLAR.0>
0

>  <SCORE.INTRA.REPUL>
0

>  <SCORE.INTRA.REPUL.0>
0

>  <SCORE.INTRA.SOLV>
2.29264

>  <SCORE.INTRA.SOLV.lig_0>
-82.9274

>  <SCORE.INTRA.VDW>
3.38144

>  <SCORE.INTRA.VDW.0>
-3.84922

>  <SCORE.INTRA.norm>
0.274792

>  <SCORE.RESTR>
5.51197

>  <SCORE.RESTR.CAVITY>
5.51197

>  <SCORE.RESTR.norm>
0.177805

>  <SCORE.SYSTEM>
0

>  <SCORE.SYSTEM.CONST>
0

>  <SCORE.SYSTEM.DIHEDRAL>
0

>  <SCORE.SYSTEM.SOLV>
0

>  <SCORE.SYSTEM.norm>
0

>  <SCORE.heavy>
31

>  <SCORE.norm>
0.229793

>  <RMSD>
8.333

$$$$
2o3x_lig
 OpenBabel11021811463D
libRbt.so/2013.1/901 2013/11/27
 31 33  0  0  0  0  0  0  0  0999 V2000
   23.2519    7.6707   11.4834 C   0  0  2  0  0  0  0  0  0  0  0  0
   23.1949    6.2456   11.6300 O   0  0  0  0  0  0  0  0  0  0  0  0
   21.3163    2.8819    9.7714 C   0  0  2  0  0  0  0  0  0  0  0  0
   20.5527    2.0131    8.8486 N   0  0  0  0  0  0  0  0  0  0  0  0
   23.4787    6.1027    7.8713 C   0  0  1  0  0  0  0  0  0  0  0  0
   24.7162    8.0698   11.1162 C   0  0  2  0  0  0  0  0  0  0  0  0
   25.2641    7.2361   10.0159 N   0  0  0  0  0  0  0  0  0  0  0  0
   20.3973    3.9194   10.4984 C   0  0  0  0  0  0  0  0  0  0  0  0
   23.6049    7.6612    7.9062 C   0  0  2  0  0  0  0  0  0  0  0  0
   22.5374    8.3721    8.5913 O   0  0  0  0  0  0  0  0  0  0  0  0
   25.6604    7.9416   12.3265 C   0  0  1  0  0  0  0  0  0  0  0  0
   26.9599    8.3538   11.9864 O   0  0  0  0  0  0  0  0  0  0  0  0
   21.2913    4.7698   11.4730 C   0  0  2  0  0  0  0  0  0  0  0  0
   20.4820    5.7764   12.2235 N   0  0  0  0  0  0  0  0  0  0  0  0
   23.7195    7.9053    6.4108 C   0  0  2  0  0  0  0  0  0  0  0  0
   22.4018    7.8510    5.7638 O   0  0  0  0  0  0  0  0  0  0  0  0
   25.1250    8.7678   13.4839 C   0  0  2  0  0  0  0  0  0  0  0  0
   25.9882    8.6720   14.5708 O   0  0  0  0  0  0  0  0  0  0  0  0
   22.4001    5.5199   10.6812 C   0  0  2  0  0  0  0  0  0  0  0  0
   24.6197    6.7822    5.9095 C   0  0  2  0  0  0  0  0  0  0  0  0
   24.1090    5.6809    6.6556 O   0  0  0  0  0  0  0  0  0  0  0  0
   23.7061    8.2698   13.8790 C   0  0  2  0  0  0  0  0  0  0  0  0
   22.8246    8.3599   12.7389 O   0  0  0  0  0  0  0  0  0  0  0  0
   23.3003    4.5804    9.8545 C   0  0  2  0  0  0  0  0  0  0  0  0
   24.1020    5.4687    8.9990 O   0  0  0  0  0  0  0  0  0  0  0  0
   26.1464    6.9824    6.1964 C   0  0  0  0  0  0  0  0  0  0  0  0
   26.9180    6.4941    5.1027 N   0  0  0  0  0  0  0  0  0  0  0  0
   23.1095    9.0667   15.0158 C   0  0  0  0  0  0  0  0  0  0  0  0
   23.9266    9.0527   16.1294 O   0  0  0  0  0  0  0  0  0  0  0  0
   22.4100    3.6048    8.9648 C   0  0  1  0  0  0  0  0  0  0  0  0
   23.2068    2.5781    8.3547 O   0  0  0  0  0  0  0  0  0  0  0  0
  1  2  1  1  0  0  0
  1  6  1  0  0  0  0
  1 23  1  0  0  0  0
  3  4  1  6  0  0  0
  3  8  1  0  0  0  0
  3 30  1  0  0  0  0
  5  9  1  0  0  0  0
  5 21  1  0  0  0  0
  5 25  1  1  0  0  0
  6  7  1  6  0  0  0
  6 11  1  0  0  0  0
  8 13  1  0  0  0  0
  9 10  1  6  0  0  0
  9 15  1  0  0  0  0
 11 12  1  6  0  0  0
 11 17  1  0  0  0  0
 13 14  1  6  0  0  0
 13 19  1  0  0  0  0
 15 16  1  6  0  0  0
 15 20  1  0  0  0  0
 17 18  1  1  0  0  0
 17 22  1  0  0  0  0
 19  2  1  1  0  0  0
 19 24  1  0  0  0  0
 20 21  1  0  0  0  0
 20 26  1  1  0  0  0
 22 23  1  0  0  0  0
 22 28  1  1  0  0  0
 24 25  1  6  0  0  0
 24 30  1  0  0  0  0
 26 27  1  0  0  0  0
 28 29  1  0  0  0  0
 30 31  1  1  0  0  0
M  END
>  <CHROM.1>
-114.42528074,123.47908123,-119.82000227,-142.99134680,-56.64767118,-74.24209709
23.59076589,6.56319044,10.16370184,-1.43040307,-0.80077276,-1.88100940

>  <Name>
2o3x_lig

>  <RI>
0

>  <Rbt.Current_Directory>
/home/itssahil/PROJECTS/Mol_Feturizer/New_Systems/rnas/2o3x

>  <Rbt.Executable>
rbdock ($Id: //depot/dev/client3/rdock/2013.1/src/exe/rbdock.cxx#4 $)

>  <Rbt.Library>
libRbt.so (2013.1, Build901 2013/11/27)

>  <Rbt.Parameter_File>
/export/apps/rDock/src/rDock_2013.1_src/data/scripts/dock_solv.prm

>  <Rbt.Receptor>
prm/blind_docking_60.prm

>  <SCORE>
3.1383

>  <SCORE.INTER>
-12.7186

>  <SCORE.INTER.CONST>
1

>  <SCORE.INTER.POLAR>
-1.09545

>  <SCORE.INTER.ROT>
6

>  <SCORE.INTER.SOLV>
22.567

>  <SCORE.INTER.VDW>
-19.9499

>  <SCORE.INTER.norm>
-0.410276

>  <SCORE.INTRA>
12.6625

>  <SCORE.INTRA.DIHEDRAL>
16.463

>  <SCORE.INTRA.DIHEDRAL.0>
9.37739

>  <SCORE.INTRA.POLAR>
0

>  <SCORE.INTRA.POLAR.0>
0

>  <SCORE.INTRA.REPUL>
0.0622344

>  <SCORE.INTRA.REPUL.0>
0

>  <SCORE.INTRA.SOLV>
3.59287

>  <SCORE.INTRA.SOLV.lig_0>
-82.9274

>  <SCORE.INTRA.VDW>
2.32343

>  <SCORE.INTRA.VDW.0>
-3.84922

>  <SCORE.INTRA.norm>
0.408469

>  <SCORE.RESTR>
3.19431

>  <SCORE.RESTR.CAVITY>
3.19431

>  <SCORE.RESTR.norm>
0.103042

>  <SCORE.SYSTEM>
0

>  <SCORE.SYSTEM.CONST>
0

>  <SCORE.SYSTEM.DIHEDRAL>
0

>  <SCORE.SYSTEM.SOLV>
0

>  <SCORE.SYSTEM.norm>
0

>  <SCORE.heavy>
31

>  <SCORE.norm>
0.101235

>  <RMSD>
8.333

$$$$
2o3x_lig
 OpenBabel11021811463D
libRbt.so/2013.1/901 2013/11/27
 31 33  0  0  0  0  0  0  0  0999 V2000
   24.1702    7.0647   12.2814 C   0  0  2  0  0  0  0  0  0  0  0  0
   23.0398    7.7034   11.6733 O   0  0  0  0  0  0  0  0  0  0  0  0
   20.9224    4.1353   10.6325 C   0  0  2  0  0  0  0  0  0  0  0  0
   20.0252    3.1564    9.9796 N   0  0  0  0  0  0  0  0  0  0  0  0
   22.7330    6.8511    7.8665 C   0  0  1  0  0  0  0  0  0  0  0  0
   23.8583    6.8493   13.7962 C   0  0  2  0  0  0  0  0  0  0  0  0
   22.5195    6.2433   14.0111 N   0  0  0  0  0  0  0  0  0  0  0  0
   20.1261    5.2679   11.3621 C   0  0  0  0  0  0  0  0  0  0  0  0
   22.5568    8.3828    7.6042 C   0  0  2  0  0  0  0  0  0  0  0  0
   21.3884    9.0028    8.2082 O   0  0  0  0  0  0  0  0  0  0  0  0
   23.9133    8.1735   14.5813 C   0  0  1  0  0  0  0  0  0  0  0  0
   23.6800    7.9484   15.9485 O   0  0  0  0  0  0  0  0  0  0  0  0
   21.1610    6.2345   12.0455 C   0  0  2  0  0  0  0  0  0  0  0  0
   20.4772    7.3389   12.7832 N   0  0  0  0  0  0  0  0  0  0  0  0
   22.5872    8.3501    6.0854 C   0  0  2  0  0  0  0  0  0  0  0  0
   21.2902    7.9288    5.5396 O   0  0  0  0  0  0  0  0  0  0  0  0
   25.2645    8.8367   14.3734 C   0  0  2  0  0  0  0  0  0  0  0  0
   25.3250   10.0217   15.1000 O   0  0  0  0  0  0  0  0  0  0  0  0
   22.1052    6.8631   10.9813 C   0  0  2  0  0  0  0  0  0  0  0  0
   23.6754    7.3375    5.7481 C   0  0  2  0  0  0  0  0  0  0  0  0
   23.4043    6.3262    6.7146 O   0  0  0  0  0  0  0  0  0  0  0  0
   25.4882    9.1215   12.8613 C   0  0  2  0  0  0  0  0  0  0  0  0
   25.4076    7.8867   12.1172 O   0  0  0  0  0  0  0  0  0  0  0  0
   22.8643    5.8142   10.1446 C   0  0  2  0  0  0  0  0  0  0  0  0
   23.4930    6.5736    9.0529 O   0  0  0  0  0  0  0  0  0  0  0  0
   25.1410    7.8683    5.9012 C   0  0  0  0  0  0  0  0  0  0  0  0
   26.0674    6.8845    5.4497 N   0  0  0  0  0  0  0  0  0  0  0  0
   26.8272    9.7655   12.5862 C   0  0  0  0  0  0  0  0  0  0  0  0
   27.8649    9.0287   13.1231 O   0  0  0  0  0  0  0  0  0  0  0  0
   21.8497    4.7350    9.5602 C   0  0  1  0  0  0  0  0  0  0  0  0
   22.5457    3.6297    8.9643 O   0  0  0  0  0  0  0  0  0  0  0  0
  1  2  1  1  0  0  0
  1  6  1  0  0  0  0
  1 23  1  0  0  0  0
  3  4  1  6  0  0  0
  3  8  1  0  0  0  0
  3 30  1  0  0  0  0
  5  9  1  0  0  0  0
  5 21  1  0  0  0  0
  5 25  1  1  0  0  0
  6  7  1  6  0  0  0
  6 11  1  0  0  0  0
  8 13  1  0  0  0  0
  9 10  1  6  0  0  0
  9 15  1  0  0  0  0
 11 12  1  1  0  0  0
 11 17  1  0  0  0  0
 13 14  1  6  0  0  0
 13 19  1  0  0  0  0
 15 16  1  1  0  0  0
 15 20  1  0  0  0  0
 17 18  1  1  0  0  0
 17 22  1  0  0  0  0
 19  2  1  1  0  0  0
 19 24  1  0  0  0  0
 20 21  1  0  0  0  0
 20 26  1  1  0  0  0
 22 23  1  0  0  0  0
 22 28  1  1  0  0  0
 24 25  1  6  0  0  0
 24 30  1  0  0  0  0
 26 27  1  0  0  0  0
 28 29  1  0  0  0  0
 30 31  1  1  0  0  0
M  END
>  <CHROM.1>
-97.67898117,119.23602834,81.19856086,-174.88565650,53.73291880,-85.15217907
23.31023873,7.16332256,10.55308123,1.23047450,0.66175174,1.55625110

>  <Name>
2o3x_lig

>  <RI>
224

>  <Rbt.Current_Directory>
/home/itssahil/PROJECTS/Mol_Feturizer/New_Systems/rnas/2o3x

>  <Rbt.Executable>
rbdock ($Id: //depot/dev/client3/rdock/2013.1/src/exe/rbdock.cxx#4 $)

>  <Rbt.Library>
libRbt.so (2013.1, Build901 2013/11/27)

>  <Rbt.Parameter_File>
/export/apps/rDock/src/rDock_2013.1_src/data/scripts/dock_solv.prm

>  <Rbt.Receptor>
prm/blind_docking_100.prm

>  <SCORE>
12.0007

>  <SCORE.INTER>
-1.34706

>  <SCORE.INTER.CONST>
1

>  <SCORE.INTER.POLAR>
0

>  <SCORE.INTER.ROT>
6

>  <SCORE.INTER.SOLV>
22.0247

>  <SCORE.INTER.VDW>
-15.8396

>  <SCORE.INTER.norm>
-0.0434534

>  <SCORE.INTRA>
12.2909

>  <SCORE.INTRA.DIHEDRAL>
7.86936

>  <SCORE.INTRA.DIHEDRAL.0>
9.37739

>  <SCORE.INTRA.POLAR>
0

>  <SCORE.INTRA.POLAR.0>
0

>  <SCORE.INTRA.REPUL>
0

>  <SCORE.INTRA.REPUL.0>
0

>  <SCORE.INTRA.SOLV>
3.10368

>  <SCORE.INTRA.SOLV.lig_0>
-82.9274

>  <SCORE.INTRA.VDW>
6.80436

>  <SCORE.INTRA.VDW.0>
-3.84922

>  <SCORE.INTRA.norm>
0.39648

>  <SCORE.RESTR>
1.05692

>  <SCORE.RESTR.CAVITY>
1.05692

>  <SCORE.RESTR.norm>
0.0340943

>  <SCORE.SYSTEM>
0

>  <SCORE.SYSTEM.CONST>
0

>  <SCORE.SYSTEM.DIHEDRAL>
0

>  <SCORE.SYSTEM.SOLV>
0

>  <SCORE.SYSTEM.norm>
0

>  <SCORE.heavy>
31

>  <SCORE.norm>
0.387121

>  <RMSD>
8.338

$$$$
2o3x_lig
 OpenBabel11021811463D
libRbt.so/2013.1/901 2013/11/27
 31 33  0  0  0  0  0  0  0  0999 V2000
   23.2725    7.7086   11.5216 C   0  0  2  0  0  0  0  0  0  0  0  0
   23.2075    6.2819   11.6474 O   0  0  0  0  0  0  0  0  0  0  0  0
   21.2661    2.9632    9.7724 C   0  0  2  0  0  0  0  0  0  0  0  0
   20.4902    2.1125    8.8430 N   0  0  0  0  0  0  0  0  0  0  0  0
   23.5297    6.1013    7.8693 C   0  0  1  0  0  0  0  0  0  0  0  0
   24.7418    8.1058   11.1725 C   0  0  2  0  0  0  0  0  0  0  0  0
   25.2952    7.2851   10.0653 N   0  0  0  0  0  0  0  0  0  0  0  0
   20.3657    4.0222   10.4916 C   0  0  0  0  0  0  0  0  0  0  0  0
   23.7960    7.6411    7.8038 C   0  0  2  0  0  0  0  0  0  0  0  0
   22.8122    8.4868    8.4603 O   0  0  0  0  0  0  0  0  0  0  0  0
   25.6749    7.9559   12.3890 C   0  0  1  0  0  0  0  0  0  0  0  0
   26.9792    8.3667   12.0658 O   0  0  0  0  0  0  0  0  0  0  0  0
   21.2711    4.8514   11.4740 C   0  0  2  0  0  0  0  0  0  0  0  0
   20.4794    5.8768   12.2176 N   0  0  0  0  0  0  0  0  0  0  0  0
   23.8987    7.7817    6.2943 C   0  0  2  0  0  0  0  0  0  0  0  0
   22.5674    7.8078    5.6740 O   0  0  0  0  0  0  0  0  0  0  0  0
   25.1335    8.7683   13.5533 C   0  0  2  0  0  0  0  0  0  0  0  0
   25.9868    8.6530   14.6461 O   0  0  0  0  0  0  0  0  0  0  0  0
   22.4041    5.5750   10.6917 C   0  0  2  0  0  0  0  0  0  0  0  0
   24.6831    6.5527    5.8498 C   0  0  2  0  0  0  0  0  0  0  0  0
   24.0923    5.5502    6.6723 O   0  0  0  0  0  0  0  0  0  0  0  0
   23.7088    8.2716   13.9292 C   0  0  2  0  0  0  0  0  0  0  0  0
   22.8376    8.3821   12.7830 O   0  0  0  0  0  0  0  0  0  0  0  0
   23.2888    4.6144    9.8727 C   0  0  2  0  0  0  0  0  0  0  0  0
   24.1186    5.4836    9.0242 O   0  0  0  0  0  0  0  0  0  0  0  0
   26.2276    6.6304    6.0981 C   0  0  0  0  0  0  0  0  0  0  0  0
   26.8000    7.6632    5.3009 N   0  0  0  0  0  0  0  0  0  0  0  0
   23.1062    9.0552   15.0721 C   0  0  0  0  0  0  0  0  0  0  0  0
   23.9928    9.1824   16.1237 O   0  0  0  0  0  0  0  0  0  0  0  0
   22.3835    3.6601    8.9753 C   0  0  1  0  0  0  0  0  0  0  0  0
   23.1610    2.6148    8.3720 O   0  0  0  0  0  0  0  0  0  0  0  0
  1  2  1  1  0  0  0
  1  6  1  0  0  0  0
  1 23  1  0  0  0  0
  3  4  1  6  0  0  0
  3  8  1  0  0  0  0
  3 30  1  0  0  0  0
  5  9  1  0  0  0  0
  5 21  1  0  0  0  0
  5 25  1  1  0  0  0
  6  7  1  6  0  0  0
  6 11  1  0  0  0  0
  8 13  1  0  0  0  0
  9 10  1  6  0  0  0
  9 15  1  0  0  0  0
 11 12  1  6  0  0  0
 11 17  1  0  0  0  0
 13 14  1  6  0  0  0
 13 19  1  0  0  0  0
 15 16  1  6  0  0  0
 15 20  1  0  0  0  0
 17 18  1  1  0  0  0
 17 22  1  0  0  0  0
 19  2  1  1  0  0  0
 19 24  1  0  0  0  0
 20 21  1  0  0  0  0
 20 26  1  1  0  0  0
 22 23  1  0  0  0  0
 22 28  1  1  0  0  0
 24 25  1  6  0  0  0
 24 30  1  0  0  0  0
 26 27  1  0  0  0  0
 28 29  1  0  0  0  0
 30 31  1  1  0  0  0
M  END
>  <CHROM.1>
-115.18682678,129.60121340,-118.30433344,-65.04808265,-48.07880975,-76.01930315
23.61909410,6.60700186,10.17253950,-1.42921563,-0.80100509,-1.86735387

>  <Name>
2o3x_lig

>  <RI>
0

>  <Rbt.Current_Directory>
/home/itssahil/PROJECTS/Mol_Feturizer/New_Systems/rnas/2o3x

>  <Rbt.Executable>
rbdock ($Id: //depot/dev/client3/rdock/2013.1/src/exe/rbdock.cxx#4 $)

>  <Rbt.Library>
libRbt.so (2013.1, Build901 2013/11/27)

>  <Rbt.Parameter_File>
/export/apps/rDock/src/rDock_2013.1_src/data/scripts/dock_solv.prm

>  <Rbt.Receptor>
prm/blind_docking_60.prm

>  <SCORE>
2.03044

>  <SCORE.INTER>
-12.4908

>  <SCORE.INTER.CONST>
1

>  <SCORE.INTER.POLAR>
-1.13807

>  <SCORE.INTER.ROT>
6

>  <SCORE.INTER.SOLV>
25.4581

>  <SCORE.INTER.VDW>
-20.6197

>  <SCORE.INTER.norm>
-0.402931

>  <SCORE.INTRA>
11.2764

>  <SCORE.INTRA.DIHEDRAL>
13.5066

>  <SCORE.INTRA.DIHEDRAL.0>
9.37739

>  <SCORE.INTRA.POLAR>
0

>  <SCORE.INTRA.POLAR.0>
0

>  <SCORE.INTRA.REPUL>
0.0602101

>  <SCORE.INTRA.REPUL.0>
0

>  <SCORE.INTRA.SOLV>
4.09152

>  <SCORE.INTRA.SOLV.lig_0>
-82.9274

>  <SCORE.INTRA.VDW>
2.17626

>  <SCORE.INTRA.VDW.0>
-3.84922

>  <SCORE.INTRA.norm>
0.363755

>  <SCORE.RESTR>
3.2449

>  <SCORE.RESTR.CAVITY>
3.2449

>  <SCORE.RESTR.norm>
0.104674

>  <SCORE.SYSTEM>
0

>  <SCORE.SYSTEM.CONST>
0

>  <SCORE.SYSTEM.DIHEDRAL>
0

>  <SCORE.SYSTEM.SOLV>
0

>  <SCORE.SYSTEM.norm>
0

>  <SCORE.heavy>
31

>  <SCORE.norm>
0.0654982

>  <RMSD>
8.359

$$$$
2o3x_lig
 OpenBabel11021811463D
libRbt.so/2013.1/901 2013/11/27
 31 33  0  0  0  0  0  0  0  0999 V2000
   23.8686    7.8852   11.2418 C   0  0  2  0  0  0  0  0  0  0  0  0
   23.8699    6.4516   11.2578 O   0  0  0  0  0  0  0  0  0  0  0  0
   21.3531    3.2804    9.8769 C   0  0  2  0  0  0  0  0  0  0  0  0
   20.3839    2.4705    9.1060 N   0  0  0  0  0  0  0  0  0  0  0  0
   23.7420    6.0653    7.5626 C   0  0  1  0  0  0  0  0  0  0  0  0
   25.2114    8.3859   11.8620 C   0  0  2  0  0  0  0  0  0  0  0  0
   26.3885    7.6860   11.2871 N   0  0  0  0  0  0  0  0  0  0  0  0
   20.6698    4.4942   10.5903 C   0  0  0  0  0  0  0  0  0  0  0  0
   23.9434    7.6137    7.6532 C   0  0  2  0  0  0  0  0  0  0  0  0
   22.9427    8.3433    8.4152 O   0  0  0  0  0  0  0  0  0  0  0  0
   25.2396    8.1894   13.3896 C   0  0  1  0  0  0  0  0  0  0  0  0
   26.4343    8.6928   13.9314 O   0  0  0  0  0  0  0  0  0  0  0  0
   21.7701    5.2701   11.4025 C   0  0  2  0  0  0  0  0  0  0  0  0
   21.1927    6.4387   12.1320 N   0  0  0  0  0  0  0  0  0  0  0  0
   24.0019    7.9145    6.1649 C   0  0  2  0  0  0  0  0  0  0  0  0
   22.6554    7.9473    5.5788 O   0  0  0  0  0  0  0  0  0  0  0  0
   24.0387    8.8771   14.0169 C   0  0  2  0  0  0  0  0  0  0  0  0
   24.0743    8.7205   15.3990 O   0  0  0  0  0  0  0  0  0  0  0  0
   22.8877    5.7856   10.4515 C   0  0  2  0  0  0  0  0  0  0  0  0
   24.8244    6.7735    5.5778 C   0  0  2  0  0  0  0  0  0  0  0  0
   24.2961    5.6664    6.3029 O   0  0  0  0  0  0  0  0  0  0  0  0
   22.7243    8.2775   13.4419 C   0  0  2  0  0  0  0  0  0  0  0  0
   22.7068    8.4325   12.0064 O   0  0  0  0  0  0  0  0  0  0  0  0
   23.5563    4.6639    9.6323 C   0  0  2  0  0  0  0  0  0  0  0  0
   24.3847    5.3571    8.6338 O   0  0  0  0  0  0  0  0  0  0  0  0
   26.3703    6.8918    5.8004 C   0  0  0  0  0  0  0  0  0  0  0  0
   26.8553    8.1043    5.2309 N   0  0  0  0  0  0  0  0  0  0  0  0
   21.4901    8.9350   14.0144 C   0  0  0  0  0  0  0  0  0  0  0  0
   21.6538    9.2464   15.3501 O   0  0  0  0  0  0  0  0  0  0  0  0
   22.4505    3.7703    8.9150 C   0  0  1  0  0  0  0  0  0  0  0  0
   23.0270    2.5940    8.3276 O   0  0  0  0  0  0  0  0  0  0  0  0
  1  2  1  1  0  0  0
  1  6  1  0  0  0  0
  1 23  1  0  0  0  0
  3  4  1  6  0  0  0
  3  8  1  0  0  0  0
  3 30  1  0  0  0  0
  5  9  1  0  0  0  0
  5 21  1  0  0  0  0
  5 25  1  1  0  0  0
  6  7  1  6  0  0  0
  6 11  1  0  0  0  0
  8 13  1  0  0  0  0
  9 10  1  6  0  0  0
  9 15  1  0  0  0  0
 11 12  1  1  0  0  0
 11 17  1  0  0  0  0
 13 14  1  6  0  0  0
 13 19  1  0  0  0  0
 15 16  1  6  0  0  0
 15 20  1  0  0  0  0
 17 18  1  1  0  0  0
 17 22  1  0  0  0  0
 19  2  1  1  0  0  0
 19 24  1  0  0  0  0
 20 21  1  0  0  0  0
 20 26  1  1  0  0  0
 22 23  1  0  0  0  0
 22 28  1  1  0  0  0
 24 25  1  6  0  0  0
 24 30  1  0  0  0  0
 26 27  1  0  0  0  0
 28 29  1  0  0  0  0
 30 31  1  1  0  0  0
M  END
>  <CHROM.1>
-165.35697151,112.73083537,-103.60765010,-58.56769136,-37.09191391,-70.30523449
23.51941285,6.77101027,10.16571702,-1.68527992,-0.81094540,-1.97944356

>  <Name>
2o3x_lig

>  <RI>
0

>  <Rbt.Current_Directory>
/home/itssahil/PROJECTS/Mol_Feturizer/New_Systems/rnas/2o3x

>  <Rbt.Executable>
rbdock ($Id: //depot/dev/client3/rdock/2013.1/src/exe/rbdock.cxx#4 $)

>  <Rbt.Library>
libRbt.so (2013.1, Build901 2013/11/27)

>  <Rbt.Parameter_File>
/export/apps/rDock/src/rDock_2013.1_src/data/scripts/dock_solv.prm

>  <Rbt.Receptor>
prm/blind_docking_60.prm

>  <SCORE>
1.61181

>  <SCORE.INTER>
-7.91099

>  <SCORE.INTER.CONST>
1

>  <SCORE.INTER.POLAR>
-0.726406

>  <SCORE.INTER.ROT>
6

>  <SCORE.INTER.SOLV>
29.1697

>  <SCORE.INTER.VDW>
-20.1759

>  <SCORE.INTER.norm>
-0.255193

>  <SCORE.INTRA>
6.85021

>  <SCORE.INTRA.DIHEDRAL>
6.81825

>  <SCORE.INTRA.DIHEDRAL.0>
9.37739

>  <SCORE.INTRA.POLAR>
0

>  <SCORE.INTRA.POLAR.0>
0

>  <SCORE.INTRA.REPUL>
0

>  <SCORE.INTRA.REPUL.0>
0

>  <SCORE.INTRA.SOLV>
2.31052

>  <SCORE.INTRA.SOLV.lig_0>
-82.9274

>  <SCORE.INTRA.VDW>
2.28583

>  <SCORE.INTRA.VDW.0>
-3.84922

>  <SCORE.INTRA.norm>
0.220974

>  <SCORE.RESTR>
2.67259

>  <SCORE.RESTR.CAVITY>
2.67259

>  <SCORE.RESTR.norm>
0.0862124

>  <SCORE.SYSTEM>
0

>  <SCORE.SYSTEM.CONST>
0

>  <SCORE.SYSTEM.DIHEDRAL>
0

>  <SCORE.SYSTEM.SOLV>
0

>  <SCORE.SYSTEM.norm>
0

>  <SCORE.heavy>
31

>  <SCORE.norm>
0.0519938

>  <RMSD>
8.360

$$$$
2o3x_lig
 OpenBabel11021811463D
libRbt.so/2013.1/901 2013/11/27
 31 33  0  0  0  0  0  0  0  0999 V2000
   23.3157    7.7306   11.5515 C   0  0  2  0  0  0  0  0  0  0  0  0
   23.2362    6.3050   11.6817 O   0  0  0  0  0  0  0  0  0  0  0  0
   21.3012    2.9933    9.7879 C   0  0  2  0  0  0  0  0  0  0  0  0
   20.5222    2.1475    8.8567 N   0  0  0  0  0  0  0  0  0  0  0  0
   23.5303    6.1420    7.8778 C   0  0  1  0  0  0  0  0  0  0  0  0
   24.7879    8.1114   11.1966 C   0  0  2  0  0  0  0  0  0  0  0  0
   25.3291    7.2817   10.0900 N   0  0  0  0  0  0  0  0  0  0  0  0
   20.4001    4.0366   10.5289 C   0  0  0  0  0  0  0  0  0  0  0  0
   23.7503    7.6891    7.8115 C   0  0  2  0  0  0  0  0  0  0  0  0
   22.7345    8.5057    8.4561 O   0  0  0  0  0  0  0  0  0  0  0  0
   25.7234    7.9553   12.4105 C   0  0  1  0  0  0  0  0  0  0  0  0
   27.0308    8.3514   12.0820 O   0  0  0  0  0  0  0  0  0  0  0  0
   21.3093    4.8613   11.5116 C   0  0  2  0  0  0  0  0  0  0  0  0
   20.5175    5.8717   12.2755 N   0  0  0  0  0  0  0  0  0  0  0  0
   23.8640    7.8298    6.3027 C   0  0  2  0  0  0  0  0  0  0  0  0
   22.5390    7.8142    5.6690 O   0  0  0  0  0  0  0  0  0  0  0  0
   25.1942    8.7766   13.5742 C   0  0  2  0  0  0  0  0  0  0  0  0
   26.0499    8.6555   14.6645 O   0  0  0  0  0  0  0  0  0  0  0  0
   22.4283    5.6031   10.7262 C   0  0  2  0  0  0  0  0  0  0  0  0
   24.6900    6.6244    5.8691 C   0  0  2  0  0  0  0  0  0  0  0  0
   24.1216    5.6060    6.6878 O   0  0  0  0  0  0  0  0  0  0  0  0
   23.7657    8.2959   13.9561 C   0  0  2  0  0  0  0  0  0  0  0  0
   22.8920    8.4122   12.8124 O   0  0  0  0  0  0  0  0  0  0  0  0
   23.3119    4.6592    9.8867 C   0  0  2  0  0  0  0  0  0  0  0  0
   24.1259    5.5448    9.0400 O   0  0  0  0  0  0  0  0  0  0  0  0
   26.2288    6.7496    6.1328 C   0  0  0  0  0  0  0  0  0  0  0  0
   26.7668    7.8357    5.3840 N   0  0  0  0  0  0  0  0  0  0  0  0
   23.1750    9.0891   15.0986 C   0  0  0  0  0  0  0  0  0  0  0  0
   24.0332    9.1382   16.1798 O   0  0  0  0  0  0  0  0  0  0  0  0
   22.4046    3.7083    8.9876 C   0  0  1  0  0  0  0  0  0  0  0  0
   23.1839    2.6764    8.3638 O   0  0  0  0  0  0  0  0  0  0  0  0
  1  2  1  1  0  0  0
  1  6  1  0  0  0  0
  1 23  1  0  0  0  0
  3  4  1  6  0  0  0
  3  8  1  0  0  0  0
  3 30  1  0  0  0  0
  5  9  1  0  0  0  0
  5 21  1  0  0  0  0
  5 25  1  1  0  0  0
  6  7  1  6  0  0  0
  6 11  1  0  0  0  0
  8 13  1  0  0  0  0
  9 10  1  6  0  0  0
  9 15  1  0  0  0  0
 11 12  1  6  0  0  0
 11 17  1  0  0  0  0
 13 14  1  6  0  0  0
 13 19  1  0  0  0  0
 15 16  1  6  0  0  0
 15 20  1  0  0  0  0
 17 18  1  1  0  0  0
 17 22  1  0  0  0  0
 19  2  1  1  0  0  0
 19 24  1  0  0  0  0
 20 21  1  0  0  0  0
 20 26  1  1  0  0  0
 22 23  1  0  0  0  0
 22 28  1  1  0  0  0
 24 25  1  6  0  0  0
 24 30  1  0  0  0  0
 26 27  1  0  0  0  0
 28 29  1  0  0  0  0
 30 31  1  1  0  0  0
M  END
>  <CHROM.1>
-114.84727746,129.21693467,-119.83409486,-62.48977304,-51.89789875,-77.72697649
23.64121893,6.63864086,10.19580077,-1.41457400,-0.80411809,-1.84730065

>  <Name>
2o3x_lig

>  <RI>
0

>  <Rbt.Current_Directory>
/home/itssahil/PROJECTS/Mol_Feturizer/New_Systems/rnas/2o3x

>  <Rbt.Executable>
rbdock ($Id: //depot/dev/client3/rdock/2013.1/src/exe/rbdock.cxx#4 $)

>  <Rbt.Library>
libRbt.so (2013.1, Build901 2013/11/27)

>  <Rbt.Parameter_File>
/export/apps/rDock/src/rDock_2013.1_src/data/scripts/dock_solv.prm

>  <Rbt.Receptor>
prm/blind_docking_60.prm

>  <SCORE>
2.9638

>  <SCORE.INTER>
-11.4395

>  <SCORE.INTER.CONST>
1

>  <SCORE.INTER.POLAR>
-1.11426

>  <SCORE.INTER.ROT>
6

>  <SCORE.INTER.SOLV>
26.2637

>  <SCORE.INTER.VDW>
-20.2667

>  <SCORE.INTER.norm>
-0.369017

>  <SCORE.INTRA>
11.275

>  <SCORE.INTRA.DIHEDRAL>
13.45

>  <SCORE.INTRA.DIHEDRAL.0>
9.37739

>  <SCORE.INTRA.POLAR>
0

>  <SCORE.INTRA.POLAR.0>
0

>  <SCORE.INTRA.REPUL>
0.071258

>  <SCORE.INTRA.REPUL.0>
0

>  <SCORE.INTRA.SOLV>
4.01388

>  <SCORE.INTRA.SOLV.lig_0>
-82.9274

>  <SCORE.INTRA.VDW>
2.18681

>  <SCORE.INTRA.VDW.0>
-3.84922

>  <SCORE.INTRA.norm>
0.363711

>  <SCORE.RESTR>
3.12829

>  <SCORE.RESTR.CAVITY>
3.12829

>  <SCORE.RESTR.norm>
0.100913

>  <SCORE.SYSTEM>
0

>  <SCORE.SYSTEM.CONST>
0

>  <SCORE.SYSTEM.DIHEDRAL>
0

>  <SCORE.SYSTEM.SOLV>
0

>  <SCORE.SYSTEM.norm>
0

>  <SCORE.heavy>
31

>  <SCORE.norm>
0.0956065

>  <RMSD>
8.372

$$$$
2o3x_lig
 OpenBabel11021811463D
libRbt.so/2013.1/901 2013/11/27
 31 33  0  0  0  0  0  0  0  0999 V2000
   23.8654    8.0703   11.6397 C   0  0  2  0  0  0  0  0  0  0  0  0
   23.8220    6.6374   11.6542 O   0  0  0  0  0  0  0  0  0  0  0  0
   21.0534    3.5424   10.6275 C   0  0  2  0  0  0  0  0  0  0  0  0
   19.9560    2.7683   10.0064 N   0  0  0  0  0  0  0  0  0  0  0  0
   23.5290    5.2801    7.6020 C   0  0  1  0  0  0  0  0  0  0  0  0
   25.2753    8.5254   12.1333 C   0  0  2  0  0  0  0  0  0  0  0  0
   26.3709    7.7906   11.4511 N   0  0  0  0  0  0  0  0  0  0  0  0
   20.5190    4.7466   11.4724 C   0  0  0  0  0  0  0  0  0  0  0  0
   22.2792    6.0705    7.0929 C   0  0  2  0  0  0  0  0  0  0  0  0
   20.9889    5.4417    7.3258 O   0  0  0  0  0  0  0  0  0  0  0  0
   25.4384    8.3222   13.6515 C   0  0  1  0  0  0  0  0  0  0  0  0
   26.6938    8.7850   14.0807 O   0  0  0  0  0  0  0  0  0  0  0  0
   21.7518    5.4838   12.1120 C   0  0  2  0  0  0  0  0  0  0  0  0
   21.3237    6.6407   12.9543 N   0  0  0  0  0  0  0  0  0  0  0  0
   22.6953    6.2262    5.6398 C   0  0  2  0  0  0  0  0  0  0  0  0
   22.4428    4.9931    4.8825 O   0  0  0  0  0  0  0  0  0  0  0  0
   24.3235    9.0454   14.3880 C   0  0  2  0  0  0  0  0  0  0  0  0
   24.4819    8.8824   15.7607 O   0  0  0  0  0  0  0  0  0  0  0  0
   22.7087    6.0081   11.0037 C   0  0  2  0  0  0  0  0  0  0  0  0
   24.1871    6.5322    5.7017 C   0  0  2  0  0  0  0  0  0  0  0  0
   24.6021    5.6215    6.7160 O   0  0  0  0  0  0  0  0  0  0  0  0
   22.9429    8.4905   13.9367 C   0  0  2  0  0  0  0  0  0  0  0  0
   22.7976    8.6515   12.5092 O   0  0  0  0  0  0  0  0  0  0  0  0
   23.2130    4.8992   10.0591 C   0  0  2  0  0  0  0  0  0  0  0  0
   23.8804    5.6067    8.9555 O   0  0  0  0  0  0  0  0  0  0  0  0
   24.5428    8.0040    6.1025 C   0  0  0  0  0  0  0  0  0  0  0  0
   23.7009    8.9180    5.4057 N   0  0  0  0  0  0  0  0  0  0  0  0
   21.7888    9.1848   14.6218 C   0  0  0  0  0  0  0  0  0  0  0  0
   20.5828    8.8753   14.0237 O   0  0  0  0  0  0  0  0  0  0  0  0
   21.9881    4.0418    9.5111 C   0  0  1  0  0  0  0  0  0  0  0  0
   22.4384    2.8733    8.8089 O   0  0  0  0  0  0  0  0  0  0  0  0
  1  2  1  1  0  0  0
  1  6  1  0  0  0  0
  1 23  1  0  0  0  0
  3  4  1  6  0  0  0
  3  8  1  0  0  0  0
  3 30  1  0  0  0  0
  5  9  1  0  0  0  0
  5 21  1  0  0  0  0
  5 25  1  1  0  0  0
  6  7  1  6  0  0  0
  6 11  1  0  0  0  0
  8 13  1  0  0  0  0
  9 10  1  6  0  0  0
  9 15  1  0  0  0  0
 11 12  1  1  0  0  0
 11 17  1  0  0  0  0
 13 14  1  6  0  0  0
 13 19  1  0  0  0  0
 15 16  1  6  0  0  0
 15 20  1  0  0  0  0
 17 18  1  1  0  0  0
 17 22  1  0  0  0  0
 19  2  1  1  0  0  0
 19 24  1  0  0  0  0
 20 21  1  0  0  0  0
 20 26  1  1  0  0  0
 22 23  1  0  0  0  0
 22 28  1  1  0  0  0
 24 25  1  6  0  0  0
 24 30  1  0  0  0  0
 26 27  1  0  0  0  0
 28 29  1  0  0  0  0
 30 31  1  1  0  0  0
M  END
>  <CHROM.1>
-168.66034070,85.45548370,-105.36334390,-43.85775834,167.93134673,-129.26554574
23.10624256,6.61735004,10.38629674,-1.40335714,-0.75114047,-1.85153994

>  <Name>
2o3x_lig

>  <RI>
0

>  <Rbt.Current_Directory>
/home/itssahil/PROJECTS/Mol_Feturizer/New_Systems/rnas/2o3x

>  <Rbt.Executable>
rbdock ($Id: //depot/dev/client3/rdock/2013.1/src/exe/rbdock.cxx#4 $)

>  <Rbt.Library>
libRbt.so (2013.1, Build901 2013/11/27)

>  <Rbt.Parameter_File>
/export/apps/rDock/src/rDock_2013.1_src/data/scripts/dock_solv.prm

>  <Rbt.Receptor>
prm/blind_docking_40.prm

>  <SCORE>
13.4361

>  <SCORE.INTER>
-2.52232

>  <SCORE.INTER.CONST>
1

>  <SCORE.INTER.POLAR>
-0.717594

>  <SCORE.INTER.ROT>
6

>  <SCORE.INTER.SOLV>
24.8502

>  <SCORE.INTER.VDW>
-15.173

>  <SCORE.INTER.norm>
-0.0813652

>  <SCORE.INTRA>
9.70232

>  <SCORE.INTRA.DIHEDRAL>
8.38158

>  <SCORE.INTRA.DIHEDRAL.0>
9.37739

>  <SCORE.INTRA.POLAR>
0

>  <SCORE.INTRA.POLAR.0>
0

>  <SCORE.INTRA.REPUL>
0

>  <SCORE.INTRA.REPUL.0>
0

>  <SCORE.INTRA.SOLV>
3.62539

>  <SCORE.INTRA.SOLV.lig_0>
-82.9274

>  <SCORE.INTRA.VDW>
3.69883

>  <SCORE.INTRA.VDW.0>
-3.84922

>  <SCORE.INTRA.norm>
0.312978

>  <SCORE.RESTR>
6.25615

>  <SCORE.RESTR.CAVITY>
6.25615

>  <SCORE.RESTR.norm>
0.201811

>  <SCORE.SYSTEM>
0

>  <SCORE.SYSTEM.CONST>
0

>  <SCORE.SYSTEM.DIHEDRAL>
0

>  <SCORE.SYSTEM.SOLV>
0

>  <SCORE.SYSTEM.norm>
0

>  <SCORE.heavy>
31

>  <SCORE.norm>
0.433424

>  <RMSD>
8.402

$$$$
2o3x_lig
 OpenBabel11021811463D
libRbt.so/2013.1/901 2013/11/27
 31 33  0  0  0  0  0  0  0  0999 V2000
   25.0628    7.4848   13.5182 C   0  0  2  0  0  0  0  0  0  0  0  0
   23.9535    8.0551   12.8112 O   0  0  0  0  0  0  0  0  0  0  0  0
   22.9340    7.9384    8.6585 C   0  0  2  0  0  0  0  0  0  0  0  0
   22.5592    7.4840    7.3011 N   0  0  0  0  0  0  0  0  0  0  0  0
   21.4880    5.6545   12.1554 C   0  0  1  0  0  0  0  0  0  0  0  0
   24.7293    7.4892   15.0437 C   0  0  2  0  0  0  0  0  0  0  0  0
   23.3753    6.9461   15.3220 N   0  0  0  0  0  0  0  0  0  0  0  0
   24.3591    7.4417    9.0726 C   0  0  0  0  0  0  0  0  0  0  0  0
   20.2177    4.8817   11.6703 C   0  0  2  0  0  0  0  0  0  0  0  0
   19.2255    4.5820   12.6901 O   0  0  0  0  0  0  0  0  0  0  0  0
   24.8046    8.9085   15.6375 C   0  0  1  0  0  0  0  0  0  0  0  0
   24.5512    8.8811   17.0193 O   0  0  0  0  0  0  0  0  0  0  0  0
   24.6757    7.9982   10.5088 C   0  0  2  0  0  0  0  0  0  0  0  0
   26.0335    7.5826   10.9722 N   0  0  0  0  0  0  0  0  0  0  0  0
   20.9149    3.6861   11.0430 C   0  0  2  0  0  0  0  0  0  0  0  0
   21.3281    2.7177   12.0673 O   0  0  0  0  0  0  0  0  0  0  0  0
   26.1722    9.5089   15.3583 C   0  0  2  0  0  0  0  0  0  0  0  0
   26.2506   10.7821   15.9137 O   0  0  0  0  0  0  0  0  0  0  0  0
   23.6259    7.4858   11.5357 C   0  0  2  0  0  0  0  0  0  0  0  0
   22.1263    4.2804   10.3343 C   0  0  2  0  0  0  0  0  0  0  0  0
   22.5591    5.2316   11.3030 O   0  0  0  0  0  0  0  0  0  0  0  0
   26.4189    9.5754   13.8246 C   0  0  2  0  0  0  0  0  0  0  0  0
   26.3197    8.2508   13.2586 O   0  0  0  0  0  0  0  0  0  0  0  0
   22.1760    7.8484   11.1576 C   0  0  2  0  0  0  0  0  0  0  0  0
   21.3320    7.0803   12.0858 O   0  0  0  0  0  0  0  0  0  0  0  0
   21.8133    4.9849    8.9708 C   0  0  0  0  0  0  0  0  0  0  0  0
   22.9822    5.0170    8.1569 N   0  0  0  0  0  0  0  0  0  0  0  0
   27.7747   10.1477   13.4814 C   0  0  0  0  0  0  0  0  0  0  0  0
   28.2440    9.6556   12.2791 O   0  0  0  0  0  0  0  0  0  0  0  0
   21.8761    7.4253    9.6520 C   0  0  1  0  0  0  0  0  0  0  0  0
   20.6151    7.9442    9.2028 O   0  0  0  0  0  0  0  0  0  0  0  0
  1  2  1  6  0  0  0
  1  6  1  0  0  0  0
  1 23  1  0  0  0  0
  3  4  1  6  0  0  0
  3  8  1  0  0  0  0
  3 30  1  0  0  0  0
  5  9  1  0  0  0  0
  5 21  1  0  0  0  0
  5 25  1  6  0  0  0
  6  7  1  6  0  0  0
  6 11  1  0  0  0  0
  8 13  1  0  0  0  0
  9 10  1  1  0  0  0
  9 15  1  0  0  0  0
 11 12  1  1  0  0  0
 11 17  1  0  0  0  0
 13 14  1  1  0  0  0
 13 19  1  0  0  0  0
 15 16  1  1  0  0  0
 15 20  1  0  0  0  0
 17 18  1  6  0  0  0
 17 22  1  0  0  0  0
 19  2  1  1  0  0  0
 19 24  1  0  0  0  0
 20 21  1  0  0  0  0
 20 26  1  6  0  0  0
 22 23  1  0  0  0  0
 22 28  1  1  0  0  0
 24 25  1  1  0  0  0
 24 30  1  0  0  0  0
 26 27  1  0  0  0  0
 28 29  1  0  0  0  0
 30 31  1  6  0  0  0
M  END
>  <CHROM.1>
-143.30411458,-114.95000219,-76.09080494,-156.62206531,151.71024273,-55.69636591
23.56490130,7.19885798,12.03432606,0.62322173,0.69131628,1.56637834

>  <Name>
2o3x_lig

>  <RI>
0

>  <Rbt.Current_Directory>
/home/itssahil/PROJECTS/Mol_Feturizer/New_Systems/rnas/2o3x

>  <Rbt.Executable>
rbdock ($Id: //depot/dev/client3/rdock/2013.1/src/exe/rbdock.cxx#4 $)

>  <Rbt.Library>
libRbt.so (2013.1, Build901 2013/11/27)

>  <Rbt.Parameter_File>
/export/apps/rDock/src/rDock_2013.1_src/data/scripts/dock_solv.prm

>  <Rbt.Receptor>
prm/blind_docking_60.prm

>  <SCORE>
44.6323

>  <SCORE.INTER>
18.0242

>  <SCORE.INTER.CONST>
1

>  <SCORE.INTER.POLAR>
-0.810387

>  <SCORE.INTER.ROT>
6

>  <SCORE.INTER.SOLV>
30.8175

>  <SCORE.INTER.VDW>
-3.15511

>  <SCORE.INTER.norm>
0.581425

>  <SCORE.INTRA>
21.8323

>  <SCORE.INTRA.DIHEDRAL>
7.98771

>  <SCORE.INTRA.DIHEDRAL.0>
9.37739

>  <SCORE.INTRA.POLAR>
0

>  <SCORE.INTRA.POLAR.0>
0

>  <SCORE.INTRA.REPUL>
0

>  <SCORE.INTRA.REPUL.0>
0

>  <SCORE.INTRA.SOLV>
9.45906

>  <SCORE.INTRA.SOLV.lig_0>
-82.9274

>  <SCORE.INTRA.VDW>
13.1089

>  <SCORE.INTRA.VDW.0>
-3.84922

>  <SCORE.INTRA.norm>
0.704267

>  <SCORE.RESTR>
4.77581

>  <SCORE.RESTR.CAVITY>
4.77581

>  <SCORE.RESTR.norm>
0.154058

>  <SCORE.SYSTEM>
0

>  <SCORE.SYSTEM.CONST>
0

>  <SCORE.SYSTEM.DIHEDRAL>
0

>  <SCORE.SYSTEM.SOLV>
0

>  <SCORE.SYSTEM.norm>
0

>  <SCORE.heavy>
31

>  <SCORE.norm>
1.43975

>  <RMSD>
8.408

$$$$
2o3x_lig
 OpenBabel11021811463D
libRbt.so/2013.1/901 2013/11/27
 31 33  0  0  0  0  0  0  0  0999 V2000
   18.0410    5.5943   11.2578 C   0  0  2  0  0  0  0  0  0  0  0  0
   17.3164    6.7224   10.7500 O   0  0  0  0  0  0  0  0  0  0  0  0
   18.1525   10.9133   10.9365 C   0  0  2  0  0  0  0  0  0  0  0  0
   18.4724   12.2772   11.4130 N   0  0  0  0  0  0  0  0  0  0  0  0
   21.3350    7.7361   11.6177 C   0  0  1  0  0  0  0  0  0  0  0  0
   17.4986    4.3064   10.5610 C   0  0  2  0  0  0  0  0  0  0  0  0
   17.4044    4.4651    9.0873 N   0  0  0  0  0  0  0  0  0  0  0  0
   16.7531   10.4269   11.4409 C   0  0  0  0  0  0  0  0  0  0  0  0
   22.1470    6.5088   12.1472 C   0  0  2  0  0  0  0  0  0  0  0  0
   22.4780    6.5262   13.5630 O   0  0  0  0  0  0  0  0  0  0  0  0
   16.1041    3.9195   11.0886 C   0  0  1  0  0  0  0  0  0  0  0  0
   15.6587    2.7312   10.4853 O   0  0  0  0  0  0  0  0  0  0  0  0
   16.4938    8.9890   10.8600 C   0  0  2  0  0  0  0  0  0  0  0  0
   15.1629    8.4578   11.2816 N   0  0  0  0  0  0  0  0  0  0  0  0
   23.3199    6.5901   11.1846 C   0  0  2  0  0  0  0  0  0  0  0  0
   24.2752    7.6250   11.6017 O   0  0  0  0  0  0  0  0  0  0  0  0
   16.1526    3.7643   12.5993 C   0  0  2  0  0  0  0  0  0  0  0  0
   14.8995    3.3924   13.0758 O   0  0  0  0  0  0  0  0  0  0  0  0
   17.5941    8.0002   11.3404 C   0  0  2  0  0  0  0  0  0  0  0  0
   22.6876    6.9407    9.8428 C   0  0  2  0  0  0  0  0  0  0  0  0
   21.7238    7.9083   10.2494 O   0  0  0  0  0  0  0  0  0  0  0  0
   16.6022    5.1005   13.2553 C   0  0  2  0  0  0  0  0  0  0  0  0
   17.8961    5.4829   12.7412 O   0  0  0  0  0  0  0  0  0  0  0  0
   19.0213    8.4491   10.9691 C   0  0  2  0  0  0  0  0  0  0  0  0
   19.9147    7.5449   11.7094 O   0  0  0  0  0  0  0  0  0  0  0  0
   21.9926    5.7446    9.1082 C   0  0  0  0  0  0  0  0  0  0  0  0
   21.4342    6.1863    7.8741 N   0  0  0  0  0  0  0  0  0  0  0  0
   16.6888    5.0049   14.7608 C   0  0  0  0  0  0  0  0  0  0  0  0
   17.0275    6.2180   15.3280 O   0  0  0  0  0  0  0  0  0  0  0  0
   19.2594    9.9582   11.4182 C   0  0  1  0  0  0  0  0  0  0  0  0
   20.4930   10.4729   10.8940 O   0  0  0  0  0  0  0  0  0  0  0  0
  1  2  1  6  0  0  0
  1  6  1  0  0  0  0
  1 23  1  0  0  0  0
  3  4  1  1  0  0  0
  3  8  1  0  0  0  0
  3 30  1  0  0  0  0
  5  9  1  0  0  0  0
  5 21  1  0  0  0  0
  5 25  1  6  0  0  0
  6  7  1  6  0  0  0
  6 11  1  0  0  0  0
  8 13  1  0  0  0  0
  9 10  1  1  0  0  0
  9 15  1  0  0  0  0
 11 12  1  6  0  0  0
 11 17  1  0  0  0  0
 13 14  1  1  0  0  0
 13 19  1  0  0  0  0
 15 16  1  1  0  0  0
 15 20  1  0  0  0  0
 17 18  1  1  0  0  0
 17 22  1  0  0  0  0
 19  2  1  6  0  0  0
 19 24  1  0  0  0  0
 20 21  1  0  0  0  0
 20 26  1  1  0  0  0
 22 23  1  0  0  0  0
 22 28  1  1  0  0  0
 24 25  1  1  0  0  0
 24 30  1  0  0  0  0
 26 27  1  0  0  0  0
 28 29  1  0  0  0  0
 30 31  1  6  0  0  0
M  END
>  <CHROM.1>
175.36753026,-165.45723752,-167.91794189,179.74752435,-177.13376322,-177.60016473
18.85208375,6.88167158,11.46332462,-2.59204748,0.21259346,-0.02858486

>  <Name>
2o3x_lig

>  <RI>
2.78316e+07

>  <Rbt.Current_Directory>
/home/itssahil/PROJECTS/Mol_Feturizer/New_Systems/rnas/2o3x

>  <Rbt.Executable>
rbdock ($Id: //depot/dev/client3/rdock/2013.1/src/exe/rbdock.cxx#4 $)

>  <Rbt.Library>
libRbt.so (2013.1, Build901 2013/11/27)

>  <Rbt.Parameter_File>
/export/apps/rDock/src/rDock_2013.1_src/data/scripts/dock_solv.prm

>  <Rbt.Receptor>
prm/pocket_docking_7.prm

>  <SCORE>
-11.6652

>  <SCORE.INTER>
-7.7793

>  <SCORE.INTER.CONST>
1

>  <SCORE.INTER.POLAR>
-1.02945

>  <SCORE.INTER.ROT>
6

>  <SCORE.INTER.SOLV>
6.78286

>  <SCORE.INTER.VDW>
-11.6157

>  <SCORE.INTER.norm>
-0.250945

>  <SCORE.INTRA>
-3.88593

>  <SCORE.INTRA.DIHEDRAL>
-7.34699

>  <SCORE.INTRA.DIHEDRAL.0>
9.37739

>  <SCORE.INTRA.POLAR>
0

>  <SCORE.INTRA.POLAR.0>
0

>  <SCORE.INTRA.REPUL>
0

>  <SCORE.INTRA.REPUL.0>
0

>  <SCORE.INTRA.SOLV>
-2.90757

>  <SCORE.INTRA.SOLV.lig_0>
-82.9274

>  <SCORE.INTRA.VDW>
1.24135

>  <SCORE.INTRA.VDW.0>
-3.84922

>  <SCORE.INTRA.norm>
-0.125353

>  <SCORE.RESTR>
0

>  <SCORE.RESTR.CAVITY>
0

>  <SCORE.RESTR.norm>
0

>  <SCORE.SYSTEM>
0

>  <SCORE.SYSTEM.CONST>
0

>  <SCORE.SYSTEM.DIHEDRAL>
0

>  <SCORE.SYSTEM.SOLV>
0

>  <SCORE.SYSTEM.norm>
0

>  <SCORE.heavy>
31

>  <SCORE.norm>
-0.376298

>  <RMSD>
8.408

$$$$
2o3x_lig
 OpenBabel11021811463D
libRbt.so/2013.1/901 2013/11/27
 31 33  0  0  0  0  0  0  0  0999 V2000
   17.8018   10.9085   10.3132 C   0  0  2  0  0  0  0  0  0  0  0  0
   17.5556   10.2571   11.5664 O   0  0  0  0  0  0  0  0  0  0  0  0
   14.3581    7.7293   12.8643 C   0  0  2  0  0  0  0  0  0  0  0  0
   13.0197    7.1749   13.1657 N   0  0  0  0  0  0  0  0  0  0  0  0
   15.6135    8.3938    8.4339 C   0  0  1  0  0  0  0  0  0  0  0  0
   19.3365   11.1670   10.1857 C   0  0  2  0  0  0  0  0  0  0  0  0
   20.1362    9.9580   10.5088 N   0  0  0  0  0  0  0  0  0  0  0  0
   14.6748    9.0005   13.7205 C   0  0  0  0  0  0  0  0  0  0  0  0
   15.2465    9.1559    7.1184 C   0  0  2  0  0  0  0  0  0  0  0  0
   13.8267    9.2961    6.8376 O   0  0  0  0  0  0  0  0  0  0  0  0
   19.7996   12.3064   11.1132 C   0  0  1  0  0  0  0  0  0  0  0  0
   21.1722   12.5551   10.9444 O   0  0  0  0  0  0  0  0  0  0  0  0
   16.1215    9.4938   13.3516 C   0  0  2  0  0  0  0  0  0  0  0  0
   16.5096   10.6993   14.1437 N   0  0  0  0  0  0  0  0  0  0  0  0
   16.0408    8.3038    6.1427 C   0  0  2  0  0  0  0  0  0  0  0  0
   15.3288    7.0582    5.8276 O   0  0  0  0  0  0  0  0  0  0  0  0
   18.9916   13.5609   10.8267 C   0  0  2  0  0  0  0  0  0  0  0  0
   19.4237   14.5979   11.6473 O   0  0  0  0  0  0  0  0  0  0  0  0
   16.2077    9.8484   11.8397 C   0  0  2  0  0  0  0  0  0  0  0  0
   17.3500    8.0150    6.8676 C   0  0  2  0  0  0  0  0  0  0  0  0
   16.8714    7.7548    8.1843 O   0  0  0  0  0  0  0  0  0  0  0  0
   17.4800   13.2832   11.0624 C   0  0  2  0  0  0  0  0  0  0  0  0
   17.0480   12.1956   10.2166 O   0  0  0  0  0  0  0  0  0  0  0  0
   15.8184    8.6774   10.9158 C   0  0  2  0  0  0  0  0  0  0  0  0
   15.7166    9.2648    9.5710 O   0  0  0  0  0  0  0  0  0  0  0  0
   18.3744    9.1999    6.8771 C   0  0  0  0  0  0  0  0  0  0  0  0
   18.9230    9.3827    5.5750 N   0  0  0  0  0  0  0  0  0  0  0  0
   16.6186   14.4909   10.7749 C   0  0  0  0  0  0  0  0  0  0  0  0
   16.8731   15.5189   11.6618 O   0  0  0  0  0  0  0  0  0  0  0  0
   14.4188    8.0635   11.3629 C   0  0  1  0  0  0  0  0  0  0  0  0
   14.1356    6.8410   10.6655 O   0  0  0  0  0  0  0  0  0  0  0  0
  1  2  1  1  0  0  0
  1  6  1  0  0  0  0
  1 23  1  0  0  0  0
  3  4  1  1  0  0  0
  3  8  1  0  0  0  0
  3 30  1  0  0  0  0
  5  9  1  0  0  0  0
  5 21  1  0  0  0  0
  5 25  1  1  0  0  0
  6  7  1  1  0  0  0
  6 11  1  0  0  0  0
  8 13  1  0  0  0  0
  9 10  1  6  0  0  0
  9 15  1  0  0  0  0
 11 12  1  6  0  0  0
 11 17  1  0  0  0  0
 13 14  1  1  0  0  0
 13 19  1  0  0  0  0
 15 16  1  1  0  0  0
 15 20  1  0  0  0  0
 17 18  1  1  0  0  0
 17 22  1  0  0  0  0
 19  2  1  6  0  0  0
 19 24  1  0  0  0  0
 20 21  1  0  0  0  0
 20 26  1  1  0  0  0
 22 23  1  0  0  0  0
 22 28  1  6  0  0  0
 24 25  1  6  0  0  0
 24 30  1  0  0  0  0
 26 27  1  0  0  0  0
 28 29  1  0  0  0  0
 30 31  1  6  0  0  0
M  END
>  <CHROM.1>
-175.92368669,169.25823135,-166.58957421,-71.30819205,-65.57205436,168.41466429
16.80089136,10.15881394,10.11799793,-0.81796907,-0.81226446,-2.02394734

>  <Name>
2o3x_lig

>  <RI>
0

>  <Rbt.Current_Directory>
/home/itssahil/PROJECTS/Mol_Feturizer/New_Systems/rnas/2o3x

>  <Rbt.Executable>
rbdock ($Id: //depot/dev/client3/rdock/2013.1/src/exe/rbdock.cxx#4 $)

>  <Rbt.Library>
libRbt.so (2013.1, Build901 2013/11/27)

>  <Rbt.Parameter_File>
/export/apps/rDock/src/rDock_2013.1_src/data/scripts/dock_solv.prm

>  <Rbt.Receptor>
prm/pocket_docking_8.prm

>  <SCORE>
-10.9232

>  <SCORE.INTER>
-7.26632

>  <SCORE.INTER.CONST>
1

>  <SCORE.INTER.POLAR>
-0.748331

>  <SCORE.INTER.ROT>
6

>  <SCORE.INTER.SOLV>
12.1477

>  <SCORE.INTER.VDW>
-13.999

>  <SCORE.INTER.norm>
-0.234397

>  <SCORE.INTRA>
-3.65689

>  <SCORE.INTRA.DIHEDRAL>
-6.51294

>  <SCORE.INTRA.DIHEDRAL.0>
9.37739

>  <SCORE.INTRA.POLAR>
0

>  <SCORE.INTRA.POLAR.0>
0

>  <SCORE.INTRA.REPUL>
0

>  <SCORE.INTRA.REPUL.0>
0

>  <SCORE.INTRA.SOLV>
-2.42187

>  <SCORE.INTRA.SOLV.lig_0>
-82.9274

>  <SCORE.INTRA.VDW>
0.810522

>  <SCORE.INTRA.VDW.0>
-3.84922

>  <SCORE.INTRA.norm>
-0.117964

>  <SCORE.RESTR>
0

>  <SCORE.RESTR.CAVITY>
0

>  <SCORE.RESTR.norm>
0

>  <SCORE.SYSTEM>
0

>  <SCORE.SYSTEM.CONST>
0

>  <SCORE.SYSTEM.DIHEDRAL>
0

>  <SCORE.SYSTEM.SOLV>
0

>  <SCORE.SYSTEM.norm>
0

>  <SCORE.heavy>
31

>  <SCORE.norm>
-0.352361

>  <RMSD>
8.408

$$$$
2o3x_lig
 OpenBabel11021811463D
libRbt.so/2013.1/901 2013/11/27
 31 33  0  0  0  0  0  0  0  0999 V2000
   24.1020    7.0025   12.2439 C   0  0  2  0  0  0  0  0  0  0  0  0
   23.3137    7.7431   11.3028 O   0  0  0  0  0  0  0  0  0  0  0  0
   19.9175    5.1650   10.9602 C   0  0  2  0  0  0  0  0  0  0  0  0
   18.7814    4.3764   10.4343 N   0  0  0  0  0  0  0  0  0  0  0  0
   23.4380    5.7917    8.3748 C   0  0  1  0  0  0  0  0  0  0  0  0
   23.4229    7.1082   13.6461 C   0  0  2  0  0  0  0  0  0  0  0  0
   21.9663    6.8247   13.5851 N   0  0  0  0  0  0  0  0  0  0  0  0
   19.6794    6.7055   10.8199 C   0  0  0  0  0  0  0  0  0  0  0  0
   24.0833    7.1953    8.1305 C   0  0  2  0  0  0  0  0  0  0  0  0
   23.2201    8.3425    8.3606 O   0  0  0  0  0  0  0  0  0  0  0  0
   23.6105    8.5067   14.2641 C   0  0  1  0  0  0  0  0  0  0  0  0
   23.0362    8.5629   15.5452 O   0  0  0  0  0  0  0  0  0  0  0  0
   20.9210    7.4525   11.4306 C   0  0  2  0  0  0  0  0  0  0  0  0
   20.7629    8.9358   11.3525 N   0  0  0  0  0  0  0  0  0  0  0  0
   24.5418    6.9793    6.6980 C   0  0  2  0  0  0  0  0  0  0  0  0
   23.4251    7.1339    5.7564 O   0  0  0  0  0  0  0  0  0  0  0  0
   25.0906    8.8441   14.3284 C   0  0  2  0  0  0  0  0  0  0  0  0
   25.2639   10.0973   14.9074 O   0  0  0  0  0  0  0  0  0  0  0  0
   22.2218    7.0548   10.6764 C   0  0  2  0  0  0  0  0  0  0  0  0
   25.0762    5.5520    6.6803 C   0  0  2  0  0  0  0  0  0  0  0  0
   24.0929    4.8917    7.4725 O   0  0  0  0  0  0  0  0  0  0  0  0
   25.7017    8.8235   12.8988 C   0  0  2  0  0  0  0  0  0  0  0  0
   25.5017    7.5233   12.3036 O   0  0  0  0  0  0  0  0  0  0  0  0
   22.4888    5.5366   10.6805 C   0  0  2  0  0  0  0  0  0  0  0  0
   23.5919    5.3366    9.7281 O   0  0  0  0  0  0  0  0  0  0  0  0
   26.5006    5.3729    7.3066 C   0  0  0  0  0  0  0  0  0  0  0  0
   27.3289    6.4800    6.9631 N   0  0  0  0  0  0  0  0  0  0  0  0
   27.1806    9.1336   12.8977 C   0  0  0  0  0  0  0  0  0  0  0  0
   27.4244   10.4464   13.2515 O   0  0  0  0  0  0  0  0  0  0  0  0
   21.1910    4.7467   10.2035 C   0  0  1  0  0  0  0  0  0  0  0  0
   21.3342    3.3325   10.4052 O   0  0  0  0  0  0  0  0  0  0  0  0
  1  2  1  6  0  0  0
  1  6  1  0  0  0  0
  1 23  1  0  0  0  0
  3  4  1  6  0  0  0
  3  8  1  0  0  0  0
  3 30  1  0  0  0  0
  5  9  1  0  0  0  0
  5 21  1  0  0  0  0
  5 25  1  1  0  0  0
  6  7  1  6  0  0  0
  6 11  1  0  0  0  0
  8 13  1  0  0  0  0
  9 10  1  6  0  0  0
  9 15  1  0  0  0  0
 11 12  1  1  0  0  0
 11 17  1  0  0  0  0
 13 14  1  6  0  0  0
 13 19  1  0  0  0  0
 15 16  1  6  0  0  0
 15 20  1  0  0  0  0
 17 18  1  6  0  0  0
 17 22  1  0  0  0  0
 19  2  1  1  0  0  0
 19 24  1  0  0  0  0
 20 21  1  0  0  0  0
 20 26  1  1  0  0  0
 22 23  1  0  0  0  0
 22 28  1  1  0  0  0
 24 25  1  6  0  0  0
 24 30  1  0  0  0  0
 26 27  1  0  0  0  0
 28 29  1  0  0  0  0
 30 31  1  1  0  0  0
M  END
>  <CHROM.1>
-86.55897547,97.12845090,99.19125975,-38.58704709,-68.17588106,-56.87083319
23.52166506,7.02040970,10.76667333,1.35546665,0.41066933,1.17056400

>  <Name>
2o3x_lig

>  <RI>
0

>  <Rbt.Current_Directory>
/home/itssahil/PROJECTS/Mol_Feturizer/New_Systems/rnas/2o3x

>  <Rbt.Executable>
rbdock ($Id: //depot/dev/client3/rdock/2013.1/src/exe/rbdock.cxx#4 $)

>  <Rbt.Library>
libRbt.so (2013.1, Build901 2013/11/27)

>  <Rbt.Parameter_File>
/export/apps/rDock/src/rDock_2013.1_src/data/scripts/dock_solv.prm

>  <Rbt.Receptor>
prm/blind_docking_40.prm

>  <SCORE>
11.0069

>  <SCORE.INTER>
-8.35671

>  <SCORE.INTER.CONST>
1

>  <SCORE.INTER.POLAR>
-0.982165

>  <SCORE.INTER.ROT>
6

>  <SCORE.INTER.SOLV>
23.8873

>  <SCORE.INTER.VDW>
-17.8597

>  <SCORE.INTER.norm>
-0.269571

>  <SCORE.INTRA>
11.043

>  <SCORE.INTRA.DIHEDRAL>
5.52898

>  <SCORE.INTRA.DIHEDRAL.0>
9.37739

>  <SCORE.INTRA.POLAR>
0

>  <SCORE.INTRA.POLAR.0>
0

>  <SCORE.INTRA.REPUL>
0

>  <SCORE.INTRA.REPUL.0>
0

>  <SCORE.INTRA.SOLV>
4.53226

>  <SCORE.INTRA.SOLV.lig_0>
-82.9274

>  <SCORE.INTRA.VDW>
6.01236

>  <SCORE.INTRA.VDW.0>
-3.84922

>  <SCORE.INTRA.norm>
0.356225

>  <SCORE.RESTR>
8.32064

>  <SCORE.RESTR.CAVITY>
8.32064

>  <SCORE.RESTR.norm>
0.268408

>  <SCORE.SYSTEM>
0

>  <SCORE.SYSTEM.CONST>
0

>  <SCORE.SYSTEM.DIHEDRAL>
0

>  <SCORE.SYSTEM.SOLV>
0

>  <SCORE.SYSTEM.norm>
0

>  <SCORE.heavy>
31

>  <SCORE.norm>
0.355062

>  <RMSD>
8.442

$$$$
2o3x_lig
 OpenBabel11021811463D
libRbt.so/2013.1/901 2013/11/27
 31 33  0  0  0  0  0  0  0  0999 V2000
   18.9381    7.9741   13.4498 C   0  0  2  0  0  0  0  0  0  0  0  0
   18.6164    8.9208   12.4222 O   0  0  0  0  0  0  0  0  0  0  0  0
   19.2946   13.1329   12.1124 C   0  0  2  0  0  0  0  0  0  0  0  0
   19.9306   14.4675   12.0506 N   0  0  0  0  0  0  0  0  0  0  0  0
   20.2545   10.1084    8.7683 C   0  0  1  0  0  0  0  0  0  0  0  0
   20.0726    7.0402   12.9214 C   0  0  2  0  0  0  0  0  0  0  0  0
   21.1880    7.8062   12.3091 N   0  0  0  0  0  0  0  0  0  0  0  0
   19.4490   12.4723   13.5228 C   0  0  0  0  0  0  0  0  0  0  0  0
   20.8871    8.9024    7.9993 C   0  0  2  0  0  0  0  0  0  0  0  0
   22.3330    8.9308    7.8475 O   0  0  0  0  0  0  0  0  0  0  0  0
   19.5455    6.0444   11.8711 C   0  0  1  0  0  0  0  0  0  0  0  0
   20.5711    5.1821   11.4480 O   0  0  0  0  0  0  0  0  0  0  0  0
   18.7188   11.0800   13.4961 C   0  0  2  0  0  0  0  0  0  0  0  0
   18.8039   10.3895   14.8179 N   0  0  0  0  0  0  0  0  0  0  0  0
   20.0775    9.0105    6.7180 C   0  0  2  0  0  0  0  0  0  0  0  0
   20.6048   10.0693    5.8471 O   0  0  0  0  0  0  0  0  0  0  0  0
   18.3880    5.2505   12.4531 C   0  0  2  0  0  0  0  0  0  0  0  0
   17.9251    4.3343   11.5140 O   0  0  0  0  0  0  0  0  0  0  0  0
   19.3477   10.1552   12.4152 C   0  0  2  0  0  0  0  0  0  0  0  0
   18.6657    9.3428    7.1866 C   0  0  2  0  0  0  0  0  0  0  0  0
   18.9444   10.2873    8.2165 O   0  0  0  0  0  0  0  0  0  0  0  0
   17.2426    6.2142   12.8737 C   0  0  2  0  0  0  0  0  0  0  0  0
   17.7397    7.1689   13.8362 O   0  0  0  0  0  0  0  0  0  0  0  0
   19.3260   10.7682   11.0010 C   0  0  2  0  0  0  0  0  0  0  0  0
   20.1699    9.8827   10.1840 O   0  0  0  0  0  0  0  0  0  0  0  0
   17.8564    8.1285    7.7559 C   0  0  0  0  0  0  0  0  0  0  0  0
   17.5578    7.2067    6.7114 N   0  0  0  0  0  0  0  0  0  0  0  0
   16.0663    5.4844   13.4795 C   0  0  0  0  0  0  0  0  0  0  0  0
   16.4023    4.8868   14.6787 O   0  0  0  0  0  0  0  0  0  0  0  0
   19.9287   12.2419   11.0291 C   0  0  1  0  0  0  0  0  0  0  0  0
   19.7216   12.9171    9.7791 O   0  0  0  0  0  0  0  0  0  0  0  0
  1  2  1  6  0  0  0
  1  6  1  0  0  0  0
  1 23  1  0  0  0  0
  3  4  1  1  0  0  0
  3  8  1  0  0  0  0
  3 30  1  0  0  0  0
  5  9  1  0  0  0  0
  5 21  1  0  0  0  0
  5 25  1  1  0  0  0
  6  7  1  6  0  0  0
  6 11  1  0  0  0  0
  8 13  1  0  0  0  0
  9 10  1  6  0  0  0
  9 15  1  0  0  0  0
 11 12  1  1  0  0  0
 11 17  1  0  0  0  0
 13 14  1  1  0  0  0
 13 19  1  0  0  0  0
 15 16  1  6  0  0  0
 15 20  1  0  0  0  0
 17 18  1  6  0  0  0
 17 22  1  0  0  0  0
 19  2  1  6  0  0  0
 19 24  1  0  0  0  0
 20 21  1  0  0  0  0
 20 26  1  1  0  0  0
 22 23  1  0  0  0  0
 22 28  1  1  0  0  0
 24 25  1  6  0  0  0
 24 30  1  0  0  0  0
 26 27  1  0  0  0  0
 28 29  1  0  0  0  0
 30 31  1  6  0  0  0
M  END
>  <CHROM.1>
-89.89105238,-165.81733143,-79.60880755,-68.14816513,65.73166800,174.06847571
19.18011774,8.86178133,10.97124256,3.09905624,-1.26787083,-2.34634430

>  <Name>
2o3x_lig

>  <RI>
2.78316e+07

>  <Rbt.Current_Directory>
/home/itssahil/PROJECTS/Mol_Feturizer/New_Systems/rnas/2o3x

>  <Rbt.Executable>
rbdock ($Id: //depot/dev/client3/rdock/2013.1/src/exe/rbdock.cxx#4 $)

>  <Rbt.Library>
libRbt.so (2013.1, Build901 2013/11/27)

>  <Rbt.Parameter_File>
/export/apps/rDock/src/rDock_2013.1_src/data/scripts/dock_solv.prm

>  <Rbt.Receptor>
prm/pocket_docking_7.prm

>  <SCORE>
-11.5417

>  <SCORE.INTER>
-11.8984

>  <SCORE.INTER.CONST>
1

>  <SCORE.INTER.POLAR>
-2.15237

>  <SCORE.INTER.ROT>
6

>  <SCORE.INTER.SOLV>
12.1735

>  <SCORE.INTER.VDW>
-12.4155

>  <SCORE.INTER.norm>
-0.383819

>  <SCORE.INTRA>
0.356659

>  <SCORE.INTRA.DIHEDRAL>
-2.42283

>  <SCORE.INTRA.DIHEDRAL.0>
9.37739

>  <SCORE.INTRA.POLAR>
0

>  <SCORE.INTRA.POLAR.0>
0

>  <SCORE.INTRA.REPUL>
0

>  <SCORE.INTRA.REPUL.0>
0

>  <SCORE.INTRA.SOLV>
0.843673

>  <SCORE.INTRA.SOLV.lig_0>
-82.9274

>  <SCORE.INTRA.VDW>
1.14624

>  <SCORE.INTRA.VDW.0>
-3.84922

>  <SCORE.INTRA.norm>
0.0115051

>  <SCORE.RESTR>
0

>  <SCORE.RESTR.CAVITY>
0

>  <SCORE.RESTR.norm>
0

>  <SCORE.SYSTEM>
0

>  <SCORE.SYSTEM.CONST>
0

>  <SCORE.SYSTEM.DIHEDRAL>
0

>  <SCORE.SYSTEM.SOLV>
0

>  <SCORE.SYSTEM.norm>
0

>  <SCORE.heavy>
31

>  <SCORE.norm>
-0.372314

>  <RMSD>
8.452

$$$$
2o3x_lig
 OpenBabel11021811463D
libRbt.so/2013.1/901 2013/11/27
 31 33  0  0  0  0  0  0  0  0999 V2000
   23.9217    7.9807   11.5424 C   0  0  2  0  0  0  0  0  0  0  0  0
   23.8487    6.5493   11.5765 O   0  0  0  0  0  0  0  0  0  0  0  0
   21.2036    3.4776   10.2105 C   0  0  2  0  0  0  0  0  0  0  0  0
   20.1932    2.7090    9.4504 N   0  0  0  0  0  0  0  0  0  0  0  0
   23.6345    6.1201    7.8185 C   0  0  1  0  0  0  0  0  0  0  0  0
   25.3941    8.4061   11.8415 C   0  0  2  0  0  0  0  0  0  0  0  0
   26.3736    7.6412   11.0283 N   0  0  0  0  0  0  0  0  0  0  0  0
   20.5743    4.7034   10.9527 C   0  0  0  0  0  0  0  0  0  0  0  0
   23.8365    7.6710    7.8230 C   0  0  2  0  0  0  0  0  0  0  0  0
   22.8343    8.4424    8.5404 O   0  0  0  0  0  0  0  0  0  0  0  0
   25.7515    8.2094   13.3270 C   0  0  1  0  0  0  0  0  0  0  0  0
   27.0624    8.6457   13.5826 O   0  0  0  0  0  0  0  0  0  0  0  0
   21.7155    5.4335   11.7510 C   0  0  2  0  0  0  0  0  0  0  0  0
   21.1911    6.6105   12.5065 N   0  0  0  0  0  0  0  0  0  0  0  0
   23.8991    7.8882    6.3204 C   0  0  2  0  0  0  0  0  0  0  0  0
   22.5541    7.8888    5.7299 O   0  0  0  0  0  0  0  0  0  0  0  0
   24.7597    8.9635   14.1968 C   0  0  2  0  0  0  0  0  0  0  0  0
   25.0940    8.8062   15.5381 O   0  0  0  0  0  0  0  0  0  0  0  0
   22.8292    5.9253   10.7830 C   0  0  2  0  0  0  0  0  0  0  0  0
   24.7224    6.7158    5.8001 C   0  0  2  0  0  0  0  0  0  0  0  0
   24.1916    5.6512    6.5845 O   0  0  0  0  0  0  0  0  0  0  0  0
   23.3197    8.4379   13.9366 C   0  0  2  0  0  0  0  0  0  0  0  0
   22.9911    8.5926   12.5392 O   0  0  0  0  0  0  0  0  0  0  0  0
   23.4445    4.7934    9.9365 C   0  0  2  0  0  0  0  0  0  0  0  0
   24.2740    5.4725    8.9292 O   0  0  0  0  0  0  0  0  0  0  0  0
   26.2678    6.8457    6.0199 C   0  0  0  0  0  0  0  0  0  0  0  0
   26.7753    7.9545    5.2832 N   0  0  0  0  0  0  0  0  0  0  0  0
   22.2817    9.1637   14.7608 C   0  0  0  0  0  0  0  0  0  0  0  0
   21.0127    8.9948   14.2421 O   0  0  0  0  0  0  0  0  0  0  0  0
   22.2961    3.9446    9.2318 C   0  0  1  0  0  0  0  0  0  0  0  0
   22.8223    2.7581    8.6183 O   0  0  0  0  0  0  0  0  0  0  0  0
  1  2  1  1  0  0  0
  1  6  1  0  0  0  0
  1 23  1  0  0  0  0
  3  4  1  6  0  0  0
  3  8  1  0  0  0  0
  3 30  1  0  0  0  0
  5  9  1  0  0  0  0
  5 21  1  0  0  0  0
  5 25  1  1  0  0  0
  6  7  1  6  0  0  0
  6 11  1  0  0  0  0
  8 13  1  0  0  0  0
  9 10  1  6  0  0  0
  9 15  1  0  0  0  0
 11 12  1  6  0  0  0
 11 17  1  0  0  0  0
 13 14  1  6  0  0  0
 13 19  1  0  0  0  0
 15 16  1  6  0  0  0
 15 20  1  0  0  0  0
 17 18  1  1  0  0  0
 17 22  1  0  0  0  0
 19  2  1  1  0  0  0
 19 24  1  0  0  0  0
 20 21  1  0  0  0  0
 20 26  1  1  0  0  0
 22 23  1  0  0  0  0
 22 28  1  1  0  0  0
 24 25  1  6  0  0  0
 24 30  1  0  0  0  0
 26 27  1  0  0  0  0
 28 29  1  0  0  0  0
 30 31  1  1  0  0  0
M  END
>  <CHROM.1>
-152.74480717,114.98379039,-105.65579137,-63.92025486,161.40656924,-75.46140908
23.58544516,6.83896299,10.34740410,-1.57410047,-0.72513628,-1.90593295

>  <Name>
2o3x_lig

>  <RI>
0

>  <Rbt.Current_Directory>
/home/itssahil/PROJECTS/Mol_Feturizer/New_Systems/rnas/2o3x

>  <Rbt.Executable>
rbdock ($Id: //depot/dev/client3/rdock/2013.1/src/exe/rbdock.cxx#4 $)

>  <Rbt.Library>
libRbt.so (2013.1, Build901 2013/11/27)

>  <Rbt.Parameter_File>
/export/apps/rDock/src/rDock_2013.1_src/data/scripts/dock_solv.prm

>  <Rbt.Receptor>
prm/blind_docking_60.prm

>  <SCORE>
1.82167

>  <SCORE.INTER>
-7.12004

>  <SCORE.INTER.CONST>
1

>  <SCORE.INTER.POLAR>
-0.379109

>  <SCORE.INTER.ROT>
6

>  <SCORE.INTER.SOLV>
28.0393

>  <SCORE.INTER.VDW>
-20.4294

>  <SCORE.INTER.norm>
-0.229679

>  <SCORE.INTRA>
6.1

>  <SCORE.INTRA.DIHEDRAL>
9.41867

>  <SCORE.INTRA.DIHEDRAL.0>
9.37739

>  <SCORE.INTRA.POLAR>
0

>  <SCORE.INTRA.POLAR.0>
0

>  <SCORE.INTRA.REPUL>
0

>  <SCORE.INTRA.REPUL.0>
0

>  <SCORE.INTRA.SOLV>
2.24289

>  <SCORE.INTRA.SOLV.lig_0>
-82.9274

>  <SCORE.INTRA.VDW>
0.269218

>  <SCORE.INTRA.VDW.0>
-3.84922

>  <SCORE.INTRA.norm>
0.196774

>  <SCORE.RESTR>
2.84171

>  <SCORE.RESTR.CAVITY>
2.84171

>  <SCORE.RESTR.norm>
0.0916682

>  <SCORE.SYSTEM>
0

>  <SCORE.SYSTEM.CONST>
0

>  <SCORE.SYSTEM.DIHEDRAL>
0

>  <SCORE.SYSTEM.SOLV>
0

>  <SCORE.SYSTEM.norm>
0

>  <SCORE.heavy>
31

>  <SCORE.norm>
0.0587635

>  <RMSD>
8.458

$$$$
2o3x_lig
 OpenBabel11021811463D
libRbt.so/2013.1/901 2013/11/27
 31 33  0  0  0  0  0  0  0  0999 V2000
   25.2602    7.6457   13.7516 C   0  0  2  0  0  0  0  0  0  0  0  0
   24.1826    8.2137   12.9955 O   0  0  0  0  0  0  0  0  0  0  0  0
   22.9114    7.7044    8.9430 C   0  0  2  0  0  0  0  0  0  0  0  0
   22.4608    7.1231    7.6590 N   0  0  0  0  0  0  0  0  0  0  0  0
   20.4218    6.3301   12.1471 C   0  0  1  0  0  0  0  0  0  0  0  0
   24.8740    7.6835   15.2642 C   0  0  2  0  0  0  0  0  0  0  0  0
   23.5050    7.1603   15.5053 N   0  0  0  0  0  0  0  0  0  0  0  0
   24.3668    7.2617    9.3107 C   0  0  0  0  0  0  0  0  0  0  0  0
   20.1384    5.1810   13.1695 C   0  0  2  0  0  0  0  0  0  0  0  0
   20.8354    3.9276   12.9293 O   0  0  0  0  0  0  0  0  0  0  0  0
   24.9445    9.1133   15.8328 C   0  0  1  0  0  0  0  0  0  0  0  0
   24.6430    9.1156   17.2052 O   0  0  0  0  0  0  0  0  0  0  0  0
   24.7625    7.9514   10.6672 C   0  0  2  0  0  0  0  0  0  0  0  0
   26.1525    7.5933   11.0807 N   0  0  0  0  0  0  0  0  0  0  0  0
   18.6249    5.1406   13.0398 C   0  0  2  0  0  0  0  0  0  0  0  0
   18.2170    4.4069   11.8344 O   0  0  0  0  0  0  0  0  0  0  0  0
   26.3277    9.6936   15.5902 C   0  0  2  0  0  0  0  0  0  0  0  0
   26.4011   10.9766   16.1233 O   0  0  0  0  0  0  0  0  0  0  0  0
   23.7858    7.5260   11.8004 C   0  0  2  0  0  0  0  0  0  0  0  0
   18.2111    6.6050   12.9529 C   0  0  2  0  0  0  0  0  0  0  0  0
   19.2248    7.1156   12.0915 O   0  0  0  0  0  0  0  0  0  0  0  0
   26.6283    9.7275   14.0650 C   0  0  2  0  0  0  0  0  0  0  0  0
   26.5339    8.3931   13.5214 O   0  0  0  0  0  0  0  0  0  0  0  0
   22.3102    7.8383   11.4824 C   0  0  2  0  0  0  0  0  0  0  0  0
   21.5367    7.1512   12.5280 O   0  0  0  0  0  0  0  0  0  0  0  0
   18.2093    7.3724   14.3183 C   0  0  0  0  0  0  0  0  0  0  0  0
   17.2271    6.8189   15.1894 N   0  0  0  0  0  0  0  0  0  0  0  0
   28.0015   10.2785   13.7585 C   0  0  0  0  0  0  0  0  0  0  0  0
   28.4832    9.8012   12.5552 O   0  0  0  0  0  0  0  0  0  0  0  0
   21.9246    7.2752   10.0436 C   0  0  1  0  0  0  0  0  0  0  0  0
   20.6306    7.7384    9.6286 O   0  0  0  0  0  0  0  0  0  0  0  0
  1  2  1  6  0  0  0
  1  6  1  0  0  0  0
  1 23  1  0  0  0  0
  3  4  1  6  0  0  0
  3  8  1  0  0  0  0
  3 30  1  0  0  0  0
  5  9  1  0  0  0  0
  5 21  1  0  0  0  0
  5 25  1  1  0  0  0
  6  7  1  6  0  0  0
  6 11  1  0  0  0  0
  8 13  1  0  0  0  0
  9 10  1  6  0  0  0
  9 15  1  0  0  0  0
 11 12  1  1  0  0  0
 11 17  1  0  0  0  0
 13 14  1  1  0  0  0
 13 19  1  0  0  0  0
 15 16  1  6  0  0  0
 15 20  1  0  0  0  0
 17 18  1  6  0  0  0
 17 22  1  0  0  0  0
 19  2  1  1  0  0  0
 19 24  1  0  0  0  0
 20 21  1  0  0  0  0
 20 26  1  1  0  0  0
 22 23  1  0  0  0  0
 22 28  1  1  0  0  0
 24 25  1  1  0  0  0
 24 30  1  0  0  0  0
 26 27  1  0  0  0  0
 28 29  1  0  0  0  0
 30 31  1  6  0  0  0
M  END
>  <CHROM.1>
-135.87572287,152.54254263,-82.03387426,-64.58132966,154.23240317,-131.13034327
22.96496422,7.61448900,12.82225588,0.30059882,0.38563304,1.41450661

>  <Name>
2o3x_lig

>  <RI>
0

>  <Rbt.Current_Directory>
/home/itssahil/PROJECTS/Mol_Feturizer/New_Systems/rnas/2o3x

>  <Rbt.Executable>
rbdock ($Id: //depot/dev/client3/rdock/2013.1/src/exe/rbdock.cxx#4 $)

>  <Rbt.Library>
libRbt.so (2013.1, Build901 2013/11/27)

>  <Rbt.Parameter_File>
/export/apps/rDock/src/rDock_2013.1_src/data/scripts/dock_solv.prm

>  <Rbt.Receptor>
prm/blind_docking_80.prm

>  <SCORE>
26.8477

>  <SCORE.INTER>
2.63276

>  <SCORE.INTER.CONST>
1

>  <SCORE.INTER.POLAR>
-0.874078

>  <SCORE.INTER.ROT>
6

>  <SCORE.INTER.SOLV>
32.5683

>  <SCORE.INTER.VDW>
-13.7873

>  <SCORE.INTER.norm>
0.0849276

>  <SCORE.INTRA>
8.77431

>  <SCORE.INTRA.DIHEDRAL>
10.778

>  <SCORE.INTRA.DIHEDRAL.0>
9.37739

>  <SCORE.INTRA.POLAR>
0

>  <SCORE.INTRA.POLAR.0>
0

>  <SCORE.INTRA.REPUL>
0

>  <SCORE.INTRA.REPUL.0>
0

>  <SCORE.INTRA.SOLV>
0.958503

>  <SCORE.INTRA.SOLV.lig_0>
-82.9274

>  <SCORE.INTRA.VDW>
2.90605

>  <SCORE.INTRA.VDW.0>
-3.84922

>  <SCORE.INTRA.norm>
0.283042

>  <SCORE.RESTR>
15.4406

>  <SCORE.RESTR.CAVITY>
15.4406

>  <SCORE.RESTR.norm>
0.498085

>  <SCORE.SYSTEM>
0

>  <SCORE.SYSTEM.CONST>
0

>  <SCORE.SYSTEM.DIHEDRAL>
0

>  <SCORE.SYSTEM.SOLV>
0

>  <SCORE.SYSTEM.norm>
0

>  <SCORE.heavy>
31

>  <SCORE.norm>
0.866055

>  <RMSD>
8.491

$$$$
2o3x_lig
 OpenBabel11021811463D
libRbt.so/2013.1/901 2013/11/27
 31 33  0  0  0  0  0  0  0  0999 V2000
   24.2832    7.0834   12.4931 C   0  0  2  0  0  0  0  0  0  0  0  0
   23.5376    7.7291   11.4526 O   0  0  0  0  0  0  0  0  0  0  0  0
   21.2407    4.2997   10.3296 C   0  0  2  0  0  0  0  0  0  0  0  0
   20.3932    3.3394    9.5886 N   0  0  0  0  0  0  0  0  0  0  0  0
   24.0683    6.2275    7.7919 C   0  0  1  0  0  0  0  0  0  0  0  0
   23.5060    7.2569   13.8364 C   0  0  2  0  0  0  0  0  0  0  0  0
   22.0672    6.9151   13.6984 N   0  0  0  0  0  0  0  0  0  0  0  0
   20.4640    5.6074   10.6982 C   0  0  0  0  0  0  0  0  0  0  0  0
   24.0899    7.6772    7.2053 C   0  0  2  0  0  0  0  0  0  0  0  0
   22.8465    8.4243    7.3062 O   0  0  0  0  0  0  0  0  0  0  0  0
   23.6041    8.6996   14.3671 C   0  0  1  0  0  0  0  0  0  0  0  0
   22.9413    8.8195   15.6002 O   0  0  0  0  0  0  0  0  0  0  0  0
   21.4349    6.5451   11.5047 C   0  0  2  0  0  0  0  0  0  0  0  0
   20.7604    7.8138   11.9129 N   0  0  0  0  0  0  0  0  0  0  0  0
   24.5544    7.3377    5.7989 C   0  0  2  0  0  0  0  0  0  0  0  0
   23.4422    6.8349    4.9817 O   0  0  0  0  0  0  0  0  0  0  0  0
   25.0643    9.0962   14.5062 C   0  0  2  0  0  0  0  0  0  0  0  0
   25.1557   10.3909   15.0073 O   0  0  0  0  0  0  0  0  0  0  0  0
   22.6830    6.9034   10.6487 C   0  0  2  0  0  0  0  0  0  0  0  0
   25.6150    6.2612    5.9977 C   0  0  2  0  0  0  0  0  0  0  0  0
   25.0022    5.4704    7.0123 O   0  0  0  0  0  0  0  0  0  0  0  0
   25.7728    9.0031   13.1253 C   0  0  2  0  0  0  0  0  0  0  0  0
   25.6575    7.6594   12.6096 O   0  0  0  0  0  0  0  0  0  0  0  0
   23.4612    5.6664   10.1581 C   0  0  2  0  0  0  0  0  0  0  0  0
   24.4311    6.1838    9.1806 O   0  0  0  0  0  0  0  0  0  0  0  0
   27.0096    6.7894    6.4768 C   0  0  0  0  0  0  0  0  0  0  0  0
   27.7007    7.4004    5.3911 N   0  0  0  0  0  0  0  0  0  0  0  0
   27.2372    9.3681   13.2010 C   0  0  0  0  0  0  0  0  0  0  0  0
   27.9198    8.9664   12.0694 O   0  0  0  0  0  0  0  0  0  0  0  0
   22.4704    4.6304    9.4647 C   0  0  1  0  0  0  0  0  0  0  0  0
   23.1230    3.3801    9.1960 O   0  0  0  0  0  0  0  0  0  0  0  0
  1  2  1  6  0  0  0
  1  6  1  0  0  0  0
  1 23  1  0  0  0  0
  3  4  1  6  0  0  0
  3  8  1  0  0  0  0
  3 30  1  0  0  0  0
  5  9  1  0  0  0  0
  5 21  1  0  0  0  0
  5 25  1  1  0  0  0
  6  7  1  6  0  0  0
  6 11  1  0  0  0  0
  8 13  1  0  0  0  0
  9 10  1  6  0  0  0
  9 15  1  0  0  0  0
 11 12  1  1  0  0  0
 11 17  1  0  0  0  0
 13 14  1  6  0  0  0
 13 19  1  0  0  0  0
 15 16  1  6  0  0  0
 15 20  1  0  0  0  0
 17 18  1  6  0  0  0
 17 22  1  0  0  0  0
 19  2  1  1  0  0  0
 19 24  1  0  0  0  0
 20 21  1  0  0  0  0
 20 26  1  1  0  0  0
 22 23  1  0  0  0  0
 22 28  1  1  0  0  0
 24 25  1  6  0  0  0
 24 30  1  0  0  0  0
 26 27  1  0  0  0  0
 28 29  1  0  0  0  0
 30 31  1  1  0  0  0
M  END
>  <CHROM.1>
-97.16729025,119.43447481,74.67774033,-75.76762100,164.90376924,-91.92301473
23.94946454,7.04525567,10.40489459,1.58966426,0.54072917,1.24665485

>  <Name>
2o3x_lig

>  <RI>
0

>  <Rbt.Current_Directory>
/home/itssahil/PROJECTS/Mol_Feturizer/New_Systems/rnas/2o3x

>  <Rbt.Executable>
rbdock ($Id: //depot/dev/client3/rdock/2013.1/src/exe/rbdock.cxx#4 $)

>  <Rbt.Library>
libRbt.so (2013.1, Build901 2013/11/27)

>  <Rbt.Parameter_File>
/export/apps/rDock/src/rDock_2013.1_src/data/scripts/dock_solv.prm

>  <Rbt.Receptor>
prm/blind_docking_60.prm

>  <SCORE>
19.321

>  <SCORE.INTER>
-1.39962

>  <SCORE.INTER.CONST>
1

>  <SCORE.INTER.POLAR>
-0.374905

>  <SCORE.INTER.ROT>
6

>  <SCORE.INTER.SOLV>
23.6586

>  <SCORE.INTER.VDW>
-15.1696

>  <SCORE.INTER.norm>
-0.045149

>  <SCORE.INTRA>
16.7755

>  <SCORE.INTRA.DIHEDRAL>
9.47291

>  <SCORE.INTRA.DIHEDRAL.0>
9.37739

>  <SCORE.INTRA.POLAR>
0

>  <SCORE.INTRA.POLAR.0>
0

>  <SCORE.INTRA.REPUL>
0

>  <SCORE.INTRA.REPUL.0>
0

>  <SCORE.INTRA.SOLV>
3.15868

>  <SCORE.INTRA.SOLV.lig_0>
-82.9274

>  <SCORE.INTRA.VDW>
10.4597

>  <SCORE.INTRA.VDW.0>
-3.84922

>  <SCORE.INTRA.norm>
0.541145

>  <SCORE.RESTR>
3.94514

>  <SCORE.RESTR.CAVITY>
3.94514

>  <SCORE.RESTR.norm>
0.127263

>  <SCORE.SYSTEM>
0

>  <SCORE.SYSTEM.CONST>
0

>  <SCORE.SYSTEM.DIHEDRAL>
0

>  <SCORE.SYSTEM.SOLV>
0

>  <SCORE.SYSTEM.norm>
0

>  <SCORE.heavy>
31

>  <SCORE.norm>
0.623259

>  <RMSD>
8.536

$$$$
2o3x_lig
 OpenBabel11021811463D
libRbt.so/2013.1/901 2013/11/27
 31 33  0  0  0  0  0  0  0  0999 V2000
   24.9985    7.6485   12.7681 C   0  0  2  0  0  0  0  0  0  0  0  0
   23.9793    8.3768   12.0707 O   0  0  0  0  0  0  0  0  0  0  0  0
   21.3375    5.0856   11.3728 C   0  0  2  0  0  0  0  0  0  0  0  0
   20.3123    4.1849   10.8009 N   0  0  0  0  0  0  0  0  0  0  0  0
   23.6576    7.6228    8.6221 C   0  0  1  0  0  0  0  0  0  0  0  0
   24.6322    7.6197   14.2858 C   0  0  2  0  0  0  0  0  0  0  0  0
   23.2183    7.2255   14.5126 N   0  0  0  0  0  0  0  0  0  0  0  0
   20.7159    6.4163   11.9135 C   0  0  0  0  0  0  0  0  0  0  0  0
   24.1137    7.2373    7.1766 C   0  0  2  0  0  0  0  0  0  0  0  0
   25.2519    7.9730    6.6497 O   0  0  0  0  0  0  0  0  0  0  0  0
   24.8569    8.9910   14.9504 C   0  0  1  0  0  0  0  0  0  0  0  0
   24.5698    8.9281   16.3244 O   0  0  0  0  0  0  0  0  0  0  0  0
   21.8739    7.2871   12.5244 C   0  0  2  0  0  0  0  0  0  0  0  0
   21.3584    8.5732   13.0825 N   0  0  0  0  0  0  0  0  0  0  0  0
   22.7891    7.4534    6.4639 C   0  0  2  0  0  0  0  0  0  0  0  0
   22.5575    8.8797    6.1998 O   0  0  0  0  0  0  0  0  0  0  0  0
   26.2908    9.4405   14.7257 C   0  0  2  0  0  0  0  0  0  0  0  0
   26.5027   10.6684   15.3448 O   0  0  0  0  0  0  0  0  0  0  0  0
   22.9413    7.6125   11.4409 C   0  0  2  0  0  0  0  0  0  0  0  0
   21.7444    6.9005    7.4262 C   0  0  2  0  0  0  0  0  0  0  0  0
   22.2450    7.3872    8.6683 O   0  0  0  0  0  0  0  0  0  0  0  0
   26.5794    9.5502   13.2018 C   0  0  2  0  0  0  0  0  0  0  0  0
   26.3412    8.2743   12.5692 O   0  0  0  0  0  0  0  0  0  0  0  0
   23.5433    6.3557   10.7817 C   0  0  2  0  0  0  0  0  0  0  0  0
   24.3219    6.8557    9.6381 O   0  0  0  0  0  0  0  0  0  0  0  0
   21.6312    5.3385    7.4509 C   0  0  0  0  0  0  0  0  0  0  0  0
   22.9304    4.7539    7.4651 N   0  0  0  0  0  0  0  0  0  0  0  0
   27.9999    9.9762   12.9116 C   0  0  0  0  0  0  0  0  0  0  0  0
   28.2740   11.2228   13.4395 O   0  0  0  0  0  0  0  0  0  0  0  0
   22.3837    5.3844   10.2839 C   0  0  1  0  0  0  0  0  0  0  0  0
   22.9066    4.1140    9.8671 O   0  0  0  0  0  0  0  0  0  0  0  0
  1  2  1  6  0  0  0
  1  6  1  0  0  0  0
  1 23  1  0  0  0  0
  3  4  1  6  0  0  0
  3  8  1  0  0  0  0
  3 30  1  0  0  0  0
  5  9  1  0  0  0  0
  5 21  1  0  0  0  0
  5 25  1  1  0  0  0
  6  7  1  6  0  0  0
  6 11  1  0  0  0  0
  8 13  1  0  0  0  0
  9 10  1  6  0  0  0
  9 15  1  0  0  0  0
 11 12  1  1  0  0  0
 11 17  1  0  0  0  0
 13 14  1  6  0  0  0
 13 19  1  0  0  0  0
 15 16  1  1  0  0  0
 15 20  1  0  0  0  0
 17 18  1  1  0  0  0
 17 22  1  0  0  0  0
 19  2  1  1  0  0  0
 19 24  1  0  0  0  0
 20 21  1  0  0  0  0
 20 26  1  1  0  0  0
 22 23  1  0  0  0  0
 22 28  1  1  0  0  0
 24 25  1  6  0  0  0
 24 30  1  0  0  0  0
 26 27  1  0  0  0  0
 28 29  1  0  0  0  0
 30 31  1  1  0  0  0
M  END
>  <CHROM.1>
-97.00175020,-138.21710535,83.53602634,43.81498756,-61.13862012,-58.44554183
23.81378545,7.56319028,11.12400945,0.96460359,0.66418309,1.51097006

>  <Name>
2o3x_lig

>  <RI>
0

>  <Rbt.Current_Directory>
/home/itssahil/PROJECTS/Mol_Feturizer/New_Systems/rnas/2o3x

>  <Rbt.Executable>
rbdock ($Id: //depot/dev/client3/rdock/2013.1/src/exe/rbdock.cxx#4 $)

>  <Rbt.Library>
libRbt.so (2013.1, Build901 2013/11/27)

>  <Rbt.Parameter_File>
/export/apps/rDock/src/rDock_2013.1_src/data/scripts/dock_solv.prm

>  <Rbt.Receptor>
prm/blind_docking_40.prm

>  <SCORE>
6.95032

>  <SCORE.INTER>
-12.6485

>  <SCORE.INTER.CONST>
1

>  <SCORE.INTER.POLAR>
0

>  <SCORE.INTER.ROT>
6

>  <SCORE.INTER.SOLV>
21.106

>  <SCORE.INTER.VDW>
-23.0677

>  <SCORE.INTER.norm>
-0.408017

>  <SCORE.INTRA>
17.2688

>  <SCORE.INTRA.DIHEDRAL>
4.63315

>  <SCORE.INTRA.DIHEDRAL.0>
9.37739

>  <SCORE.INTRA.POLAR>
0

>  <SCORE.INTRA.POLAR.0>
0

>  <SCORE.INTRA.REPUL>
0

>  <SCORE.INTRA.REPUL.0>
0

>  <SCORE.INTRA.SOLV>
10.323

>  <SCORE.INTRA.SOLV.lig_0>
-82.9274

>  <SCORE.INTRA.VDW>
9.7907

>  <SCORE.INTRA.VDW.0>
-3.84922

>  <SCORE.INTRA.norm>
0.557058

>  <SCORE.RESTR>
2.33006

>  <SCORE.RESTR.CAVITY>
2.33006

>  <SCORE.RESTR.norm>
0.0751631

>  <SCORE.SYSTEM>
0

>  <SCORE.SYSTEM.CONST>
0

>  <SCORE.SYSTEM.DIHEDRAL>
0

>  <SCORE.SYSTEM.SOLV>
0

>  <SCORE.SYSTEM.norm>
0

>  <SCORE.heavy>
31

>  <SCORE.norm>
0.224204

>  <RMSD>
8.538

$$$$
2o3x_lig
 OpenBabel11021811463D
libRbt.so/2013.1/901 2013/11/27
 31 33  0  0  0  0  0  0  0  0999 V2000
   23.3240    7.6726   11.9390 C   0  0  2  0  0  0  0  0  0  0  0  0
   23.4239    6.2490   11.8014 O   0  0  0  0  0  0  0  0  0  0  0  0
   21.2363    3.0936    9.9156 C   0  0  2  0  0  0  0  0  0  0  0  0
   20.3716    2.3151    9.0015 N   0  0  0  0  0  0  0  0  0  0  0  0
   23.5535    6.0933    7.9177 C   0  0  1  0  0  0  0  0  0  0  0  0
   24.6477    8.3124   11.4128 C   0  0  2  0  0  0  0  0  0  0  0  0
   25.0440    7.7689   10.0887 N   0  0  0  0  0  0  0  0  0  0  0  0
   20.4256    4.1561   10.7300 C   0  0  0  0  0  0  0  0  0  0  0  0
   23.7908    7.6347    7.8007 C   0  0  2  0  0  0  0  0  0  0  0  0
   22.7854    8.4834    8.4198 O   0  0  0  0  0  0  0  0  0  0  0  0
   25.8162    8.0849   12.3903 C   0  0  1  0  0  0  0  0  0  0  0  0
   26.9830    8.7119   11.9214 O   0  0  0  0  0  0  0  0  0  0  0  0
   21.4216    4.9058   11.6882 C   0  0  2  0  0  0  0  0  0  0  0  0
   20.7194    5.9294   12.5190 N   0  0  0  0  0  0  0  0  0  0  0  0
   23.9034    7.7249    6.2880 C   0  0  2  0  0  0  0  0  0  0  0  0
   22.5771    7.7037    5.6569 O   0  0  0  0  0  0  0  0  0  0  0  0
   25.4439    8.6123   13.7658 C   0  0  2  0  0  0  0  0  0  0  0  0
   26.5065    8.4287   14.6449 O   0  0  0  0  0  0  0  0  0  0  0  0
   22.5363    5.6162   10.8685 C   0  0  2  0  0  0  0  0  0  0  0  0
   24.7149    6.4968    5.8927 C   0  0  2  0  0  0  0  0  0  0  0  0
   24.1365    5.5121    6.7450 O   0  0  0  0  0  0  0  0  0  0  0  0
   24.1787    7.8766   14.2910 C   0  0  2  0  0  0  0  0  0  0  0  0
   23.0884    8.0620   13.3627 O   0  0  0  0  0  0  0  0  0  0  0  0
   23.3297    4.6568    9.9595 C   0  0  2  0  0  0  0  0  0  0  0  0
   24.1443    5.5275    9.0979 O   0  0  0  0  0  0  0  0  0  0  0  0
   26.2556    6.6130    6.1500 C   0  0  0  0  0  0  0  0  0  0  0  0
   26.9408    6.8424    4.9222 N   0  0  0  0  0  0  0  0  0  0  0  0
   23.7452    8.3714   15.6513 C   0  0  0  0  0  0  0  0  0  0  0  0
   24.4488    7.7510   16.6652 O   0  0  0  0  0  0  0  0  0  0  0  0
   22.3334    3.7786    9.0809 C   0  0  1  0  0  0  0  0  0  0  0  0
   23.0290    2.7297    8.3901 O   0  0  0  0  0  0  0  0  0  0  0  0
  1  2  1  1  0  0  0
  1  6  1  0  0  0  0
  1 23  1  0  0  0  0
  3  4  1  6  0  0  0
  3  8  1  0  0  0  0
  3 30  1  0  0  0  0
  5  9  1  0  0  0  0
  5 21  1  0  0  0  0
  5 25  1  1  0  0  0
  6  7  1  6  0  0  0
  6 11  1  0  0  0  0
  8 13  1  0  0  0  0
  9 10  1  6  0  0  0
  9 15  1  0  0  0  0
 11 12  1  6  0  0  0
 11 17  1  0  0  0  0
 13 14  1  6  0  0  0
 13 19  1  0  0  0  0
 15 16  1  6  0  0  0
 15 20  1  0  0  0  0
 17 18  1  1  0  0  0
 17 22  1  0  0  0  0
 19  2  1  1  0  0  0
 19 24  1  0  0  0  0
 20 21  1  0  0  0  0
 20 26  1  1  0  0  0
 22 23  1  0  0  0  0
 22 28  1  1  0  0  0
 24 25  1  6  0  0  0
 24 30  1  0  0  0  0
 26 27  1  0  0  0  0
 28 29  1  0  0  0  0
 30 31  1  1  0  0  0
M  END
>  <CHROM.1>
-113.89428479,130.46209454,-104.67809005,-103.93925465,-83.67320403,-83.19475382
23.72709835,6.52663107,10.30883855,-1.42533685,-0.76346429,-1.76593715

>  <Name>
2o3x_lig

>  <RI>
0

>  <Rbt.Current_Directory>
/home/itssahil/PROJECTS/Mol_Feturizer/New_Systems/rnas/2o3x

>  <Rbt.Executable>
rbdock ($Id: //depot/dev/client3/rdock/2013.1/src/exe/rbdock.cxx#4 $)

>  <Rbt.Library>
libRbt.so (2013.1, Build901 2013/11/27)

>  <Rbt.Parameter_File>
/export/apps/rDock/src/rDock_2013.1_src/data/scripts/dock_solv.prm

>  <Rbt.Receptor>
prm/blind_docking_60.prm

>  <SCORE>
9.48113

>  <SCORE.INTER>
-6.52401

>  <SCORE.INTER.CONST>
1

>  <SCORE.INTER.POLAR>
-1.1266

>  <SCORE.INTER.ROT>
6

>  <SCORE.INTER.SOLV>
23.9857

>  <SCORE.INTER.VDW>
-16.1892

>  <SCORE.INTER.norm>
-0.210452

>  <SCORE.INTRA>
12.7008

>  <SCORE.INTRA.DIHEDRAL>
18.8444

>  <SCORE.INTRA.DIHEDRAL.0>
9.37739

>  <SCORE.INTRA.POLAR>
0

>  <SCORE.INTRA.POLAR.0>
0

>  <SCORE.INTRA.REPUL>
0.0275855

>  <SCORE.INTRA.REPUL.0>
0

>  <SCORE.INTRA.SOLV>
3.19653

>  <SCORE.INTRA.SOLV.lig_0>
-82.9274

>  <SCORE.INTRA.VDW>
1.54236

>  <SCORE.INTRA.VDW.0>
-3.84922

>  <SCORE.INTRA.norm>
0.409702

>  <SCORE.RESTR>
3.30437

>  <SCORE.RESTR.CAVITY>
3.30437

>  <SCORE.RESTR.norm>
0.106592

>  <SCORE.SYSTEM>
0

>  <SCORE.SYSTEM.CONST>
0

>  <SCORE.SYSTEM.DIHEDRAL>
0

>  <SCORE.SYSTEM.SOLV>
0

>  <SCORE.SYSTEM.norm>
0

>  <SCORE.heavy>
31

>  <SCORE.norm>
0.305843

>  <RMSD>
8.571

$$$$
2o3x_lig
 OpenBabel11021811463D
libRbt.so/2013.1/901 2013/11/27
 31 33  0  0  0  0  0  0  0  0999 V2000
   18.0480    6.4635   13.5330 C   0  0  2  0  0  0  0  0  0  0  0  0
   16.9003    6.7586   12.7259 O   0  0  0  0  0  0  0  0  0  0  0  0
   16.4053    2.7775   11.2413 C   0  0  2  0  0  0  0  0  0  0  0  0
   15.8997    1.5767   10.5399 N   0  0  0  0  0  0  0  0  0  0  0  0
   15.8013    6.6418    9.2816 C   0  0  1  0  0  0  0  0  0  0  0  0
   18.5391    7.7900   14.1945 C   0  0  2  0  0  0  0  0  0  0  0  0
   17.4262    8.5483   14.8207 N   0  0  0  0  0  0  0  0  0  0  0  0
   15.4199    3.2674   12.3541 C   0  0  0  0  0  0  0  0  0  0  0  0
   15.7885    8.0103    8.5245 C   0  0  2  0  0  0  0  0  0  0  0  0
   15.4237    9.1738    9.3167 O   0  0  0  0  0  0  0  0  0  0  0  0
   19.2286    8.7131   13.1722 C   0  0  1  0  0  0  0  0  0  0  0  0
   19.7067    9.8762   13.7991 O   0  0  0  0  0  0  0  0  0  0  0  0
   16.0566    4.5215   13.0572 C   0  0  2  0  0  0  0  0  0  0  0  0
   15.1821    5.0413   14.1508 N   0  0  0  0  0  0  0  0  0  0  0  0
   14.8296    7.6338    7.4075 C   0  0  2  0  0  0  0  0  0  0  0  0
   13.4361    7.6767    7.8701 O   0  0  0  0  0  0  0  0  0  0  0  0
   20.3656    7.9677   12.4938 C   0  0  2  0  0  0  0  0  0  0  0  0
   21.0046    8.8068   11.5864 O   0  0  0  0  0  0  0  0  0  0  0  0
   16.2903    5.6637   12.0276 C   0  0  2  0  0  0  0  0  0  0  0  0
   15.2325    6.2153    7.0218 C   0  0  2  0  0  0  0  0  0  0  0  0
   15.4624    5.6467    8.3080 O   0  0  0  0  0  0  0  0  0  0  0  0
   19.8146    6.7091   11.7658 C   0  0  2  0  0  0  0  0  0  0  0  0
   19.1409    5.8547   12.7151 O   0  0  0  0  0  0  0  0  0  0  0  0
   17.1773    5.2413   10.8397 C   0  0  2  0  0  0  0  0  0  0  0  0
   17.0762    6.3444    9.8718 O   0  0  0  0  0  0  0  0  0  0  0  0
   16.5196    6.1129    6.1352 C   0  0  0  0  0  0  0  0  0  0  0  0
   16.3129    6.7805    4.8936 N   0  0  0  0  0  0  0  0  0  0  0  0
   20.9030    5.9120   11.0852 C   0  0  0  0  0  0  0  0  0  0  0  0
   21.8419    5.4580   11.9909 O   0  0  0  0  0  0  0  0  0  0  0  0
   16.6352    3.8876   10.2000 C   0  0  1  0  0  0  0  0  0  0  0  0
   17.5592    3.3547    9.2391 O   0  0  0  0  0  0  0  0  0  0  0  0
  1  2  1  6  0  0  0
  1  6  1  0  0  0  0
  1 23  1  0  0  0  0
  3  4  1  6  0  0  0
  3  8  1  0  0  0  0
  3 30  1  0  0  0  0
  5  9  1  0  0  0  0
  5 21  1  0  0  0  0
  5 25  1  6  0  0  0
  6  7  1  6  0  0  0
  6 11  1  0  0  0  0
  8 13  1  0  0  0  0
  9 10  1  1  0  0  0
  9 15  1  0  0  0  0
 11 12  1  1  0  0  0
 11 17  1  0  0  0  0
 13 14  1  1  0  0  0
 13 19  1  0  0  0  0
 15 16  1  1  0  0  0
 15 20  1  0  0  0  0
 17 18  1  6  0  0  0
 17 22  1  0  0  0  0
 19  2  1  1  0  0  0
 19 24  1  0  0  0  0
 20 21  1  0  0  0  0
 20 26  1  6  0  0  0
 22 23  1  0  0  0  0
 22 28  1  1  0  0  0
 24 25  1  6  0  0  0
 24 30  1  0  0  0  0
 26 27  1  0  0  0  0
 28 29  1  0  0  0  0
 30 31  1  6  0  0  0
M  END
>  <CHROM.1>
-179.88888770,167.63623307,50.29175342,-62.09931289,60.54959489,-63.32590245
17.29736513,6.29887902,10.83263484,0.38938926,0.89884970,2.41808619

>  <Name>
2o3x_lig

>  <RI>
2.78316e+07

>  <Rbt.Current_Directory>
/home/itssahil/PROJECTS/Mol_Feturizer/New_Systems/rnas/2o3x

>  <Rbt.Executable>
rbdock ($Id: //depot/dev/client3/rdock/2013.1/src/exe/rbdock.cxx#4 $)

>  <Rbt.Library>
libRbt.so (2013.1, Build901 2013/11/27)

>  <Rbt.Parameter_File>
/export/apps/rDock/src/rDock_2013.1_src/data/scripts/dock_solv.prm

>  <Rbt.Receptor>
prm/pocket_docking_7.prm

>  <SCORE>
-8.61211

>  <SCORE.INTER>
-6.07053

>  <SCORE.INTER.CONST>
1

>  <SCORE.INTER.POLAR>
-0.748331

>  <SCORE.INTER.ROT>
6

>  <SCORE.INTER.SOLV>
7.0485

>  <SCORE.INTER.VDW>
-11.5021

>  <SCORE.INTER.norm>
-0.195823

>  <SCORE.INTRA>
-2.54158

>  <SCORE.INTRA.DIHEDRAL>
-7.94031

>  <SCORE.INTRA.DIHEDRAL.0>
9.37739

>  <SCORE.INTRA.POLAR>
0

>  <SCORE.INTRA.POLAR.0>
0

>  <SCORE.INTRA.REPUL>
0

>  <SCORE.INTRA.REPUL.0>
0

>  <SCORE.INTRA.SOLV>
-1.49103

>  <SCORE.INTRA.SOLV.lig_0>
-82.9274

>  <SCORE.INTRA.VDW>
2.17409

>  <SCORE.INTRA.VDW.0>
-3.84922

>  <SCORE.INTRA.norm>
-0.0819865

>  <SCORE.RESTR>
0

>  <SCORE.RESTR.CAVITY>
0

>  <SCORE.RESTR.norm>
0

>  <SCORE.SYSTEM>
0

>  <SCORE.SYSTEM.CONST>
0

>  <SCORE.SYSTEM.DIHEDRAL>
0

>  <SCORE.SYSTEM.SOLV>
0

>  <SCORE.SYSTEM.norm>
0

>  <SCORE.heavy>
31

>  <SCORE.norm>
-0.27781

>  <RMSD>
8.585

$$$$
2o3x_lig
 OpenBabel11021811463D
libRbt.so/2013.1/901 2013/11/27
 31 33  0  0  0  0  0  0  0  0999 V2000
   24.5534    7.5706   12.6653 C   0  0  2  0  0  0  0  0  0  0  0  0
   23.4585    8.3887   12.2323 O   0  0  0  0  0  0  0  0  0  0  0  0
   20.0382    5.8270   12.4261 C   0  0  2  0  0  0  0  0  0  0  0  0
   18.8245    5.0515   12.0871 N   0  0  0  0  0  0  0  0  0  0  0  0
   23.0291    6.3955    9.2723 C   0  0  1  0  0  0  0  0  0  0  0  0
   24.2385    7.0465   14.1021 C   0  0  2  0  0  0  0  0  0  0  0  0
   22.8680    6.4834   14.2043 N   0  0  0  0  0  0  0  0  0  0  0  0
   19.7889    7.3705   12.3560 C   0  0  0  0  0  0  0  0  0  0  0  0
   24.0072    5.9029    8.1557 C   0  0  2  0  0  0  0  0  0  0  0  0
   25.0913    6.8091    7.8125 O   0  0  0  0  0  0  0  0  0  0  0  0
   24.3752    8.1615   15.1561 C   0  0  1  0  0  0  0  0  0  0  0  0
   24.1373    7.6559   16.4453 O   0  0  0  0  0  0  0  0  0  0  0  0
   21.1206    8.1024   12.7600 C   0  0  2  0  0  0  0  0  0  0  0  0
   20.9604    9.5873   12.7366 N   0  0  0  0  0  0  0  0  0  0  0  0
   22.9816    5.6429    7.0651 C   0  0  2  0  0  0  0  0  0  0  0  0
   22.5808    6.8936    6.4072 O   0  0  0  0  0  0  0  0  0  0  0  0
   25.7614    8.7781   15.0729 C   0  0  2  0  0  0  0  0  0  0  0  0
   25.8951    9.7700   16.0393 O   0  0  0  0  0  0  0  0  0  0  0  0
   22.2719    7.7153   11.7885 C   0  0  2  0  0  0  0  0  0  0  0  0
   21.8030    5.0084    7.7941 C   0  0  2  0  0  0  0  0  0  0  0  0
   21.7559    5.8118    8.9701 O   0  0  0  0  0  0  0  0  0  0  0  0
   25.9923    9.3742   13.6555 C   0  0  2  0  0  0  0  0  0  0  0  0
   25.8356    8.3386   12.6615 O   0  0  0  0  0  0  0  0  0  0  0  0
   22.5267    6.1965   11.7198 C   0  0  2  0  0  0  0  0  0  0  0  0
   23.4506    6.0113   10.5902 O   0  0  0  0  0  0  0  0  0  0  0  0
   21.9918    3.4984    8.1648 C   0  0  0  0  0  0  0  0  0  0  0  0
   20.8064    2.9915    8.7714 N   0  0  0  0  0  0  0  0  0  0  0  0
   27.3649    9.9874   13.5028 C   0  0  0  0  0  0  0  0  0  0  0  0
   27.7698   10.0036   12.1823 O   0  0  0  0  0  0  0  0  0  0  0  0
   21.1620    5.4193   11.4564 C   0  0  1  0  0  0  0  0  0  0  0  0
   21.3290    4.0012   11.6054 O   0  0  0  0  0  0  0  0  0  0  0  0
  1  2  1  1  0  0  0
  1  6  1  0  0  0  0
  1 23  1  0  0  0  0
  3  4  1  6  0  0  0
  3  8  1  0  0  0  0
  3 30  1  0  0  0  0
  5  9  1  0  0  0  0
  5 21  1  0  0  0  0
  5 25  1  1  0  0  0
  6  7  1  6  0  0  0
  6 11  1  0  0  0  0
  8 13  1  0  0  0  0
  9 10  1  6  0  0  0
  9 15  1  0  0  0  0
 11 12  1  1  0  0  0
 11 17  1  0  0  0  0
 13 14  1  6  0  0  0
 13 19  1  0  0  0  0
 15 16  1  1  0  0  0
 15 20  1  0  0  0  0
 17 18  1  1  0  0  0
 17 22  1  0  0  0  0
 19  2  1  1  0  0  0
 19 24  1  0  0  0  0
 20 21  1  0  0  0  0
 20 26  1  1  0  0  0
 22 23  1  0  0  0  0
 22 28  1  1  0  0  0
 24 25  1  6  0  0  0
 24 30  1  0  0  0  0
 26 27  1  0  0  0  0
 28 29  1  0  0  0  0
 30 31  1  1  0  0  0
M  END
>  <CHROM.1>
-77.41388124,-169.60082722,116.66674014,-176.73168782,155.02128606,-61.76606131
23.19869714,6.98025799,11.60189045,-1.00071217,-0.48952148,-1.87418374

>  <Name>
2o3x_lig

>  <RI>
0

>  <Rbt.Current_Directory>
/home/itssahil/PROJECTS/Mol_Feturizer/New_Systems/rnas/2o3x

>  <Rbt.Executable>
rbdock ($Id: //depot/dev/client3/rdock/2013.1/src/exe/rbdock.cxx#4 $)

>  <Rbt.Library>
libRbt.so (2013.1, Build901 2013/11/27)

>  <Rbt.Parameter_File>
/export/apps/rDock/src/rDock_2013.1_src/data/scripts/dock_solv.prm

>  <Rbt.Receptor>
prm/blind_docking_40.prm

>  <SCORE>
6.2803

>  <SCORE.INTER>
-10.0186

>  <SCORE.INTER.CONST>
1

>  <SCORE.INTER.POLAR>
-0.682785

>  <SCORE.INTER.ROT>
6

>  <SCORE.INTER.SOLV>
22.6057

>  <SCORE.INTER.VDW>
-19.5383

>  <SCORE.INTER.norm>
-0.323179

>  <SCORE.INTRA>
11.0811

>  <SCORE.INTRA.DIHEDRAL>
1.75915

>  <SCORE.INTRA.DIHEDRAL.0>
9.37739

>  <SCORE.INTRA.POLAR>
0

>  <SCORE.INTRA.POLAR.0>
0

>  <SCORE.INTRA.REPUL>
0

>  <SCORE.INTRA.REPUL.0>
0

>  <SCORE.INTRA.SOLV>
4.57569

>  <SCORE.INTRA.SOLV.lig_0>
-82.9274

>  <SCORE.INTRA.VDW>
7.91365

>  <SCORE.INTRA.VDW.0>
-3.84922

>  <SCORE.INTRA.norm>
0.357454

>  <SCORE.RESTR>
5.21778

>  <SCORE.RESTR.CAVITY>
5.21778

>  <SCORE.RESTR.norm>
0.168315

>  <SCORE.SYSTEM>
0

>  <SCORE.SYSTEM.CONST>
0

>  <SCORE.SYSTEM.DIHEDRAL>
0

>  <SCORE.SYSTEM.SOLV>
0

>  <SCORE.SYSTEM.norm>
0

>  <SCORE.heavy>
31

>  <SCORE.norm>
0.20259

>  <RMSD>
8.649

$$$$
2o3x_lig
 OpenBabel11021811463D
libRbt.so/2013.1/901 2013/11/27
 31 33  0  0  0  0  0  0  0  0999 V2000
   24.4502    7.5031   12.2669 C   0  0  2  0  0  0  0  0  0  0  0  0
   23.3373    8.2718   11.7916 O   0  0  0  0  0  0  0  0  0  0  0  0
   20.7675    4.9323   11.0551 C   0  0  2  0  0  0  0  0  0  0  0  0
   19.6724    4.0639   10.5694 N   0  0  0  0  0  0  0  0  0  0  0  0
   24.3821    7.0700    8.4844 C   0  0  1  0  0  0  0  0  0  0  0  0
   24.0883    6.9305   13.6739 C   0  0  2  0  0  0  0  0  0  0  0  0
   22.7468    6.2936   13.6905 N   0  0  0  0  0  0  0  0  0  0  0  0
   20.2476    6.0533   12.0156 C   0  0  0  0  0  0  0  0  0  0  0  0
   24.4430    5.7078    7.7183 C   0  0  2  0  0  0  0  0  0  0  0  0
   24.8463    4.5523    8.5034 O   0  0  0  0  0  0  0  0  0  0  0  0
   24.1085    8.0270   14.7556 C   0  0  1  0  0  0  0  0  0  0  0  0
   23.8303    7.4803   16.0198 O   0  0  0  0  0  0  0  0  0  0  0  0
   21.4824    6.8986   12.4985 C   0  0  2  0  0  0  0  0  0  0  0  0
   21.0713    7.9837   13.4392 N   0  0  0  0  0  0  0  0  0  0  0  0
   25.3901    6.1244    6.6054 C   0  0  2  0  0  0  0  0  0  0  0  0
   26.7835    6.1262    7.0701 O   0  0  0  0  0  0  0  0  0  0  0  0
   25.4619    8.7177   14.7599 C   0  0  2  0  0  0  0  0  0  0  0  0
   25.4904    9.6931   15.7517 O   0  0  0  0  0  0  0  0  0  0  0  0
   22.2078    7.5466   11.2848 C   0  0  2  0  0  0  0  0  0  0  0  0
   24.9393    7.5308    6.2284 C   0  0  2  0  0  0  0  0  0  0  0  0
   24.6881    8.0826    7.5179 O   0  0  0  0  0  0  0  0  0  0  0  0
   25.7351    9.3573   13.3693 C   0  0  2  0  0  0  0  0  0  0  0  0
   25.6875    8.3378   12.3478 O   0  0  0  0  0  0  0  0  0  0  0  0
   22.6739    6.5196   10.2340 C   0  0  2  0  0  0  0  0  0  0  0  0
   23.0969    7.3196    9.0743 O   0  0  0  0  0  0  0  0  0  0  0  0
   23.6507    7.5948    5.3402 C   0  0  0  0  0  0  0  0  0  0  0  0
   23.9153    7.0431    4.0536 N   0  0  0  0  0  0  0  0  0  0  0  0
   27.0787   10.0455   13.3034 C   0  0  0  0  0  0  0  0  0  0  0  0
   27.8172    9.6147   12.2186 O   0  0  0  0  0  0  0  0  0  0  0  0
   21.4724    5.5534    9.8357 C   0  0  1  0  0  0  0  0  0  0  0  0
   21.9272    4.4556    9.0300 O   0  0  0  0  0  0  0  0  0  0  0  0
  1  2  1  1  0  0  0
  1  6  1  0  0  0  0
  1 23  1  0  0  0  0
  3  4  1  6  0  0  0
  3  8  1  0  0  0  0
  3 30  1  0  0  0  0
  5  9  1  0  0  0  0
  5 21  1  0  0  0  0
  5 25  1  6  0  0  0
  6  7  1  6  0  0  0
  6 11  1  0  0  0  0
  8 13  1  0  0  0  0
  9 10  1  1  0  0  0
  9 15  1  0  0  0  0
 11 12  1  1  0  0  0
 11 17  1  0  0  0  0
 13 14  1  1  0  0  0
 13 19  1  0  0  0  0
 15 16  1  1  0  0  0
 15 20  1  0  0  0  0
 17 18  1  1  0  0  0
 17 22  1  0  0  0  0
 19  2  1  1  0  0  0
 19 24  1  0  0  0  0
 20 21  1  0  0  0  0
 20 26  1  6  0  0  0
 22 23  1  0  0  0  0
 22 28  1  1  0  0  0
 24 25  1  6  0  0  0
 24 30  1  0  0  0  0
 26 27  1  0  0  0  0
 28 29  1  0  0  0  0
 30 31  1  6  0  0  0
M  END
>  <CHROM.1>
-76.72738652,70.80143942,72.27129524,-66.94681352,127.86905386,129.73334874
23.83671689,7.15791853,10.79307942,-1.49784614,-0.52279431,-1.79975278

>  <Name>
2o3x_lig

>  <RI>
0

>  <Rbt.Current_Directory>
/home/itssahil/PROJECTS/Mol_Feturizer/New_Systems/rnas/2o3x

>  <Rbt.Executable>
rbdock ($Id: //depot/dev/client3/rdock/2013.1/src/exe/rbdock.cxx#4 $)

>  <Rbt.Library>
libRbt.so (2013.1, Build901 2013/11/27)

>  <Rbt.Parameter_File>
/export/apps/rDock/src/rDock_2013.1_src/data/scripts/dock_solv.prm

>  <Rbt.Receptor>
prm/blind_docking_60.prm

>  <SCORE>
17.3948

>  <SCORE.INTER>
-11.5238

>  <SCORE.INTER.CONST>
1

>  <SCORE.INTER.POLAR>
-0.956276

>  <SCORE.INTER.ROT>
6

>  <SCORE.INTER.SOLV>
23.0282

>  <SCORE.INTER.VDW>
-19.771

>  <SCORE.INTER.norm>
-0.371737

>  <SCORE.INTRA>
23.6757

>  <SCORE.INTRA.DIHEDRAL>
5.32729

>  <SCORE.INTRA.DIHEDRAL.0>
9.37739

>  <SCORE.INTRA.POLAR>
0

>  <SCORE.INTRA.POLAR.0>
0

>  <SCORE.INTRA.REPUL>
0

>  <SCORE.INTRA.REPUL.0>
0

>  <SCORE.INTRA.SOLV>
6.06232

>  <SCORE.INTRA.SOLV.lig_0>
-82.9274

>  <SCORE.INTRA.VDW>
17.9809

>  <SCORE.INTRA.VDW.0>
-3.84922

>  <SCORE.INTRA.norm>
0.763732

>  <SCORE.RESTR>
5.24292

>  <SCORE.RESTR.CAVITY>
5.24292

>  <SCORE.RESTR.norm>
0.169126

>  <SCORE.SYSTEM>
0

>  <SCORE.SYSTEM.CONST>
0

>  <SCORE.SYSTEM.DIHEDRAL>
0

>  <SCORE.SYSTEM.SOLV>
0

>  <SCORE.SYSTEM.norm>
0

>  <SCORE.heavy>
31

>  <SCORE.norm>
0.561121

>  <RMSD>
8.654

$$$$
2o3x_lig
 OpenBabel11021811463D
libRbt.so/2013.1/901 2013/11/27
 31 33  0  0  0  0  0  0  0  0999 V2000
   24.5365    7.5382   12.6176 C   0  0  2  0  0  0  0  0  0  0  0  0
   23.4421    8.3561   12.1829 O   0  0  0  0  0  0  0  0  0  0  0  0
   20.0113    5.8067   12.3511 C   0  0  2  0  0  0  0  0  0  0  0  0
   18.8001    5.0319   12.0017 N   0  0  0  0  0  0  0  0  0  0  0  0
   23.0658    6.3798    9.2423 C   0  0  1  0  0  0  0  0  0  0  0  0
   24.2131    7.0025   14.0483 C   0  0  2  0  0  0  0  0  0  0  0  0
   22.8437    6.4344   14.1366 N   0  0  0  0  0  0  0  0  0  0  0  0
   19.7680    7.3502   12.2637 C   0  0  0  0  0  0  0  0  0  0  0  0
   24.0386    5.8564    8.1351 C   0  0  2  0  0  0  0  0  0  0  0  0
   25.1662    6.7179    7.8180 O   0  0  0  0  0  0  0  0  0  0  0  0
   24.3389    8.1101   15.1114 C   0  0  1  0  0  0  0  0  0  0  0  0
   24.0935    7.5942   16.3951 O   0  0  0  0  0  0  0  0  0  0  0  0
   21.0961    8.0817   12.6800 C   0  0  2  0  0  0  0  0  0  0  0  0
   20.9409    9.5668   12.6411 N   0  0  0  0  0  0  0  0  0  0  0  0
   23.0196    5.6524    7.0266 C   0  0  2  0  0  0  0  0  0  0  0  0
   22.6836    6.9261    6.3764 O   0  0  0  0  0  0  0  0  0  0  0  0
   25.7237    8.7315   15.0425 C   0  0  2  0  0  0  0  0  0  0  0  0
   25.8476    9.7167   16.0172 O   0  0  0  0  0  0  0  0  0  0  0  0
   22.2598    7.6824   11.7284 C   0  0  2  0  0  0  0  0  0  0  0  0
   21.8035    5.0626    7.7311 C   0  0  2  0  0  0  0  0  0  0  0  0
   21.7733    5.8552    8.9148 O   0  0  0  0  0  0  0  0  0  0  0  0
   25.9627    9.3388   13.6313 C   0  0  2  0  0  0  0  0  0  0  0  0
   25.8163    8.3102   12.6286 O   0  0  0  0  0  0  0  0  0  0  0  0
   22.5107    6.1623   11.6768 C   0  0  2  0  0  0  0  0  0  0  0  0
   23.4499    5.9642   10.5621 O   0  0  0  0  0  0  0  0  0  0  0  0
   21.9208    3.5420    8.0881 C   0  0  0  0  0  0  0  0  0  0  0  0
   22.9977    3.3346    8.9976 N   0  0  0  0  0  0  0  0  0  0  0  0
   27.3344    9.9574   13.4928 C   0  0  0  0  0  0  0  0  0  0  0  0
   27.7427    9.9972   12.1738 O   0  0  0  0  0  0  0  0  0  0  0  0
   21.1474    5.3869   11.4010 C   0  0  1  0  0  0  0  0  0  0  0  0
   21.3078    3.9697   11.5649 O   0  0  0  0  0  0  0  0  0  0  0  0
  1  2  1  1  0  0  0
  1  6  1  0  0  0  0
  1 23  1  0  0  0  0
  3  4  1  6  0  0  0
  3  8  1  0  0  0  0
  3 30  1  0  0  0  0
  5  9  1  0  0  0  0
  5 21  1  0  0  0  0
  5 25  1  1  0  0  0
  6  7  1  6  0  0  0
  6 11  1  0  0  0  0
  8 13  1  0  0  0  0
  9 10  1  6  0  0  0
  9 15  1  0  0  0  0
 11 12  1  1  0  0  0
 11 17  1  0  0  0  0
 13 14  1  6  0  0  0
 13 19  1  0  0  0  0
 15 16  1  1  0  0  0
 15 20  1  0  0  0  0
 17 18  1  1  0  0  0
 17 22  1  0  0  0  0
 19  2  1  1  0  0  0
 19 24  1  0  0  0  0
 20 21  1  0  0  0  0
 20 26  1  1  0  0  0
 22 23  1  0  0  0  0
 22 28  1  1  0  0  0
 24 25  1  6  0  0  0
 24 30  1  0  0  0  0
 26 27  1  0  0  0  0
 28 29  1  0  0  0  0
 30 31  1  1  0  0  0
M  END
>  <CHROM.1>
-77.29015830,-168.82520033,117.68436705,62.26503770,155.64569663,-59.66575749
23.25909033,6.96776596,11.56442332,-1.05189912,-0.46187934,-1.89378605

>  <Name>
2o3x_lig

>  <RI>
0

>  <Rbt.Current_Directory>
/home/itssahil/PROJECTS/Mol_Feturizer/New_Systems/rnas/2o3x

>  <Rbt.Executable>
rbdock ($Id: //depot/dev/client3/rdock/2013.1/src/exe/rbdock.cxx#4 $)

>  <Rbt.Library>
libRbt.so (2013.1, Build901 2013/11/27)

>  <Rbt.Parameter_File>
/export/apps/rDock/src/rDock_2013.1_src/data/scripts/dock_solv.prm

>  <Rbt.Receptor>
prm/blind_docking_40.prm

>  <SCORE>
8.24334

>  <SCORE.INTER>
-10.0001

>  <SCORE.INTER.CONST>
1

>  <SCORE.INTER.POLAR>
-0.691437

>  <SCORE.INTER.ROT>
6

>  <SCORE.INTER.SOLV>
24.0382

>  <SCORE.INTER.VDW>
-19.9747

>  <SCORE.INTER.norm>
-0.322583

>  <SCORE.INTRA>
13.0486

>  <SCORE.INTRA.DIHEDRAL>
1.73229

>  <SCORE.INTRA.DIHEDRAL.0>
9.37739

>  <SCORE.INTRA.POLAR>
0

>  <SCORE.INTRA.POLAR.0>
0

>  <SCORE.INTRA.REPUL>
0

>  <SCORE.INTRA.REPUL.0>
0

>  <SCORE.INTRA.SOLV>
7.77439

>  <SCORE.INTRA.SOLV.lig_0>
-82.9274

>  <SCORE.INTRA.VDW>
8.29527

>  <SCORE.INTRA.VDW.0>
-3.84922

>  <SCORE.INTRA.norm>
0.420923

>  <SCORE.RESTR>
5.19481

>  <SCORE.RESTR.CAVITY>
5.19481

>  <SCORE.RESTR.norm>
0.167574

>  <SCORE.SYSTEM>
0

>  <SCORE.SYSTEM.CONST>
0

>  <SCORE.SYSTEM.DIHEDRAL>
0

>  <SCORE.SYSTEM.SOLV>
0

>  <SCORE.SYSTEM.norm>
0

>  <SCORE.heavy>
31

>  <SCORE.norm>
0.265914

>  <RMSD>
8.658

$$$$
2o3x_lig
 OpenBabel11021811463D
libRbt.so/2013.1/901 2013/11/27
 31 33  0  0  0  0  0  0  0  0999 V2000
   24.6487    7.3181   12.3141 C   0  0  2  0  0  0  0  0  0  0  0  0
   23.6598    8.0019   11.5330 O   0  0  0  0  0  0  0  0  0  0  0  0
   21.3900    4.5487   10.4278 C   0  0  2  0  0  0  0  0  0  0  0  0
   20.4993    3.6021    9.7207 N   0  0  0  0  0  0  0  0  0  0  0  0
   24.0060    6.4466    7.6764 C   0  0  1  0  0  0  0  0  0  0  0  0
   24.1296    7.2128   13.7830 C   0  0  2  0  0  0  0  0  0  0  0  0
   22.7304    6.7192   13.8479 N   0  0  0  0  0  0  0  0  0  0  0  0
   20.6097    5.7843   10.9878 C   0  0  0  0  0  0  0  0  0  0  0  0
   24.0012    7.7621    6.8307 C   0  0  2  0  0  0  0  0  0  0  0  0
   22.7342    8.4724    6.7637 O   0  0  0  0  0  0  0  0  0  0  0  0
   24.1894    8.5720   14.5054 C   0  0  1  0  0  0  0  0  0  0  0  0
   23.7661    8.4428   15.8390 O   0  0  0  0  0  0  0  0  0  0  0  0
   21.6318    6.7100   11.7434 C   0  0  2  0  0  0  0  0  0  0  0  0
   20.9594    7.9092   12.3273 N   0  0  0  0  0  0  0  0  0  0  0  0
   24.5141    7.1836    5.5225 C   0  0  2  0  0  0  0  0  0  0  0  0
   23.4400    6.5004    4.7895 O   0  0  0  0  0  0  0  0  0  0  0  0
   25.6045    9.1219   14.4463 C   0  0  2  0  0  0  0  0  0  0  0  0
   25.6661   10.3388   15.1180 O   0  0  0  0  0  0  0  0  0  0  0  0
   22.7486    7.1935   10.7749 C   0  0  2  0  0  0  0  0  0  0  0  0
   25.5999    6.1993    5.9413 C   0  0  2  0  0  0  0  0  0  0  0  0
   24.9828    5.5901    7.0720 O   0  0  0  0  0  0  0  0  0  0  0  0
   26.0416    9.3030   12.9652 C   0  0  2  0  0  0  0  0  0  0  0  0
   25.9585    8.0370   12.2759 O   0  0  0  0  0  0  0  0  0  0  0  0
   23.5123    6.0373   10.0994 C   0  0  2  0  0  0  0  0  0  0  0  0
   24.3315    6.6737    9.0565 O   0  0  0  0  0  0  0  0  0  0  0  0
   26.9647    6.8542    6.3437 C   0  0  0  0  0  0  0  0  0  0  0  0
   27.6014    7.4042    5.1938 N   0  0  0  0  0  0  0  0  0  0  0  0
   27.4518    9.8309   12.8389 C   0  0  0  0  0  0  0  0  0  0  0  0
   27.6384   10.9680   13.6005 O   0  0  0  0  0  0  0  0  0  0  0  0
   22.4886    5.0044    9.4506 C   0  0  1  0  0  0  0  0  0  0  0  0
   23.1557    3.8123    9.0088 O   0  0  0  0  0  0  0  0  0  0  0  0
  1  2  1  6  0  0  0
  1  6  1  0  0  0  0
  1 23  1  0  0  0  0
  3  4  1  6  0  0  0
  3  8  1  0  0  0  0
  3 30  1  0  0  0  0
  5  9  1  0  0  0  0
  5 21  1  0  0  0  0
  5 25  1  1  0  0  0
  6  7  1  6  0  0  0
  6 11  1  0  0  0  0
  8 13  1  0  0  0  0
  9 10  1  6  0  0  0
  9 15  1  0  0  0  0
 11 12  1  1  0  0  0
 11 17  1  0  0  0  0
 13 14  1  6  0  0  0
 13 19  1  0  0  0  0
 15 16  1  1  0  0  0
 15 20  1  0  0  0  0
 17 18  1  1  0  0  0
 17 22  1  0  0  0  0
 19  2  1  1  0  0  0
 19 24  1  0  0  0  0
 20 21  1  0  0  0  0
 20 26  1  1  0  0  0
 22 23  1  0  0  0  0
 22 28  1  1  0  0  0
 24 25  1  6  0  0  0
 24 30  1  0  0  0  0
 26 27  1  0  0  0  0
 28 29  1  0  0  0  0
 30 31  1  1  0  0  0
M  END
>  <CHROM.1>
-97.06307070,133.76345086,81.15346085,-69.57057163,-51.74299315,-110.83536561
24.11210898,7.23812586,10.41542026,1.45916082,0.58804314,1.29402595

>  <Name>
2o3x_lig

>  <RI>
0

>  <Rbt.Current_Directory>
/home/itssahil/PROJECTS/Mol_Feturizer/New_Systems/rnas/2o3x

>  <Rbt.Executable>
rbdock ($Id: //depot/dev/client3/rdock/2013.1/src/exe/rbdock.cxx#4 $)

>  <Rbt.Library>
libRbt.so (2013.1, Build901 2013/11/27)

>  <Rbt.Parameter_File>
/export/apps/rDock/src/rDock_2013.1_src/data/scripts/dock_solv.prm

>  <Rbt.Receptor>
prm/blind_docking_60.prm

>  <SCORE>
10.9358

>  <SCORE.INTER>
-8.58439

>  <SCORE.INTER.CONST>
1

>  <SCORE.INTER.POLAR>
0

>  <SCORE.INTER.ROT>
6

>  <SCORE.INTER.SOLV>
23.0265

>  <SCORE.INTER.VDW>
-20.9984

>  <SCORE.INTER.norm>
-0.276916

>  <SCORE.INTRA>
15.8974

>  <SCORE.INTRA.DIHEDRAL>
11.3194

>  <SCORE.INTRA.DIHEDRAL.0>
9.37739

>  <SCORE.INTRA.POLAR>
0

>  <SCORE.INTRA.POLAR.0>
0

>  <SCORE.INTRA.REPUL>
0

>  <SCORE.INTRA.REPUL.0>
0

>  <SCORE.INTRA.SOLV>
3.24346

>  <SCORE.INTRA.SOLV.lig_0>
-82.9274

>  <SCORE.INTRA.VDW>
8.61597

>  <SCORE.INTRA.VDW.0>
-3.84922

>  <SCORE.INTRA.norm>
0.51282

>  <SCORE.RESTR>
3.62281

>  <SCORE.RESTR.CAVITY>
3.62281

>  <SCORE.RESTR.norm>
0.116865

>  <SCORE.SYSTEM>
0

>  <SCORE.SYSTEM.CONST>
0

>  <SCORE.SYSTEM.DIHEDRAL>
0

>  <SCORE.SYSTEM.SOLV>
0

>  <SCORE.SYSTEM.norm>
0

>  <SCORE.heavy>
31

>  <SCORE.norm>
0.352769

>  <RMSD>
8.660

$$$$
2o3x_lig
 OpenBabel11021811463D
libRbt.so/2013.1/901 2013/11/27
 31 33  0  0  0  0  0  0  0  0999 V2000
   23.6891    4.4756    4.4678 C   0  0  2  0  0  0  0  0  0  0  0  0
   24.9751    4.8894    3.9878 O   0  0  0  0  0  0  0  0  0  0  0  0
   26.6800    4.2240    0.1214 C   0  0  2  0  0  0  0  0  0  0  0  0
   27.2373    3.5909   -1.0944 N   0  0  0  0  0  0  0  0  0  0  0  0
   22.2432    3.4522    1.2117 C   0  0  1  0  0  0  0  0  0  0  0  0
   23.3644    5.2827    5.7646 C   0  0  2  0  0  0  0  0  0  0  0  0
   23.6063    6.7380    5.5931 N   0  0  0  0  0  0  0  0  0  0  0  0
   27.6007    4.0132    1.3693 C   0  0  0  0  0  0  0  0  0  0  0  0
   21.0572    2.6189    1.7990 C   0  0  2  0  0  0  0  0  0  0  0  0
   21.0095    1.2178    1.4127 O   0  0  0  0  0  0  0  0  0  0  0  0
   24.2051    4.7977    6.9608 C   0  0  1  0  0  0  0  0  0  0  0  0
   23.8602    5.5026    8.1263 O   0  0  0  0  0  0  0  0  0  0  0  0
   26.9416    4.7440    2.5956 C   0  0  2  0  0  0  0  0  0  0  0  0
   27.7727    4.6060    3.8291 N   0  0  0  0  0  0  0  0  0  0  0  0
   19.9129    3.4884    1.3057 C   0  0  2  0  0  0  0  0  0  0  0  0
   19.6244    3.2288   -0.1110 O   0  0  0  0  0  0  0  0  0  0  0  0
   23.9997    3.3055    7.1601 C   0  0  2  0  0  0  0  0  0  0  0  0
   24.7402    2.8695    8.2543 O   0  0  0  0  0  0  0  0  0  0  0  0
   25.5296    4.1590    2.8844 C   0  0  2  0  0  0  0  0  0  0  0  0
   20.4049    4.9166    1.5090 C   0  0  2  0  0  0  0  0  0  0  0  0
   21.7580    4.7939    1.0794 O   0  0  0  0  0  0  0  0  0  0  0  0
   24.4292    2.5356    5.8793 C   0  0  2  0  0  0  0  0  0  0  0  0
   23.6646    3.0079    4.7492 O   0  0  0  0  0  0  0  0  0  0  0  0
   24.5782    4.2373    1.6740 C   0  0  2  0  0  0  0  0  0  0  0  0
   23.4094    3.4268    2.0493 O   0  0  0  0  0  0  0  0  0  0  0  0
   20.3397    5.4329    2.9863 C   0  0  0  0  0  0  0  0  0  0  0  0
   18.9930    5.4179    3.4510 N   0  0  0  0  0  0  0  0  0  0  0  0
   24.2304    1.0432    6.0080 C   0  0  0  0  0  0  0  0  0  0  0  0
   24.9857    0.5172    7.0379 O   0  0  0  0  0  0  0  0  0  0  0  0
   25.2818    3.6339    0.3791 C   0  0  1  0  0  0  0  0  0  0  0  0
   24.5108    3.8908   -0.8045 O   0  0  0  0  0  0  0  0  0  0  0  0
  1  2  1  1  0  0  0
  1  6  1  0  0  0  0
  1 23  1  0  0  0  0
  3  4  1  6  0  0  0
  3  8  1  0  0  0  0
  3 30  1  0  0  0  0
  5  9  1  0  0  0  0
  5 21  1  0  0  0  0
  5 25  1  1  0  0  0
  6  7  1  6  0  0  0
  6 11  1  0  0  0  0
  8 13  1  0  0  0  0
  9 10  1  6  0  0  0
  9 15  1  0  0  0  0
 11 12  1  1  0  0  0
 11 17  1  0  0  0  0
 13 14  1  1  0  0  0
 13 19  1  0  0  0  0
 15 16  1  6  0  0  0
 15 20  1  0  0  0  0
 17 18  1  1  0  0  0
 17 22  1  0  0  0  0
 19  2  1  1  0  0  0
 19 24  1  0  0  0  0
 20 21  1  0  0  0  0
 20 26  1  1  0  0  0
 22 23  1  0  0  0  0
 22 28  1  1  0  0  0
 24 25  1  1  0  0  0
 24 30  1  0  0  0  0
 26 27  1  0  0  0  0
 28 29  1  0  0  0  0
 30 31  1  6  0  0  0
M  END
>  <CHROM.1>
173.15212272,-175.99559661,-177.29489053,-60.74740697,-61.10042110,170.94054094
23.67661990,3.84472501,3.29708075,1.22132370,-0.01424881,1.58982728

>  <Name>
2o3x_lig

>  <RI>
0

>  <Rbt.Current_Directory>
/home/itssahil/PROJECTS/Mol_Feturizer/New_Systems/rnas/2o3x

>  <Rbt.Executable>
rbdock ($Id: //depot/dev/client3/rdock/2013.1/src/exe/rbdock.cxx#4 $)

>  <Rbt.Library>
libRbt.so (2013.1, Build901 2013/11/27)

>  <Rbt.Parameter_File>
/export/apps/rDock/src/rDock_2013.1_src/data/scripts/dock_solv.prm

>  <Rbt.Receptor>
prm/pocket_docking_8.prm

>  <SCORE>
-11.677

>  <SCORE.INTER>
-7.90678

>  <SCORE.INTER.CONST>
1

>  <SCORE.INTER.POLAR>
-1.10413

>  <SCORE.INTER.ROT>
6

>  <SCORE.INTER.SOLV>
8.73962

>  <SCORE.INTER.VDW>
-12.104

>  <SCORE.INTER.norm>
-0.255057

>  <SCORE.INTRA>
-3.77021

>  <SCORE.INTRA.DIHEDRAL>
-8.4447

>  <SCORE.INTRA.DIHEDRAL.0>
9.37739

>  <SCORE.INTRA.POLAR>
0

>  <SCORE.INTRA.POLAR.0>
0

>  <SCORE.INTRA.REPUL>
0

>  <SCORE.INTRA.REPUL.0>
0

>  <SCORE.INTRA.SOLV>
-2.35717

>  <SCORE.INTRA.SOLV.lig_0>
-82.9274

>  <SCORE.INTRA.VDW>
1.63073

>  <SCORE.INTRA.VDW.0>
-3.84922

>  <SCORE.INTRA.norm>
-0.12162

>  <SCORE.RESTR>
0

>  <SCORE.RESTR.CAVITY>
0

>  <SCORE.RESTR.norm>
0

>  <SCORE.SYSTEM>
0

>  <SCORE.SYSTEM.CONST>
0

>  <SCORE.SYSTEM.DIHEDRAL>
0

>  <SCORE.SYSTEM.SOLV>
0

>  <SCORE.SYSTEM.norm>
0

>  <SCORE.heavy>
31

>  <SCORE.norm>
-0.376677

>  <RMSD>
8.693

$$$$
2o3x_lig
 OpenBabel11021811463D
libRbt.so/2013.1/901 2013/11/27
 31 33  0  0  0  0  0  0  0  0999 V2000
   23.6340    7.4427   13.8848 C   0  0  2  0  0  0  0  0  0  0  0  0
   22.6124    8.4285   13.6850 O   0  0  0  0  0  0  0  0  0  0  0  0
   18.6550    6.8081   13.5790 C   0  0  2  0  0  0  0  0  0  0  0  0
   17.3455    6.2884   13.1265 N   0  0  0  0  0  0  0  0  0  0  0  0
   21.8909    5.6540   11.0275 C   0  0  1  0  0  0  0  0  0  0  0  0
   24.6732    8.0098   14.9032 C   0  0  2  0  0  0  0  0  0  0  0  0
   24.0203    8.5868   16.1059 N   0  0  0  0  0  0  0  0  0  0  0  0
   18.8277    8.3296   13.2559 C   0  0  0  0  0  0  0  0  0  0  0  0
   23.0460    4.9817   10.2152 C   0  0  2  0  0  0  0  0  0  0  0  0
   23.9983    5.8870    9.5925 O   0  0  0  0  0  0  0  0  0  0  0  0
   25.5527    9.1031   14.2678 C   0  0  1  0  0  0  0  0  0  0  0  0
   26.5123    9.5620   15.1859 O   0  0  0  0  0  0  0  0  0  0  0  0
   20.2288    8.7917   13.7995 C   0  0  2  0  0  0  0  0  0  0  0  0
   20.4645   10.2449   13.5464 N   0  0  0  0  0  0  0  0  0  0  0  0
   22.1944    4.1519    9.2691 C   0  0  2  0  0  0  0  0  0  0  0  0
   21.6662    4.9752    8.1733 O   0  0  0  0  0  0  0  0  0  0  0  0
   26.2270    8.5577   13.0201 C   0  0  2  0  0  0  0  0  0  0  0  0
   27.0400    9.5364   12.4572 O   0  0  0  0  0  0  0  0  0  0  0  0
   21.3707    7.9816   13.1219 C   0  0  2  0  0  0  0  0  0  0  0  0
   21.0654    3.6175   10.1425 C   0  0  2  0  0  0  0  0  0  0  0  0
   20.7674    4.7708   10.9245 O   0  0  0  0  0  0  0  0  0  0  0  0
   25.1523    8.0970   11.9952 C   0  0  2  0  0  0  0  0  0  0  0  0
   24.3062    7.0932   12.5964 O   0  0  0  0  0  0  0  0  0  0  0  0
   21.2302    6.4578   13.3078 C   0  0  2  0  0  0  0  0  0  0  0  0
   22.2307    5.8657   12.4066 O   0  0  0  0  0  0  0  0  0  0  0  0
   21.4573    2.4126   11.0635 C   0  0  0  0  0  0  0  0  0  0  0  0
   20.8340    1.2187   10.5989 N   0  0  0  0  0  0  0  0  0  0  0  0
   25.7617    7.5250   10.7363 C   0  0  0  0  0  0  0  0  0  0  0  0
   25.1217    7.9920    9.6048 O   0  0  0  0  0  0  0  0  0  0  0  0
   19.7650    5.9851   12.9008 C   0  0  1  0  0  0  0  0  0  0  0  0
   19.5346    4.6165   13.2684 O   0  0  0  0  0  0  0  0  0  0  0  0
  1  2  1  6  0  0  0
  1  6  1  0  0  0  0
  1 23  1  0  0  0  0
  3  4  1  6  0  0  0
  3  8  1  0  0  0  0
  3 30  1  0  0  0  0
  5  9  1  0  0  0  0
  5 21  1  0  0  0  0
  5 25  1  1  0  0  0
  6  7  1  1  0  0  0
  6 11  1  0  0  0  0
  8 13  1  0  0  0  0
  9 10  1  6  0  0  0
  9 15  1  0  0  0  0
 11 12  1  1  0  0  0
 11 17  1  0  0  0  0
 13 14  1  6  0  0  0
 13 19  1  0  0  0  0
 15 16  1  6  0  0  0
 15 20  1  0  0  0  0
 17 18  1  6  0  0  0
 17 22  1  0  0  0  0
 19  2  1  1  0  0  0
 19 24  1  0  0  0  0
 20 21  1  0  0  0  0
 20 26  1  1  0  0  0
 22 23  1  0  0  0  0
 22 28  1  6  0  0  0
 24 25  1  6  0  0  0
 24 30  1  0  0  0  0
 26 27  1  0  0  0  0
 28 29  1  0  0  0  0
 30 31  1  1  0  0  0
M  END
>  <CHROM.1>
-161.58741606,-178.38155923,143.60491609,-109.64613936,-136.12750790,-84.82275974
22.53044480,6.74409126,12.28425596,0.76294957,0.28964032,0.79219355

>  <Name>
2o3x_lig

>  <RI>
0

>  <Rbt.Current_Directory>
/home/itssahil/PROJECTS/Mol_Feturizer/New_Systems/rnas/2o3x

>  <Rbt.Executable>
rbdock ($Id: //depot/dev/client3/rdock/2013.1/src/exe/rbdock.cxx#4 $)

>  <Rbt.Library>
libRbt.so (2013.1, Build901 2013/11/27)

>  <Rbt.Parameter_File>
/export/apps/rDock/src/rDock_2013.1_src/data/scripts/dock_solv.prm

>  <Rbt.Receptor>
prm/blind_docking_80.prm

>  <SCORE>
30.5344

>  <SCORE.INTER>
8.9705

>  <SCORE.INTER.CONST>
1

>  <SCORE.INTER.POLAR>
-1.0009

>  <SCORE.INTER.ROT>
6

>  <SCORE.INTER.SOLV>
30.5554

>  <SCORE.INTER.VDW>
-8.46845

>  <SCORE.INTER.norm>
0.289371

>  <SCORE.INTRA>
13.1523

>  <SCORE.INTRA.DIHEDRAL>
8.82319

>  <SCORE.INTRA.DIHEDRAL.0>
9.37739

>  <SCORE.INTRA.POLAR>
0

>  <SCORE.INTRA.POLAR.0>
0

>  <SCORE.INTRA.REPUL>
0.0779717

>  <SCORE.INTRA.REPUL.0>
0

>  <SCORE.INTRA.SOLV>
-1.76514

>  <SCORE.INTRA.SOLV.lig_0>
-82.9274

>  <SCORE.INTRA.VDW>
9.2334

>  <SCORE.INTRA.VDW.0>
-3.84922

>  <SCORE.INTRA.norm>
0.424267

>  <SCORE.RESTR>
8.4116

>  <SCORE.RESTR.CAVITY>
8.4116

>  <SCORE.RESTR.norm>
0.271342

>  <SCORE.SYSTEM>
0

>  <SCORE.SYSTEM.CONST>
0

>  <SCORE.SYSTEM.DIHEDRAL>
0

>  <SCORE.SYSTEM.SOLV>
0

>  <SCORE.SYSTEM.norm>
0

>  <SCORE.heavy>
31

>  <SCORE.norm>
0.98498

>  <RMSD>
8.762

$$$$
2o3x_lig
 OpenBabel11021811463D
libRbt.so/2013.1/901 2013/11/27
 31 33  0  0  0  0  0  0  0  0999 V2000
   22.9221    7.4488   11.3051 C   0  0  2  0  0  0  0  0  0  0  0  0
   22.9348    6.0155   11.3346 O   0  0  0  0  0  0  0  0  0  0  0  0
   20.3343    2.9258    9.9242 C   0  0  2  0  0  0  0  0  0  0  0  0
   19.4230    2.1058    9.0955 N   0  0  0  0  0  0  0  0  0  0  0  0
   24.6846    3.5417    8.4819 C   0  0  1  0  0  0  0  0  0  0  0  0
   24.2952    7.9421   10.7484 C   0  0  2  0  0  0  0  0  0  0  0  0
   24.6859    7.2254    9.5076 N   0  0  0  0  0  0  0  0  0  0  0  0
   19.6877    4.2904   10.3356 C   0  0  0  0  0  0  0  0  0  0  0  0
   24.3863    3.1777    6.9904 C   0  0  2  0  0  0  0  0  0  0  0  0
   23.4764    2.0640    6.7757 O   0  0  0  0  0  0  0  0  0  0  0  0
   25.4248    7.7598   11.7796 C   0  0  1  0  0  0  0  0  0  0  0  0
   26.6391    8.2565   11.2766 O   0  0  0  0  0  0  0  0  0  0  0  0
   20.7160    5.0708   11.2334 C   0  0  2  0  0  0  0  0  0  0  0  0
   20.1648    6.3832   11.6861 N   0  0  0  0  0  0  0  0  0  0  0  0
   25.8179    2.9716    6.5246 C   0  0  2  0  0  0  0  0  0  0  0  0
   26.3209    1.6523    6.9295 O   0  0  0  0  0  0  0  0  0  0  0  0
   25.0558    8.4650   13.0739 C   0  0  2  0  0  0  0  0  0  0  0  0
   26.0848    8.3212   13.9993 O   0  0  0  0  0  0  0  0  0  0  0  0
   22.0341    5.3331   10.4505 C   0  0  2  0  0  0  0  0  0  0  0  0
   26.6037    4.0868    7.2044 C   0  0  2  0  0  0  0  0  0  0  0  0
   26.0157    4.0714    8.5023 O   0  0  0  0  0  0  0  0  0  0  0  0
   23.7352    7.8730   13.6424 C   0  0  2  0  0  0  0  0  0  0  0  0
   22.6799    8.0146   12.6671 O   0  0  0  0  0  0  0  0  0  0  0  0
   22.6955    4.0451    9.9216 C   0  0  2  0  0  0  0  0  0  0  0  0
   23.7603    4.5025    9.0155 O   0  0  0  0  0  0  0  0  0  0  0  0
   26.4492    5.4993    6.5454 C   0  0  0  0  0  0  0  0  0  0  0  0
   27.5979    6.2959    6.8205 N   0  0  0  0  0  0  0  0  0  0  0  0
   23.3035    8.5479   14.9236 C   0  0  0  0  0  0  0  0  0  0  0  0
   24.2674    8.4355   15.9065 O   0  0  0  0  0  0  0  0  0  0  0  0
   21.6315    3.1633    9.1303 C   0  0  1  0  0  0  0  0  0  0  0  0
   22.1564    1.8643    8.8168 O   0  0  0  0  0  0  0  0  0  0  0  0
  1  2  1  1  0  0  0
  1  6  1  0  0  0  0
  1 23  1  0  0  0  0
  3  4  1  6  0  0  0
  3  8  1  0  0  0  0
  3 30  1  0  0  0  0
  5  9  1  0  0  0  0
  5 21  1  0  0  0  0
  5 25  1  6  0  0  0
  6  7  1  6  0  0  0
  6 11  1  0  0  0  0
  8 13  1  0  0  0  0
  9 10  1  1  0  0  0
  9 15  1  0  0  0  0
 11 12  1  6  0  0  0
 11 17  1  0  0  0  0
 13 14  1  6  0  0  0
 13 19  1  0  0  0  0
 15 16  1  1  0  0  0
 15 20  1  0  0  0  0
 17 18  1  1  0  0  0
 17 22  1  0  0  0  0
 19  2  1  1  0  0  0
 19 24  1  0  0  0  0
 20 21  1  0  0  0  0
 20 26  1  6  0  0  0
 22 23  1  0  0  0  0
 22 28  1  1  0  0  0
 24 25  1  6  0  0  0
 24 30  1  0  0  0  0
 26 27  1  0  0  0  0
 28 29  1  0  0  0  0
 30 31  1  1  0  0  0
M  END
>  <CHROM.1>
-113.63628624,103.52863570,-92.25336147,-154.09622732,-59.02395961,172.16066829
23.77726957,5.39890602,10.16748181,1.58907523,0.38680812,0.84690629

>  <Name>
2o3x_lig

>  <RI>
0

>  <Rbt.Current_Directory>
/home/itssahil/PROJECTS/Mol_Feturizer/New_Systems/rnas/2o3x

>  <Rbt.Executable>
rbdock ($Id: //depot/dev/client3/rdock/2013.1/src/exe/rbdock.cxx#4 $)

>  <Rbt.Library>
libRbt.so (2013.1, Build901 2013/11/27)

>  <Rbt.Parameter_File>
/export/apps/rDock/src/rDock_2013.1_src/data/scripts/dock_solv.prm

>  <Rbt.Receptor>
prm/pocket_docking_8.prm

>  <SCORE>
-13.4782

>  <SCORE.INTER>
-20.8613

>  <SCORE.INTER.CONST>
1

>  <SCORE.INTER.POLAR>
-2.24947

>  <SCORE.INTER.ROT>
6

>  <SCORE.INTER.SOLV>
23.2652

>  <SCORE.INTER.VDW>
-21.7643

>  <SCORE.INTER.norm>
-0.672944

>  <SCORE.INTRA>
7.38254

>  <SCORE.INTRA.DIHEDRAL>
9.94645

>  <SCORE.INTRA.DIHEDRAL.0>
9.37739

>  <SCORE.INTRA.POLAR>
0

>  <SCORE.INTRA.POLAR.0>
0

>  <SCORE.INTRA.REPUL>
0.0172283

>  <SCORE.INTRA.REPUL.0>
0

>  <SCORE.INTRA.SOLV>
2.09007

>  <SCORE.INTRA.SOLV.lig_0>
-82.9274

>  <SCORE.INTRA.VDW>
1.27814

>  <SCORE.INTRA.VDW.0>
-3.84922

>  <SCORE.INTRA.norm>
0.238146

>  <SCORE.RESTR>
0.000515034

>  <SCORE.RESTR.CAVITY>
0.000515034

>  <SCORE.RESTR.norm>
1.6614e-05

>  <SCORE.SYSTEM>
0

>  <SCORE.SYSTEM.CONST>
0

>  <SCORE.SYSTEM.DIHEDRAL>
0

>  <SCORE.SYSTEM.SOLV>
0

>  <SCORE.SYSTEM.norm>
0

>  <SCORE.heavy>
31

>  <SCORE.norm>
-0.434781

>  <RMSD>
8.787

$$$$
2o3x_lig
 OpenBabel11021811463D
libRbt.so/2013.1/901 2013/11/27
 31 33  0  0  0  0  0  0  0  0999 V2000
   16.9102    7.3840   12.2006 C   0  0  2  0  0  0  0  0  0  0  0  0
   17.3011    8.6754   12.6854 O   0  0  0  0  0  0  0  0  0  0  0  0
   18.8466   12.2163   10.8493 C   0  0  2  0  0  0  0  0  0  0  0  0
   19.5998   13.1574    9.9911 N   0  0  0  0  0  0  0  0  0  0  0  0
   15.8332    9.3578    8.8399 C   0  0  1  0  0  0  0  0  0  0  0  0
   16.0296    6.6947   13.2904 C   0  0  2  0  0  0  0  0  0  0  0  0
   14.9656    7.5956   13.8021 N   0  0  0  0  0  0  0  0  0  0  0  0
   19.7834   11.4371   11.8315 C   0  0  0  0  0  0  0  0  0  0  0  0
   16.1375    8.6052    7.5031 C   0  0  2  0  0  0  0  0  0  0  0  0
   16.9965    9.3029    6.5599 O   0  0  0  0  0  0  0  0  0  0  0  0
   16.8744    6.2256   14.4901 C   0  0  1  0  0  0  0  0  0  0  0  0
   16.0700    5.5641   15.4334 O   0  0  0  0  0  0  0  0  0  0  0  0
   18.8911   10.4913   12.7155 C   0  0  2  0  0  0  0  0  0  0  0  0
   19.7119    9.7217   13.6980 N   0  0  0  0  0  0  0  0  0  0  0  0
   14.7054    8.3672    7.0545 C   0  0  2  0  0  0  0  0  0  0  0  0
   14.1335    9.5767    6.4480 O   0  0  0  0  0  0  0  0  0  0  0  0
   17.9888    5.3130   14.0066 C   0  0  2  0  0  0  0  0  0  0  0  0
   18.7393    4.8697   15.0910 O   0  0  0  0  0  0  0  0  0  0  0  0
   18.1160    9.4811   11.8221 C   0  0  2  0  0  0  0  0  0  0  0  0
   13.9630    7.9950    8.3326 C   0  0  2  0  0  0  0  0  0  0  0  0
   14.5286    8.9285    9.2485 O   0  0  0  0  0  0  0  0  0  0  0  0
   18.8972    6.0733   12.9994 C   0  0  2  0  0  0  0  0  0  0  0  0
   18.1040    6.5411   11.8872 O   0  0  0  0  0  0  0  0  0  0  0  0
   17.2349   10.1617   10.7559 C   0  0  2  0  0  0  0  0  0  0  0  0
   16.7936    9.0742    9.8691 O   0  0  0  0  0  0  0  0  0  0  0  0
   14.1953    6.5270    8.8269 C   0  0  0  0  0  0  0  0  0  0  0  0
   13.3388    6.2404    9.9287 N   0  0  0  0  0  0  0  0  0  0  0  0
   20.0171    5.2106   12.4658 C   0  0  0  0  0  0  0  0  0  0  0  0
   20.9508    4.9283   13.4438 O   0  0  0  0  0  0  0  0  0  0  0  0
   18.0839   11.2348    9.9414 C   0  0  1  0  0  0  0  0  0  0  0  0
   17.2441   12.0360    9.0964 O   0  0  0  0  0  0  0  0  0  0  0  0
  1  2  1  1  0  0  0
  1  6  1  0  0  0  0
  1 23  1  0  0  0  0
  3  4  1  6  0  0  0
  3  8  1  0  0  0  0
  3 30  1  0  0  0  0
  5  9  1  0  0  0  0
  5 21  1  0  0  0  0
  5 25  1  1  0  0  0
  6  7  1  1  0  0  0
  6 11  1  0  0  0  0
  8 13  1  0  0  0  0
  9 10  1  6  0  0  0
  9 15  1  0  0  0  0
 11 12  1  1  0  0  0
 11 17  1  0  0  0  0
 13 14  1  1  0  0  0
 13 19  1  0  0  0  0
 15 16  1  1  0  0  0
 15 20  1  0  0  0  0
 17 18  1  1  0  0  0
 17 22  1  0  0  0  0
 19  2  1  1  0  0  0
 19 24  1  0  0  0  0
 20 21  1  0  0  0  0
 20 26  1  1  0  0  0
 22 23  1  0  0  0  0
 22 28  1  6  0  0  0
 24 25  1  6  0  0  0
 24 30  1  0  0  0  0
 26 27  1  0  0  0  0
 28 29  1  0  0  0  0
 30 31  1  6  0  0  0
M  END
>  <CHROM.1>
-179.63667845,140.80261433,-156.40639993,-173.18851439,-69.25455193,173.51652689
17.12964666,8.33012261,11.12780880,1.12047271,0.69649782,2.44100057

>  <Name>
2o3x_lig

>  <RI>
3.34184e+07

>  <Rbt.Current_Directory>
/home/itssahil/PROJECTS/Mol_Feturizer/New_Systems/rnas/2o3x

>  <Rbt.Executable>
rbdock ($Id: //depot/dev/client3/rdock/2013.1/src/exe/rbdock.cxx#4 $)

>  <Rbt.Library>
libRbt.so (2013.1, Build901 2013/11/27)

>  <Rbt.Parameter_File>
/export/apps/rDock/src/rDock_2013.1_src/data/scripts/dock_solv.prm

>  <Rbt.Receptor>
prm/pocket_docking_6.prm

>  <SCORE>
-11.4199

>  <SCORE.INTER>
-10.4692

>  <SCORE.INTER.CONST>
1

>  <SCORE.INTER.POLAR>
-0.959166

>  <SCORE.INTER.ROT>
6

>  <SCORE.INTER.SOLV>
19.2025

>  <SCORE.INTER.VDW>
-17.7831

>  <SCORE.INTER.norm>
-0.337716

>  <SCORE.INTRA>
-0.950698

>  <SCORE.INTRA.DIHEDRAL>
-0.90499

>  <SCORE.INTRA.DIHEDRAL.0>
9.37739

>  <SCORE.INTRA.POLAR>
0

>  <SCORE.INTRA.POLAR.0>
0

>  <SCORE.INTRA.REPUL>
0

>  <SCORE.INTRA.REPUL.0>
0

>  <SCORE.INTRA.SOLV>
-2.08524

>  <SCORE.INTRA.SOLV.lig_0>
-82.9274

>  <SCORE.INTRA.VDW>
0.544415

>  <SCORE.INTRA.VDW.0>
-3.84922

>  <SCORE.INTRA.norm>
-0.0306677

>  <SCORE.RESTR>
0

>  <SCORE.RESTR.CAVITY>
0

>  <SCORE.RESTR.norm>
0

>  <SCORE.SYSTEM>
0

>  <SCORE.SYSTEM.CONST>
0

>  <SCORE.SYSTEM.DIHEDRAL>
0

>  <SCORE.SYSTEM.SOLV>
0

>  <SCORE.SYSTEM.norm>
0

>  <SCORE.heavy>
31

>  <SCORE.norm>
-0.368384

>  <RMSD>
8.798

$$$$
2o3x_lig
 OpenBabel11021811463D
libRbt.so/2013.1/901 2013/11/27
 31 33  0  0  0  0  0  0  0  0999 V2000
   25.6757    7.9327   14.4254 C   0  0  2  0  0  0  0  0  0  0  0  0
   24.6517    8.3499   13.5129 O   0  0  0  0  0  0  0  0  0  0  0  0
   24.0526    7.7045    9.3269 C   0  0  2  0  0  0  0  0  0  0  0  0
   23.8807    7.0777    7.9976 N   0  0  0  0  0  0  0  0  0  0  0  0
   21.2604    7.5321   13.4604 C   0  0  1  0  0  0  0  0  0  0  0  0
   25.0584    7.8581   15.8578 C   0  0  2  0  0  0  0  0  0  0  0  0
   23.7704    7.1188   15.8741 N   0  0  0  0  0  0  0  0  0  0  0  0
   25.4931    7.4863    9.8984 C   0  0  0  0  0  0  0  0  0  0  0  0
   21.6014    9.0133   13.8288 C   0  0  2  0  0  0  0  0  0  0  0  0
   22.3217    9.2104   15.0764 O   0  0  0  0  0  0  0  0  0  0  0  0
   24.8098    9.2612   16.4429 C   0  0  1  0  0  0  0  0  0  0  0  0
   24.3024    9.1696   17.7500 O   0  0  0  0  0  0  0  0  0  0  0  0
   25.5844    8.2108   11.2910 C   0  0  2  0  0  0  0  0  0  0  0  0
   26.9415    8.0656   11.8980 N   0  0  0  0  0  0  0  0  0  0  0  0
   20.1938    9.5830   13.7714 C   0  0  2  0  0  0  0  0  0  0  0  0
   19.4451    9.2664   14.9949 O   0  0  0  0  0  0  0  0  0  0  0  0
   26.1027   10.0591   16.4279 C   0  0  2  0  0  0  0  0  0  0  0  0
   25.8858   11.3189   16.9771 O   0  0  0  0  0  0  0  0  0  0  0  0
   24.5365    7.6252   12.2800 C   0  0  2  0  0  0  0  0  0  0  0  0
   19.5615    8.9138   12.5567 C   0  0  2  0  0  0  0  0  0  0  0  0
   20.0410    7.5808   12.7096 O   0  0  0  0  0  0  0  0  0  0  0  0
   26.6271   10.1915   14.9701 C   0  0  2  0  0  0  0  0  0  0  0  0
   26.8333    8.8780   14.4068 O   0  0  0  0  0  0  0  0  0  0  0  0
   23.0894    7.7106   11.7559 C   0  0  2  0  0  0  0  0  0  0  0  0
   22.2929    6.8989   12.6889 O   0  0  0  0  0  0  0  0  0  0  0  0
   20.0023    9.5036   11.1743 C   0  0  0  0  0  0  0  0  0  0  0  0
   19.4989    8.6953   10.1145 N   0  0  0  0  0  0  0  0  0  0  0  0
   27.9250   10.9612   14.8902 C   0  0  0  0  0  0  0  0  0  0  0  0
   28.2754   11.2313   13.5817 O   0  0  0  0  0  0  0  0  0  0  0  0
   23.0000    7.1139   10.2823 C   0  0  1  0  0  0  0  0  0  0  0  0
   21.7207    7.3777    9.6864 O   0  0  0  0  0  0  0  0  0  0  0  0
  1  2  1  6  0  0  0
  1  6  1  0  0  0  0
  1 23  1  0  0  0  0
  3  4  1  6  0  0  0
  3  8  1  0  0  0  0
  3 30  1  0  0  0  0
  5  9  1  0  0  0  0
  5 21  1  0  0  0  0
  5 25  1  6  0  0  0
  6  7  1  6  0  0  0
  6 11  1  0  0  0  0
  8 13  1  0  0  0  0
  9 10  1  1  0  0  0
  9 15  1  0  0  0  0
 11 12  1  1  0  0  0
 11 17  1  0  0  0  0
 13 14  1  1  0  0  0
 13 19  1  0  0  0  0
 15 16  1  1  0  0  0
 15 20  1  0  0  0  0
 17 18  1  6  0  0  0
 17 22  1  0  0  0  0
 19  2  1  1  0  0  0
 19 24  1  0  0  0  0
 20 21  1  0  0  0  0
 20 26  1  6  0  0  0
 22 23  1  0  0  0  0
 22 28  1  1  0  0  0
 24 25  1  1  0  0  0
 24 30  1  0  0  0  0
 26 27  1  0  0  0  0
 28 29  1  0  0  0  0
 30 31  1  6  0  0  0
M  END
>  <CHROM.1>
-134.17956167,-32.41600536,-82.88434582,172.14869024,-171.47153141,117.49834544
23.68757529,8.62828858,13.26066745,-0.74876958,-0.08755136,-1.86404584

>  <Name>
2o3x_lig

>  <RI>
0

>  <Rbt.Current_Directory>
/home/itssahil/PROJECTS/Mol_Feturizer/New_Systems/rnas/2o3x

>  <Rbt.Executable>
rbdock ($Id: //depot/dev/client3/rdock/2013.1/src/exe/rbdock.cxx#4 $)

>  <Rbt.Library>
libRbt.so (2013.1, Build901 2013/11/27)

>  <Rbt.Parameter_File>
/export/apps/rDock/src/rDock_2013.1_src/data/scripts/dock_solv.prm

>  <Rbt.Receptor>
prm/blind_docking_40.prm

>  <SCORE>
37.4161

>  <SCORE.INTER>
18.034

>  <SCORE.INTER.CONST>
1

>  <SCORE.INTER.POLAR>
-0.592729

>  <SCORE.INTER.ROT>
6

>  <SCORE.INTER.SOLV>
30.1872

>  <SCORE.INTER.VDW>
-3.664

>  <SCORE.INTER.norm>
0.581741

>  <SCORE.INTRA>
8.40184

>  <SCORE.INTRA.DIHEDRAL>
10.0993

>  <SCORE.INTRA.DIHEDRAL.0>
9.37739

>  <SCORE.INTRA.POLAR>
0

>  <SCORE.INTRA.POLAR.0>
0

>  <SCORE.INTRA.REPUL>
0

>  <SCORE.INTRA.REPUL.0>
0

>  <SCORE.INTRA.SOLV>
6.52845

>  <SCORE.INTRA.SOLV.lig_0>
-82.9274

>  <SCORE.INTRA.VDW>
0.0879682

>  <SCORE.INTRA.VDW.0>
-3.84922

>  <SCORE.INTRA.norm>
0.271027

>  <SCORE.RESTR>
10.9803

>  <SCORE.RESTR.CAVITY>
10.9803

>  <SCORE.RESTR.norm>
0.354203

>  <SCORE.SYSTEM>
0

>  <SCORE.SYSTEM.CONST>
0

>  <SCORE.SYSTEM.DIHEDRAL>
0

>  <SCORE.SYSTEM.SOLV>
0

>  <SCORE.SYSTEM.norm>
0

>  <SCORE.heavy>
31

>  <SCORE.norm>
1.20697

>  <RMSD>
8.815

$$$$
2o3x_lig
 OpenBabel11021811463D
libRbt.so/2013.1/901 2013/11/27
 31 33  0  0  0  0  0  0  0  0999 V2000
   25.7976    8.1338   14.5524 C   0  0  2  0  0  0  0  0  0  0  0  0
   24.8614    8.5310   13.5418 O   0  0  0  0  0  0  0  0  0  0  0  0
   24.0059    7.5283    9.4723 C   0  0  2  0  0  0  0  0  0  0  0  0
   23.8606    6.8072    8.1884 N   0  0  0  0  0  0  0  0  0  0  0  0
   21.4733    6.2740   13.2148 C   0  0  1  0  0  0  0  0  0  0  0  0
   25.4228    8.8594   15.8834 C   0  0  2  0  0  0  0  0  0  0  0  0
   23.9750    8.7450   16.1944 N   0  0  0  0  0  0  0  0  0  0  0  0
   25.5065    7.7132    9.8767 C   0  0  0  0  0  0  0  0  0  0  0  0
   20.6069    7.0275   12.1528 C   0  0  2  0  0  0  0  0  0  0  0  0
   20.2024    8.3795   12.5031 O   0  0  0  0  0  0  0  0  0  0  0  0
   25.7828   10.3563   15.8351 C   0  0  1  0  0  0  0  0  0  0  0  0
   25.4840   10.9770   17.0598 O   0  0  0  0  0  0  0  0  0  0  0  0
   25.5560    8.5118   11.2302 C   0  0  2  0  0  0  0  0  0  0  0  0
   26.9614    8.7480   11.6778 N   0  0  0  0  0  0  0  0  0  0  0  0
   19.4884    6.0077   12.0190 C   0  0  2  0  0  0  0  0  0  0  0  0
   18.5361    6.1184   13.1319 O   0  0  0  0  0  0  0  0  0  0  0  0
   27.2561   10.5185   15.5010 C   0  0  2  0  0  0  0  0  0  0  0  0
   27.5890   11.8693   15.4795 O   0  0  0  0  0  0  0  0  0  0  0  0
   24.8060    7.7347   12.3495 C   0  0  2  0  0  0  0  0  0  0  0  0
   20.1981    4.6590   12.0408 C   0  0  2  0  0  0  0  0  0  0  0  0
   21.1609    4.8835   13.0670 O   0  0  0  0  0  0  0  0  0  0  0  0
   27.5619    9.8677   14.1224 C   0  0  2  0  0  0  0  0  0  0  0  0
   27.1980    8.4707   14.1532 O   0  0  0  0  0  0  0  0  0  0  0  0
   23.3383    7.4226   11.9964 C   0  0  2  0  0  0  0  0  0  0  0  0
   22.8820    6.4876   13.0363 O   0  0  0  0  0  0  0  0  0  0  0  0
   20.9034    4.2627   10.6996 C   0  0  0  0  0  0  0  0  0  0  0  0
   19.9291    3.9814    9.6989 N   0  0  0  0  0  0  0  0  0  0  0  0
   29.0197    9.9794   13.7410 C   0  0  0  0  0  0  0  0  0  0  0  0
   29.3885   11.2926   13.5234 O   0  0  0  0  0  0  0  0  0  0  0  0
   23.2491    6.7434   10.5588 C   0  0  1  0  0  0  0  0  0  0  0  0
   21.8890    6.6422   10.1102 O   0  0  0  0  0  0  0  0  0  0  0  0
  1  2  1  6  0  0  0
  1  6  1  0  0  0  0
  1 23  1  0  0  0  0
  3  4  1  6  0  0  0
  3  8  1  0  0  0  0
  3 30  1  0  0  0  0
  5  9  1  0  0  0  0
  5 21  1  0  0  0  0
  5 25  1  6  0  0  0
  6  7  1  6  0  0  0
  6 11  1  0  0  0  0
  8 13  1  0  0  0  0
  9 10  1  1  0  0  0
  9 15  1  0  0  0  0
 11 12  1  1  0  0  0
 11 17  1  0  0  0  0
 13 14  1  1  0  0  0
 13 19  1  0  0  0  0
 15 16  1  1  0  0  0
 15 20  1  0  0  0  0
 17 18  1  6  0  0  0
 17 22  1  0  0  0  0
 19  2  1  1  0  0  0
 19 24  1  0  0  0  0
 20 21  1  0  0  0  0
 20 26  1  6  0  0  0
 22 23  1  0  0  0  0
 22 28  1  1  0  0  0
 24 25  1  1  0  0  0
 24 30  1  0  0  0  0
 26 27  1  0  0  0  0
 28 29  1  0  0  0  0
 30 31  1  6  0  0  0
M  END
>  <CHROM.1>
-164.35240200,4.41363961,-103.13389490,-69.48401852,-66.21884190,163.46187217
23.99626763,7.87964466,12.82437013,0.58011710,0.43529661,1.20868834

>  <Name>
2o3x_lig

>  <RI>
0

>  <Rbt.Current_Directory>
/home/itssahil/PROJECTS/Mol_Feturizer/New_Systems/rnas/2o3x

>  <Rbt.Executable>
rbdock ($Id: //depot/dev/client3/rdock/2013.1/src/exe/rbdock.cxx#4 $)

>  <Rbt.Library>
libRbt.so (2013.1, Build901 2013/11/27)

>  <Rbt.Parameter_File>
/export/apps/rDock/src/rDock_2013.1_src/data/scripts/dock_solv.prm

>  <Rbt.Receptor>
prm/blind_docking_60.prm

>  <SCORE>
38.9499

>  <SCORE.INTER>
18.3408

>  <SCORE.INTER.CONST>
1

>  <SCORE.INTER.POLAR>
-0.284574

>  <SCORE.INTER.ROT>
6

>  <SCORE.INTER.SOLV>
28.1285

>  <SCORE.INTER.VDW>
-3.80039

>  <SCORE.INTER.norm>
0.591638

>  <SCORE.INTRA>
11.6123

>  <SCORE.INTRA.DIHEDRAL>
6.57114

>  <SCORE.INTRA.DIHEDRAL.0>
9.37739

>  <SCORE.INTRA.POLAR>
0

>  <SCORE.INTRA.POLAR.0>
0

>  <SCORE.INTRA.REPUL>
0

>  <SCORE.INTRA.REPUL.0>
0

>  <SCORE.INTRA.SOLV>
3.42489

>  <SCORE.INTRA.SOLV.lig_0>
-82.9274

>  <SCORE.INTRA.VDW>
6.61424

>  <SCORE.INTRA.VDW.0>
-3.84922

>  <SCORE.INTRA.norm>
0.374589

>  <SCORE.RESTR>
8.99687

>  <SCORE.RESTR.CAVITY>
8.99687

>  <SCORE.RESTR.norm>
0.290222

>  <SCORE.SYSTEM>
0

>  <SCORE.SYSTEM.CONST>
0

>  <SCORE.SYSTEM.DIHEDRAL>
0

>  <SCORE.SYSTEM.SOLV>
0

>  <SCORE.SYSTEM.norm>
0

>  <SCORE.heavy>
31

>  <SCORE.norm>
1.25645

>  <RMSD>
8.831

$$$$
2o3x_lig
 OpenBabel11021811463D
libRbt.so/2013.1/901 2013/11/27
 31 33  0  0  0  0  0  0  0  0999 V2000
   24.7795    7.8590   12.6571 C   0  0  2  0  0  0  0  0  0  0  0  0
   23.6489    8.6946   12.3761 O   0  0  0  0  0  0  0  0  0  0  0  0
   20.4280    5.8985   12.7009 C   0  0  2  0  0  0  0  0  0  0  0  0
   19.1933    5.1208   12.4559 N   0  0  0  0  0  0  0  0  0  0  0  0
   23.6395    5.5253    9.5379 C   0  0  1  0  0  0  0  0  0  0  0  0
   24.6691    7.3609   14.1329 C   0  0  2  0  0  0  0  0  0  0  0  0
   23.3179    6.8287   14.4441 N   0  0  0  0  0  0  0  0  0  0  0  0
   20.1239    7.3999   13.0211 C   0  0  0  0  0  0  0  0  0  0  0  0
   22.5377    5.2075    8.4744 C   0  0  2  0  0  0  0  0  0  0  0  0
   21.4377    4.3708    8.9264 O   0  0  0  0  0  0  0  0  0  0  0  0
   24.9806    8.4866   15.1372 C   0  0  1  0  0  0  0  0  0  0  0  0
   24.9250    8.0032   16.4554 O   0  0  0  0  0  0  0  0  0  0  0  0
   21.4891    8.1306   13.2944 C   0  0  2  0  0  0  0  0  0  0  0  0
   21.2837    9.5720   13.6283 N   0  0  0  0  0  0  0  0  0  0  0  0
   23.4340    4.6124    7.4013 C   0  0  2  0  0  0  0  0  0  0  0  0
   23.7813    3.2200    7.7149 O   0  0  0  0  0  0  0  0  0  0  0  0
   26.3512    9.0721   14.8417 C   0  0  2  0  0  0  0  0  0  0  0  0
   26.6446   10.0736   15.7618 O   0  0  0  0  0  0  0  0  0  0  0  0
   22.4150    8.0402   12.0479 C   0  0  2  0  0  0  0  0  0  0  0  0
   24.6744    5.4981    7.4070 C   0  0  2  0  0  0  0  0  0  0  0  0
   24.8624    5.6808    8.8076 O   0  0  0  0  0  0  0  0  0  0  0  0
   26.3828    9.6443   13.3963 C   0  0  2  0  0  0  0  0  0  0  0  0
   26.0619    8.5993   12.4529 O   0  0  0  0  0  0  0  0  0  0  0  0
   22.6939    6.5919   11.5995 C   0  0  2  0  0  0  0  0  0  0  0  0
   23.3578    6.7141   10.2926 O   0  0  0  0  0  0  0  0  0  0  0  0
   24.5023    6.8793    6.6886 C   0  0  0  0  0  0  0  0  0  0  0  0
   23.4570    7.6250    7.3059 N   0  0  0  0  0  0  0  0  0  0  0  0
   27.7296   10.2259   13.0341 C   0  0  0  0  0  0  0  0  0  0  0  0
   28.7644    9.4310   13.4872 O   0  0  0  0  0  0  0  0  0  0  0  0
   21.3281    5.7856   11.4572 C   0  0  1  0  0  0  0  0  0  0  0  0
   21.5651    4.3839   11.2563 O   0  0  0  0  0  0  0  0  0  0  0  0
  1  2  1  1  0  0  0
  1  6  1  0  0  0  0
  1 23  1  0  0  0  0
  3  4  1  6  0  0  0
  3  8  1  0  0  0  0
  3 30  1  0  0  0  0
  5  9  1  0  0  0  0
  5 21  1  0  0  0  0
  5 25  1  6  0  0  0
  6  7  1  1  0  0  0
  6 11  1  0  0  0  0
  8 13  1  0  0  0  0
  9 10  1  1  0  0  0
  9 15  1  0  0  0  0
 11 12  1  1  0  0  0
 11 17  1  0  0  0  0
 13 14  1  6  0  0  0
 13 19  1  0  0  0  0
 15 16  1  1  0  0  0
 15 20  1  0  0  0  0
 17 18  1  1  0  0  0
 17 22  1  0  0  0  0
 19  2  1  1  0  0  0
 19 24  1  0  0  0  0
 20 21  1  0  0  0  0
 20 26  1  6  0  0  0
 22 23  1  0  0  0  0
 22 28  1  6  0  0  0
 24 25  1  6  0  0  0
 24 30  1  0  0  0  0
 26 27  1  0  0  0  0
 28 29  1  0  0  0  0
 30 31  1  1  0  0  0
M  END
>  <CHROM.1>
-80.83819694,95.75765910,104.20859999,59.21280463,41.64264696,-174.10315372
23.73332367,7.10951244,11.68559430,-1.11648380,-0.38118492,-1.99210707

>  <Name>
2o3x_lig

>  <RI>
0

>  <Rbt.Current_Directory>
/home/itssahil/PROJECTS/Mol_Feturizer/New_Systems/rnas/2o3x

>  <Rbt.Executable>
rbdock ($Id: //depot/dev/client3/rdock/2013.1/src/exe/rbdock.cxx#4 $)

>  <Rbt.Library>
libRbt.so (2013.1, Build901 2013/11/27)

>  <Rbt.Parameter_File>
/export/apps/rDock/src/rDock_2013.1_src/data/scripts/dock_solv.prm

>  <Rbt.Receptor>
prm/blind_docking_40.prm

>  <SCORE>
11.0929

>  <SCORE.INTER>
-7.26898

>  <SCORE.INTER.CONST>
1

>  <SCORE.INTER.POLAR>
0

>  <SCORE.INTER.ROT>
6

>  <SCORE.INTER.SOLV>
24.3676

>  <SCORE.INTER.VDW>
-20.5685

>  <SCORE.INTER.norm>
-0.234483

>  <SCORE.INTRA>
13.502

>  <SCORE.INTRA.DIHEDRAL>
4.65245

>  <SCORE.INTRA.DIHEDRAL.0>
9.37739

>  <SCORE.INTRA.POLAR>
0

>  <SCORE.INTRA.POLAR.0>
0

>  <SCORE.INTRA.REPUL>
0

>  <SCORE.INTRA.REPUL.0>
0

>  <SCORE.INTRA.SOLV>
7.25631

>  <SCORE.INTRA.SOLV.lig_0>
-82.9274

>  <SCORE.INTRA.VDW>
7.54762

>  <SCORE.INTRA.VDW.0>
-3.84922

>  <SCORE.INTRA.norm>
0.435549

>  <SCORE.RESTR>
4.85987

>  <SCORE.RESTR.CAVITY>
4.85987

>  <SCORE.RESTR.norm>
0.15677

>  <SCORE.SYSTEM>
0

>  <SCORE.SYSTEM.CONST>
0

>  <SCORE.SYSTEM.DIHEDRAL>
0

>  <SCORE.SYSTEM.SOLV>
0

>  <SCORE.SYSTEM.norm>
0

>  <SCORE.heavy>
31

>  <SCORE.norm>
0.357835

>  <RMSD>
8.933

$$$$
2o3x_lig
 OpenBabel11021811463D
libRbt.so/2013.1/901 2013/11/27
 31 33  0  0  0  0  0  0  0  0999 V2000
   24.6451    7.7200   12.9585 C   0  0  2  0  0  0  0  0  0  0  0  0
   23.5155    8.5419   12.6362 O   0  0  0  0  0  0  0  0  0  0  0  0
   20.1604    5.9019   12.9037 C   0  0  2  0  0  0  0  0  0  0  0  0
   18.9383    5.1243   12.6014 N   0  0  0  0  0  0  0  0  0  0  0  0
   22.8167    6.3905    9.5534 C   0  0  1  0  0  0  0  0  0  0  0  0
   24.4558    7.1690   14.4073 C   0  0  2  0  0  0  0  0  0  0  0  0
   23.1003    6.5993   14.6165 N   0  0  0  0  0  0  0  0  0  0  0  0
   19.8814    7.4411   12.9522 C   0  0  0  0  0  0  0  0  0  0  0  0
   23.8618    6.4333    8.3906 C   0  0  2  0  0  0  0  0  0  0  0  0
   24.3441    7.7527    8.0152 O   0  0  0  0  0  0  0  0  0  0  0  0
   24.6804    8.2653   15.4658 C   0  0  1  0  0  0  0  0  0  0  0  0
   24.5552    7.7356   16.7612 O   0  0  0  0  0  0  0  0  0  0  0  0
   21.2266    8.1735   13.3079 C   0  0  2  0  0  0  0  0  0  0  0  0
   21.0407    9.6532   13.3927 N   0  0  0  0  0  0  0  0  0  0  0  0
   23.0512    5.6931    7.3399 C   0  0  2  0  0  0  0  0  0  0  0  0
   22.0593    6.5792    6.7164 O   0  0  0  0  0  0  0  0  0  0  0  0
   26.0532    8.8881   15.2752 C   0  0  2  0  0  0  0  0  0  0  0  0
   26.2675    9.8629   16.2445 O   0  0  0  0  0  0  0  0  0  0  0  0
   22.3113    7.8735   12.2343 C   0  0  2  0  0  0  0  0  0  0  0  0
   22.3695    4.5672    8.1085 C   0  0  2  0  0  0  0  0  0  0  0  0
   21.9837    5.2534    9.2962 O   0  0  0  0  0  0  0  0  0  0  0  0
   26.1602    9.5105   13.8544 C   0  0  2  0  0  0  0  0  0  0  0  0
   25.9208    8.4925   12.8587 O   0  0  0  0  0  0  0  0  0  0  0  0
   22.5853    6.3679   12.0490 C   0  0  2  0  0  0  0  0  0  0  0  0
   23.4286    6.2746   10.8473 O   0  0  0  0  0  0  0  0  0  0  0  0
   23.2923    3.3486    8.4503 C   0  0  0  0  0  0  0  0  0  0  0  0
   24.0939    3.6464    9.5899 N   0  0  0  0  0  0  0  0  0  0  0  0
   27.5134   10.1312   13.5956 C   0  0  0  0  0  0  0  0  0  0  0  0
   27.8264   10.1243   12.2503 O   0  0  0  0  0  0  0  0  0  0  0  0
   21.2182    5.5806   11.8326 C   0  0  1  0  0  0  0  0  0  0  0  0
   21.4186    4.1597   11.8766 O   0  0  0  0  0  0  0  0  0  0  0  0
  1  2  1  1  0  0  0
  1  6  1  0  0  0  0
  1 23  1  0  0  0  0
  3  4  1  6  0  0  0
  3  8  1  0  0  0  0
  3 30  1  0  0  0  0
  5  9  1  0  0  0  0
  5 21  1  0  0  0  0
  5 25  1  1  0  0  0
  6  7  1  6  0  0  0
  6 11  1  0  0  0  0
  8 13  1  0  0  0  0
  9 10  1  6  0  0  0
  9 15  1  0  0  0  0
 11 12  1  1  0  0  0
 11 17  1  0  0  0  0
 13 14  1  6  0  0  0
 13 19  1  0  0  0  0
 15 16  1  1  0  0  0
 15 20  1  0  0  0  0
 17 18  1  1  0  0  0
 17 22  1  0  0  0  0
 19  2  1  1  0  0  0
 19 24  1  0  0  0  0
 20 21  1  0  0  0  0
 20 26  1  1  0  0  0
 22 23  1  0  0  0  0
 22 28  1  6  0  0  0
 24 25  1  6  0  0  0
 24 30  1  0  0  0  0
 26 27  1  0  0  0  0
 28 29  1  0  0  0  0
 30 31  1  1  0  0  0
M  END
>  <CHROM.1>
-79.72762546,173.46670706,115.63201833,80.03533625,152.62357793,-78.10072334
23.41778876,7.09216265,11.93791819,-1.05992003,-0.46700223,-1.90489549

>  <Name>
2o3x_lig

>  <RI>
0

>  <Rbt.Current_Directory>
/home/itssahil/PROJECTS/Mol_Feturizer/New_Systems/rnas/2o3x

>  <Rbt.Executable>
rbdock ($Id: //depot/dev/client3/rdock/2013.1/src/exe/rbdock.cxx#4 $)

>  <Rbt.Library>
libRbt.so (2013.1, Build901 2013/11/27)

>  <Rbt.Parameter_File>
/export/apps/rDock/src/rDock_2013.1_src/data/scripts/dock_solv.prm

>  <Rbt.Receptor>
prm/blind_docking_60.prm

>  <SCORE>
9.88232

>  <SCORE.INTER>
-8.86394

>  <SCORE.INTER.CONST>
1

>  <SCORE.INTER.POLAR>
-0.607041

>  <SCORE.INTER.ROT>
6

>  <SCORE.INTER.SOLV>
28.083

>  <SCORE.INTER.VDW>
-20.8468

>  <SCORE.INTER.norm>
-0.285934

>  <SCORE.INTRA>
12.5922

>  <SCORE.INTRA.DIHEDRAL>
4.77594

>  <SCORE.INTRA.DIHEDRAL.0>
9.37739

>  <SCORE.INTRA.POLAR>
0

>  <SCORE.INTRA.POLAR.0>
0

>  <SCORE.INTRA.REPUL>
0

>  <SCORE.INTRA.REPUL.0>
0

>  <SCORE.INTRA.SOLV>
6.8731

>  <SCORE.INTRA.SOLV.lig_0>
-82.9274

>  <SCORE.INTRA.VDW>
6.76768

>  <SCORE.INTRA.VDW.0>
-3.84922

>  <SCORE.INTRA.norm>
0.4062

>  <SCORE.RESTR>
6.15405

>  <SCORE.RESTR.CAVITY>
6.15405

>  <SCORE.RESTR.norm>
0.198518

>  <SCORE.SYSTEM>
0

>  <SCORE.SYSTEM.CONST>
0

>  <SCORE.SYSTEM.DIHEDRAL>
0

>  <SCORE.SYSTEM.SOLV>
0

>  <SCORE.SYSTEM.norm>
0

>  <SCORE.heavy>
31

>  <SCORE.norm>
0.318785

>  <RMSD>
8.942

$$$$
2o3x_lig
 OpenBabel11021811463D
libRbt.so/2013.1/901 2013/11/27
 31 33  0  0  0  0  0  0  0  0999 V2000
   24.5019    7.7029   12.8698 C   0  0  2  0  0  0  0  0  0  0  0  0
   23.3364    8.5060   12.6417 O   0  0  0  0  0  0  0  0  0  0  0  0
   19.7909    6.1625   13.1268 C   0  0  2  0  0  0  0  0  0  0  0  0
   18.5503    5.3963   12.8752 N   0  0  0  0  0  0  0  0  0  0  0  0
   22.8918    6.0827   10.0283 C   0  0  1  0  0  0  0  0  0  0  0  0
   24.5022    7.2484   14.3637 C   0  0  2  0  0  0  0  0  0  0  0  0
   23.1873    6.6986   14.7815 N   0  0  0  0  0  0  0  0  0  0  0  0
   19.6193    7.6835   12.8005 C   0  0  0  0  0  0  0  0  0  0  0  0
   24.0091    5.6187    9.0371 C   0  0  2  0  0  0  0  0  0  0  0  0
   24.9891    6.6260    8.6642 O   0  0  0  0  0  0  0  0  0  0  0  0
   24.8552    8.4108   15.3109 C   0  0  1  0  0  0  0  0  0  0  0  0
   24.8993    7.9674   16.6435 O   0  0  0  0  0  0  0  0  0  0  0  0
   20.9738    8.4122   13.1273 C   0  0  2  0  0  0  0  0  0  0  0  0
   20.8871    9.8792   12.8596 N   0  0  0  0  0  0  0  0  0  0  0  0
   23.1136    5.1103    7.9197 C   0  0  2  0  0  0  0  0  0  0  0  0
   22.6053    6.2204    7.1031 O   0  0  0  0  0  0  0  0  0  0  0  0
   26.1892    9.0148   14.9058 C   0  0  2  0  0  0  0  0  0  0  0  0
   26.5213   10.0501   15.7740 O   0  0  0  0  0  0  0  0  0  0  0  0
   22.1307    7.8223   12.2713 C   0  0  2  0  0  0  0  0  0  0  0  0
   21.9749    4.3969    8.6392 C   0  0  2  0  0  0  0  0  0  0  0  0
   21.7328    5.3014    9.7132 O   0  0  0  0  0  0  0  0  0  0  0  0
   26.1106    9.5426   13.4454 C   0  0  2  0  0  0  0  0  0  0  0  0
   25.7505    8.4626   12.5572 O   0  0  0  0  0  0  0  0  0  0  0  0
   22.3127    6.3028   12.4569 C   0  0  2  0  0  0  0  0  0  0  0  0
   23.2566    5.8962   11.4046 O   0  0  0  0  0  0  0  0  0  0  0  0
   22.3297    2.9728    9.1865 C   0  0  0  0  0  0  0  0  0  0  0  0
   23.5668    3.0139    9.8918 N   0  0  0  0  0  0  0  0  0  0  0  0
   27.4166   10.1401   12.9755 C   0  0  0  0  0  0  0  0  0  0  0  0
   28.5009    9.4314   13.4550 O   0  0  0  0  0  0  0  0  0  0  0  0
   20.9192    5.5538   12.2750 C   0  0  1  0  0  0  0  0  0  0  0  0
   21.0125    4.1728   12.6560 O   0  0  0  0  0  0  0  0  0  0  0  0
  1  2  1  1  0  0  0
  1  6  1  0  0  0  0
  1 23  1  0  0  0  0
  3  4  1  6  0  0  0
  3  8  1  0  0  0  0
  3 30  1  0  0  0  0
  5  9  1  0  0  0  0
  5 21  1  0  0  0  0
  5 25  1  1  0  0  0
  6  7  1  1  0  0  0
  6 11  1  0  0  0  0
  8 13  1  0  0  0  0
  9 10  1  6  0  0  0
  9 15  1  0  0  0  0
 11 12  1  1  0  0  0
 11 17  1  0  0  0  0
 13 14  1  6  0  0  0
 13 19  1  0  0  0  0
 15 16  1  1  0  0  0
 15 20  1  0  0  0  0
 17 18  1  1  0  0  0
 17 22  1  0  0  0  0
 19  2  1  1  0  0  0
 19 24  1  0  0  0  0
 20 21  1  0  0  0  0
 20 26  1  1  0  0  0
 22 23  1  0  0  0  0
 22 28  1  6  0  0  0
 24 25  1  6  0  0  0
 24 30  1  0  0  0  0
 26 27  1  0  0  0  0
 28 29  1  0  0  0  0
 30 31  1  1  0  0  0
M  END
>  <CHROM.1>
-87.57575727,179.22093754,134.23776044,47.70211512,37.62394823,-61.59781367
23.35213649,6.97514135,12.11834675,-0.95169310,-0.34422310,-2.05925000

>  <Name>
2o3x_lig

>  <RI>
0

>  <Rbt.Current_Directory>
/home/itssahil/PROJECTS/Mol_Feturizer/New_Systems/rnas/2o3x

>  <Rbt.Executable>
rbdock ($Id: //depot/dev/client3/rdock/2013.1/src/exe/rbdock.cxx#4 $)

>  <Rbt.Library>
libRbt.so (2013.1, Build901 2013/11/27)

>  <Rbt.Parameter_File>
/export/apps/rDock/src/rDock_2013.1_src/data/scripts/dock_solv.prm

>  <Rbt.Receptor>
prm/blind_docking_80.prm

>  <SCORE>
13.5426

>  <SCORE.INTER>
-5.68016

>  <SCORE.INTER.CONST>
1

>  <SCORE.INTER.POLAR>
0

>  <SCORE.INTER.ROT>
6

>  <SCORE.INTER.SOLV>
28.9684

>  <SCORE.INTER.VDW>
-21.0429

>  <SCORE.INTER.norm>
-0.183231

>  <SCORE.INTRA>
11.7093

>  <SCORE.INTRA.DIHEDRAL>
2.25928

>  <SCORE.INTRA.DIHEDRAL.0>
9.37739

>  <SCORE.INTRA.POLAR>
0

>  <SCORE.INTRA.POLAR.0>
0

>  <SCORE.INTRA.REPUL>
0

>  <SCORE.INTRA.REPUL.0>
0

>  <SCORE.INTRA.SOLV>
5.48046

>  <SCORE.INTRA.SOLV.lig_0>
-82.9274

>  <SCORE.INTRA.VDW>
7.83944

>  <SCORE.INTRA.VDW.0>
-3.84922

>  <SCORE.INTRA.norm>
0.37772

>  <SCORE.RESTR>
7.51345

>  <SCORE.RESTR.CAVITY>
7.51345

>  <SCORE.RESTR.norm>
0.242369

>  <SCORE.SYSTEM>
0

>  <SCORE.SYSTEM.CONST>
0

>  <SCORE.SYSTEM.DIHEDRAL>
0

>  <SCORE.SYSTEM.SOLV>
0

>  <SCORE.SYSTEM.norm>
0

>  <SCORE.heavy>
31

>  <SCORE.norm>
0.436858

>  <RMSD>
8.960

$$$$
2o3x_lig
 OpenBabel11021811463D
libRbt.so/2013.1/901 2013/11/27
 31 33  0  0  0  0  0  0  0  0999 V2000
   24.6829    7.8209   12.9663 C   0  0  2  0  0  0  0  0  0  0  0  0
   23.5248    8.6245   12.7047 O   0  0  0  0  0  0  0  0  0  0  0  0
   20.2197    5.9175   12.9202 C   0  0  2  0  0  0  0  0  0  0  0  0
   19.0120    5.1236   12.6027 N   0  0  0  0  0  0  0  0  0  0  0  0
   22.8606    6.5007    9.5782 C   0  0  1  0  0  0  0  0  0  0  0  0
   24.6602    7.3989   14.4696 C   0  0  2  0  0  0  0  0  0  0  0  0
   23.3369    6.8646   14.8808 N   0  0  0  0  0  0  0  0  0  0  0  0
   19.9121    7.4500   13.0001 C   0  0  0  0  0  0  0  0  0  0  0  0
   23.9004    6.5354    8.4104 C   0  0  2  0  0  0  0  0  0  0  0  0
   24.3817    7.8521    8.0242 O   0  0  0  0  0  0  0  0  0  0  0  0
   25.0060    8.5799   15.3962 C   0  0  1  0  0  0  0  0  0  0  0  0
   25.0294    8.1654   16.7386 O   0  0  0  0  0  0  0  0  0  0  0  0
   21.2437    8.1999   13.3700 C   0  0  2  0  0  0  0  0  0  0  0  0
   21.0304    9.6739   13.4851 N   0  0  0  0  0  0  0  0  0  0  0  0
   23.0845    5.7888    7.3683 C   0  0  2  0  0  0  0  0  0  0  0  0
   22.0903    6.6714    6.7436 O   0  0  0  0  0  0  0  0  0  0  0  0
   26.3486    9.1686   14.9968 C   0  0  2  0  0  0  0  0  0  0  0  0
   26.6739   10.2208   15.8469 O   0  0  0  0  0  0  0  0  0  0  0  0
   22.3328    7.9421   12.2900 C   0  0  2  0  0  0  0  0  0  0  0  0
   22.4058    4.6683    8.1472 C   0  0  2  0  0  0  0  0  0  0  0  0
   22.0259    5.3624    9.3322 O   0  0  0  0  0  0  0  0  0  0  0  0
   26.2929    9.6648   13.5243 C   0  0  2  0  0  0  0  0  0  0  0  0
   25.9396    8.5676   12.6548 O   0  0  0  0  0  0  0  0  0  0  0  0
   22.6347    6.4459   12.0738 C   0  0  2  0  0  0  0  0  0  0  0  0
   23.4784    6.3928   10.8700 O   0  0  0  0  0  0  0  0  0  0  0  0
   23.3296    3.4514    8.4928 C   0  0  0  0  0  0  0  0  0  0  0  0
   22.5746    2.4330    9.1427 N   0  0  0  0  0  0  0  0  0  0  0  0
   27.6083   10.2458   13.0599 C   0  0  0  0  0  0  0  0  0  0  0  0
   28.6396    9.3362   13.1909 O   0  0  0  0  0  0  0  0  0  0  0  0
   21.2822    5.6379   11.8421 C   0  0  1  0  0  0  0  0  0  0  0  0
   21.5091    4.2203   11.8570 O   0  0  0  0  0  0  0  0  0  0  0  0
  1  2  1  1  0  0  0
  1  6  1  0  0  0  0
  1 23  1  0  0  0  0
  3  4  1  6  0  0  0
  3  8  1  0  0  0  0
  3 30  1  0  0  0  0
  5  9  1  0  0  0  0
  5 21  1  0  0  0  0
  5 25  1  1  0  0  0
  6  7  1  1  0  0  0
  6 11  1  0  0  0  0
  8 13  1  0  0  0  0
  9 10  1  6  0  0  0
  9 15  1  0  0  0  0
 11 12  1  1  0  0  0
 11 17  1  0  0  0  0
 13 14  1  6  0  0  0
 13 19  1  0  0  0  0
 15 16  1  1  0  0  0
 15 20  1  0  0  0  0
 17 18  1  1  0  0  0
 17 22  1  0  0  0  0
 19  2  1  1  0  0  0
 19 24  1  0  0  0  0
 20 21  1  0  0  0  0
 20 26  1  1  0  0  0
 22 23  1  0  0  0  0
 22 28  1  6  0  0  0
 24 25  1  6  0  0  0
 24 30  1  0  0  0  0
 26 27  1  0  0  0  0
 28 29  1  0  0  0  0
 30 31  1  1  0  0  0
M  END
>  <CHROM.1>
-89.55979966,175.64670950,117.67095882,-176.33085040,57.04908304,-79.15886059
23.49607317,7.14426806,11.92792799,-0.99431097,-0.44604164,-1.92855945

>  <Name>
2o3x_lig

>  <RI>
0

>  <Rbt.Current_Directory>
/home/itssahil/PROJECTS/Mol_Feturizer/New_Systems/rnas/2o3x

>  <Rbt.Executable>
rbdock ($Id: //depot/dev/client3/rdock/2013.1/src/exe/rbdock.cxx#4 $)

>  <Rbt.Library>
libRbt.so (2013.1, Build901 2013/11/27)

>  <Rbt.Parameter_File>
/export/apps/rDock/src/rDock_2013.1_src/data/scripts/dock_solv.prm

>  <Rbt.Receptor>
prm/blind_docking_60.prm

>  <SCORE>
7.87012

>  <SCORE.INTER>
-6.16812

>  <SCORE.INTER.CONST>
1

>  <SCORE.INTER.POLAR>
0

>  <SCORE.INTER.ROT>
6

>  <SCORE.INTER.SOLV>
27.208

>  <SCORE.INTER.VDW>
-20.7814

>  <SCORE.INTER.norm>
-0.198971

>  <SCORE.INTRA>
8.35614

>  <SCORE.INTRA.DIHEDRAL>
3.22455

>  <SCORE.INTRA.DIHEDRAL.0>
9.37739

>  <SCORE.INTRA.POLAR>
0

>  <SCORE.INTRA.POLAR.0>
0

>  <SCORE.INTRA.REPUL>
0

>  <SCORE.INTRA.REPUL.0>
0

>  <SCORE.INTRA.SOLV>
2.68654

>  <SCORE.INTRA.SOLV.lig_0>
-82.9274

>  <SCORE.INTRA.VDW>
5.40059

>  <SCORE.INTRA.VDW.0>
-3.84922

>  <SCORE.INTRA.norm>
0.269553

>  <SCORE.RESTR>
5.68209

>  <SCORE.RESTR.CAVITY>
5.68209

>  <SCORE.RESTR.norm>
0.183293

>  <SCORE.SYSTEM>
0

>  <SCORE.SYSTEM.CONST>
0

>  <SCORE.SYSTEM.DIHEDRAL>
0

>  <SCORE.SYSTEM.SOLV>
0

>  <SCORE.SYSTEM.norm>
0

>  <SCORE.heavy>
31

>  <SCORE.norm>
0.253875

>  <RMSD>
8.965

$$$$
2o3x_lig
 OpenBabel11021811463D
libRbt.so/2013.1/901 2013/11/27
 31 33  0  0  0  0  0  0  0  0999 V2000
   24.8154    7.7871   12.7765 C   0  0  2  0  0  0  0  0  0  0  0  0
   23.7352    8.6709   12.4489 O   0  0  0  0  0  0  0  0  0  0  0  0
   20.4188    5.9826   12.7180 C   0  0  2  0  0  0  0  0  0  0  0  0
   19.1550    5.2573   12.4609 N   0  0  0  0  0  0  0  0  0  0  0  0
   23.6644    5.5857    9.5528 C   0  0  1  0  0  0  0  0  0  0  0  0
   24.6849    7.3861   14.2800 C   0  0  2  0  0  0  0  0  0  0  0  0
   23.3063    6.9561   14.6267 N   0  0  0  0  0  0  0  0  0  0  0  0
   20.1714    7.4833   13.0867 C   0  0  0  0  0  0  0  0  0  0  0  0
   22.5804    5.2564    8.4746 C   0  0  2  0  0  0  0  0  0  0  0  0
   21.4873    4.4019    8.9098 O   0  0  0  0  0  0  0  0  0  0  0  0
   25.0701    8.5492   15.2136 C   0  0  1  0  0  0  0  0  0  0  0  0
   24.9942    8.1503   16.5587 O   0  0  0  0  0  0  0  0  0  0  0  0
   21.5641    8.1562   13.3695 C   0  0  2  0  0  0  0  0  0  0  0  0
   21.4133    9.5930   13.7490 N   0  0  0  0  0  0  0  0  0  0  0  0
   23.4983    4.6789    7.4102 C   0  0  2  0  0  0  0  0  0  0  0  0
   23.8619    3.2904    7.7224 O   0  0  0  0  0  0  0  0  0  0  0  0
   26.4714    9.0322   14.8792 C   0  0  2  0  0  0  0  0  0  0  0  0
   26.8305   10.0676   15.7363 O   0  0  0  0  0  0  0  0  0  0  0  0
   22.4760    8.0713   12.1123 C   0  0  2  0  0  0  0  0  0  0  0  0
   24.7254    5.5826    7.4346 C   0  0  2  0  0  0  0  0  0  0  0  0
   24.8937    5.7621    8.8381 O   0  0  0  0  0  0  0  0  0  0  0  0
   26.5278    9.5135   13.4018 C   0  0  2  0  0  0  0  0  0  0  0  0
   26.1385    8.4350   12.5242 O   0  0  0  0  0  0  0  0  0  0  0  0
   22.6990    6.6285   11.6174 C   0  0  2  0  0  0  0  0  0  0  0  0
   23.3562    6.7671   10.3087 O   0  0  0  0  0  0  0  0  0  0  0  0
   24.5419    6.9641    6.7197 C   0  0  0  0  0  0  0  0  0  0  0  0
   23.4352    7.6630    7.2823 N   0  0  0  0  0  0  0  0  0  0  0  0
   27.9047    9.9899   13.0012 C   0  0  0  0  0  0  0  0  0  0  0  0
   28.2770   11.1177   13.7065 O   0  0  0  0  0  0  0  0  0  0  0  0
   21.3041    5.8761   11.4633 C   0  0  1  0  0  0  0  0  0  0  0  0
   21.4890    4.4737   11.2176 O   0  0  0  0  0  0  0  0  0  0  0  0
  1  2  1  1  0  0  0
  1  6  1  0  0  0  0
  1 23  1  0  0  0  0
  3  4  1  6  0  0  0
  3  8  1  0  0  0  0
  3 30  1  0  0  0  0
  5  9  1  0  0  0  0
  5 21  1  0  0  0  0
  5 25  1  6  0  0  0
  6  7  1  1  0  0  0
  6 11  1  0  0  0  0
  8 13  1  0  0  0  0
  9 10  1  1  0  0  0
  9 15  1  0  0  0  0
 11 12  1  1  0  0  0
 11 17  1  0  0  0  0
 13 14  1  6  0  0  0
 13 19  1  0  0  0  0
 15 16  1  1  0  0  0
 15 20  1  0  0  0  0
 17 18  1  1  0  0  0
 17 22  1  0  0  0  0
 19  2  1  1  0  0  0
 19 24  1  0  0  0  0
 20 21  1  0  0  0  0
 20 26  1  6  0  0  0
 22 23  1  0  0  0  0
 22 28  1  6  0  0  0
 24 25  1  6  0  0  0
 24 30  1  0  0  0  0
 26 27  1  0  0  0  0
 28 29  1  0  0  0  0
 30 31  1  1  0  0  0
M  END
>  <CHROM.1>
-83.26290109,96.79313570,100.36445815,56.26866808,-64.98401114,-177.95856496
23.76466159,7.20007752,11.73094238,-1.10907744,-0.41697066,-1.98629879

>  <Name>
2o3x_lig

>  <RI>
0

>  <Rbt.Current_Directory>
/home/itssahil/PROJECTS/Mol_Feturizer/New_Systems/rnas/2o3x

>  <Rbt.Executable>
rbdock ($Id: //depot/dev/client3/rdock/2013.1/src/exe/rbdock.cxx#4 $)

>  <Rbt.Library>
libRbt.so (2013.1, Build901 2013/11/27)

>  <Rbt.Parameter_File>
/export/apps/rDock/src/rDock_2013.1_src/data/scripts/dock_solv.prm

>  <Rbt.Receptor>
prm/blind_docking_40.prm

>  <SCORE>
9.69202

>  <SCORE.INTER>
-8.29153

>  <SCORE.INTER.CONST>
1

>  <SCORE.INTER.POLAR>
0

>  <SCORE.INTER.ROT>
6

>  <SCORE.INTER.SOLV>
23.7902

>  <SCORE.INTER.VDW>
-21.0578

>  <SCORE.INTER.norm>
-0.267469

>  <SCORE.INTRA>
13.3555

>  <SCORE.INTRA.DIHEDRAL>
3.55418

>  <SCORE.INTRA.DIHEDRAL.0>
9.37739

>  <SCORE.INTRA.POLAR>
0

>  <SCORE.INTRA.POLAR.0>
0

>  <SCORE.INTRA.REPUL>
0

>  <SCORE.INTRA.REPUL.0>
0

>  <SCORE.INTRA.SOLV>
7.08988

>  <SCORE.INTRA.SOLV.lig_0>
-82.9274

>  <SCORE.INTRA.VDW>
8.03343

>  <SCORE.INTRA.VDW.0>
-3.84922

>  <SCORE.INTRA.norm>
0.430821

>  <SCORE.RESTR>
4.62809

>  <SCORE.RESTR.CAVITY>
4.62809

>  <SCORE.RESTR.norm>
0.149293

>  <SCORE.SYSTEM>
0

>  <SCORE.SYSTEM.CONST>
0

>  <SCORE.SYSTEM.DIHEDRAL>
0

>  <SCORE.SYSTEM.SOLV>
0

>  <SCORE.SYSTEM.norm>
0

>  <SCORE.heavy>
31

>  <SCORE.norm>
0.312646

>  <RMSD>
8.978

$$$$
2o3x_lig
 OpenBabel11021811463D
libRbt.so/2013.1/901 2013/11/27
 31 33  0  0  0  0  0  0  0  0999 V2000
   24.8356    7.7119   13.1613 C   0  0  2  0  0  0  0  0  0  0  0  0
   23.7844    8.5827   12.7230 O   0  0  0  0  0  0  0  0  0  0  0  0
   20.3319    6.0652   12.9238 C   0  0  2  0  0  0  0  0  0  0  0  0
   19.0821    5.3415   12.6016 N   0  0  0  0  0  0  0  0  0  0  0  0
   23.0402    6.6617    9.5989 C   0  0  1  0  0  0  0  0  0  0  0  0
   24.7154    7.5347   14.7081 C   0  0  2  0  0  0  0  0  0  0  0  0
   23.3275    7.2141   15.1284 N   0  0  0  0  0  0  0  0  0  0  0  0
   20.1109    7.6122   13.0087 C   0  0  0  0  0  0  0  0  0  0  0  0
   23.9032    6.1288    8.4083 C   0  0  2  0  0  0  0  0  0  0  0  0
   24.9156    7.0389    7.8973 O   0  0  0  0  0  0  0  0  0  0  0  0
   25.1605    8.8025   15.4613 C   0  0  1  0  0  0  0  0  0  0  0  0
   25.0923    8.6026   16.8504 O   0  0  0  0  0  0  0  0  0  0  0  0
   21.4819    8.2848   13.3833 C   0  0  2  0  0  0  0  0  0  0  0  0
   21.3517    9.7680   13.5033 N   0  0  0  0  0  0  0  0  0  0  0  0
   22.7716    5.7830    7.4550 C   0  0  2  0  0  0  0  0  0  0  0  0
   22.2640    6.9843    6.7791 O   0  0  0  0  0  0  0  0  0  0  0  0
   26.5733    9.1763   15.0454 C   0  0  2  0  0  0  0  0  0  0  0  0
   26.9860   10.3080   15.7415 O   0  0  0  0  0  0  0  0  0  0  0  0
   22.5566    7.9698   12.3040 C   0  0  2  0  0  0  0  0  0  0  0  0
   21.6999    5.1641    8.3447 C   0  0  2  0  0  0  0  0  0  0  0  0
   21.7593    6.0322    9.4731 O   0  0  0  0  0  0  0  0  0  0  0  0
   26.6229    9.4396   13.5138 C   0  0  2  0  0  0  0  0  0  0  0  0
   26.1779    8.2636   12.8040 O   0  0  0  0  0  0  0  0  0  0  0  0
   22.7743    6.4598   12.0830 C   0  0  2  0  0  0  0  0  0  0  0  0
   23.6158    6.3636   10.8803 O   0  0  0  0  0  0  0  0  0  0  0  0
   21.9729    3.6826    8.7735 C   0  0  0  0  0  0  0  0  0  0  0  0
   23.0044    3.1218    7.9663 N   0  0  0  0  0  0  0  0  0  0  0  0
   28.0099    9.7985   13.0335 C   0  0  0  0  0  0  0  0  0  0  0  0
   28.4563   10.9746   13.6040 O   0  0  0  0  0  0  0  0  0  0  0  0
   21.3789    5.7300   11.8463 C   0  0  1  0  0  0  0  0  0  0  0  0
   21.5257    4.3019   11.8566 O   0  0  0  0  0  0  0  0  0  0  0  0
  1  2  1  1  0  0  0
  1  6  1  0  0  0  0
  1 23  1  0  0  0  0
  3  4  1  6  0  0  0
  3  8  1  0  0  0  0
  3 30  1  0  0  0  0
  5  9  1  0  0  0  0
  5 21  1  0  0  0  0
  5 25  1  1  0  0  0
  6  7  1  6  0  0  0
  6 11  1  0  0  0  0
  8 13  1  0  0  0  0
  9 10  1  6  0  0  0
  9 15  1  0  0  0  0
 11 12  1  1  0  0  0
 11 17  1  0  0  0  0
 13 14  1  6  0  0  0
 13 19  1  0  0  0  0
 15 16  1  1  0  0  0
 15 20  1  0  0  0  0
 17 18  1  1  0  0  0
 17 22  1  0  0  0  0
 19  2  1  1  0  0  0
 19 24  1  0  0  0  0
 20 21  1  0  0  0  0
 20 26  1  1  0  0  0
 22 23  1  0  0  0  0
 22 28  1  6  0  0  0
 24 25  1  6  0  0  0
 24 30  1  0  0  0  0
 26 27  1  0  0  0  0
 28 29  1  0  0  0  0
 30 31  1  1  0  0  0
M  END
>  <CHROM.1>
-92.08924326,-163.39505441,109.23623365,-14.51093922,-62.78732928,-72.06417019
23.57081335,7.27857702,11.95692612,-0.97049375,-0.43505008,-1.91214968

>  <Name>
2o3x_lig

>  <RI>
0

>  <Rbt.Current_Directory>
/home/itssahil/PROJECTS/Mol_Feturizer/New_Systems/rnas/2o3x

>  <Rbt.Executable>
rbdock ($Id: //depot/dev/client3/rdock/2013.1/src/exe/rbdock.cxx#4 $)

>  <Rbt.Library>
libRbt.so (2013.1, Build901 2013/11/27)

>  <Rbt.Parameter_File>
/export/apps/rDock/src/rDock_2013.1_src/data/scripts/dock_solv.prm

>  <Rbt.Receptor>
prm/blind_docking_40.prm

>  <SCORE>
11.6238

>  <SCORE.INTER>
-6.42314

>  <SCORE.INTER.CONST>
1

>  <SCORE.INTER.POLAR>
0

>  <SCORE.INTER.ROT>
6

>  <SCORE.INTER.SOLV>
23.1193

>  <SCORE.INTER.VDW>
-19.5885

>  <SCORE.INTER.norm>
-0.207198

>  <SCORE.INTRA>
13.8432

>  <SCORE.INTRA.DIHEDRAL>
7.67528

>  <SCORE.INTRA.DIHEDRAL.0>
9.37739

>  <SCORE.INTRA.POLAR>
0

>  <SCORE.INTRA.POLAR.0>
0

>  <SCORE.INTRA.REPUL>
0

>  <SCORE.INTRA.REPUL.0>
0

>  <SCORE.INTRA.SOLV>
4.02538

>  <SCORE.INTRA.SOLV.lig_0>
-82.9274

>  <SCORE.INTRA.VDW>
7.99291

>  <SCORE.INTRA.VDW.0>
-3.84922

>  <SCORE.INTRA.norm>
0.446556

>  <SCORE.RESTR>
4.20366

>  <SCORE.RESTR.CAVITY>
4.20366

>  <SCORE.RESTR.norm>
0.135602

>  <SCORE.SYSTEM>
0

>  <SCORE.SYSTEM.CONST>
0

>  <SCORE.SYSTEM.DIHEDRAL>
0

>  <SCORE.SYSTEM.SOLV>
0

>  <SCORE.SYSTEM.norm>
0

>  <SCORE.heavy>
31

>  <SCORE.norm>
0.37496

>  <RMSD>
8.997

$$$$
2o3x_lig
 OpenBabel11021811463D
libRbt.so/2013.1/901 2013/11/27
 31 33  0  0  0  0  0  0  0  0999 V2000
   24.3896    8.6967   12.6319 C   0  0  2  0  0  0  0  0  0  0  0  0
   24.3791    7.3547   12.1276 O   0  0  0  0  0  0  0  0  0  0  0  0
   21.4484    4.4509   10.9974 C   0  0  2  0  0  0  0  0  0  0  0  0
   20.2202    3.7936   10.4987 N   0  0  0  0  0  0  0  0  0  0  0  0
   24.5614    6.9325    8.2749 C   0  0  1  0  0  0  0  0  0  0  0  0
   25.7756    9.3360   12.3021 C   0  0  2  0  0  0  0  0  0  0  0  0
   26.1668    9.1234   10.8852 N   0  0  0  0  0  0  0  0  0  0  0  0
   21.1838    5.2859   12.2944 C   0  0  0  0  0  0  0  0  0  0  0  0
   24.1636    5.6861    7.4180 C   0  0  2  0  0  0  0  0  0  0  0  0
   24.6916    4.4082    7.8680 O   0  0  0  0  0  0  0  0  0  0  0  0
   26.8922    8.7634   13.1956 C   0  0  1  0  0  0  0  0  0  0  0  0
   28.1191    9.3888   12.9165 O   0  0  0  0  0  0  0  0  0  0  0  0
   22.5470    5.9161   12.7601 C   0  0  2  0  0  0  0  0  0  0  0  0
   22.3833    6.7177   14.0099 N   0  0  0  0  0  0  0  0  0  0  0  0
   24.6621    6.1789    6.0699 C   0  0  2  0  0  0  0  0  0  0  0  0
   26.1171    6.0149    5.9521 O   0  0  0  0  0  0  0  0  0  0  0  0
   26.5220    8.9451   14.6580 C   0  0  2  0  0  0  0  0  0  0  0  0
   27.5395    8.4494   15.4672 O   0  0  0  0  0  0  0  0  0  0  0  0
   23.1261    6.8421   11.6527 C   0  0  2  0  0  0  0  0  0  0  0  0
   24.2751    7.6527    6.0363 C   0  0  2  0  0  0  0  0  0  0  0  0
   24.5986    8.0415    7.3684 O   0  0  0  0  0  0  0  0  0  0  0  0
   25.1867    8.2089   14.9622 C   0  0  2  0  0  0  0  0  0  0  0  0
   24.1432    8.7215   14.1059 O   0  0  0  0  0  0  0  0  0  0  0  0
   23.3317    6.1244   10.3040 C   0  0  2  0  0  0  0  0  0  0  0  0
   23.6348    7.1937    9.3405 O   0  0  0  0  0  0  0  0  0  0  0  0
   22.7642    7.9314    5.7317 C   0  0  0  0  0  0  0  0  0  0  0  0
   22.5598    9.3226    5.5023 N   0  0  0  0  0  0  0  0  0  0  0  0
   24.7534    8.3684   16.4011 C   0  0  0  0  0  0  0  0  0  0  0  0
   24.8631    9.6794   16.8221 O   0  0  0  0  0  0  0  0  0  0  0  0
   22.0041    5.3534    9.8811 C   0  0  1  0  0  0  0  0  0  0  0  0
   22.2309    4.5010    8.7483 O   0  0  0  0  0  0  0  0  0  0  0  0
  1  2  1  1  0  0  0
  1  6  1  0  0  0  0
  1 23  1  0  0  0  0
  3  4  1  6  0  0  0
  3  8  1  0  0  0  0
  3 30  1  0  0  0  0
  5  9  1  0  0  0  0
  5 21  1  0  0  0  0
  5 25  1  1  0  0  0
  6  7  1  6  0  0  0
  6 11  1  0  0  0  0
  8 13  1  0  0  0  0
  9 10  1  1  0  0  0
  9 15  1  0  0  0  0
 11 12  1  1  0  0  0
 11 17  1  0  0  0  0
 13 14  1  1  0  0  0
 13 19  1  0  0  0  0
 15 16  1  1  0  0  0
 15 20  1  0  0  0  0
 17 18  1  1  0  0  0
 17 22  1  0  0  0  0
 19  2  1  1  0  0  0
 19 24  1  0  0  0  0
 20 21  1  0  0  0  0
 20 26  1  1  0  0  0
 22 23  1  0  0  0  0
 22 28  1  1  0  0  0
 24 25  1  6  0  0  0
 24 30  1  0  0  0  0
 26 27  1  0  0  0  0
 28 29  1  0  0  0  0
 30 31  1  6  0  0  0
M  END
>  <CHROM.1>
-146.93964667,55.04430513,-101.66714625,-170.27236921,45.84358423,145.21375201
24.20653941,7.21760753,10.88833910,-1.26517589,-0.66883931,-1.66421941

>  <Name>
2o3x_lig

>  <RI>
0

>  <Rbt.Current_Directory>
/home/itssahil/PROJECTS/Mol_Feturizer/New_Systems/rnas/2o3x

>  <Rbt.Executable>
rbdock ($Id: //depot/dev/client3/rdock/2013.1/src/exe/rbdock.cxx#4 $)

>  <Rbt.Library>
libRbt.so (2013.1, Build901 2013/11/27)

>  <Rbt.Parameter_File>
/export/apps/rDock/src/rDock_2013.1_src/data/scripts/dock_solv.prm

>  <Rbt.Receptor>
prm/blind_docking_60.prm

>  <SCORE>
26.0167

>  <SCORE.INTER>
15.1399

>  <SCORE.INTER.CONST>
1

>  <SCORE.INTER.POLAR>
-0.479124

>  <SCORE.INTER.ROT>
6

>  <SCORE.INTER.SOLV>
30.934

>  <SCORE.INTER.VDW>
-6.22098

>  <SCORE.INTER.norm>
0.488385

>  <SCORE.INTRA>
5.85206

>  <SCORE.INTRA.DIHEDRAL>
6.16048

>  <SCORE.INTRA.DIHEDRAL.0>
9.37739

>  <SCORE.INTRA.POLAR>
0

>  <SCORE.INTRA.POLAR.0>
0

>  <SCORE.INTRA.REPUL>
0.0631999

>  <SCORE.INTRA.REPUL.0>
0

>  <SCORE.INTRA.SOLV>
1.84046

>  <SCORE.INTRA.SOLV.lig_0>
-82.9274

>  <SCORE.INTRA.VDW>
1.53558

>  <SCORE.INTRA.VDW.0>
-3.84922

>  <SCORE.INTRA.norm>
0.188776

>  <SCORE.RESTR>
5.02468

>  <SCORE.RESTR.CAVITY>
5.02468

>  <SCORE.RESTR.norm>
0.162087

>  <SCORE.SYSTEM>
0

>  <SCORE.SYSTEM.CONST>
0

>  <SCORE.SYSTEM.DIHEDRAL>
0

>  <SCORE.SYSTEM.SOLV>
0

>  <SCORE.SYSTEM.norm>
0

>  <SCORE.heavy>
31

>  <SCORE.norm>
0.839247

>  <RMSD>
9.009

$$$$
2o3x_lig
 OpenBabel11021811463D
libRbt.so/2013.1/901 2013/11/27
 31 33  0  0  0  0  0  0  0  0999 V2000
   16.0599    9.0832   12.3911 C   0  0  2  0  0  0  0  0  0  0  0  0
   15.6717   10.4108   12.0139 O   0  0  0  0  0  0  0  0  0  0  0  0
   18.1135   13.7508   10.9274 C   0  0  2  0  0  0  0  0  0  0  0  0
   19.1166   14.8385   10.9368 N   0  0  0  0  0  0  0  0  0  0  0  0
   19.6422    9.4181   11.1256 C   0  0  1  0  0  0  0  0  0  0  0  0
   14.9003    8.1062   12.0180 C   0  0  2  0  0  0  0  0  0  0  0  0
   14.4131    8.3197   10.6314 N   0  0  0  0  0  0  0  0  0  0  0  0
   16.9755   13.9908   11.9746 C   0  0  0  0  0  0  0  0  0  0  0  0
   20.2763    8.2161   11.8997 C   0  0  2  0  0  0  0  0  0  0  0  0
   21.3363    8.5496   12.8375 O   0  0  0  0  0  0  0  0  0  0  0  0
   13.7010    8.2574   12.9729 C   0  0  1  0  0  0  0  0  0  0  0  0
   12.6917    7.3347   12.6499 O   0  0  0  0  0  0  0  0  0  0  0  0
   15.9498   12.8040   11.8668 C   0  0  2  0  0  0  0  0  0  0  0  0
   14.8164   12.9683   12.8258 N   0  0  0  0  0  0  0  0  0  0  0  0
   20.6829    7.3740   10.7020 C   0  0  2  0  0  0  0  0  0  0  0  0
   21.9281    7.8729   10.1033 O   0  0  0  0  0  0  0  0  0  0  0  0
   14.1609    8.0635   14.4080 C   0  0  2  0  0  0  0  0  0  0  0  0
   13.0752    8.1768   15.2706 O   0  0  0  0  0  0  0  0  0  0  0  0
   16.6522   11.4478   12.1613 C   0  0  2  0  0  0  0  0  0  0  0  0
   19.5178    7.5088    9.7286 C   0  0  2  0  0  0  0  0  0  0  0  0
   19.2245    8.8972    9.8578 O   0  0  0  0  0  0  0  0  0  0  0  0
   15.2436    9.1208   14.7651 C   0  0  2  0  0  0  0  0  0  0  0  0
   16.3572    9.0028   13.8536 O   0  0  0  0  0  0  0  0  0  0  0  0
   17.8521   11.1691   11.2347 C   0  0  2  0  0  0  0  0  0  0  0  0
   18.5245    9.9972   11.8165 O   0  0  0  0  0  0  0  0  0  0  0  0
   18.2602    6.6441   10.0810 C   0  0  0  0  0  0  0  0  0  0  0  0
   17.3359    6.6602    8.9969 N   0  0  0  0  0  0  0  0  0  0  0  0
   15.7569    8.9680   16.1781 C   0  0  0  0  0  0  0  0  0  0  0  0
   16.6911    9.9376   16.4866 O   0  0  0  0  0  0  0  0  0  0  0  0
   18.8353   12.4215   11.2130 C   0  0  1  0  0  0  0  0  0  0  0  0
   19.8404   12.2817   10.1974 O   0  0  0  0  0  0  0  0  0  0  0  0
  1  2  1  1  0  0  0
  1  6  1  0  0  0  0
  1 23  1  0  0  0  0
  3  4  1  1  0  0  0
  3  8  1  0  0  0  0
  3 30  1  0  0  0  0
  5  9  1  0  0  0  0
  5 21  1  0  0  0  0
  5 25  1  1  0  0  0
  6  7  1  6  0  0  0
  6 11  1  0  0  0  0
  8 13  1  0  0  0  0
  9 10  1  6  0  0  0
  9 15  1  0  0  0  0
 11 12  1  6  0  0  0
 11 17  1  0  0  0  0
 13 14  1  1  0  0  0
 13 19  1  0  0  0  0
 15 16  1  6  0  0  0
 15 20  1  0  0  0  0
 17 18  1  1  0  0  0
 17 22  1  0  0  0  0
 19  2  1  6  0  0  0
 19 24  1  0  0  0  0
 20 21  1  0  0  0  0
 20 26  1  1  0  0  0
 22 23  1  0  0  0  0
 22 28  1  1  0  0  0
 24 25  1  1  0  0  0
 24 30  1  0  0  0  0
 26 27  1  0  0  0  0
 28 29  1  0  0  0  0
 30 31  1  6  0  0  0
M  END
>  <CHROM.1>
-174.48629113,177.85866847,-172.92112163,-169.74747192,-178.40770658,175.56343906
17.22614863,9.70576027,12.09205045,-3.01526779,0.54601713,0.05041476

>  <Name>
2o3x_lig

>  <RI>
0

>  <Rbt.Current_Directory>
/home/itssahil/PROJECTS/Mol_Feturizer/New_Systems/rnas/2o3x

>  <Rbt.Executable>
rbdock ($Id: //depot/dev/client3/rdock/2013.1/src/exe/rbdock.cxx#4 $)

>  <Rbt.Library>
libRbt.so (2013.1, Build901 2013/11/27)

>  <Rbt.Parameter_File>
/export/apps/rDock/src/rDock_2013.1_src/data/scripts/dock_solv.prm

>  <Rbt.Receptor>
prm/pocket_docking_8.prm

>  <SCORE>
-9.459

>  <SCORE.INTER>
-5.51108

>  <SCORE.INTER.CONST>
1

>  <SCORE.INTER.POLAR>
-1.84395

>  <SCORE.INTER.ROT>
6

>  <SCORE.INTER.SOLV>
10.4181

>  <SCORE.INTER.VDW>
-8.60027

>  <SCORE.INTER.norm>
-0.177777

>  <SCORE.INTRA>
-3.94792

>  <SCORE.INTRA.DIHEDRAL>
-8.33884

>  <SCORE.INTRA.DIHEDRAL.0>
9.37739

>  <SCORE.INTRA.POLAR>
0

>  <SCORE.INTRA.POLAR.0>
0

>  <SCORE.INTRA.REPUL>
0

>  <SCORE.INTRA.REPUL.0>
0

>  <SCORE.INTRA.SOLV>
-1.79742

>  <SCORE.INTRA.SOLV.lig_0>
-82.9274

>  <SCORE.INTRA.VDW>
1.12021

>  <SCORE.INTRA.VDW.0>
-3.84922

>  <SCORE.INTRA.norm>
-0.127352

>  <SCORE.RESTR>
0

>  <SCORE.RESTR.CAVITY>
0

>  <SCORE.RESTR.norm>
0

>  <SCORE.SYSTEM>
0

>  <SCORE.SYSTEM.CONST>
0

>  <SCORE.SYSTEM.DIHEDRAL>
0

>  <SCORE.SYSTEM.SOLV>
0

>  <SCORE.SYSTEM.norm>
0

>  <SCORE.heavy>
31

>  <SCORE.norm>
-0.305129

>  <RMSD>
9.101

$$$$
2o3x_lig
 OpenBabel11021811463D
libRbt.so/2013.1/901 2013/11/27
 31 33  0  0  0  0  0  0  0  0999 V2000
   24.7000    7.9837   13.8663 C   0  0  2  0  0  0  0  0  0  0  0  0
   23.8582    8.7742   13.0166 O   0  0  0  0  0  0  0  0  0  0  0  0
   20.4168    6.2344   13.0807 C   0  0  2  0  0  0  0  0  0  0  0  0
   19.1731    5.5196   12.7176 N   0  0  0  0  0  0  0  0  0  0  0  0
   23.0999    6.6866    9.7824 C   0  0  1  0  0  0  0  0  0  0  0  0
   24.4974    8.4587   15.3400 C   0  0  2  0  0  0  0  0  0  0  0  0
   23.0606    8.5732   15.6983 N   0  0  0  0  0  0  0  0  0  0  0  0
   20.1874    7.7753   13.2303 C   0  0  0  0  0  0  0  0  0  0  0  0
   24.1261    6.9637    8.6351 C   0  0  2  0  0  0  0  0  0  0  0  0
   24.3609    8.3622    8.3137 O   0  0  0  0  0  0  0  0  0  0  0  0
   25.1617    9.8253   15.5928 C   0  0  1  0  0  0  0  0  0  0  0  0
   25.0104   10.2082   16.9362 O   0  0  0  0  0  0  0  0  0  0  0  0
   21.5520    8.4375   13.6447 C   0  0  2  0  0  0  0  0  0  0  0  0
   21.4135    9.9136   13.8272 N   0  0  0  0  0  0  0  0  0  0  0  0
   23.4707    6.1280    7.5484 C   0  0  2  0  0  0  0  0  0  0  0  0
   22.3369    6.8409    6.9449 O   0  0  0  0  0  0  0  0  0  0  0  0
   26.6333    9.7563   15.2208 C   0  0  2  0  0  0  0  0  0  0  0  0
   27.2408   10.9829   15.4699 O   0  0  0  0  0  0  0  0  0  0  0  0
   22.6369    8.1743   12.5616 C   0  0  2  0  0  0  0  0  0  0  0  0
   23.0023    4.8682    8.2671 C   0  0  2  0  0  0  0  0  0  0  0  0
   22.4907    5.4270    9.4739 O   0  0  0  0  0  0  0  0  0  0  0  0
   26.7836    9.3770   13.7204 C   0  0  2  0  0  0  0  0  0  0  0  0
   26.1362    8.1105   13.4721 O   0  0  0  0  0  0  0  0  0  0  0  0
   22.8638    6.6762   12.2777 C   0  0  2  0  0  0  0  0  0  0  0  0
   23.7153    6.6357   11.0789 O   0  0  0  0  0  0  0  0  0  0  0  0
   24.1307    3.8268    8.5763 C   0  0  0  0  0  0  0  0  0  0  0  0
   24.8844    3.5576    7.3976 N   0  0  0  0  0  0  0  0  0  0  0  0
   28.2291    9.2734   13.2923 C   0  0  0  0  0  0  0  0  0  0  0  0
   28.3404    8.9433   11.9557 O   0  0  0  0  0  0  0  0  0  0  0  0
   21.4740    5.9508   11.9985 C   0  0  1  0  0  0  0  0  0  0  0  0
   21.6278    4.5242   11.9485 O   0  0  0  0  0  0  0  0  0  0  0  0
  1  2  1  6  0  0  0
  1  6  1  0  0  0  0
  1 23  1  0  0  0  0
  3  4  1  6  0  0  0
  3  8  1  0  0  0  0
  3 30  1  0  0  0  0
  5  9  1  0  0  0  0
  5 21  1  0  0  0  0
  5 25  1  1  0  0  0
  6  7  1  6  0  0  0
  6 11  1  0  0  0  0
  8 13  1  0  0  0  0
  9 10  1  6  0  0  0
  9 15  1  0  0  0  0
 11 12  1  1  0  0  0
 11 17  1  0  0  0  0
 13 14  1  6  0  0  0
 13 19  1  0  0  0  0
 15 16  1  1  0  0  0
 15 20  1  0  0  0  0
 17 18  1  6  0  0  0
 17 22  1  0  0  0  0
 19  2  1  1  0  0  0
 19 24  1  0  0  0  0
 20 21  1  0  0  0  0
 20 26  1  1  0  0  0
 22 23  1  0  0  0  0
 22 28  1  1  0  0  0
 24 25  1  6  0  0  0
 24 30  1  0  0  0  0
 26 27  1  0  0  0  0
 28 29  1  0  0  0  0
 30 31  1  1  0  0  0
M  END
>  <CHROM.1>
-101.74192812,166.84223510,86.75797721,-50.54833029,-179.66176455,-85.99813999
23.80081101,7.52456070,12.07754311,1.18610606,0.31946455,1.10420845

>  <Name>
2o3x_lig

>  <RI>
0

>  <Rbt.Current_Directory>
/home/itssahil/PROJECTS/Mol_Feturizer/New_Systems/rnas/2o3x

>  <Rbt.Executable>
rbdock ($Id: //depot/dev/client3/rdock/2013.1/src/exe/rbdock.cxx#4 $)

>  <Rbt.Library>
libRbt.so (2013.1, Build901 2013/11/27)

>  <Rbt.Parameter_File>
/export/apps/rDock/src/rDock_2013.1_src/data/scripts/dock_solv.prm

>  <Rbt.Receptor>
prm/blind_docking_60.prm

>  <SCORE>
26.7992

>  <SCORE.INTER>
12.168

>  <SCORE.INTER.CONST>
1

>  <SCORE.INTER.POLAR>
-0.769667

>  <SCORE.INTER.ROT>
6

>  <SCORE.INTER.SOLV>
27.7234

>  <SCORE.INTER.VDW>
-6.16361

>  <SCORE.INTER.norm>
0.392515

>  <SCORE.INTRA>
7.91019

>  <SCORE.INTRA.DIHEDRAL>
3.37874

>  <SCORE.INTRA.DIHEDRAL.0>
9.37739

>  <SCORE.INTRA.POLAR>
0

>  <SCORE.INTRA.POLAR.0>
0

>  <SCORE.INTRA.REPUL>
0

>  <SCORE.INTRA.REPUL.0>
0

>  <SCORE.INTRA.SOLV>
2.80567

>  <SCORE.INTRA.SOLV.lig_0>
-82.9274

>  <SCORE.INTRA.VDW>
4.81799

>  <SCORE.INTRA.VDW.0>
-3.84922

>  <SCORE.INTRA.norm>
0.255167

>  <SCORE.RESTR>
6.72105

>  <SCORE.RESTR.CAVITY>
6.72105

>  <SCORE.RESTR.norm>
0.216808

>  <SCORE.SYSTEM>
0

>  <SCORE.SYSTEM.CONST>
0

>  <SCORE.SYSTEM.DIHEDRAL>
0

>  <SCORE.SYSTEM.SOLV>
0

>  <SCORE.SYSTEM.norm>
0

>  <SCORE.heavy>
31

>  <SCORE.norm>
0.86449

>  <RMSD>
9.207

$$$$
2o3x_lig
 OpenBabel11021811463D
libRbt.so/2013.1/901 2013/11/27
 31 33  0  0  0  0  0  0  0  0999 V2000
   24.6420    7.7542   13.4693 C   0  0  2  0  0  0  0  0  0  0  0  0
   23.5378    8.6215   13.1792 O   0  0  0  0  0  0  0  0  0  0  0  0
   20.1036    6.0771   13.0072 C   0  0  2  0  0  0  0  0  0  0  0  0
   18.8903    5.3586   12.5587 N   0  0  0  0  0  0  0  0  0  0  0  0
   23.0298    6.6423    9.9143 C   0  0  1  0  0  0  0  0  0  0  0  0
   24.7383    7.5808   15.0182 C   0  0  2  0  0  0  0  0  0  0  0  0
   23.4230    7.2583   15.6279 N   0  0  0  0  0  0  0  0  0  0  0  0
   19.8623    7.6183   13.1322 C   0  0  0  0  0  0  0  0  0  0  0  0
   24.1363    7.0660    8.8934 C   0  0  2  0  0  0  0  0  0  0  0  0
   24.3455    8.4964    8.7371 O   0  0  0  0  0  0  0  0  0  0  0  0
   25.2803    8.8517   15.6994 C   0  0  1  0  0  0  0  0  0  0  0  0
   25.4062    8.6552   17.0850 O   0  0  0  0  0  0  0  0  0  0  0  0
   21.1927    8.2845   13.6407 C   0  0  2  0  0  0  0  0  0  0  0  0
   21.0397    9.7613   13.8054 N   0  0  0  0  0  0  0  0  0  0  0  0
   23.6037    6.3305    7.6751 C   0  0  2  0  0  0  0  0  0  0  0  0
   22.4983    7.0706    7.0522 O   0  0  0  0  0  0  0  0  0  0  0  0
   26.6206    9.2276   15.0905 C   0  0  2  0  0  0  0  0  0  0  0  0
   27.1231   10.3621   15.7199 O   0  0  0  0  0  0  0  0  0  0  0  0
   22.3533    8.0176   12.6402 C   0  0  2  0  0  0  0  0  0  0  0  0
   23.1240    4.9900    8.2192 C   0  0  2  0  0  0  0  0  0  0  0  0
   22.4945    5.4053    9.4282 O   0  0  0  0  0  0  0  0  0  0  0  0
   26.4564    9.4870   13.5662 C   0  0  2  0  0  0  0  0  0  0  0  0
   25.9202    8.3081   12.9277 O   0  0  0  0  0  0  0  0  0  0  0  0
   22.6017    6.5185   12.3808 C   0  0  2  0  0  0  0  0  0  0  0  0
   23.5377    6.4734   11.2469 O   0  0  0  0  0  0  0  0  0  0  0  0
   24.2603    3.9537    8.5165 C   0  0  0  0  0  0  0  0  0  0  0  0
   23.8762    3.1014    9.5917 N   0  0  0  0  0  0  0  0  0  0  0  0
   27.7624    9.8477   12.8972 C   0  0  0  0  0  0  0  0  0  0  0  0
   28.7220   10.2138   13.8208 O   0  0  0  0  0  0  0  0  0  0  0  0
   21.2366    5.7897   12.0056 C   0  0  1  0  0  0  0  0  0  0  0  0
   21.3951    4.3631   11.9739 O   0  0  0  0  0  0  0  0  0  0  0  0
  1  2  1  1  0  0  0
  1  6  1  0  0  0  0
  1 23  1  0  0  0  0
  3  4  1  6  0  0  0
  3  8  1  0  0  0  0
  3 30  1  0  0  0  0
  5  9  1  0  0  0  0
  5 21  1  0  0  0  0
  5 25  1  1  0  0  0
  6  7  1  1  0  0  0
  6 11  1  0  0  0  0
  8 13  1  0  0  0  0
  9 10  1  6  0  0  0
  9 15  1  0  0  0  0
 11 12  1  1  0  0  0
 11 17  1  0  0  0  0
 13 14  1  6  0  0  0
 13 19  1  0  0  0  0
 15 16  1  1  0  0  0
 15 20  1  0  0  0  0
 17 18  1  1  0  0  0
 17 22  1  0  0  0  0
 19  2  1  1  0  0  0
 19 24  1  0  0  0  0
 20 21  1  0  0  0  0
 20 26  1  1  0  0  0
 22 23  1  0  0  0  0
 22 28  1  6  0  0  0
 24 25  1  6  0  0  0
 24 30  1  0  0  0  0
 26 27  1  0  0  0  0
 28 29  1  0  0  0  0
 30 31  1  1  0  0  0
M  END
>  <CHROM.1>
-105.99803074,159.93326165,118.93189793,149.73584088,-16.14975867,-80.24704351
23.69489717,7.35926133,12.20540879,1.00230158,0.38690057,1.19995523

>  <Name>
2o3x_lig

>  <RI>
0

>  <Rbt.Current_Directory>
/home/itssahil/PROJECTS/Mol_Feturizer/New_Systems/rnas/2o3x

>  <Rbt.Executable>
rbdock ($Id: //depot/dev/client3/rdock/2013.1/src/exe/rbdock.cxx#4 $)

>  <Rbt.Library>
libRbt.so (2013.1, Build901 2013/11/27)

>  <Rbt.Parameter_File>
/export/apps/rDock/src/rDock_2013.1_src/data/scripts/dock_solv.prm

>  <Rbt.Receptor>
prm/blind_docking_60.prm

>  <SCORE>
14.9504

>  <SCORE.INTER>
-4.93095

>  <SCORE.INTER.CONST>
1

>  <SCORE.INTER.POLAR>
-0.327822

>  <SCORE.INTER.ROT>
6

>  <SCORE.INTER.SOLV>
30.2209

>  <SCORE.INTER.VDW>
-19.8682

>  <SCORE.INTER.norm>
-0.159063

>  <SCORE.INTRA>
14.1803

>  <SCORE.INTRA.DIHEDRAL>
14.8101

>  <SCORE.INTRA.DIHEDRAL.0>
9.37739

>  <SCORE.INTRA.POLAR>
0

>  <SCORE.INTRA.POLAR.0>
0

>  <SCORE.INTRA.REPUL>
0

>  <SCORE.INTRA.REPUL.0>
0

>  <SCORE.INTRA.SOLV>
1.95072

>  <SCORE.INTRA.SOLV.lig_0>
-82.9274

>  <SCORE.INTRA.VDW>
5.79987

>  <SCORE.INTRA.VDW.0>
-3.84922

>  <SCORE.INTRA.norm>
0.457429

>  <SCORE.RESTR>
5.70103

>  <SCORE.RESTR.CAVITY>
5.70103

>  <SCORE.RESTR.norm>
0.183904

>  <SCORE.SYSTEM>
0

>  <SCORE.SYSTEM.CONST>
0

>  <SCORE.SYSTEM.DIHEDRAL>
0

>  <SCORE.SYSTEM.SOLV>
0

>  <SCORE.SYSTEM.norm>
0

>  <SCORE.heavy>
31

>  <SCORE.norm>
0.48227

>  <RMSD>
9.213

$$$$
2o3x_lig
 OpenBabel11021811463D
libRbt.so/2013.1/901 2013/11/27
 31 33  0  0  0  0  0  0  0  0999 V2000
   24.4813    7.7699   13.4408 C   0  0  2  0  0  0  0  0  0  0  0  0
   23.3341    8.6193   13.3068 O   0  0  0  0  0  0  0  0  0  0  0  0
   19.6910    6.3817   13.4419 C   0  0  2  0  0  0  0  0  0  0  0  0
   18.4370    5.6875   13.0743 N   0  0  0  0  0  0  0  0  0  0  0  0
   23.0277    6.6243   10.5161 C   0  0  1  0  0  0  0  0  0  0  0  0
   24.6888    7.4579   14.9567 C   0  0  2  0  0  0  0  0  0  0  0  0
   23.4288    7.0326   15.6179 N   0  0  0  0  0  0  0  0  0  0  0  0
   19.5873    7.9301   13.2396 C   0  0  0  0  0  0  0  0  0  0  0  0
   24.3734    6.9811    9.8035 C   0  0  2  0  0  0  0  0  0  0  0  0
   24.8496    8.3429    9.9853 O   0  0  0  0  0  0  0  0  0  0  0  0
   25.2375    8.6795   15.7181 C   0  0  1  0  0  0  0  0  0  0  0  0
   25.4639    8.3607   17.0677 O   0  0  0  0  0  0  0  0  0  0  0  0
   20.9504    8.5762   13.6835 C   0  0  2  0  0  0  0  0  0  0  0  0
   20.9269   10.0627   13.5384 N   0  0  0  0  0  0  0  0  0  0  0  0
   23.9815    6.5926    8.3877 C   0  0  2  0  0  0  0  0  0  0  0  0
   23.1671    7.6405    7.7582 O   0  0  0  0  0  0  0  0  0  0  0  0
   26.5210    9.1587   15.0611 C   0  0  2  0  0  0  0  0  0  0  0  0
   27.0308   10.2479   15.7607 O   0  0  0  0  0  0  0  0  0  0  0  0
   22.1232    8.0158   12.8294 C   0  0  2  0  0  0  0  0  0  0  0  0
   23.1812    5.3061    8.5536 C   0  0  2  0  0  0  0  0  0  0  0  0
   22.3999    5.6269    9.7013 O   0  0  0  0  0  0  0  0  0  0  0  0
   26.2448    9.5515   13.5822 C   0  0  2  0  0  0  0  0  0  0  0  0
   25.7021    8.4177   12.8716 O   0  0  0  0  0  0  0  0  0  0  0  0
   22.2436    6.4803   12.8924 C   0  0  2  0  0  0  0  0  0  0  0  0
   23.2191    6.1270   11.8496 O   0  0  0  0  0  0  0  0  0  0  0  0
   24.0411    4.0228    8.8127 C   0  0  0  0  0  0  0  0  0  0  0  0
   23.1920    2.8930    8.9929 N   0  0  0  0  0  0  0  0  0  0  0  0
   27.4903   10.0199   12.8662 C   0  0  0  0  0  0  0  0  0  0  0  0
   28.1111   11.0487   13.5475 O   0  0  0  0  0  0  0  0  0  0  0  0
   20.8345    5.8033   12.5892 C   0  0  1  0  0  0  0  0  0  0  0  0
   20.8624    4.3927   12.8547 O   0  0  0  0  0  0  0  0  0  0  0  0
  1  2  1  1  0  0  0
  1  6  1  0  0  0  0
  1 23  1  0  0  0  0
  3  4  1  6  0  0  0
  3  8  1  0  0  0  0
  3 30  1  0  0  0  0
  5  9  1  0  0  0  0
  5 21  1  0  0  0  0
  5 25  1  1  0  0  0
  6  7  1  1  0  0  0
  6 11  1  0  0  0  0
  8 13  1  0  0  0  0
  9 10  1  6  0  0  0
  9 15  1  0  0  0  0
 11 12  1  1  0  0  0
 11 17  1  0  0  0  0
 13 14  1  6  0  0  0
 13 19  1  0  0  0  0
 15 16  1  1  0  0  0
 15 20  1  0  0  0  0
 17 18  1  1  0  0  0
 17 22  1  0  0  0  0
 19  2  1  1  0  0  0
 19 24  1  0  0  0  0
 20 21  1  0  0  0  0
 20 26  1  1  0  0  0
 22 23  1  0  0  0  0
 22 28  1  6  0  0  0
 24 25  1  6  0  0  0
 24 30  1  0  0  0  0
 26 27  1  0  0  0  0
 28 29  1  0  0  0  0
 30 31  1  1  0  0  0
M  END
>  <CHROM.1>
-104.19311658,143.84520705,137.73359406,178.19923275,-54.29753534,-51.84230520
23.55486953,7.43670487,12.45939565,0.90023714,0.40915219,1.15413732

>  <Name>
2o3x_lig

>  <RI>
0

>  <Rbt.Current_Directory>
/home/itssahil/PROJECTS/Mol_Feturizer/New_Systems/rnas/2o3x

>  <Rbt.Executable>
rbdock ($Id: //depot/dev/client3/rdock/2013.1/src/exe/rbdock.cxx#4 $)

>  <Rbt.Library>
libRbt.so (2013.1, Build901 2013/11/27)

>  <Rbt.Parameter_File>
/export/apps/rDock/src/rDock_2013.1_src/data/scripts/dock_solv.prm

>  <Rbt.Receptor>
prm/blind_docking_60.prm

>  <SCORE>
9.59138

>  <SCORE.INTER>
-5.36052

>  <SCORE.INTER.CONST>
1

>  <SCORE.INTER.POLAR>
0

>  <SCORE.INTER.ROT>
6

>  <SCORE.INTER.SOLV>
29.8624

>  <SCORE.INTER.VDW>
-21.1278

>  <SCORE.INTER.norm>
-0.17292

>  <SCORE.INTRA>
8.84465

>  <SCORE.INTRA.DIHEDRAL>
7.70153

>  <SCORE.INTRA.DIHEDRAL.0>
9.37739

>  <SCORE.INTRA.POLAR>
0

>  <SCORE.INTRA.POLAR.0>
0

>  <SCORE.INTRA.REPUL>
0

>  <SCORE.INTRA.REPUL.0>
0

>  <SCORE.INTRA.SOLV>
0.415036

>  <SCORE.INTRA.SOLV.lig_0>
-82.9274

>  <SCORE.INTRA.VDW>
4.78636

>  <SCORE.INTRA.VDW.0>
-3.84922

>  <SCORE.INTRA.norm>
0.285311

>  <SCORE.RESTR>
6.10725

>  <SCORE.RESTR.CAVITY>
6.10725

>  <SCORE.RESTR.norm>
0.197008

>  <SCORE.SYSTEM>
0

>  <SCORE.SYSTEM.CONST>
0

>  <SCORE.SYSTEM.DIHEDRAL>
0

>  <SCORE.SYSTEM.SOLV>
0

>  <SCORE.SYSTEM.norm>
0

>  <SCORE.heavy>
31

>  <SCORE.norm>
0.309399

>  <RMSD>
9.226

$$$$
2o3x_lig
 OpenBabel11021811463D
libRbt.so/2013.1/901 2013/11/27
 31 33  0  0  0  0  0  0  0  0999 V2000
   24.3846    7.7359   13.6512 C   0  0  2  0  0  0  0  0  0  0  0  0
   23.2413    8.5898   13.5120 O   0  0  0  0  0  0  0  0  0  0  0  0
   19.5849    6.3706   13.4541 C   0  0  2  0  0  0  0  0  0  0  0  0
   18.3428    5.6923   13.0222 N   0  0  0  0  0  0  0  0  0  0  0  0
   22.8684    6.3420   10.6059 C   0  0  1  0  0  0  0  0  0  0  0  0
   24.6841    7.5582   15.1735 C   0  0  2  0  0  0  0  0  0  0  0  0
   23.4636    7.2164   15.9476 N   0  0  0  0  0  0  0  0  0  0  0  0
   19.4967    7.9239   13.2838 C   0  0  0  0  0  0  0  0  0  0  0  0
   24.0148    5.8615    9.6567 C   0  0  2  0  0  0  0  0  0  0  0  0
   25.0331    6.8487    9.3363 O   0  0  0  0  0  0  0  0  0  0  0  0
   25.2944    8.8336   15.7849 C   0  0  1  0  0  0  0  0  0  0  0  0
   25.6023    8.6338   17.1412 O   0  0  0  0  0  0  0  0  0  0  0  0
   20.8446    8.5518   13.7951 C   0  0  2  0  0  0  0  0  0  0  0  0
   20.8340   10.0413   13.6837 N   0  0  0  0  0  0  0  0  0  0  0  0
   23.1548    5.3866    8.4974 C   0  0  2  0  0  0  0  0  0  0  0  0
   22.7076    6.5172    7.6731 O   0  0  0  0  0  0  0  0  0  0  0  0
   26.5392    9.2291   15.0085 C   0  0  2  0  0  0  0  0  0  0  0  0
   27.1052   10.3677   15.5731 O   0  0  0  0  0  0  0  0  0  0  0  0
   22.0470    8.0044   12.9742 C   0  0  2  0  0  0  0  0  0  0  0  0
   21.9705    4.6935    9.1608 C   0  0  2  0  0  0  0  0  0  0  0  0
   21.7053    5.5923   10.2342 O   0  0  0  0  0  0  0  0  0  0  0  0
   26.1745    9.4918   13.5201 C   0  0  2  0  0  0  0  0  0  0  0  0
   25.5744    8.3083   12.9507 O   0  0  0  0  0  0  0  0  0  0  0  0
   22.1574    6.4672   13.0061 C   0  0  2  0  0  0  0  0  0  0  0  0
   23.1709    6.1324   11.9940 O   0  0  0  0  0  0  0  0  0  0  0  0
   22.2682    3.2556    9.7060 C   0  0  0  0  0  0  0  0  0  0  0  0
   22.7439    2.4219    8.6532 N   0  0  0  0  0  0  0  0  0  0  0  0
   27.3775    9.8719   12.6885 C   0  0  0  0  0  0  0  0  0  0  0  0
   28.0898   10.9037   13.2680 O   0  0  0  0  0  0  0  0  0  0  0  0
   20.7579    5.8055   12.6330 C   0  0  1  0  0  0  0  0  0  0  0  0
   20.7686    4.3890   12.8666 O   0  0  0  0  0  0  0  0  0  0  0  0
  1  2  1  1  0  0  0
  1  6  1  0  0  0  0
  1 23  1  0  0  0  0
  3  4  1  6  0  0  0
  3  8  1  0  0  0  0
  3 30  1  0  0  0  0
  5  9  1  0  0  0  0
  5 21  1  0  0  0  0
  5 25  1  1  0  0  0
  6  7  1  1  0  0  0
  6 11  1  0  0  0  0
  8 13  1  0  0  0  0
  9 10  1  6  0  0  0
  9 15  1  0  0  0  0
 11 12  1  1  0  0  0
 11 17  1  0  0  0  0
 13 14  1  6  0  0  0
 13 19  1  0  0  0  0
 15 16  1  1  0  0  0
 15 20  1  0  0  0  0
 17 18  1  1  0  0  0
 17 22  1  0  0  0  0
 19  2  1  1  0  0  0
 19 24  1  0  0  0  0
 20 21  1  0  0  0  0
 20 26  1  1  0  0  0
 22 23  1  0  0  0  0
 22 28  1  6  0  0  0
 24 25  1  6  0  0  0
 24 30  1  0  0  0  0
 26 27  1  0  0  0  0
 28 29  1  0  0  0  0
 30 31  1  1  0  0  0
M  END
>  <CHROM.1>
-113.34624711,-176.70908440,138.67241320,-57.34329715,-51.31788066,-68.55353174
23.33960766,7.21526049,12.52396064,0.91846195,0.36122063,1.06540867

>  <Name>
2o3x_lig

>  <RI>
0

>  <Rbt.Current_Directory>
/home/itssahil/PROJECTS/Mol_Feturizer/New_Systems/rnas/2o3x

>  <Rbt.Executable>
rbdock ($Id: //depot/dev/client3/rdock/2013.1/src/exe/rbdock.cxx#4 $)

>  <Rbt.Library>
libRbt.so (2013.1, Build901 2013/11/27)

>  <Rbt.Parameter_File>
/export/apps/rDock/src/rDock_2013.1_src/data/scripts/dock_solv.prm

>  <Rbt.Receptor>
prm/blind_docking_80.prm

>  <SCORE>
16.8069

>  <SCORE.INTER>
-0.213937

>  <SCORE.INTER.CONST>
1

>  <SCORE.INTER.POLAR>
0

>  <SCORE.INTER.ROT>
6

>  <SCORE.INTER.SOLV>
27.3224

>  <SCORE.INTER.VDW>
-16.8501

>  <SCORE.INTER.norm>
-0.00690121

>  <SCORE.INTRA>
8.10185

>  <SCORE.INTRA.DIHEDRAL>
4.01769

>  <SCORE.INTRA.DIHEDRAL.0>
9.37739

>  <SCORE.INTRA.POLAR>
0

>  <SCORE.INTRA.POLAR.0>
0

>  <SCORE.INTRA.REPUL>
0

>  <SCORE.INTRA.REPUL.0>
0

>  <SCORE.INTRA.SOLV>
-0.255216

>  <SCORE.INTRA.SOLV.lig_0>
-82.9274

>  <SCORE.INTRA.VDW>
6.22061

>  <SCORE.INTRA.VDW.0>
-3.84922

>  <SCORE.INTRA.norm>
0.26135

>  <SCORE.RESTR>
8.91899

>  <SCORE.RESTR.CAVITY>
8.91899

>  <SCORE.RESTR.norm>
0.287709

>  <SCORE.SYSTEM>
0

>  <SCORE.SYSTEM.CONST>
0

>  <SCORE.SYSTEM.DIHEDRAL>
0

>  <SCORE.SYSTEM.SOLV>
0

>  <SCORE.SYSTEM.norm>
0

>  <SCORE.heavy>
31

>  <SCORE.norm>
0.542158

>  <RMSD>
9.229

$$$$
2o3x_lig
 OpenBabel11021811463D
libRbt.so/2013.1/901 2013/11/27
 31 33  0  0  0  0  0  0  0  0999 V2000
    8.7406   15.4879    3.2937 C   0  0  2  0  0  0  0  0  0  0  0  0
    7.7703   14.5312    2.8479 O   0  0  0  0  0  0  0  0  0  0  0  0
    7.5196   10.3503    1.9789 C   0  0  2  0  0  0  0  0  0  0  0  0
    7.8315    8.9130    1.8166 N   0  0  0  0  0  0  0  0  0  0  0  0
    7.1891   12.8421    6.1633 C   0  0  1  0  0  0  0  0  0  0  0  0
    8.5807   16.7857    2.4401 C   0  0  2  0  0  0  0  0  0  0  0  0
    7.1647   17.2240    2.3483 N   0  0  0  0  0  0  0  0  0  0  0  0
    8.3556   11.2472    1.0064 C   0  0  0  0  0  0  0  0  0  0  0  0
    7.1234   14.3236    6.6605 C   0  0  2  0  0  0  0  0  0  0  0  0
    8.0996   14.7012    7.6699 O   0  0  0  0  0  0  0  0  0  0  0  0
    9.1135   16.5927    1.0078 C   0  0  1  0  0  0  0  0  0  0  0  0
    9.0062   17.7866    0.2747 O   0  0  0  0  0  0  0  0  0  0  0  0
    7.9328   12.7447    1.2329 C   0  0  2  0  0  0  0  0  0  0  0  0
    8.6754   13.6688    0.3242 N   0  0  0  0  0  0  0  0  0  0  0  0
    5.6679   14.3441    7.0964 C   0  0  2  0  0  0  0  0  0  0  0  0
    5.5008   13.7108    8.4112 O   0  0  0  0  0  0  0  0  0  0  0  0
   10.5585   16.1257    1.0571 C   0  0  2  0  0  0  0  0  0  0  0  0
   11.0492   15.9728   -0.2358 O   0  0  0  0  0  0  0  0  0  0  0  0
    8.2074   13.1724    2.7029 C   0  0  2  0  0  0  0  0  0  0  0  0
    4.9356   13.5577    6.0154 C   0  0  2  0  0  0  0  0  0  0  0  0
    5.8488   12.4844    5.8047 O   0  0  0  0  0  0  0  0  0  0  0  0
   10.6548   14.7806    1.8310 C   0  0  2  0  0  0  0  0  0  0  0  0
   10.1287   14.9489    3.1651 O   0  0  0  0  0  0  0  0  0  0  0  0
    7.4966   12.2805    3.7401 C   0  0  2  0  0  0  0  0  0  0  0  0
    8.0659   12.6710    5.0390 O   0  0  0  0  0  0  0  0  0  0  0  0
    4.6884   14.3417    4.6821 C   0  0  0  0  0  0  0  0  0  0  0  0
    4.0284   15.5746    4.9545 N   0  0  0  0  0  0  0  0  0  0  0  0
   12.0741   14.2717    1.9314 C   0  0  0  0  0  0  0  0  0  0  0  0
   12.1128   12.9521    2.3379 O   0  0  0  0  0  0  0  0  0  0  0  0
    7.7919   10.7444    3.4418 C   0  0  1  0  0  0  0  0  0  0  0  0
    6.9727    9.8862    4.2503 O   0  0  0  0  0  0  0  0  0  0  0  0
  1  2  1  6  0  0  0
  1  6  1  0  0  0  0
  1 23  1  0  0  0  0
  3  4  1  1  0  0  0
  3  8  1  0  0  0  0
  3 30  1  0  0  0  0
  5  9  1  0  0  0  0
  5 21  1  0  0  0  0
  5 25  1  6  0  0  0
  6  7  1  6  0  0  0
  6 11  1  0  0  0  0
  8 13  1  0  0  0  0
  9 10  1  1  0  0  0
  9 15  1  0  0  0  0
 11 12  1  6  0  0  0
 11 17  1  0  0  0  0
 13 14  1  6  0  0  0
 13 19  1  0  0  0  0
 15 16  1  1  0  0  0
 15 20  1  0  0  0  0
 17 18  1  6  0  0  0
 17 22  1  0  0  0  0
 19  2  1  6  0  0  0
 19 24  1  0  0  0  0
 20 21  1  0  0  0  0
 20 26  1  6  0  0  0
 22 23  1  0  0  0  0
 22 28  1  1  0  0  0
 24 25  1  1  0  0  0
 24 30  1  0  0  0  0
 26 27  1  0  0  0  0
 28 29  1  0  0  0  0
 30 31  1  1  0  0  0
M  END
>  <CHROM.1>
137.16484730,-113.98615842,-122.75315033,-53.70534121,-166.08585975,136.52964329
8.04992279,13.84404272,3.41919683,0.22821057,0.91143929,0.09347227

>  <Name>
2o3x_lig

>  <RI>
3.65513e+07

>  <Rbt.Current_Directory>
/home/itssahil/PROJECTS/Mol_Feturizer/New_Systems/rnas/2o3x

>  <Rbt.Executable>
rbdock ($Id: //depot/dev/client3/rdock/2013.1/src/exe/rbdock.cxx#4 $)

>  <Rbt.Library>
libRbt.so (2013.1, Build901 2013/11/27)

>  <Rbt.Parameter_File>
/export/apps/rDock/src/rDock_2013.1_src/data/scripts/dock_solv.prm

>  <Rbt.Receptor>
prm/blind_docking_20.prm

>  <SCORE>
38.621

>  <SCORE.INTER>
6.52833

>  <SCORE.INTER.CONST>
1

>  <SCORE.INTER.POLAR>
0

>  <SCORE.INTER.ROT>
6

>  <SCORE.INTER.SOLV>
17.1035

>  <SCORE.INTER.VDW>
-8.94895

>  <SCORE.INTER.norm>
0.210591

>  <SCORE.INTRA>
10.8313

>  <SCORE.INTRA.DIHEDRAL>
17.4409

>  <SCORE.INTRA.DIHEDRAL.0>
9.37739

>  <SCORE.INTRA.POLAR>
0

>  <SCORE.INTRA.POLAR.0>
0

>  <SCORE.INTRA.REPUL>
0

>  <SCORE.INTRA.REPUL.0>
0

>  <SCORE.INTRA.SOLV>
3.08195

>  <SCORE.INTRA.SOLV.lig_0>
-82.9274

>  <SCORE.INTRA.VDW>
0.569843

>  <SCORE.INTRA.VDW.0>
-3.84922

>  <SCORE.INTRA.norm>
0.349396

>  <SCORE.RESTR>
21.2614

>  <SCORE.RESTR.CAVITY>
21.2614

>  <SCORE.RESTR.norm>
0.685851

>  <SCORE.SYSTEM>
0

>  <SCORE.SYSTEM.CONST>
0

>  <SCORE.SYSTEM.DIHEDRAL>
0

>  <SCORE.SYSTEM.SOLV>
0

>  <SCORE.SYSTEM.norm>
0

>  <SCORE.heavy>
31

>  <SCORE.norm>
1.24584

>  <RMSD>
14.701

$$$$
2o3x_lig
 OpenBabel11021811463D
libRbt.so/2013.1/901 2013/11/27
 31 33  0  0  0  0  0  0  0  0999 V2000
   10.1321   14.3189    3.2736 C   0  0  2  0  0  0  0  0  0  0  0  0
    8.7062   14.3004    3.1255 O   0  0  0  0  0  0  0  0  0  0  0  0
    5.4589   11.5453    3.5289 C   0  0  2  0  0  0  0  0  0  0  0  0
    4.6362   10.3580    3.8498 N   0  0  0  0  0  0  0  0  0  0  0  0
    7.3022   14.2443    6.9259 C   0  0  1  0  0  0  0  0  0  0  0  0
   10.6535   15.7270    2.8448 C   0  0  2  0  0  0  0  0  0  0  0  0
    9.8759   16.8262    3.4714 N   0  0  0  0  0  0  0  0  0  0  0  0
    6.5510   11.2310    2.4529 C   0  0  0  0  0  0  0  0  0  0  0  0
    5.7724   14.5231    6.7585 C   0  0  2  0  0  0  0  0  0  0  0  0
    5.4195   15.7866    6.1315 O   0  0  0  0  0  0  0  0  0  0  0  0
   10.5951   15.9131    1.3168 C   0  0  1  0  0  0  0  0  0  0  0  0
   11.1157   17.1658    0.9505 O   0  0  0  0  0  0  0  0  0  0  0  0
    7.3476   12.5546    2.1597 C   0  0  2  0  0  0  0  0  0  0  0  0
    8.4022   12.3431    1.1233 N   0  0  0  0  0  0  0  0  0  0  0  0
    5.3594   14.3586    8.2116 C   0  0  2  0  0  0  0  0  0  0  0  0
    5.6727   15.5642    8.9900 O   0  0  0  0  0  0  0  0  0  0  0  0
   11.3659   14.7955    0.6345 C   0  0  2  0  0  0  0  0  0  0  0  0
   11.3339   14.9743   -0.7449 O   0  0  0  0  0  0  0  0  0  0  0  0
    8.0282   13.0799    3.4559 C   0  0  2  0  0  0  0  0  0  0  0  0
    6.1693   13.1653    8.7049 C   0  0  2  0  0  0  0  0  0  0  0  0
    7.4315   13.4346    8.1010 O   0  0  0  0  0  0  0  0  0  0  0  0
   10.7495   13.4190    1.0125 C   0  0  2  0  0  0  0  0  0  0  0  0
   10.7746   13.2526    2.4465 O   0  0  0  0  0  0  0  0  0  0  0  0
    7.0348   13.3284    4.6082 C   0  0  2  0  0  0  0  0  0  0  0  0
    7.8719   13.5696    5.7935 O   0  0  0  0  0  0  0  0  0  0  0  0
    5.6277   11.7673    8.2514 C   0  0  0  0  0  0  0  0  0  0  0  0
    6.5632   10.7472    8.5891 N   0  0  0  0  0  0  0  0  0  0  0  0
   11.4861   12.2620    0.3783 C   0  0  0  0  0  0  0  0  0  0  0  0
   10.6121   11.3246   -0.1368 O   0  0  0  0  0  0  0  0  0  0  0  0
    6.1133   12.0485    4.8281 C   0  0  1  0  0  0  0  0  0  0  0  0
    5.0395   12.3259    5.7398 O   0  0  0  0  0  0  0  0  0  0  0  0
  1  2  1  6  0  0  0
  1  6  1  0  0  0  0
  1 23  1  0  0  0  0
  3  4  1  1  0  0  0
  3  8  1  0  0  0  0
  3 30  1  0  0  0  0
  5  9  1  0  0  0  0
  5 21  1  0  0  0  0
  5 25  1  6  0  0  0
  6  7  1  1  0  0  0
  6 11  1  0  0  0  0
  8 13  1  0  0  0  0
  9 10  1  1  0  0  0
  9 15  1  0  0  0  0
 11 12  1  1  0  0  0
 11 17  1  0  0  0  0
 13 14  1  6  0  0  0
 13 19  1  0  0  0  0
 15 16  1  1  0  0  0
 15 20  1  0  0  0  0
 17 18  1  6  0  0  0
 17 22  1  0  0  0  0
 19  2  1  6  0  0  0
 19 24  1  0  0  0  0
 20 21  1  0  0  0  0
 20 26  1  6  0  0  0
 22 23  1  0  0  0  0
 22 28  1  6  0  0  0
 24 25  1  1  0  0  0
 24 30  1  0  0  0  0
 26 27  1  0  0  0  0
 28 29  1  0  0  0  0
 30 31  1  1  0  0  0
M  END
>  <CHROM.1>
179.28942977,5.08177996,-117.20131978,171.09213934,-136.22093951,160.22514976
8.05604077,13.57687834,4.08499538,-0.47257026,0.84488601,0.75815828

>  <Name>
2o3x_lig

>  <RI>
3.65513e+07

>  <Rbt.Current_Directory>
/home/itssahil/PROJECTS/Mol_Feturizer/New_Systems/rnas/2o3x

>  <Rbt.Executable>
rbdock ($Id: //depot/dev/client3/rdock/2013.1/src/exe/rbdock.cxx#4 $)

>  <Rbt.Library>
libRbt.so (2013.1, Build901 2013/11/27)

>  <Rbt.Parameter_File>
/export/apps/rDock/src/rDock_2013.1_src/data/scripts/dock_solv.prm

>  <Rbt.Receptor>
prm/blind_docking_20.prm

>  <SCORE>
35.3953

>  <SCORE.INTER>
3.79772

>  <SCORE.INTER.CONST>
1

>  <SCORE.INTER.POLAR>
-0.350407

>  <SCORE.INTER.ROT>
6

>  <SCORE.INTER.SOLV>
19.3354

>  <SCORE.INTER.VDW>
-10.3453

>  <SCORE.INTER.norm>
0.122507

>  <SCORE.INTRA>
12.9623

>  <SCORE.INTRA.DIHEDRAL>
11.3673

>  <SCORE.INTRA.DIHEDRAL.0>
9.37739

>  <SCORE.INTRA.POLAR>
0

>  <SCORE.INTRA.POLAR.0>
0

>  <SCORE.INTRA.REPUL>
0

>  <SCORE.INTRA.REPUL.0>
0

>  <SCORE.INTRA.SOLV>
3.99206

>  <SCORE.INTRA.SOLV.lig_0>
-82.9274

>  <SCORE.INTRA.VDW>
5.28267

>  <SCORE.INTRA.VDW.0>
-3.84922

>  <SCORE.INTRA.norm>
0.41814

>  <SCORE.RESTR>
18.6352

>  <SCORE.RESTR.CAVITY>
18.6352

>  <SCORE.RESTR.norm>
0.601136

>  <SCORE.SYSTEM>
0

>  <SCORE.SYSTEM.CONST>
0

>  <SCORE.SYSTEM.DIHEDRAL>
0

>  <SCORE.SYSTEM.SOLV>
0

>  <SCORE.SYSTEM.norm>
0

>  <SCORE.heavy>
31

>  <SCORE.norm>
1.14178

>  <RMSD>
14.738

$$$$
2o3x_lig
 OpenBabel11021811463D
libRbt.so/2013.1/901 2013/11/27
 31 33  0  0  0  0  0  0  0  0999 V2000
    8.6551   15.3166    2.9754 C   0  0  2  0  0  0  0  0  0  0  0  0
    7.7322   14.4865    2.2580 O   0  0  0  0  0  0  0  0  0  0  0  0
    6.3724   10.4308    2.2552 C   0  0  2  0  0  0  0  0  0  0  0  0
    6.1191    9.0183    2.6161 N   0  0  0  0  0  0  0  0  0  0  0  0
    6.7977   13.2995    5.5350 C   0  0  1  0  0  0  0  0  0  0  0  0
    8.6421   16.7388    2.3308 C   0  0  2  0  0  0  0  0  0  0  0  0
    7.2619   17.2488    2.1286 N   0  0  0  0  0  0  0  0  0  0  0  0
    7.8804   10.6934    1.9291 C   0  0  0  0  0  0  0  0  0  0  0  0
    7.5555   14.5314    6.1301 C   0  0  2  0  0  0  0  0  0  0  0  0
    8.8717   14.8001    5.5735 O   0  0  0  0  0  0  0  0  0  0  0  0
    9.3590   16.7511    0.9674 C   0  0  1  0  0  0  0  0  0  0  0  0
    9.3794   18.0494    0.4306 O   0  0  0  0  0  0  0  0  0  0  0  0
    8.0410   12.2059    1.5304 C   0  0  2  0  0  0  0  0  0  0  0  0
    9.4561   12.5356    1.1839 N   0  0  0  0  0  0  0  0  0  0  0  0
    7.5180   14.1256    7.5939 C   0  0  2  0  0  0  0  0  0  0  0  0
    8.5508   13.1244    7.8916 O   0  0  0  0  0  0  0  0  0  0  0  0
   10.7729   16.2182    1.1272 C   0  0  2  0  0  0  0  0  0  0  0  0
   11.4302   16.2498   -0.0987 O   0  0  0  0  0  0  0  0  0  0  0  0
    7.5916   13.1285    2.6992 C   0  0  2  0  0  0  0  0  0  0  0  0
    6.1227   13.5451    7.7925 C   0  0  2  0  0  0  0  0  0  0  0  0
    5.9777   12.7891    6.5934 O   0  0  0  0  0  0  0  0  0  0  0  0
   10.7327   14.7647    1.6780 C   0  0  2  0  0  0  0  0  0  0  0  0
   10.0351   14.7434    2.9421 O   0  0  0  0  0  0  0  0  0  0  0  0
    6.1410   12.8734    3.1539 C   0  0  2  0  0  0  0  0  0  0  0  0
    5.9870   13.6403    4.3997 O   0  0  0  0  0  0  0  0  0  0  0  0
    4.9779   14.6068    7.9173 C   0  0  0  0  0  0  0  0  0  0  0  0
    5.1025   15.3187    9.1451 N   0  0  0  0  0  0  0  0  0  0  0  0
   12.1132   14.1837    1.8776 C   0  0  0  0  0  0  0  0  0  0  0  0
   12.0548   12.8774    2.3229 O   0  0  0  0  0  0  0  0  0  0  0  0
    5.9121   11.3208    3.4237 C   0  0  1  0  0  0  0  0  0  0  0  0
    4.5233   11.0243    3.6342 O   0  0  0  0  0  0  0  0  0  0  0  0
  1  2  1  6  0  0  0
  1  6  1  0  0  0  0
  1 23  1  0  0  0  0
  3  4  1  1  0  0  0
  3  8  1  0  0  0  0
  3 30  1  0  0  0  0
  5  9  1  0  0  0  0
  5 21  1  0  0  0  0
  5 25  1  6  0  0  0
  6  7  1  6  0  0  0
  6 11  1  0  0  0  0
  8 13  1  0  0  0  0
  9 10  1  6  0  0  0
  9 15  1  0  0  0  0
 11 12  1  1  0  0  0
 11 17  1  0  0  0  0
 13 14  1  1  0  0  0
 13 19  1  0  0  0  0
 15 16  1  6  0  0  0
 15 20  1  0  0  0  0
 17 18  1  6  0  0  0
 17 22  1  0  0  0  0
 19  2  1  6  0  0  0
 19 24  1  0  0  0  0
 20 21  1  0  0  0  0
 20 26  1  6  0  0  0
 22 23  1  0  0  0  0
 22 28  1  1  0  0  0
 24 25  1  1  0  0  0
 24 30  1  0  0  0  0
 26 27  1  0  0  0  0
 28 29  1  0  0  0  0
 30 31  1  6  0  0  0
M  END
>  <CHROM.1>
-179.85049486,127.80369237,-117.79286571,-69.17797025,-177.91233845,-62.72521035
8.01402027,13.90277745,3.61324838,-0.26252057,0.91007794,0.75394153

>  <Name>
2o3x_lig

>  <RI>
3.65513e+07

>  <Rbt.Current_Directory>
/home/itssahil/PROJECTS/Mol_Feturizer/New_Systems/rnas/2o3x

>  <Rbt.Executable>
rbdock ($Id: //depot/dev/client3/rdock/2013.1/src/exe/rbdock.cxx#4 $)

>  <Rbt.Library>
libRbt.so (2013.1, Build901 2013/11/27)

>  <Rbt.Parameter_File>
/export/apps/rDock/src/rDock_2013.1_src/data/scripts/dock_solv.prm

>  <Rbt.Receptor>
prm/blind_docking_20.prm

>  <SCORE>
24.2403

>  <SCORE.INTER>
-1.7573

>  <SCORE.INTER.CONST>
1

>  <SCORE.INTER.POLAR>
-1.1121

>  <SCORE.INTER.ROT>
6

>  <SCORE.INTER.SOLV>
22

>  <SCORE.INTER.VDW>
-12.3979

>  <SCORE.INTER.norm>
-0.0566872

>  <SCORE.INTRA>
5.74006

>  <SCORE.INTRA.DIHEDRAL>
5.13797

>  <SCORE.INTRA.DIHEDRAL.0>
9.37739

>  <SCORE.INTRA.POLAR>
0

>  <SCORE.INTRA.POLAR.0>
0

>  <SCORE.INTRA.REPUL>
0.0558244

>  <SCORE.INTRA.REPUL.0>
0

>  <SCORE.INTRA.SOLV>
2.33219

>  <SCORE.INTRA.SOLV.lig_0>
-82.9274

>  <SCORE.INTRA.VDW>
1.72586

>  <SCORE.INTRA.VDW.0>
-3.84922

>  <SCORE.INTRA.norm>
0.185163

>  <SCORE.RESTR>
20.2576

>  <SCORE.RESTR.CAVITY>
20.2576

>  <SCORE.RESTR.norm>
0.65347

>  <SCORE.SYSTEM>
0

>  <SCORE.SYSTEM.CONST>
0

>  <SCORE.SYSTEM.DIHEDRAL>
0

>  <SCORE.SYSTEM.SOLV>
0

>  <SCORE.SYSTEM.norm>
0

>  <SCORE.heavy>
31

>  <SCORE.norm>
0.781946

>  <RMSD>
14.846

$$$$
2o3x_lig
 OpenBabel11021811463D
libRbt.so/2013.1/901 2013/11/27
 31 33  0  0  0  0  0  0  0  0999 V2000
    8.7655   15.5143    3.2435 C   0  0  2  0  0  0  0  0  0  0  0  0
    7.7956   14.5289    2.8644 O   0  0  0  0  0  0  0  0  0  0  0  0
    6.9844   10.3796    3.5152 C   0  0  2  0  0  0  0  0  0  0  0  0
    7.0513    8.9757    3.9777 N   0  0  0  0  0  0  0  0  0  0  0  0
    6.4941   13.4185    6.7845 C   0  0  1  0  0  0  0  0  0  0  0  0
    8.5687   16.7723    2.3396 C   0  0  2  0  0  0  0  0  0  0  0  0
    7.1456   17.1910    2.2658 N   0  0  0  0  0  0  0  0  0  0  0  0
    8.1844   10.7492    2.5809 C   0  0  0  0  0  0  0  0  0  0  0  0
    6.8734   14.4270    7.9182 C   0  0  2  0  0  0  0  0  0  0  0  0
    7.9949   14.0457    8.7616 O   0  0  0  0  0  0  0  0  0  0  0  0
    9.0672   16.5235    0.9035 C   0  0  1  0  0  0  0  0  0  0  0  0
    8.9271   17.6834    0.1230 O   0  0  0  0  0  0  0  0  0  0  0  0
    8.0076   12.2423    2.1209 C   0  0  2  0  0  0  0  0  0  0  0  0
    9.1083   12.6694    1.2058 N   0  0  0  0  0  0  0  0  0  0  0  0
    5.5189   14.5077    8.6019 C   0  0  2  0  0  0  0  0  0  0  0  0
    5.2948   13.3444    9.4704 O   0  0  0  0  0  0  0  0  0  0  0  0
   10.5184   16.0746    0.9354 C   0  0  2  0  0  0  0  0  0  0  0  0
   10.9778   15.8713   -0.3621 O   0  0  0  0  0  0  0  0  0  0  0  0
    7.9922   13.1937    3.3513 C   0  0  2  0  0  0  0  0  0  0  0  0
    4.5147   14.5337    7.4556 C   0  0  2  0  0  0  0  0  0  0  0  0
    5.0823   13.5592    6.5846 O   0  0  0  0  0  0  0  0  0  0  0  0
   10.6502   14.7652    1.7635 C   0  0  2  0  0  0  0  0  0  0  0  0
   10.1562   14.9852    3.1023 O   0  0  0  0  0  0  0  0  0  0  0  0
    6.8967   12.8445    4.3781 C   0  0  2  0  0  0  0  0  0  0  0  0
    7.1963   13.6709    5.5576 O   0  0  0  0  0  0  0  0  0  0  0  0
    4.3807   15.9137    6.7269 C   0  0  0  0  0  0  0  0  0  0  0  0
    3.6797   15.7517    5.4972 N   0  0  0  0  0  0  0  0  0  0  0  0
   12.0775   14.2764    1.8488 C   0  0  0  0  0  0  0  0  0  0  0  0
   12.1424   12.9772    2.3135 O   0  0  0  0  0  0  0  0  0  0  0  0
    6.9623   11.2977    4.7506 C   0  0  1  0  0  0  0  0  0  0  0  0
    5.8255   10.8974    5.5307 O   0  0  0  0  0  0  0  0  0  0  0  0
  1  2  1  6  0  0  0
  1  6  1  0  0  0  0
  1 23  1  0  0  0  0
  3  4  1  1  0  0  0
  3  8  1  0  0  0  0
  3 30  1  0  0  0  0
  5  9  1  0  0  0  0
  5 21  1  0  0  0  0
  5 25  1  6  0  0  0
  6  7  1  6  0  0  0
  6 11  1  0  0  0  0
  8 13  1  0  0  0  0
  9 10  1  1  0  0  0
  9 15  1  0  0  0  0
 11 12  1  6  0  0  0
 11 17  1  0  0  0  0
 13 14  1  6  0  0  0
 13 19  1  0  0  0  0
 15 16  1  1  0  0  0
 15 20  1  0  0  0  0
 17 18  1  6  0  0  0
 17 22  1  0  0  0  0
 19  2  1  6  0  0  0
 19 24  1  0  0  0  0
 20 21  1  0  0  0  0
 20 26  1  6  0  0  0
 22 23  1  0  0  0  0
 22 28  1  1  0  0  0
 24 25  1  1  0  0  0
 24 30  1  0  0  0  0
 26 27  1  0  0  0  0
 28 29  1  0  0  0  0
 30 31  1  1  0  0  0
M  END
>  <CHROM.1>
166.09911583,-177.06447307,-124.87345021,166.06297414,-166.23778570,-169.48394597
7.78781818,13.99273589,4.08034345,0.31618159,0.91298162,-0.12357574

>  <Name>
2o3x_lig

>  <RI>
3.65513e+07

>  <Rbt.Current_Directory>
/home/itssahil/PROJECTS/Mol_Feturizer/New_Systems/rnas/2o3x

>  <Rbt.Executable>
rbdock ($Id: //depot/dev/client3/rdock/2013.1/src/exe/rbdock.cxx#4 $)

>  <Rbt.Library>
libRbt.so (2013.1, Build901 2013/11/27)

>  <Rbt.Parameter_File>
/export/apps/rDock/src/rDock_2013.1_src/data/scripts/dock_solv.prm

>  <Rbt.Receptor>
prm/blind_docking_20.prm

>  <SCORE>
26.6086

>  <SCORE.INTER>
4.2387

>  <SCORE.INTER.CONST>
1

>  <SCORE.INTER.POLAR>
0

>  <SCORE.INTER.ROT>
6

>  <SCORE.INTER.SOLV>
16.7672

>  <SCORE.INTER.VDW>
-10.3633

>  <SCORE.INTER.norm>
0.136732

>  <SCORE.INTRA>
2.67952

>  <SCORE.INTRA.DIHEDRAL>
0.618536

>  <SCORE.INTRA.DIHEDRAL.0>
9.37739

>  <SCORE.INTRA.POLAR>
0

>  <SCORE.INTRA.POLAR.0>
0

>  <SCORE.INTRA.REPUL>
0

>  <SCORE.INTRA.REPUL.0>
0

>  <SCORE.INTRA.SOLV>
2.01118

>  <SCORE.INTRA.SOLV.lig_0>
-82.9274

>  <SCORE.INTRA.VDW>
1.36465

>  <SCORE.INTRA.VDW.0>
-3.84922

>  <SCORE.INTRA.norm>
0.086436

>  <SCORE.RESTR>
19.6904

>  <SCORE.RESTR.CAVITY>
19.6904

>  <SCORE.RESTR.norm>
0.635174

>  <SCORE.SYSTEM>
0

>  <SCORE.SYSTEM.CONST>
0

>  <SCORE.SYSTEM.DIHEDRAL>
0

>  <SCORE.SYSTEM.SOLV>
0

>  <SCORE.SYSTEM.norm>
0

>  <SCORE.heavy>
31

>  <SCORE.norm>
0.858343

>  <RMSD>
14.866

$$$$
2o3x_lig
 OpenBabel11021811463D
libRbt.so/2013.1/901 2013/11/27
 31 33  0  0  0  0  0  0  0  0999 V2000
    8.5648   15.9857    3.2933 C   0  0  2  0  0  0  0  0  0  0  0  0
    7.4893   15.0383    3.2599 O   0  0  0  0  0  0  0  0  0  0  0  0
    6.9280   10.7988    3.1618 C   0  0  2  0  0  0  0  0  0  0  0  0
    7.1481    9.3363    3.2088 N   0  0  0  0  0  0  0  0  0  0  0  0
    7.3164   13.8880    6.8913 C   0  0  1  0  0  0  0  0  0  0  0  0
    8.4046   16.9556    2.0799 C   0  0  2  0  0  0  0  0  0  0  0  0
    7.0202   17.4804    1.9622 N   0  0  0  0  0  0  0  0  0  0  0  0
    7.6582   11.4649    1.9483 C   0  0  0  0  0  0  0  0  0  0  0  0
    6.0231   14.7293    6.6352 C   0  0  2  0  0  0  0  0  0  0  0  0
    6.1960   16.1728    6.6098 O   0  0  0  0  0  0  0  0  0  0  0  0
    8.7677   16.2671    0.7507 C   0  0  1  0  0  0  0  0  0  0  0  0
    8.6653   17.1718   -0.3195 O   0  0  0  0  0  0  0  0  0  0  0  0
    7.3403   13.0046    1.9682 C   0  0  2  0  0  0  0  0  0  0  0  0
    7.9883   13.7143    0.8247 N   0  0  0  0  0  0  0  0  0  0  0  0
    5.1743   14.1767    7.7680 C   0  0  2  0  0  0  0  0  0  0  0  0
    5.5352   14.7966    9.0499 O   0  0  0  0  0  0  0  0  0  0  0  0
   10.1743   15.6988    0.8354 C   0  0  2  0  0  0  0  0  0  0  0  0
   10.5132   15.0965   -0.3721 O   0  0  0  0  0  0  0  0  0  0  0  0
    7.8391   13.6472    3.2939 C   0  0  2  0  0  0  0  0  0  0  0  0
    5.4799   12.6835    7.7794 C   0  0  2  0  0  0  0  0  0  0  0  0
    6.8892   12.7004    7.5695 O   0  0  0  0  0  0  0  0  0  0  0  0
   10.2597   14.6655    1.9940 C   0  0  2  0  0  0  0  0  0  0  0  0
    9.8911   15.2989    3.2381 O   0  0  0  0  0  0  0  0  0  0  0  0
    7.2422   12.9881    4.5531 C   0  0  2  0  0  0  0  0  0  0  0  0
    8.0066   13.5460    5.6794 O   0  0  0  0  0  0  0  0  0  0  0  0
    4.7650   11.8552    6.6586 C   0  0  0  0  0  0  0  0  0  0  0  0
    4.6163   10.4997    7.0714 N   0  0  0  0  0  0  0  0  0  0  0  0
   11.6433   14.0765    2.1425 C   0  0  0  0  0  0  0  0  0  0  0  0
   11.9745   13.2797    1.0639 O   0  0  0  0  0  0  0  0  0  0  0  0
    7.4221   11.4073    4.4865 C   0  0  1  0  0  0  0  0  0  0  0  0
    6.6872   10.7514    5.5310 O   0  0  0  0  0  0  0  0  0  0  0  0
  1  2  1  6  0  0  0
  1  6  1  0  0  0  0
  1 23  1  0  0  0  0
  3  4  1  1  0  0  0
  3  8  1  0  0  0  0
  3 30  1  0  0  0  0
  5  9  1  0  0  0  0
  5 21  1  0  0  0  0
  5 25  1  6  0  0  0
  6  7  1  6  0  0  0
  6 11  1  0  0  0  0
  8 13  1  0  0  0  0
  9 10  1  1  0  0  0
  9 15  1  0  0  0  0
 11 12  1  6  0  0  0
 11 17  1  0  0  0  0
 13 14  1  6  0  0  0
 13 19  1  0  0  0  0
 15 16  1  1  0  0  0
 15 20  1  0  0  0  0
 17 18  1  6  0  0  0
 17 22  1  0  0  0  0
 19  2  1  6  0  0  0
 19 24  1  0  0  0  0
 20 21  1  0  0  0  0
 20 26  1  6  0  0  0
 22 23  1  0  0  0  0
 22 28  1  1  0  0  0
 24 25  1  1  0  0  0
 24 30  1  0  0  0  0
 26 27  1  0  0  0  0
 28 29  1  0  0  0  0
 30 31  1  1  0  0  0
M  END
>  <CHROM.1>
126.44784968,-47.92695696,-117.79372804,-154.46784423,-67.70048602,140.03319674
7.75329630,13.86177487,3.89941633,0.25811457,1.02232655,0.10265934

>  <Name>
2o3x_lig

>  <RI>
3.65513e+07

>  <Rbt.Current_Directory>
/home/itssahil/PROJECTS/Mol_Feturizer/New_Systems/rnas/2o3x

>  <Rbt.Executable>
rbdock ($Id: //depot/dev/client3/rdock/2013.1/src/exe/rbdock.cxx#4 $)

>  <Rbt.Library>
libRbt.so (2013.1, Build901 2013/11/27)

>  <Rbt.Parameter_File>
/export/apps/rDock/src/rDock_2013.1_src/data/scripts/dock_solv.prm

>  <Rbt.Receptor>
prm/blind_docking_20.prm

>  <SCORE>
39.4037

>  <SCORE.INTER>
6.13561

>  <SCORE.INTER.CONST>
1

>  <SCORE.INTER.POLAR>
-0.277182

>  <SCORE.INTER.ROT>
6

>  <SCORE.INTER.SOLV>
14.8009

>  <SCORE.INTER.VDW>
-7.5193

>  <SCORE.INTER.norm>
0.197923

>  <SCORE.INTRA>
14.6562

>  <SCORE.INTRA.DIHEDRAL>
13.0666

>  <SCORE.INTRA.DIHEDRAL.0>
9.37739

>  <SCORE.INTRA.POLAR>
0

>  <SCORE.INTRA.POLAR.0>
0

>  <SCORE.INTRA.REPUL>
0

>  <SCORE.INTRA.REPUL.0>
0

>  <SCORE.INTRA.SOLV>
6.07352

>  <SCORE.INTRA.SOLV.lig_0>
-82.9274

>  <SCORE.INTRA.VDW>
5.08611

>  <SCORE.INTRA.VDW.0>
-3.84922

>  <SCORE.INTRA.norm>
0.47278

>  <SCORE.RESTR>
18.6119

>  <SCORE.RESTR.CAVITY>
18.6119

>  <SCORE.RESTR.norm>
0.600384

>  <SCORE.SYSTEM>
0

>  <SCORE.SYSTEM.CONST>
0

>  <SCORE.SYSTEM.DIHEDRAL>
0

>  <SCORE.SYSTEM.SOLV>
0

>  <SCORE.SYSTEM.norm>
0

>  <SCORE.heavy>
31

>  <SCORE.norm>
1.27109

>  <RMSD>
14.882

$$$$
2o3x_lig
 OpenBabel11021811463D
libRbt.so/2013.1/901 2013/11/27
 31 33  0  0  0  0  0  0  0  0999 V2000
    8.7258   15.0582    3.4793 C   0  0  2  0  0  0  0  0  0  0  0  0
    7.8953   14.0341    2.9164 O   0  0  0  0  0  0  0  0  0  0  0  0
    6.3702   10.3095    4.3655 C   0  0  2  0  0  0  0  0  0  0  0  0
    6.2324    8.9928    5.0263 N   0  0  0  0  0  0  0  0  0  0  0  0
    7.0146   14.6744    6.4881 C   0  0  1  0  0  0  0  0  0  0  0  0
    8.3108   16.4277    2.8542 C   0  0  2  0  0  0  0  0  0  0  0  0
    6.8401   16.6328    2.8821 N   0  0  0  0  0  0  0  0  0  0  0  0
    7.3851   10.2670    3.1749 C   0  0  0  0  0  0  0  0  0  0  0  0
    5.4640   14.5401    6.3349 C   0  0  2  0  0  0  0  0  0  0  0  0
    4.8711   15.2448    5.2096 O   0  0  0  0  0  0  0  0  0  0  0  0
    8.7812   16.5507    1.3925 C   0  0  1  0  0  0  0  0  0  0  0  0
    8.4418   17.8090    0.8675 O   0  0  0  0  0  0  0  0  0  0  0  0
    7.4383   11.6968    2.5230 C   0  0  2  0  0  0  0  0  0  0  0  0
    8.3755   11.7362    1.3605 N   0  0  0  0  0  0  0  0  0  0  0  0
    5.0640   15.0293    7.7167 C   0  0  2  0  0  0  0  0  0  0  0  0
    5.1060   16.4957    7.7911 O   0  0  0  0  0  0  0  0  0  0  0  0
   10.2825   16.3291    1.3170 C   0  0  2  0  0  0  0  0  0  0  0  0
   10.7133   16.4624    0.0008 O   0  0  0  0  0  0  0  0  0  0  0  0
    7.9010   12.7545    3.5653 C   0  0  2  0  0  0  0  0  0  0  0  0
    6.0922   14.4063    8.6536 C   0  0  2  0  0  0  0  0  0  0  0  0
    7.2839   14.5812    7.8923 O   0  0  0  0  0  0  0  0  0  0  0  0
   10.6376   14.9153    1.8581 C   0  0  2  0  0  0  0  0  0  0  0  0
   10.1718   14.7846    3.2186 O   0  0  0  0  0  0  0  0  0  0  0  0
    7.0103   12.8014    4.8226 C   0  0  2  0  0  0  0  0  0  0  0  0
    7.7343   13.6558    5.7764 O   0  0  0  0  0  0  0  0  0  0  0  0
    5.8598   12.8908    8.9743 C   0  0  0  0  0  0  0  0  0  0  0  0
    6.4053   12.5717   10.2512 N   0  0  0  0  0  0  0  0  0  0  0  0
   12.1232   14.6407    1.8270 C   0  0  0  0  0  0  0  0  0  0  0  0
   12.3952   13.2980    2.0032 O   0  0  0  0  0  0  0  0  0  0  0  0
    6.8204   11.3372    5.4193 C   0  0  1  0  0  0  0  0  0  0  0  0
    5.8248   11.3175    6.4536 O   0  0  0  0  0  0  0  0  0  0  0  0
  1  2  1  6  0  0  0
  1  6  1  0  0  0  0
  1 23  1  0  0  0  0
  3  4  1  1  0  0  0
  3  8  1  0  0  0  0
  3 30  1  0  0  0  0
  5  9  1  0  0  0  0
  5 21  1  0  0  0  0
  5 25  1  6  0  0  0
  6  7  1  6  0  0  0
  6 11  1  0  0  0  0
  8 13  1  0  0  0  0
  9 10  1  6  0  0  0
  9 15  1  0  0  0  0
 11 12  1  1  0  0  0
 11 17  1  0  0  0  0
 13 14  1  6  0  0  0
 13 19  1  0  0  0  0
 15 16  1  6  0  0  0
 15 20  1  0  0  0  0
 17 18  1  6  0  0  0
 17 22  1  0  0  0  0
 19  2  1  6  0  0  0
 19 24  1  0  0  0  0
 20 21  1  0  0  0  0
 20 26  1  6  0  0  0
 22 23  1  0  0  0  0
 22 28  1  1  0  0  0
 24 25  1  1  0  0  0
 24 30  1  0  0  0  0
 26 27  1  0  0  0  0
 28 29  1  0  0  0  0
 30 31  1  1  0  0  0
M  END
>  <CHROM.1>
-166.33707921,11.22016234,-157.46271670,-152.57686941,-165.69893118,134.20915053
7.74762770,13.97690827,4.39388972,0.25019434,0.98041921,0.05002410

>  <Name>
2o3x_lig

>  <RI>
3.65513e+07

>  <Rbt.Current_Directory>
/home/itssahil/PROJECTS/Mol_Feturizer/New_Systems/rnas/2o3x

>  <Rbt.Executable>
rbdock ($Id: //depot/dev/client3/rdock/2013.1/src/exe/rbdock.cxx#4 $)

>  <Rbt.Library>
libRbt.so (2013.1, Build901 2013/11/27)

>  <Rbt.Parameter_File>
/export/apps/rDock/src/rDock_2013.1_src/data/scripts/dock_solv.prm

>  <Rbt.Receptor>
prm/blind_docking_20.prm

>  <SCORE>
24.2691

>  <SCORE.INTER>
-0.276088

>  <SCORE.INTER.CONST>
1

>  <SCORE.INTER.POLAR>
0

>  <SCORE.INTER.ROT>
6

>  <SCORE.INTER.SOLV>
18.3899

>  <SCORE.INTER.VDW>
-13.914

>  <SCORE.INTER.norm>
-0.00890608

>  <SCORE.INTRA>
5.37391

>  <SCORE.INTRA.DIHEDRAL>
9.56823

>  <SCORE.INTRA.DIHEDRAL.0>
9.37739

>  <SCORE.INTRA.POLAR>
0

>  <SCORE.INTRA.POLAR.0>
0

>  <SCORE.INTRA.REPUL>
0

>  <SCORE.INTRA.REPUL.0>
0

>  <SCORE.INTRA.SOLV>
-0.855016

>  <SCORE.INTRA.SOLV.lig_0>
-82.9274

>  <SCORE.INTRA.VDW>
1.01731

>  <SCORE.INTRA.VDW.0>
-3.84922

>  <SCORE.INTRA.norm>
0.173352

>  <SCORE.RESTR>
19.1713

>  <SCORE.RESTR.CAVITY>
19.1713

>  <SCORE.RESTR.norm>
0.618428

>  <SCORE.SYSTEM>
0

>  <SCORE.SYSTEM.CONST>
0

>  <SCORE.SYSTEM.DIHEDRAL>
0

>  <SCORE.SYSTEM.SOLV>
0

>  <SCORE.SYSTEM.norm>
0

>  <SCORE.heavy>
31

>  <SCORE.norm>
0.782874

>  <RMSD>
14.931

$$$$
2o3x_lig
 OpenBabel11021811463D
libRbt.so/2013.1/901 2013/11/27
 31 33  0  0  0  0  0  0  0  0999 V2000
    9.0097   14.9881    3.3735 C   0  0  2  0  0  0  0  0  0  0  0  0
    8.2052   13.9902    2.7313 O   0  0  0  0  0  0  0  0  0  0  0  0
    5.8935   10.7537    4.3058 C   0  0  2  0  0  0  0  0  0  0  0  0
    5.4556    9.5537    5.0526 N   0  0  0  0  0  0  0  0  0  0  0  0
    7.0329   14.8511    6.4424 C   0  0  1  0  0  0  0  0  0  0  0  0
    8.5609   16.3911    2.8552 C   0  0  2  0  0  0  0  0  0  0  0  0
    7.0855   16.5567    2.8958 N   0  0  0  0  0  0  0  0  0  0  0  0
    6.9868   10.4158    3.2381 C   0  0  0  0  0  0  0  0  0  0  0  0
    5.4770   14.7174    6.3567 C   0  0  2  0  0  0  0  0  0  0  0  0
    4.8204   15.5419    5.3549 O   0  0  0  0  0  0  0  0  0  0  0  0
    9.0285   16.6384    1.4085 C   0  0  1  0  0  0  0  0  0  0  0  0
    8.6578   17.9247    0.9816 O   0  0  0  0  0  0  0  0  0  0  0  0
    7.3620   11.7423    2.4819 C   0  0  2  0  0  0  0  0  0  0  0  0
    8.3917   11.5010    1.4271 N   0  0  0  0  0  0  0  0  0  0  0  0
    5.1494   15.0368    7.8057 C   0  0  2  0  0  0  0  0  0  0  0  0
    5.1874   16.4849    8.0495 O   0  0  0  0  0  0  0  0  0  0  0  0
   10.5348   16.4607    1.3194 C   0  0  2  0  0  0  0  0  0  0  0  0
   10.9625   16.7061    0.0184 O   0  0  0  0  0  0  0  0  0  0  0  0
    7.9157   12.8002    3.4787 C   0  0  2  0  0  0  0  0  0  0  0  0
    6.2300   14.3205    8.6071 C   0  0  2  0  0  0  0  0  0  0  0  0
    7.3780   14.5974    7.8097 O   0  0  0  0  0  0  0  0  0  0  0  0
   10.9249   15.0186    1.7503 C   0  0  2  0  0  0  0  0  0  0  0  0
   10.4622   14.7715    3.0956 O   0  0  0  0  0  0  0  0  0  0  0  0
    6.9388   13.1271    4.6254 C   0  0  2  0  0  0  0  0  0  0  0  0
    7.7187   13.9313    5.5788 O   0  0  0  0  0  0  0  0  0  0  0  0
    6.0236   12.7754    8.7594 C   0  0  0  0  0  0  0  0  0  0  0  0
    4.7863   12.5091    9.4137 N   0  0  0  0  0  0  0  0  0  0  0  0
   12.4169   14.7842    1.7013 C   0  0  0  0  0  0  0  0  0  0  0  0
   12.7345   13.4714    1.9904 O   0  0  0  0  0  0  0  0  0  0  0  0
    6.4285   11.7856    5.3151 C   0  0  1  0  0  0  0  0  0  0  0  0
    5.3568   12.0436    6.2349 O   0  0  0  0  0  0  0  0  0  0  0  0
  1  2  1  6  0  0  0
  1  6  1  0  0  0  0
  1 23  1  0  0  0  0
  3  4  1  1  0  0  0
  3  8  1  0  0  0  0
  3 30  1  0  0  0  0
  5  9  1  0  0  0  0
  5 21  1  0  0  0  0
  5 25  1  6  0  0  0
  6  7  1  6  0  0  0
  6 11  1  0  0  0  0
  8 13  1  0  0  0  0
  9 10  1  6  0  0  0
  9 15  1  0  0  0  0
 11 12  1  1  0  0  0
 11 17  1  0  0  0  0
 13 14  1  6  0  0  0
 13 19  1  0  0  0  0
 15 16  1  6  0  0  0
 15 20  1  0  0  0  0
 17 18  1  6  0  0  0
 17 22  1  0  0  0  0
 19  2  1  6  0  0  0
 19 24  1  0  0  0  0
 20 21  1  0  0  0  0
 20 26  1  6  0  0  0
 22 23  1  0  0  0  0
 22 28  1  1  0  0  0
 24 25  1  1  0  0  0
 24 30  1  0  0  0  0
 26 27  1  0  0  0  0
 28 29  1  0  0  0  0
 30 31  1  1  0  0  0
M  END
>  <CHROM.1>
-148.01916315,7.61794494,-165.85291640,-59.59324361,-175.49502963,154.09258574
7.73659795,14.10640778,4.33182975,0.09771196,0.90848192,0.23154924

>  <Name>
2o3x_lig

>  <RI>
3.65513e+07

>  <Rbt.Current_Directory>
/home/itssahil/PROJECTS/Mol_Feturizer/New_Systems/rnas/2o3x

>  <Rbt.Executable>
rbdock ($Id: //depot/dev/client3/rdock/2013.1/src/exe/rbdock.cxx#4 $)

>  <Rbt.Library>
libRbt.so (2013.1, Build901 2013/11/27)

>  <Rbt.Parameter_File>
/export/apps/rDock/src/rDock_2013.1_src/data/scripts/dock_solv.prm

>  <Rbt.Receptor>
prm/blind_docking_20.prm

>  <SCORE>
25.8095

>  <SCORE.INTER>
1.51111

>  <SCORE.INTER.CONST>
1

>  <SCORE.INTER.POLAR>
0

>  <SCORE.INTER.ROT>
6

>  <SCORE.INTER.SOLV>
19.2498

>  <SCORE.INTER.VDW>
-13.0092

>  <SCORE.INTER.norm>
0.0487456

>  <SCORE.INTRA>
6.27904

>  <SCORE.INTRA.DIHEDRAL>
5.51109

>  <SCORE.INTRA.DIHEDRAL.0>
9.37739

>  <SCORE.INTRA.POLAR>
0

>  <SCORE.INTRA.POLAR.0>
0

>  <SCORE.INTRA.REPUL>
0

>  <SCORE.INTRA.REPUL.0>
0

>  <SCORE.INTRA.SOLV>
1.02314

>  <SCORE.INTRA.SOLV.lig_0>
-82.9274

>  <SCORE.INTRA.VDW>
3.01192

>  <SCORE.INTRA.VDW.0>
-3.84922

>  <SCORE.INTRA.norm>
0.20255

>  <SCORE.RESTR>
18.0194

>  <SCORE.RESTR.CAVITY>
18.0194

>  <SCORE.RESTR.norm>
0.58127

>  <SCORE.SYSTEM>
0

>  <SCORE.SYSTEM.CONST>
0

>  <SCORE.SYSTEM.DIHEDRAL>
0

>  <SCORE.SYSTEM.SOLV>
0

>  <SCORE.SYSTEM.norm>
0

>  <SCORE.heavy>
31

>  <SCORE.norm>
0.832565

>  <RMSD>
15.030

$$$$
2o3x_lig
 OpenBabel11021811463D
libRbt.so/2013.1/901 2013/11/27
 31 33  0  0  0  0  0  0  0  0999 V2000
   11.0159   14.6366    2.8259 C   0  0  2  0  0  0  0  0  0  0  0  0
   10.1183   15.7383    3.0158 O   0  0  0  0  0  0  0  0  0  0  0  0
    6.1702   16.8933    1.8427 C   0  0  2  0  0  0  0  0  0  0  0  0
    4.8487   16.9606    1.1804 N   0  0  0  0  0  0  0  0  0  0  0  0
    8.1642   13.4552    4.8455 C   0  0  1  0  0  0  0  0  0  0  0  0
   12.0557   15.0317    1.7299 C   0  0  2  0  0  0  0  0  0  0  0  0
   12.6446   16.3729    1.9750 N   0  0  0  0  0  0  0  0  0  0  0  0
    7.3420   17.1937    0.8497 C   0  0  0  0  0  0  0  0  0  0  0  0
    7.4751   14.4065    5.8782 C   0  0  2  0  0  0  0  0  0  0  0  0
    8.2791   15.5209    6.3536 O   0  0  0  0  0  0  0  0  0  0  0  0
   11.4249   15.0380    0.3245 C   0  0  1  0  0  0  0  0  0  0  0  0
   12.3896   15.3460   -0.6496 O   0  0  0  0  0  0  0  0  0  0  0  0
    8.6937   17.1283    1.6503 C   0  0  2  0  0  0  0  0  0  0  0  0
    9.8664   17.4239    0.7736 N   0  0  0  0  0  0  0  0  0  0  0  0
    7.0952   13.3643    6.9167 C   0  0  2  0  0  0  0  0  0  0  0  0
    8.2489   13.0055    7.7521 O   0  0  0  0  0  0  0  0  0  0  0  0
   10.7935   13.6855    0.0402 C   0  0  2  0  0  0  0  0  0  0  0  0
   10.2432   13.6813   -1.2377 O   0  0  0  0  0  0  0  0  0  0  0  0
    8.8890   15.7180    2.2763 C   0  0  2  0  0  0  0  0  0  0  0  0
    6.6205   12.1682    6.0998 C   0  0  2  0  0  0  0  0  0  0  0  0
    7.5904   12.1592    5.0560 O   0  0  0  0  0  0  0  0  0  0  0  0
    9.6965   13.3796    1.0987 C   0  0  2  0  0  0  0  0  0  0  0  0
   10.2771   13.4021    2.4206 O   0  0  0  0  0  0  0  0  0  0  0  0
    7.7296   15.2953    3.2001 C   0  0  2  0  0  0  0  0  0  0  0  0
    7.9638   13.8714    3.4858 O   0  0  0  0  0  0  0  0  0  0  0  0
    5.1760   12.3037    5.5096 C   0  0  0  0  0  0  0  0  0  0  0  0
    4.5534   13.4850    6.0062 N   0  0  0  0  0  0  0  0  0  0  0  0
    9.0419   12.0352    0.8809 C   0  0  0  0  0  0  0  0  0  0  0  0
    7.9418   11.8675    1.6992 O   0  0  0  0  0  0  0  0  0  0  0  0
    6.3338   15.4924    2.4594 C   0  0  1  0  0  0  0  0  0  0  0  0
    5.2316   15.3177    3.3625 O   0  0  0  0  0  0  0  0  0  0  0  0
  1  2  1  6  0  0  0
  1  6  1  0  0  0  0
  1 23  1  0  0  0  0
  3  4  1  6  0  0  0
  3  8  1  0  0  0  0
  3 30  1  0  0  0  0
  5  9  1  0  0  0  0
  5 21  1  0  0  0  0
  5 25  1  6  0  0  0
  6  7  1  1  0  0  0
  6 11  1  0  0  0  0
  8 13  1  0  0  0  0
  9 10  1  1  0  0  0
  9 15  1  0  0  0  0
 11 12  1  6  0  0  0
 11 17  1  0  0  0  0
 13 14  1  6  0  0  0
 13 19  1  0  0  0  0
 15 16  1  6  0  0  0
 15 20  1  0  0  0  0
 17 18  1  6  0  0  0
 17 22  1  0  0  0  0
 19  2  1  1  0  0  0
 19 24  1  0  0  0  0
 20 21  1  0  0  0  0
 20 26  1  6  0  0  0
 22 23  1  0  0  0  0
 22 28  1  6  0  0  0
 24 25  1  6  0  0  0
 24 30  1  0  0  0  0
 26 27  1  0  0  0  0
 28 29  1  0  0  0  0
 30 31  1  1  0  0  0
M  END
>  <CHROM.1>
94.63445541,26.74449995,-133.53824753,-6.64594801,-170.92681901,119.44446565
8.52078286,14.53055527,2.89998386,-0.83504373,-0.40725951,2.22985252

>  <Name>
2o3x_lig

>  <RI>
3.65513e+07

>  <Rbt.Current_Directory>
/home/itssahil/PROJECTS/Mol_Feturizer/New_Systems/rnas/2o3x

>  <Rbt.Executable>
rbdock ($Id: //depot/dev/client3/rdock/2013.1/src/exe/rbdock.cxx#4 $)

>  <Rbt.Library>
libRbt.so (2013.1, Build901 2013/11/27)

>  <Rbt.Parameter_File>
/export/apps/rDock/src/rDock_2013.1_src/data/scripts/dock_solv.prm

>  <Rbt.Receptor>
prm/blind_docking_20.prm

>  <SCORE>
32.2549

>  <SCORE.INTER>
0.342406

>  <SCORE.INTER.CONST>
1

>  <SCORE.INTER.POLAR>
-1.00729

>  <SCORE.INTER.ROT>
6

>  <SCORE.INTER.SOLV>
17.7866

>  <SCORE.INTER.VDW>
-9.94296

>  <SCORE.INTER.norm>
0.0110454

>  <SCORE.INTRA>
14.186

>  <SCORE.INTRA.DIHEDRAL>
18.0915

>  <SCORE.INTRA.DIHEDRAL.0>
9.37739

>  <SCORE.INTRA.POLAR>
0

>  <SCORE.INTRA.POLAR.0>
0

>  <SCORE.INTRA.REPUL>
0.0971588

>  <SCORE.INTRA.REPUL.0>
0

>  <SCORE.INTRA.SOLV>
6.20831

>  <SCORE.INTRA.SOLV.lig_0>
-82.9274

>  <SCORE.INTRA.VDW>
1.55034

>  <SCORE.INTRA.VDW.0>
-3.84922

>  <SCORE.INTRA.norm>
0.457614

>  <SCORE.RESTR>
17.7264

>  <SCORE.RESTR.CAVITY>
17.7264

>  <SCORE.RESTR.norm>
0.571821

>  <SCORE.SYSTEM>
0

>  <SCORE.SYSTEM.CONST>
0

>  <SCORE.SYSTEM.DIHEDRAL>
0

>  <SCORE.SYSTEM.SOLV>
0

>  <SCORE.SYSTEM.norm>
0

>  <SCORE.heavy>
31

>  <SCORE.norm>
1.04048

>  <RMSD>
15.067

$$$$
2o3x_lig
 OpenBabel11021811463D
libRbt.so/2013.1/901 2013/11/27
 31 33  0  0  0  0  0  0  0  0999 V2000
    8.7422   15.5817    2.8672 C   0  0  2  0  0  0  0  0  0  0  0  0
    7.7543   14.7396    2.2587 O   0  0  0  0  0  0  0  0  0  0  0  0
    6.0024   10.8799    2.8347 C   0  0  2  0  0  0  0  0  0  0  0  0
    5.6433    9.5505    3.3762 N   0  0  0  0  0  0  0  0  0  0  0  0
    6.4263   13.7889    5.9152 C   0  0  1  0  0  0  0  0  0  0  0  0
    8.8228   16.9128    2.0547 C   0  0  2  0  0  0  0  0  0  0  0  0
    7.4801   17.4925    1.7960 N   0  0  0  0  0  0  0  0  0  0  0  0
    7.4934   10.9397    2.3625 C   0  0  0  0  0  0  0  0  0  0  0  0
    6.9754   14.8680    6.9052 C   0  0  2  0  0  0  0  0  0  0  0  0
    8.4185   15.0455    6.9185 O   0  0  0  0  0  0  0  0  0  0  0  0
    9.5229   16.7084    0.6979 C   0  0  1  0  0  0  0  0  0  0  0  0
    9.6293   17.9274    0.0072 O   0  0  0  0  0  0  0  0  0  0  0  0
    7.7671   12.3740    1.7792 C   0  0  2  0  0  0  0  0  0  0  0  0
    9.1709   12.5080    1.2864 N   0  0  0  0  0  0  0  0  0  0  0  0
    6.3556   14.3284    8.1833 C   0  0  2  0  0  0  0  0  0  0  0  0
    7.1307   13.1972    8.7101 O   0  0  0  0  0  0  0  0  0  0  0  0
   10.8972   16.0984    0.9171 C   0  0  2  0  0  0  0  0  0  0  0  0
   11.5407   15.9341   -0.3054 O   0  0  0  0  0  0  0  0  0  0  0  0
    7.5196   13.4603    2.8644 C   0  0  2  0  0  0  0  0  0  0  0  0
    4.9567   13.8857    7.7707 C   0  0  2  0  0  0  0  0  0  0  0  0
    5.2335   13.2699    6.5159 O   0  0  0  0  0  0  0  0  0  0  0  0
   10.7600   14.7289    1.6405 C   0  0  2  0  0  0  0  0  0  0  0  0
   10.0774   14.9109    2.8998 O   0  0  0  0  0  0  0  0  0  0  0  0
    6.0979   13.4155    3.4585 C   0  0  2  0  0  0  0  0  0  0  0  0
    6.1345   14.3240    4.6149 O   0  0  0  0  0  0  0  0  0  0  0  0
    3.9208   15.0478    7.5984 C   0  0  0  0  0  0  0  0  0  0  0  0
    4.4488   16.0498    6.7341 N   0  0  0  0  0  0  0  0  0  0  0  0
   12.0980   14.0784    1.9052 C   0  0  0  0  0  0  0  0  0  0  0  0
   11.9517   12.7784    2.3486 O   0  0  0  0  0  0  0  0  0  0  0  0
    5.7408   11.9352    3.9243 C   0  0  1  0  0  0  0  0  0  0  0  0
    4.3541   11.8164    4.2765 O   0  0  0  0  0  0  0  0  0  0  0  0
  1  2  1  6  0  0  0
  1  6  1  0  0  0  0
  1 23  1  0  0  0  0
  3  4  1  1  0  0  0
  3  8  1  0  0  0  0
  3 30  1  0  0  0  0
  5  9  1  0  0  0  0
  5 21  1  0  0  0  0
  5 25  1  6  0  0  0
  6  7  1  6  0  0  0
  6 11  1  0  0  0  0
  8 13  1  0  0  0  0
  9 10  1  1  0  0  0
  9 15  1  0  0  0  0
 11 12  1  1  0  0  0
 11 17  1  0  0  0  0
 13 14  1  1  0  0  0
 13 19  1  0  0  0  0
 15 16  1  6  0  0  0
 15 20  1  0  0  0  0
 17 18  1  6  0  0  0
 17 22  1  0  0  0  0
 19  2  1  6  0  0  0
 19 24  1  0  0  0  0
 20 21  1  0  0  0  0
 20 26  1  6  0  0  0
 22 23  1  0  0  0  0
 22 28  1  1  0  0  0
 24 25  1  1  0  0  0
 24 30  1  0  0  0  0
 26 27  1  0  0  0  0
 28 29  1  0  0  0  0
 30 31  1  6  0  0  0
M  END
>  <CHROM.1>
-179.65396512,157.47531678,-122.74965543,51.96102982,-170.31027320,-93.04545066
7.73805655,14.15665689,3.71889483,-0.12823804,0.86886622,0.50300046

>  <Name>
2o3x_lig

>  <RI>
3.65513e+07

>  <Rbt.Current_Directory>
/home/itssahil/PROJECTS/Mol_Feturizer/New_Systems/rnas/2o3x

>  <Rbt.Executable>
rbdock ($Id: //depot/dev/client3/rdock/2013.1/src/exe/rbdock.cxx#4 $)

>  <Rbt.Library>
libRbt.so (2013.1, Build901 2013/11/27)

>  <Rbt.Parameter_File>
/export/apps/rDock/src/rDock_2013.1_src/data/scripts/dock_solv.prm

>  <Rbt.Receptor>
prm/blind_docking_20.prm

>  <SCORE>
30.7774

>  <SCORE.INTER>
4.96691

>  <SCORE.INTER.CONST>
1

>  <SCORE.INTER.POLAR>
-0.822794

>  <SCORE.INTER.ROT>
6

>  <SCORE.INTER.SOLV>
20.3176

>  <SCORE.INTER.VDW>
-8.31861

>  <SCORE.INTER.norm>
0.160223

>  <SCORE.INTRA>
6.21899

>  <SCORE.INTRA.DIHEDRAL>
4.84347

>  <SCORE.INTRA.DIHEDRAL.0>
9.37739

>  <SCORE.INTRA.POLAR>
0

>  <SCORE.INTRA.POLAR.0>
0

>  <SCORE.INTRA.REPUL>
0

>  <SCORE.INTRA.REPUL.0>
0

>  <SCORE.INTRA.SOLV>
4.43532

>  <SCORE.INTRA.SOLV.lig_0>
-82.9274

>  <SCORE.INTRA.VDW>
1.5796

>  <SCORE.INTRA.VDW.0>
-3.84922

>  <SCORE.INTRA.norm>
0.200613

>  <SCORE.RESTR>
19.5915

>  <SCORE.RESTR.CAVITY>
19.5915

>  <SCORE.RESTR.norm>
0.631984

>  <SCORE.SYSTEM>
0

>  <SCORE.SYSTEM.CONST>
0

>  <SCORE.SYSTEM.DIHEDRAL>
0

>  <SCORE.SYSTEM.SOLV>
0

>  <SCORE.SYSTEM.norm>
0

>  <SCORE.heavy>
31

>  <SCORE.norm>
0.992819

>  <RMSD>
15.157

$$$$
2o3x_lig
 OpenBabel11021811463D
libRbt.so/2013.1/901 2013/11/27
 31 33  0  0  0  0  0  0  0  0999 V2000
    8.1738   16.1511    3.1445 C   0  0  2  0  0  0  0  0  0  0  0  0
    7.0223   15.3042    3.0344 O   0  0  0  0  0  0  0  0  0  0  0  0
    6.4511   14.4548    7.1878 C   0  0  2  0  0  0  0  0  0  0  0  0
    6.1271   13.7895    8.4691 N   0  0  0  0  0  0  0  0  0  0  0  0
    7.8357   12.1718    3.5420 C   0  0  1  0  0  0  0  0  0  0  0  0
    8.2333   17.0681    1.8820 C   0  0  2  0  0  0  0  0  0  0  0  0
    6.9249   17.7091    1.5939 N   0  0  0  0  0  0  0  0  0  0  0  0
    5.1767   14.6976    6.3122 C   0  0  0  0  0  0  0  0  0  0  0  0
    8.3933   10.7322    3.7927 C   0  0  2  0  0  0  0  0  0  0  0  0
    9.3982   10.2648    2.8514 O   0  0  0  0  0  0  0  0  0  0  0  0
    8.6650   16.2825    0.6293 C   0  0  1  0  0  0  0  0  0  0  0  0
    8.7607   17.1368   -0.4822 O   0  0  0  0  0  0  0  0  0  0  0  0
    5.6186   15.4319    4.9939 C   0  0  2  0  0  0  0  0  0  0  0  0
    4.4514   15.7188    4.1071 N   0  0  0  0  0  0  0  0  0  0  0  0
    7.0720    9.9817    3.7887 C   0  0  2  0  0  0  0  0  0  0  0  0
    6.5998    9.7500    2.4172 O   0  0  0  0  0  0  0  0  0  0  0  0
    9.9947   15.5946    0.8887 C   0  0  2  0  0  0  0  0  0  0  0  0
   10.3980   14.9031   -0.2492 O   0  0  0  0  0  0  0  0  0  0  0  0
    6.6381   14.5643    4.2021 C   0  0  2  0  0  0  0  0  0  0  0  0
    6.1146   10.8924    4.5484 C   0  0  2  0  0  0  0  0  0  0  0  0
    6.4862   12.1638    4.0233 O   0  0  0  0  0  0  0  0  0  0  0  0
    9.8608   14.6184    2.0915 C   0  0  2  0  0  0  0  0  0  0  0  0
    9.4273   15.3454    3.2613 O   0  0  0  0  0  0  0  0  0  0  0  0
    7.8897   14.1938    5.0221 C   0  0  2  0  0  0  0  0  0  0  0  0
    8.5961   13.1877    4.2142 O   0  0  0  0  0  0  0  0  0  0  0  0
    6.2782   10.8695    6.1060 C   0  0  0  0  0  0  0  0  0  0  0  0
    5.9516    9.5788    6.6134 N   0  0  0  0  0  0  0  0  0  0  0  0
   11.1592   13.9152    2.4127 C   0  0  0  0  0  0  0  0  0  0  0  0
   11.5367   13.0576    1.3979 O   0  0  0  0  0  0  0  0  0  0  0  0
    7.4659   13.5806    6.4293 C   0  0  1  0  0  0  0  0  0  0  0  0
    8.5987   13.4307    7.2986 O   0  0  0  0  0  0  0  0  0  0  0  0
  1  2  1  6  0  0  0
  1  6  1  0  0  0  0
  1 23  1  0  0  0  0
  3  4  1  1  0  0  0
  3  8  1  0  0  0  0
  3 30  1  0  0  0  0
  5  9  1  0  0  0  0
  5 21  1  0  0  0  0
  5 25  1  1  0  0  0
  6  7  1  6  0  0  0
  6 11  1  0  0  0  0
  8 13  1  0  0  0  0
  9 10  1  6  0  0  0
  9 15  1  0  0  0  0
 11 12  1  6  0  0  0
 11 17  1  0  0  0  0
 13 14  1  6  0  0  0
 13 19  1  0  0  0  0
 15 16  1  6  0  0  0
 15 20  1  0  0  0  0
 17 18  1  6  0  0  0
 17 22  1  0  0  0  0
 19  2  1  6  0  0  0
 19 24  1  0  0  0  0
 20 21  1  0  0  0  0
 20 26  1  1  0  0  0
 22 23  1  0  0  0  0
 22 28  1  1  0  0  0
 24 25  1  6  0  0  0
 24 30  1  0  0  0  0
 26 27  1  0  0  0  0
 28 29  1  0  0  0  0
 30 31  1  1  0  0  0
M  END
>  <CHROM.1>
-168.44446681,-130.60148270,91.33193402,-64.66910187,-66.49580696,-40.97425479
7.82576868,13.73857348,3.68383548,0.85264036,0.90336273,-0.28608485

>  <Name>
2o3x_lig

>  <RI>
3.65513e+07

>  <Rbt.Current_Directory>
/home/itssahil/PROJECTS/Mol_Feturizer/New_Systems/rnas/2o3x

>  <Rbt.Executable>
rbdock ($Id: //depot/dev/client3/rdock/2013.1/src/exe/rbdock.cxx#4 $)

>  <Rbt.Library>
libRbt.so (2013.1, Build901 2013/11/27)

>  <Rbt.Parameter_File>
/export/apps/rDock/src/rDock_2013.1_src/data/scripts/dock_solv.prm

>  <Rbt.Receptor>
prm/blind_docking_20.prm

>  <SCORE>
40.1706

>  <SCORE.INTER>
9.12141

>  <SCORE.INTER.CONST>
1

>  <SCORE.INTER.POLAR>
0

>  <SCORE.INTER.ROT>
6

>  <SCORE.INTER.SOLV>
17.885

>  <SCORE.INTER.VDW>
-7.48074

>  <SCORE.INTER.norm>
0.294239

>  <SCORE.INTRA>
10.4598

>  <SCORE.INTRA.DIHEDRAL>
3.76498

>  <SCORE.INTRA.DIHEDRAL.0>
9.37739

>  <SCORE.INTRA.POLAR>
0

>  <SCORE.INTRA.POLAR.0>
0

>  <SCORE.INTRA.REPUL>
0

>  <SCORE.INTRA.REPUL.0>
0

>  <SCORE.INTRA.SOLV>
0.256512

>  <SCORE.INTRA.SOLV.lig_0>
-82.9274

>  <SCORE.INTRA.VDW>
8.44907

>  <SCORE.INTRA.VDW.0>
-3.84922

>  <SCORE.INTRA.norm>
0.337413

>  <SCORE.RESTR>
20.5893

>  <SCORE.RESTR.CAVITY>
20.5893

>  <SCORE.RESTR.norm>
0.664172

>  <SCORE.SYSTEM>
0

>  <SCORE.SYSTEM.CONST>
0

>  <SCORE.SYSTEM.DIHEDRAL>
0

>  <SCORE.SYSTEM.SOLV>
0

>  <SCORE.SYSTEM.norm>
0

>  <SCORE.heavy>
31

>  <SCORE.norm>
1.29582

>  <RMSD>
15.178

$$$$
2o3x_lig
 OpenBabel11021811463D
libRbt.so/2013.1/901 2013/11/27
 31 33  0  0  0  0  0  0  0  0999 V2000
    9.7017   13.4447    0.7017 C   0  0  2  0  0  0  0  0  0  0  0  0
    9.0391   12.9927    1.8900 O   0  0  0  0  0  0  0  0  0  0  0  0
    5.6400   15.5627    1.5174 C   0  0  2  0  0  0  0  0  0  0  0  0
    4.3222   16.2095    1.7037 N   0  0  0  0  0  0  0  0  0  0  0  0
    7.7665   13.6222    4.9458 C   0  0  1  0  0  0  0  0  0  0  0  0
   11.2351   13.2025    0.8704 C   0  0  2  0  0  0  0  0  0  0  0  0
   11.5349   11.8304    1.3535 N   0  0  0  0  0  0  0  0  0  0  0  0
    5.5059   14.0966    0.9865 C   0  0  0  0  0  0  0  0  0  0  0  0
    7.8571   13.9162    6.4793 C   0  0  2  0  0  0  0  0  0  0  0  0
    9.0531   13.4343    7.1513 O   0  0  0  0  0  0  0  0  0  0  0  0
   11.8628   14.2034    1.8588 C   0  0  1  0  0  0  0  0  0  0  0  0
   13.2497   13.9994    1.9559 O   0  0  0  0  0  0  0  0  0  0  0  0
    6.9518   13.5095    0.7935 C   0  0  2  0  0  0  0  0  0  0  0  0
    6.9117   12.1118    0.2682 N   0  0  0  0  0  0  0  0  0  0  0  0
    6.5467   13.2744    6.9033 C   0  0  2  0  0  0  0  0  0  0  0  0
    6.6790   11.8144    6.9969 O   0  0  0  0  0  0  0  0  0  0  0  0
   11.5632   15.6236    1.4095 C   0  0  2  0  0  0  0  0  0  0  0  0
   12.1487   16.5297    2.2881 O   0  0  0  0  0  0  0  0  0  0  0  0
    7.7239   13.5069    2.1437 C   0  0  2  0  0  0  0  0  0  0  0  0
    5.5604   13.6632    5.8082 C   0  0  2  0  0  0  0  0  0  0  0  0
    6.3709   13.4910    4.6490 O   0  0  0  0  0  0  0  0  0  0  0  0
   10.0257   15.8481    1.3516 C   0  0  2  0  0  0  0  0  0  0  0  0
    9.4288   14.8923    0.4489 O   0  0  0  0  0  0  0  0  0  0  0  0
    7.8236   14.9021    2.7916 C   0  0  2  0  0  0  0  0  0  0  0  0
    8.3483   14.6623    4.1447 O   0  0  0  0  0  0  0  0  0  0  0  0
    5.0249   15.1327    5.8938 C   0  0  0  0  0  0  0  0  0  0  0  0
    4.7884   15.4889    7.2528 N   0  0  0  0  0  0  0  0  0  0  0  0
    9.6617   17.2406    0.8915 C   0  0  0  0  0  0  0  0  0  0  0  0
    8.3088   17.4832    1.0284 O   0  0  0  0  0  0  0  0  0  0  0  0
    6.3848   15.5808    2.8644 C   0  0  1  0  0  0  0  0  0  0  0  0
    6.4743   16.9587    3.2577 O   0  0  0  0  0  0  0  0  0  0  0  0
  1  2  1  1  0  0  0
  1  6  1  0  0  0  0
  1 23  1  0  0  0  0
  3  4  1  1  0  0  0
  3  8  1  0  0  0  0
  3 30  1  0  0  0  0
  5  9  1  0  0  0  0
  5 21  1  0  0  0  0
  5 25  1  6  0  0  0
  6  7  1  1  0  0  0
  6 11  1  0  0  0  0
  8 13  1  0  0  0  0
  9 10  1  1  0  0  0
  9 15  1  0  0  0  0
 11 12  1  6  0  0  0
 11 17  1  0  0  0  0
 13 14  1  1  0  0  0
 13 19  1  0  0  0  0
 15 16  1  6  0  0  0
 15 20  1  0  0  0  0
 17 18  1  1  0  0  0
 17 22  1  0  0  0  0
 19  2  1  6  0  0  0
 19 24  1  0  0  0  0
 20 21  1  0  0  0  0
 20 26  1  1  0  0  0
 22 23  1  0  0  0  0
 22 28  1  6  0  0  0
 24 25  1  1  0  0  0
 24 30  1  0  0  0  0
 26 27  1  0  0  0  0
 28 29  1  0  0  0  0
 30 31  1  6  0  0  0
M  END
>  <CHROM.1>
159.87160735,-150.85158232,42.12850519,-39.33531968,-171.38512892,-47.01143193
8.20533838,14.47243810,3.00797176,0.71253904,0.26525606,-1.16894393

>  <Name>
2o3x_lig

>  <RI>
3.65513e+07

>  <Rbt.Current_Directory>
/home/itssahil/PROJECTS/Mol_Feturizer/New_Systems/rnas/2o3x

>  <Rbt.Executable>
rbdock ($Id: //depot/dev/client3/rdock/2013.1/src/exe/rbdock.cxx#4 $)

>  <Rbt.Library>
libRbt.so (2013.1, Build901 2013/11/27)

>  <Rbt.Parameter_File>
/export/apps/rDock/src/rDock_2013.1_src/data/scripts/dock_solv.prm

>  <Rbt.Receptor>
prm/blind_docking_20.prm

>  <SCORE>
38.2191

>  <SCORE.INTER>
13.3818

>  <SCORE.INTER.CONST>
1

>  <SCORE.INTER.POLAR>
-0.0850912

>  <SCORE.INTER.ROT>
6

>  <SCORE.INTER.SOLV>
22.3107

>  <SCORE.INTER.VDW>
-5.83209

>  <SCORE.INTER.norm>
0.43167

>  <SCORE.INTRA>
4.29366

>  <SCORE.INTRA.DIHEDRAL>
-0.126898

>  <SCORE.INTRA.DIHEDRAL.0>
9.37739

>  <SCORE.INTRA.POLAR>
0

>  <SCORE.INTRA.POLAR.0>
0

>  <SCORE.INTRA.REPUL>
0

>  <SCORE.INTRA.REPUL.0>
0

>  <SCORE.INTRA.SOLV>
0.814158

>  <SCORE.INTRA.SOLV.lig_0>
-82.9274

>  <SCORE.INTRA.VDW>
3.95003

>  <SCORE.INTRA.VDW.0>
-3.84922

>  <SCORE.INTRA.norm>
0.138505

>  <SCORE.RESTR>
20.5437

>  <SCORE.RESTR.CAVITY>
20.5437

>  <SCORE.RESTR.norm>
0.662699

>  <SCORE.SYSTEM>
0

>  <SCORE.SYSTEM.CONST>
0

>  <SCORE.SYSTEM.DIHEDRAL>
0

>  <SCORE.SYSTEM.SOLV>
0

>  <SCORE.SYSTEM.norm>
0

>  <SCORE.heavy>
31

>  <SCORE.norm>
1.23287

>  <RMSD>
15.215

$$$$
2o3x_lig
 OpenBabel11021811463D
libRbt.so/2013.1/901 2013/11/27
 31 33  0  0  0  0  0  0  0  0999 V2000
    7.9305   12.6690    4.3906 C   0  0  2  0  0  0  0  0  0  0  0  0
    7.8221   13.7392    3.4427 O   0  0  0  0  0  0  0  0  0  0  0  0
   10.8763   12.2864    0.8237 C   0  0  2  0  0  0  0  0  0  0  0  0
   11.8866   12.1679   -0.2509 N   0  0  0  0  0  0  0  0  0  0  0  0
   10.1624   16.2510    2.6136 C   0  0  1  0  0  0  0  0  0  0  0  0
    6.5827   11.8805    4.3994 C   0  0  2  0  0  0  0  0  0  0  0  0
    6.1195   11.5490    3.0278 N   0  0  0  0  0  0  0  0  0  0  0  0
    9.4228   12.4000    0.2548 C   0  0  0  0  0  0  0  0  0  0  0  0
    9.9722   15.8817    1.1057 C   0  0  2  0  0  0  0  0  0  0  0  0
   11.1852   15.8217    0.3062 O   0  0  0  0  0  0  0  0  0  0  0  0
    5.4647   12.6746    5.1009 C   0  0  1  0  0  0  0  0  0  0  0  0
    4.2765   11.9258    5.1418 O   0  0  0  0  0  0  0  0  0  0  0  0
    8.4259   12.4901    1.4675 C   0  0  2  0  0  0  0  0  0  0  0  0
    7.0078   12.5825    1.0073 N   0  0  0  0  0  0  0  0  0  0  0  0
    8.9805   16.9721    0.7364 C   0  0  2  0  0  0  0  0  0  0  0  0
    9.6622   18.2547    0.5177 O   0  0  0  0  0  0  0  0  0  0  0  0
    5.9065   13.0501    6.5054 C   0  0  2  0  0  0  0  0  0  0  0  0
    4.8894   13.7477    7.1492 O   0  0  0  0  0  0  0  0  0  0  0  0
    8.7427   13.7366    2.3422 C   0  0  2  0  0  0  0  0  0  0  0  0
    8.0393   17.0519    1.9326 C   0  0  2  0  0  0  0  0  0  0  0  0
    8.9676   16.9369    3.0075 O   0  0  0  0  0  0  0  0  0  0  0  0
    7.1957   13.9171    6.4415 C   0  0  2  0  0  0  0  0  0  0  0  0
    8.2380   13.1882    5.7580 O   0  0  0  0  0  0  0  0  0  0  0  0
   10.1905   13.7580    2.8711 C   0  0  2  0  0  0  0  0  0  0  0  0
   10.3710   15.0999    3.4462 O   0  0  0  0  0  0  0  0  0  0  0  0
    6.9667   15.9128    2.0055 C   0  0  0  0  0  0  0  0  0  0  0  0
    6.2799   15.9666    3.2526 N   0  0  0  0  0  0  0  0  0  0  0  0
    7.6979   14.3081    7.8120 C   0  0  0  0  0  0  0  0  0  0  0  0
    6.6759   14.7827    8.6109 O   0  0  0  0  0  0  0  0  0  0  0  0
   11.2176   13.5209    1.6775 C   0  0  1  0  0  0  0  0  0  0  0  0
   12.5519   13.3171    2.1666 O   0  0  0  0  0  0  0  0  0  0  0  0
  1  2  1  6  0  0  0
  1  6  1  0  0  0  0
  1 23  1  0  0  0  0
  3  4  1  6  0  0  0
  3  8  1  0  0  0  0
  3 30  1  0  0  0  0
  5  9  1  0  0  0  0
  5 21  1  0  0  0  0
  5 25  1  1  0  0  0
  6  7  1  6  0  0  0
  6 11  1  0  0  0  0
  8 13  1  0  0  0  0
  9 10  1  6  0  0  0
  9 15  1  0  0  0  0
 11 12  1  1  0  0  0
 11 17  1  0  0  0  0
 13 14  1  6  0  0  0
 13 19  1  0  0  0  0
 15 16  1  1  0  0  0
 15 20  1  0  0  0  0
 17 18  1  6  0  0  0
 17 22  1  0  0  0  0
 19  2  1  1  0  0  0
 19 24  1  0  0  0  0
 20 21  1  0  0  0  0
 20 26  1  6  0  0  0
 22 23  1  0  0  0  0
 22 28  1  1  0  0  0
 24 25  1  6  0  0  0
 24 30  1  0  0  0  0
 26 27  1  0  0  0  0
 28 29  1  0  0  0  0
 30 31  1  1  0  0  0
M  END
>  <CHROM.1>
-119.30227435,-8.82725649,65.68484980,171.29544162,-46.97394558,-57.59418130
8.37616774,14.15271621,3.23521220,-3.05234961,0.89153902,0.16206598

>  <Name>
2o3x_lig

>  <RI>
3.65513e+07

>  <Rbt.Current_Directory>
/home/itssahil/PROJECTS/Mol_Feturizer/New_Systems/rnas/2o3x

>  <Rbt.Executable>
rbdock ($Id: //depot/dev/client3/rdock/2013.1/src/exe/rbdock.cxx#4 $)

>  <Rbt.Library>
libRbt.so (2013.1, Build901 2013/11/27)

>  <Rbt.Parameter_File>
/export/apps/rDock/src/rDock_2013.1_src/data/scripts/dock_solv.prm

>  <Rbt.Receptor>
prm/blind_docking_20.prm

>  <SCORE>
35.3313

>  <SCORE.INTER>
5.38412

>  <SCORE.INTER.CONST>
1

>  <SCORE.INTER.POLAR>
-0.368653

>  <SCORE.INTER.ROT>
6

>  <SCORE.INTER.SOLV>
18.1803

>  <SCORE.INTER.VDW>
-8.84186

>  <SCORE.INTER.norm>
0.173681

>  <SCORE.INTRA>
16.2622

>  <SCORE.INTRA.DIHEDRAL>
5.85349

>  <SCORE.INTRA.DIHEDRAL.0>
9.37739

>  <SCORE.INTRA.POLAR>
0

>  <SCORE.INTRA.POLAR.0>
0

>  <SCORE.INTRA.REPUL>
0

>  <SCORE.INTRA.REPUL.0>
0

>  <SCORE.INTRA.SOLV>
9.00683

>  <SCORE.INTRA.SOLV.lig_0>
-82.9274

>  <SCORE.INTRA.VDW>
8.832

>  <SCORE.INTRA.VDW.0>
-3.84922

>  <SCORE.INTRA.norm>
0.524586

>  <SCORE.RESTR>
13.685

>  <SCORE.RESTR.CAVITY>
13.685

>  <SCORE.RESTR.norm>
0.441451

>  <SCORE.SYSTEM>
0

>  <SCORE.SYSTEM.CONST>
0

>  <SCORE.SYSTEM.DIHEDRAL>
0

>  <SCORE.SYSTEM.SOLV>
0

>  <SCORE.SYSTEM.norm>
0

>  <SCORE.heavy>
31

>  <SCORE.norm>
1.13972

>  <RMSD>
15.269

$$$$
2o3x_lig
 OpenBabel11021811463D
libRbt.so/2013.1/901 2013/11/27
 31 33  0  0  0  0  0  0  0  0999 V2000
    9.3742   15.1783    4.0128 C   0  0  2  0  0  0  0  0  0  0  0  0
    8.7446   13.9015    4.1828 O   0  0  0  0  0  0  0  0  0  0  0  0
    4.7687   15.3143    4.8856 C   0  0  2  0  0  0  0  0  0  0  0  0
    3.3717   15.4472    5.3547 N   0  0  0  0  0  0  0  0  0  0  0  0
    7.4359   13.5224    7.7504 C   0  0  1  0  0  0  0  0  0  0  0  0
    8.5521   15.9976    2.9681 C   0  0  2  0  0  0  0  0  0  0  0  0
    7.0960   15.9746    3.2597 N   0  0  0  0  0  0  0  0  0  0  0  0
    4.9494   14.1031    3.9111 C   0  0  0  0  0  0  0  0  0  0  0  0
    5.9585   13.8236    8.1661 C   0  0  2  0  0  0  0  0  0  0  0  0
    5.7842   14.6014    9.3822 O   0  0  0  0  0  0  0  0  0  0  0  0
    8.7599   15.4648    1.5378 C   0  0  1  0  0  0  0  0  0  0  0  0
    8.0518   16.2476    0.6103 O   0  0  0  0  0  0  0  0  0  0  0  0
    6.4514   14.0650    3.4475 C   0  0  2  0  0  0  0  0  0  0  0  0
    6.7042   12.9426    2.4949 N   0  0  0  0  0  0  0  0  0  0  0  0
    5.4465   12.3935    8.2071 C   0  0  2  0  0  0  0  0  0  0  0  0
    5.8457   11.7246    9.4525 O   0  0  0  0  0  0  0  0  0  0  0  0
   10.2424   15.4550    1.2050 C   0  0  2  0  0  0  0  0  0  0  0  0
   10.4310   14.9959   -0.0948 O   0  0  0  0  0  0  0  0  0  0  0  0
    7.3958   13.8950    4.6716 C   0  0  2  0  0  0  0  0  0  0  0  0
    6.0897   11.7240    6.9983 C   0  0  2  0  0  0  0  0  0  0  0  0
    7.4068   12.2636    7.0668 O   0  0  0  0  0  0  0  0  0  0  0  0
   11.0056   14.5481    2.2113 C   0  0  2  0  0  0  0  0  0  0  0  0
   10.7893   15.0259    3.5566 O   0  0  0  0  0  0  0  0  0  0  0  0
    7.2193   14.9969    5.7352 C   0  0  2  0  0  0  0  0  0  0  0  0
    7.9920   14.5364    6.8992 O   0  0  0  0  0  0  0  0  0  0  0  0
    5.4241   12.0663    5.6225 C   0  0  0  0  0  0  0  0  0  0  0  0
    4.1015   11.5388    5.5740 N   0  0  0  0  0  0  0  0  0  0  0  0
   12.4924   14.5118    1.9442 C   0  0  0  0  0  0  0  0  0  0  0  0
   13.0163   15.7832    1.8143 O   0  0  0  0  0  0  0  0  0  0  0  0
    5.6811   15.1558    6.1152 C   0  0  1  0  0  0  0  0  0  0  0  0
    5.4602   16.3144    6.9338 O   0  0  0  0  0  0  0  0  0  0  0  0
  1  2  1  6  0  0  0
  1  6  1  0  0  0  0
  1 23  1  0  0  0  0
  3  4  1  1  0  0  0
  3  8  1  0  0  0  0
  3 30  1  0  0  0  0
  5  9  1  0  0  0  0
  5 21  1  0  0  0  0
  5 25  1  6  0  0  0
  6  7  1  1  0  0  0
  6 11  1  0  0  0  0
  8 13  1  0  0  0  0
  9 10  1  1  0  0  0
  9 15  1  0  0  0  0
 11 12  1  6  0  0  0
 11 17  1  0  0  0  0
 13 14  1  6  0  0  0
 13 19  1  0  0  0  0
 15 16  1  1  0  0  0
 15 20  1  0  0  0  0
 17 18  1  6  0  0  0
 17 22  1  0  0  0  0
 19  2  1  6  0  0  0
 19 24  1  0  0  0  0
 20 21  1  0  0  0  0
 20 26  1  6  0  0  0
 22 23  1  0  0  0  0
 22 28  1  6  0  0  0
 24 25  1  1  0  0  0
 24 30  1  0  0  0  0
 26 27  1  0  0  0  0
 28 29  1  0  0  0  0
 30 31  1  1  0  0  0
M  END
>  <CHROM.1>
-61.02204479,-48.40001974,85.79216180,-65.97259566,50.00515913,-77.74421783
7.52542413,14.31452668,4.71346320,-0.88726575,-0.06355338,1.94460654

>  <Name>
2o3x_lig

>  <RI>
3.65513e+07

>  <Rbt.Current_Directory>
/home/itssahil/PROJECTS/Mol_Feturizer/New_Systems/rnas/2o3x

>  <Rbt.Executable>
rbdock ($Id: //depot/dev/client3/rdock/2013.1/src/exe/rbdock.cxx#4 $)

>  <Rbt.Library>
libRbt.so (2013.1, Build901 2013/11/27)

>  <Rbt.Parameter_File>
/export/apps/rDock/src/rDock_2013.1_src/data/scripts/dock_solv.prm

>  <Rbt.Receptor>
prm/blind_docking_20.prm

>  <SCORE>
45.5603

>  <SCORE.INTER>
-6.94111

>  <SCORE.INTER.CONST>
1

>  <SCORE.INTER.POLAR>
-1.32678

>  <SCORE.INTER.ROT>
6

>  <SCORE.INTER.SOLV>
14.2612

>  <SCORE.INTER.VDW>
-12.5586

>  <SCORE.INTER.norm>
-0.223907

>  <SCORE.INTRA>
37.029

>  <SCORE.INTRA.DIHEDRAL>
-3.84041

>  <SCORE.INTRA.DIHEDRAL.0>
9.37739

>  <SCORE.INTRA.POLAR>
0

>  <SCORE.INTRA.POLAR.0>
0

>  <SCORE.INTRA.REPUL>
0

>  <SCORE.INTRA.REPUL.0>
0

>  <SCORE.INTRA.SOLV>
12.2539

>  <SCORE.INTRA.SOLV.lig_0>
-82.9274

>  <SCORE.INTRA.VDW>
32.8223

>  <SCORE.INTRA.VDW.0>
-3.84922

>  <SCORE.INTRA.norm>
1.19449

>  <SCORE.RESTR>
15.4724

>  <SCORE.RESTR.CAVITY>
15.4724

>  <SCORE.RESTR.norm>
0.499109

>  <SCORE.SYSTEM>
0

>  <SCORE.SYSTEM.CONST>
0

>  <SCORE.SYSTEM.DIHEDRAL>
0

>  <SCORE.SYSTEM.SOLV>
0

>  <SCORE.SYSTEM.norm>
0

>  <SCORE.heavy>
31

>  <SCORE.norm>
1.46969

>  <RMSD>
15.306

$$$$
2o3x_lig
 OpenBabel11021811463D
libRbt.so/2013.1/901 2013/11/27
 31 33  0  0  0  0  0  0  0  0999 V2000
   10.6467   14.5418    3.0106 C   0  0  2  0  0  0  0  0  0  0  0  0
    9.6088   15.5164    3.1793 O   0  0  0  0  0  0  0  0  0  0  0  0
    5.9797   16.7299    1.2675 C   0  0  2  0  0  0  0  0  0  0  0  0
    4.8311   16.8392    0.3411 N   0  0  0  0  0  0  0  0  0  0  0  0
    7.5452   13.1080    4.3733 C   0  0  1  0  0  0  0  0  0  0  0  0
   11.7587   15.1585    2.1041 C   0  0  2  0  0  0  0  0  0  0  0  0
   12.1505   16.5207    2.5476 N   0  0  0  0  0  0  0  0  0  0  0  0
    7.3305   17.1168    0.5782 C   0  0  0  0  0  0  0  0  0  0  0  0
    7.9586   14.2154    5.3974 C   0  0  2  0  0  0  0  0  0  0  0  0
    9.3867   14.3829    5.6135 O   0  0  0  0  0  0  0  0  0  0  0  0
   11.3082   15.2474    0.6337 C   0  0  1  0  0  0  0  0  0  0  0  0
   12.3415   15.7571   -0.1706 O   0  0  0  0  0  0  0  0  0  0  0  0
    8.4787   16.9989    1.6459 C   0  0  2  0  0  0  0  0  0  0  0  0
    9.8054   17.3717    1.0696 N   0  0  0  0  0  0  0  0  0  0  0  0
    7.1546   13.7231    6.5891 C   0  0  2  0  0  0  0  0  0  0  0  0
    7.8320   12.6046    7.2581 O   0  0  0  0  0  0  0  0  0  0  0  0
   10.8807   13.8738    0.1447 C   0  0  2  0  0  0  0  0  0  0  0  0
   10.4951   13.9472   -1.1901 O   0  0  0  0  0  0  0  0  0  0  0  0
    8.5690   15.5450    2.1912 C   0  0  2  0  0  0  0  0  0  0  0  0
    5.8246   13.2771    5.9930 C   0  0  2  0  0  0  0  0  0  0  0  0
    6.2721   12.6179    4.8116 O   0  0  0  0  0  0  0  0  0  0  0  0
    9.7064   13.3432    1.0149 C   0  0  2  0  0  0  0  0  0  0  0  0
   10.1142   13.2864    2.3988 O   0  0  0  0  0  0  0  0  0  0  0  0
    7.2482   15.0418    2.8066 C   0  0  2  0  0  0  0  0  0  0  0  0
    7.4503   13.6016    3.0281 O   0  0  0  0  0  0  0  0  0  0  0  0
    4.8383   14.4403    5.6358 C   0  0  0  0  0  0  0  0  0  0  0  0
    3.5455   13.9149    5.3489 N   0  0  0  0  0  0  0  0  0  0  0  0
    9.2469   11.9681    0.5893 C   0  0  0  0  0  0  0  0  0  0  0  0
    8.2132   11.5099    1.3827 O   0  0  0  0  0  0  0  0  0  0  0  0
    6.0408   15.2860    1.7975 C   0  0  1  0  0  0  0  0  0  0  0  0
    4.7743   15.0321    2.4240 O   0  0  0  0  0  0  0  0  0  0  0  0
  1  2  1  6  0  0  0
  1  6  1  0  0  0  0
  1 23  1  0  0  0  0
  3  4  1  6  0  0  0
  3  8  1  0  0  0  0
  3 30  1  0  0  0  0
  5  9  1  0  0  0  0
  5 21  1  0  0  0  0
  5 25  1  6  0  0  0
  6  7  1  1  0  0  0
  6 11  1  0  0  0  0
  8 13  1  0  0  0  0
  9 10  1  1  0  0  0
  9 15  1  0  0  0  0
 11 12  1  6  0  0  0
 11 17  1  0  0  0  0
 13 14  1  6  0  0  0
 13 19  1  0  0  0  0
 15 16  1  6  0  0  0
 15 20  1  0  0  0  0
 17 18  1  6  0  0  0
 17 22  1  0  0  0  0
 19  2  1  1  0  0  0
 19 24  1  0  0  0  0
 20 21  1  0  0  0  0
 20 26  1  6  0  0  0
 22 23  1  0  0  0  0
 22 28  1  6  0  0  0
 24 25  1  6  0  0  0
 24 30  1  0  0  0  0
 26 27  1  0  0  0  0
 28 29  1  0  0  0  0
 30 31  1  1  0  0  0
M  END
>  <CHROM.1>
87.56708069,-21.97207961,-125.97331809,-168.21556130,179.39104238,110.99350757
8.31028128,14.55852840,2.70883766,-0.75149092,-0.22712470,2.10059805

>  <Name>
2o3x_lig

>  <RI>
3.65513e+07

>  <Rbt.Current_Directory>
/home/itssahil/PROJECTS/Mol_Feturizer/New_Systems/rnas/2o3x

>  <Rbt.Executable>
rbdock ($Id: //depot/dev/client3/rdock/2013.1/src/exe/rbdock.cxx#4 $)

>  <Rbt.Library>
libRbt.so (2013.1, Build901 2013/11/27)

>  <Rbt.Parameter_File>
/export/apps/rDock/src/rDock_2013.1_src/data/scripts/dock_solv.prm

>  <Rbt.Receptor>
prm/blind_docking_20.prm

>  <SCORE>
31.7575

>  <SCORE.INTER>
0.568977

>  <SCORE.INTER.CONST>
1

>  <SCORE.INTER.POLAR>
-0.962529

>  <SCORE.INTER.ROT>
6

>  <SCORE.INTER.SOLV>
16.3902

>  <SCORE.INTER.VDW>
-9.47564

>  <SCORE.INTER.norm>
0.0183541

>  <SCORE.INTRA>
10.8067

>  <SCORE.INTRA.DIHEDRAL>
13.1802

>  <SCORE.INTRA.DIHEDRAL.0>
9.37739

>  <SCORE.INTRA.POLAR>
0

>  <SCORE.INTRA.POLAR.0>
0

>  <SCORE.INTRA.REPUL>
0

>  <SCORE.INTRA.REPUL.0>
0

>  <SCORE.INTRA.SOLV>
5.87044

>  <SCORE.INTRA.SOLV.lig_0>
-82.9274

>  <SCORE.INTRA.VDW>
1.28135

>  <SCORE.INTRA.VDW.0>
-3.84922

>  <SCORE.INTRA.norm>
0.348603

>  <SCORE.RESTR>
20.3819

>  <SCORE.RESTR.CAVITY>
20.3819

>  <SCORE.RESTR.norm>
0.657479

>  <SCORE.SYSTEM>
0

>  <SCORE.SYSTEM.CONST>
0

>  <SCORE.SYSTEM.DIHEDRAL>
0

>  <SCORE.SYSTEM.SOLV>
0

>  <SCORE.SYSTEM.norm>
0

>  <SCORE.heavy>
31

>  <SCORE.norm>
1.02444

>  <RMSD>
15.318

$$$$
2o3x_lig
 OpenBabel11021811463D
libRbt.so/2013.1/901 2013/11/27
 31 33  0  0  0  0  0  0  0  0999 V2000
    7.5549   12.8455    4.2569 C   0  0  2  0  0  0  0  0  0  0  0  0
    7.7158   13.9717    3.3844 O   0  0  0  0  0  0  0  0  0  0  0  0
   10.7362   12.1669    0.9518 C   0  0  2  0  0  0  0  0  0  0  0  0
   11.7744   11.9223   -0.0738 N   0  0  0  0  0  0  0  0  0  0  0  0
   10.3187   16.2415    2.5610 C   0  0  1  0  0  0  0  0  0  0  0  0
    6.0460   12.4437    4.2694 C   0  0  2  0  0  0  0  0  0  0  0  0
    5.4815   12.3467    2.8991 N   0  0  0  0  0  0  0  0  0  0  0  0
    9.3213   12.3793    0.3177 C   0  0  0  0  0  0  0  0  0  0  0  0
   10.2066   15.8253    1.0575 C   0  0  2  0  0  0  0  0  0  0  0  0
   11.4644   15.6327    0.3538 O   0  0  0  0  0  0  0  0  0  0  0  0
    5.1960   13.4530    5.0643 C   0  0  1  0  0  0  0  0  0  0  0  0
    3.8522   13.0447    5.1049 O   0  0  0  0  0  0  0  0  0  0  0  0
    8.2886   12.6000    1.4826 C   0  0  2  0  0  0  0  0  0  0  0  0
    6.9028   12.7926    0.9594 N   0  0  0  0  0  0  0  0  0  0  0  0
    9.3395   16.9763    0.5756 C   0  0  2  0  0  0  0  0  0  0  0  0
   10.1410   18.1887    0.3622 O   0  0  0  0  0  0  0  0  0  0  0  0
    5.7524   13.5956    6.4711 C   0  0  2  0  0  0  0  0  0  0  0  0
    4.9726   14.4894    7.1983 O   0  0  0  0  0  0  0  0  0  0  0  0
    8.6756   13.8489    2.3250 C   0  0  2  0  0  0  0  0  0  0  0  0
    8.3252   17.1832    1.6942 C   0  0  2  0  0  0  0  0  0  0  0  0
    9.1610   17.0385    2.8392 O   0  0  0  0  0  0  0  0  0  0  0  0
    7.2245   14.0923    6.4111 C   0  0  2  0  0  0  0  0  0  0  0  0
    8.0193   13.1646    5.6413 O   0  0  0  0  0  0  0  0  0  0  0  0
   10.0979   13.7699    2.9141 C   0  0  2  0  0  0  0  0  0  0  0  0
   10.3692   15.1134    3.4481 O   0  0  0  0  0  0  0  0  0  0  0  0
    7.1578   16.1395    1.7278 C   0  0  0  0  0  0  0  0  0  0  0  0
    6.4168   16.1949    0.5122 N   0  0  0  0  0  0  0  0  0  0  0  0
    7.8424   14.2364    7.7825 C   0  0  0  0  0  0  0  0  0  0  0  0
    7.1443   13.5160    8.7322 O   0  0  0  0  0  0  0  0  0  0  0  0
   11.1474   13.4010    1.7747 C   0  0  1  0  0  0  0  0  0  0  0  0
   12.4392   13.1057    2.3273 O   0  0  0  0  0  0  0  0  0  0  0  0
  1  2  1  6  0  0  0
  1  6  1  0  0  0  0
  1 23  1  0  0  0  0
  3  4  1  6  0  0  0
  3  8  1  0  0  0  0
  3 30  1  0  0  0  0
  5  9  1  0  0  0  0
  5 21  1  0  0  0  0
  5 25  1  1  0  0  0
  6  7  1  6  0  0  0
  6 11  1  0  0  0  0
  8 13  1  0  0  0  0
  9 10  1  6  0  0  0
  9 15  1  0  0  0  0
 11 12  1  1  0  0  0
 11 17  1  0  0  0  0
 13 14  1  6  0  0  0
 13 19  1  0  0  0  0
 15 16  1  1  0  0  0
 15 20  1  0  0  0  0
 17 18  1  1  0  0  0
 17 22  1  0  0  0  0
 19  2  1  1  0  0  0
 19 24  1  0  0  0  0
 20 21  1  0  0  0  0
 20 26  1  1  0  0  0
 22 23  1  0  0  0  0
 22 28  1  1  0  0  0
 24 25  1  6  0  0  0
 24 30  1  0  0  0  0
 26 27  1  0  0  0  0
 28 29  1  0  0  0  0
 30 31  1  1  0  0  0
M  END
>  <CHROM.1>
-125.16801332,-9.73595898,56.56231789,-60.49689893,19.03879218,-58.82749633
8.36100204,14.27299474,3.11695450,-2.64961421,0.78305445,-0.39002441

>  <Name>
2o3x_lig

>  <RI>
3.65513e+07

>  <Rbt.Current_Directory>
/home/itssahil/PROJECTS/Mol_Feturizer/New_Systems/rnas/2o3x

>  <Rbt.Executable>
rbdock ($Id: //depot/dev/client3/rdock/2013.1/src/exe/rbdock.cxx#4 $)

>  <Rbt.Library>
libRbt.so (2013.1, Build901 2013/11/27)

>  <Rbt.Parameter_File>
/export/apps/rDock/src/rDock_2013.1_src/data/scripts/dock_solv.prm

>  <Rbt.Receptor>
prm/blind_docking_20.prm

>  <SCORE>
36.5742

>  <SCORE.INTER>
4.1703

>  <SCORE.INTER.CONST>
1

>  <SCORE.INTER.POLAR>
-0.376226

>  <SCORE.INTER.ROT>
6

>  <SCORE.INTER.SOLV>
15.7437

>  <SCORE.INTER.VDW>
-8.81363

>  <SCORE.INTER.norm>
0.134526

>  <SCORE.INTRA>
17.1567

>  <SCORE.INTRA.DIHEDRAL>
8.70957

>  <SCORE.INTRA.DIHEDRAL.0>
9.37739

>  <SCORE.INTRA.POLAR>
0

>  <SCORE.INTRA.POLAR.0>
0

>  <SCORE.INTRA.REPUL>
0

>  <SCORE.INTRA.REPUL.0>
0

>  <SCORE.INTRA.SOLV>
7.24346

>  <SCORE.INTRA.SOLV.lig_0>
-82.9274

>  <SCORE.INTRA.VDW>
9.18017

>  <SCORE.INTRA.VDW.0>
-3.84922

>  <SCORE.INTRA.norm>
0.553441

>  <SCORE.RESTR>
15.2472

>  <SCORE.RESTR.CAVITY>
15.2472

>  <SCORE.RESTR.norm>
0.491846

>  <SCORE.SYSTEM>
0

>  <SCORE.SYSTEM.CONST>
0

>  <SCORE.SYSTEM.DIHEDRAL>
0

>  <SCORE.SYSTEM.SOLV>
0

>  <SCORE.SYSTEM.norm>
0

>  <SCORE.heavy>
31

>  <SCORE.norm>
1.17981

>  <RMSD>
15.388

$$$$
2o3x_lig
 OpenBabel11021811463D
libRbt.so/2013.1/901 2013/11/27
 31 33  0  0  0  0  0  0  0  0999 V2000
    7.3470   12.8451    4.1344 C   0  0  2  0  0  0  0  0  0  0  0  0
    7.4736   13.9781    3.2650 O   0  0  0  0  0  0  0  0  0  0  0  0
   10.5449   12.2723    0.8246 C   0  0  2  0  0  0  0  0  0  0  0  0
   11.6047   12.0692   -0.1878 N   0  0  0  0  0  0  0  0  0  0  0  0
   10.2526   16.2551    2.5717 C   0  0  1  0  0  0  0  0  0  0  0  0
    5.8342   12.4729    4.2413 C   0  0  2  0  0  0  0  0  0  0  0  0
    5.1799   12.4030    2.9098 N   0  0  0  0  0  0  0  0  0  0  0  0
    9.1439   12.5126    0.1698 C   0  0  0  0  0  0  0  0  0  0  0  0
   10.6799   15.8723    1.1167 C   0  0  2  0  0  0  0  0  0  0  0  0
   12.1111   15.8236    0.8645 O   0  0  0  0  0  0  0  0  0  0  0  0
    5.0586   13.4892    5.1006 C   0  0  1  0  0  0  0  0  0  0  0  0
    3.7122   13.1069    5.2246 O   0  0  0  0  0  0  0  0  0  0  0  0
    8.0865   12.6859    1.3205 C   0  0  2  0  0  0  0  0  0  0  0  0
    6.7124   12.9017    0.7762 N   0  0  0  0  0  0  0  0  0  0  0  0
    9.9051   16.9460    0.3711 C   0  0  2  0  0  0  0  0  0  0  0  0
   10.6046   18.2365    0.4251 O   0  0  0  0  0  0  0  0  0  0  0  0
    5.7082   13.6044    6.4693 C   0  0  2  0  0  0  0  0  0  0  0  0
    4.9958   14.5047    7.2552 O   0  0  0  0  0  0  0  0  0  0  0  0
    8.4558   13.8983    2.2222 C   0  0  2  0  0  0  0  0  0  0  0  0
    8.5659   17.0211    1.0950 C   0  0  2  0  0  0  0  0  0  0  0  0
    8.9927   16.9269    2.4512 O   0  0  0  0  0  0  0  0  0  0  0  0
    7.1831   14.0728    6.3184 C   0  0  2  0  0  0  0  0  0  0  0  0
    7.9071   13.1388    5.4887 O   0  0  0  0  0  0  0  0  0  0  0  0
    9.8652   13.7931    2.8378 C   0  0  2  0  0  0  0  0  0  0  0  0
   10.1254   15.1130    3.4328 O   0  0  0  0  0  0  0  0  0  0  0  0
    7.5639   15.8676    0.7505 C   0  0  0  0  0  0  0  0  0  0  0  0
    6.4209   15.9431    1.5976 N   0  0  0  0  0  0  0  0  0  0  0  0
    7.8918   14.1886    7.6479 C   0  0  0  0  0  0  0  0  0  0  0  0
    8.6644   13.0741    7.9104 O   0  0  0  0  0  0  0  0  0  0  0  0
   10.9387   13.4707    1.7067 C   0  0  1  0  0  0  0  0  0  0  0  0
   12.2183   13.1511    2.2740 O   0  0  0  0  0  0  0  0  0  0  0  0
  1  2  1  6  0  0  0
  1  6  1  0  0  0  0
  1 23  1  0  0  0  0
  3  4  1  6  0  0  0
  3  8  1  0  0  0  0
  3 30  1  0  0  0  0
  5  9  1  0  0  0  0
  5 21  1  0  0  0  0
  5 25  1  1  0  0  0
  6  7  1  6  0  0  0
  6 11  1  0  0  0  0
  8 13  1  0  0  0  0
  9 10  1  1  0  0  0
  9 15  1  0  0  0  0
 11 12  1  1  0  0  0
 11 17  1  0  0  0  0
 13 14  1  6  0  0  0
 13 19  1  0  0  0  0
 15 16  1  1  0  0  0
 15 20  1  0  0  0  0
 17 18  1  1  0  0  0
 17 22  1  0  0  0  0
 19  2  1  1  0  0  0
 19 24  1  0  0  0  0
 20 21  1  0  0  0  0
 20 26  1  6  0  0  0
 22 23  1  0  0  0  0
 22 28  1  1  0  0  0
 24 25  1  6  0  0  0
 24 30  1  0  0  0  0
 26 27  1  0  0  0  0
 28 29  1  0  0  0  0
 30 31  1  1  0  0  0
M  END
>  <CHROM.1>
-131.16383405,-23.92403381,60.02935593,172.90086228,98.59608944,-66.19345957
8.39008378,14.26885302,3.02944006,2.56370920,0.68129414,1.12730694

>  <Name>
2o3x_lig

>  <RI>
3.65513e+07

>  <Rbt.Current_Directory>
/home/itssahil/PROJECTS/Mol_Feturizer/New_Systems/rnas/2o3x

>  <Rbt.Executable>
rbdock ($Id: //depot/dev/client3/rdock/2013.1/src/exe/rbdock.cxx#4 $)

>  <Rbt.Library>
libRbt.so (2013.1, Build901 2013/11/27)

>  <Rbt.Parameter_File>
/export/apps/rDock/src/rDock_2013.1_src/data/scripts/dock_solv.prm

>  <Rbt.Receptor>
prm/blind_docking_20.prm

>  <SCORE>
44.7615

>  <SCORE.INTER>
7.0775

>  <SCORE.INTER.CONST>
1

>  <SCORE.INTER.POLAR>
-0.20089

>  <SCORE.INTER.ROT>
6

>  <SCORE.INTER.SOLV>
15.0713

>  <SCORE.INTER.VDW>
-7.23579

>  <SCORE.INTER.norm>
0.228306

>  <SCORE.INTRA>
21.5131

>  <SCORE.INTRA.DIHEDRAL>
6.27536

>  <SCORE.INTRA.DIHEDRAL.0>
9.37739

>  <SCORE.INTRA.POLAR>
0

>  <SCORE.INTRA.POLAR.0>
0

>  <SCORE.INTRA.REPUL>
0

>  <SCORE.INTRA.REPUL.0>
0

>  <SCORE.INTRA.SOLV>
9.2092

>  <SCORE.INTRA.SOLV.lig_0>
-82.9274

>  <SCORE.INTRA.VDW>
13.7708

>  <SCORE.INTRA.VDW.0>
-3.84922

>  <SCORE.INTRA.norm>
0.69397

>  <SCORE.RESTR>
16.1709

>  <SCORE.RESTR.CAVITY>
16.1709

>  <SCORE.RESTR.norm>
0.521642

>  <SCORE.SYSTEM>
0

>  <SCORE.SYSTEM.CONST>
0

>  <SCORE.SYSTEM.DIHEDRAL>
0

>  <SCORE.SYSTEM.SOLV>
0

>  <SCORE.SYSTEM.norm>
0

>  <SCORE.heavy>
31

>  <SCORE.norm>
1.44392

>  <RMSD>
15.391

$$$$
2o3x_lig
 OpenBabel11021811463D
libRbt.so/2013.1/901 2013/11/27
 31 33  0  0  0  0  0  0  0  0999 V2000
    5.4591   14.7426    2.5041 C   0  0  2  0  0  0  0  0  0  0  0  0
    5.8481   15.8135    3.3743 O   0  0  0  0  0  0  0  0  0  0  0  0
    9.9506   15.8593    2.1636 C   0  0  2  0  0  0  0  0  0  0  0  0
   11.3832   16.1988    2.0154 N   0  0  0  0  0  0  0  0  0  0  0  0
    7.1807   14.2052    6.0186 C   0  0  1  0  0  0  0  0  0  0  0  0
    4.8244   13.6094    3.3711 C   0  0  2  0  0  0  0  0  0  0  0  0
    3.8118   14.1337    4.3227 N   0  0  0  0  0  0  0  0  0  0  0  0
    9.0181   16.9923    1.6194 C   0  0  0  0  0  0  0  0  0  0  0  0
    7.6157   14.0045    7.5074 C   0  0  2  0  0  0  0  0  0  0  0  0
    8.7458   13.1163    7.7273 O   0  0  0  0  0  0  0  0  0  0  0  0
    5.8912   12.8492    4.1815 C   0  0  1  0  0  0  0  0  0  0  0  0
    5.3044   11.8033    4.9136 O   0  0  0  0  0  0  0  0  0  0  0  0
    7.5263   16.5268    1.7927 C   0  0  2  0  0  0  0  0  0  0  0  0
    6.5679   17.5500    1.2770 N   0  0  0  0  0  0  0  0  0  0  0  0
    6.2808   13.5398    8.0650 C   0  0  2  0  0  0  0  0  0  0  0  0
    6.0447   12.1226    7.7592 O   0  0  0  0  0  0  0  0  0  0  0  0
    6.9589   12.3102    3.2445 C   0  0  2  0  0  0  0  0  0  0  0  0
    7.9116   11.6035    3.9717 O   0  0  0  0  0  0  0  0  0  0  0  0
    7.2077   16.2644    3.2924 C   0  0  2  0  0  0  0  0  0  0  0  0
    5.2505   14.4255    7.3743 C   0  0  2  0  0  0  0  0  0  0  0  0
    5.7691   14.4490    6.0473 O   0  0  0  0  0  0  0  0  0  0  0  0
    7.6308   13.4830    2.4758 C   0  0  2  0  0  0  0  0  0  0  0  0
    6.6300   14.2170    1.7381 O   0  0  0  0  0  0  0  0  0  0  0  0
    8.1436   15.2256    3.9415 C   0  0  2  0  0  0  0  0  0  0  0  0
    7.8602   15.2991    5.3831 O   0  0  0  0  0  0  0  0  0  0  0  0
    5.1384   15.8784    7.9485 C   0  0  0  0  0  0  0  0  0  0  0  0
    6.4295   16.4763    8.0227 N   0  0  0  0  0  0  0  0  0  0  0  0
    8.6922   13.0087    1.5105 C   0  0  0  0  0  0  0  0  0  0  0  0
    9.9530   13.0713    2.0712 O   0  0  0  0  0  0  0  0  0  0  0  0
    9.6650   15.5971    3.6533 C   0  0  1  0  0  0  0  0  0  0  0  0
   10.5482   14.5384    4.0534 O   0  0  0  0  0  0  0  0  0  0  0  0
  1  2  1  1  0  0  0
  1  6  1  0  0  0  0
  1 23  1  0  0  0  0
  3  4  1  1  0  0  0
  3  8  1  0  0  0  0
  3 30  1  0  0  0  0
  5  9  1  0  0  0  0
  5 21  1  0  0  0  0
  5 25  1  1  0  0  0
  6  7  1  1  0  0  0
  6 11  1  0  0  0  0
  8 13  1  0  0  0  0
  9 10  1  6  0  0  0
  9 15  1  0  0  0  0
 11 12  1  6  0  0  0
 11 17  1  0  0  0  0
 13 14  1  1  0  0  0
 13 19  1  0  0  0  0
 15 16  1  6  0  0  0
 15 20  1  0  0  0  0
 17 18  1  1  0  0  0
 17 22  1  0  0  0  0
 19  2  1  6  0  0  0
 19 24  1  0  0  0  0
 20 21  1  0  0  0  0
 20 26  1  1  0  0  0
 22 23  1  0  0  0  0
 22 28  1  6  0  0  0
 24 25  1  1  0  0  0
 24 30  1  0  0  0  0
 26 27  1  0  0  0  0
 28 29  1  0  0  0  0
 30 31  1  6  0  0  0
M  END
>  <CHROM.1>
126.38892301,148.18701309,50.28306037,50.91631428,-95.83275548,109.75159044
7.27955668,14.44171762,4.32089120,1.06695128,-0.13762306,-1.34959930

>  <Name>
2o3x_lig

>  <RI>
3.65513e+07

>  <Rbt.Current_Directory>
/home/itssahil/PROJECTS/Mol_Feturizer/New_Systems/rnas/2o3x

>  <Rbt.Executable>
rbdock ($Id: //depot/dev/client3/rdock/2013.1/src/exe/rbdock.cxx#4 $)

>  <Rbt.Library>
libRbt.so (2013.1, Build901 2013/11/27)

>  <Rbt.Parameter_File>
/export/apps/rDock/src/rDock_2013.1_src/data/scripts/dock_solv.prm

>  <Rbt.Receptor>
prm/blind_docking_20.prm

>  <SCORE>
71.2702

>  <SCORE.INTER>
24.6753

>  <SCORE.INTER.CONST>
1

>  <SCORE.INTER.POLAR>
-1.27413

>  <SCORE.INTER.ROT>
6

>  <SCORE.INTER.SOLV>
25.9092

>  <SCORE.INTER.VDW>
4.46089

>  <SCORE.INTER.norm>
0.795977

>  <SCORE.INTRA>
31.9157

>  <SCORE.INTRA.DIHEDRAL>
12.5795

>  <SCORE.INTRA.DIHEDRAL.0>
9.37739

>  <SCORE.INTRA.POLAR>
0

>  <SCORE.INTRA.POLAR.0>
0

>  <SCORE.INTRA.REPUL>
0

>  <SCORE.INTRA.REPUL.0>
0

>  <SCORE.INTRA.SOLV>
9.17408

>  <SCORE.INTRA.SOLV.lig_0>
-82.9274

>  <SCORE.INTRA.VDW>
21.0389

>  <SCORE.INTRA.VDW.0>
-3.84922

>  <SCORE.INTRA.norm>
1.02954

>  <SCORE.RESTR>
14.6793

>  <SCORE.RESTR.CAVITY>
14.6793

>  <SCORE.RESTR.norm>
0.473525

>  <SCORE.SYSTEM>
0

>  <SCORE.SYSTEM.CONST>
0

>  <SCORE.SYSTEM.DIHEDRAL>
0

>  <SCORE.SYSTEM.SOLV>
0

>  <SCORE.SYSTEM.norm>
0

>  <SCORE.heavy>
31

>  <SCORE.norm>
2.29904

>  <RMSD>
15.513

$$$$
2o3x_lig
 OpenBabel11021811463D
libRbt.so/2013.1/901 2013/11/27
 31 33  0  0  0  0  0  0  0  0999 V2000
    7.5292   12.0408    4.3420 C   0  0  2  0  0  0  0  0  0  0  0  0
    7.0893   12.8617    3.2520 O   0  0  0  0  0  0  0  0  0  0  0  0
    7.8635   16.7503    1.6465 C   0  0  2  0  0  0  0  0  0  0  0  0
    8.3491   18.1342    1.4505 N   0  0  0  0  0  0  0  0  0  0  0  0
   10.8058   13.0403    1.7270 C   0  0  1  0  0  0  0  0  0  0  0  0
    6.3840   11.0409    4.6988 C   0  0  2  0  0  0  0  0  0  0  0  0
    5.8380   10.3632    3.4954 N   0  0  0  0  0  0  0  0  0  0  0  0
    6.8594   16.6429    2.8422 C   0  0  0  0  0  0  0  0  0  0  0  0
   10.7892   13.7733    0.3455 C   0  0  2  0  0  0  0  0  0  0  0  0
    9.9030   13.2140   -0.6625 O   0  0  0  0  0  0  0  0  0  0  0  0
    5.2186   11.7455    5.4188 C   0  0  1  0  0  0  0  0  0  0  0  0
    4.2242   10.8189    5.7749 O   0  0  0  0  0  0  0  0  0  0  0  0
    6.3804   15.1490    2.9492 C   0  0  2  0  0  0  0  0  0  0  0  0
    5.3997   14.9648    4.0607 N   0  0  0  0  0  0  0  0  0  0  0  0
   12.2765   13.7030    0.0422 C   0  0  2  0  0  0  0  0  0  0  0  0
   12.6500   12.3771   -0.4678 O   0  0  0  0  0  0  0  0  0  0  0  0
    5.7388   12.4684    6.6498 C   0  0  2  0  0  0  0  0  0  0  0  0
    4.6844   13.0864    7.3146 O   0  0  0  0  0  0  0  0  0  0  0  0
    7.5910   14.2048    3.1981 C   0  0  2  0  0  0  0  0  0  0  0  0
   12.9515   13.9825    1.3799 C   0  0  2  0  0  0  0  0  0  0  0  0
   12.1242   13.2234    2.2573 O   0  0  0  0  0  0  0  0  0  0  0  0
    6.8042   13.5222    6.2351 C   0  0  2  0  0  0  0  0  0  0  0  0
    7.8848   12.8705    5.5333 O   0  0  0  0  0  0  0  0  0  0  0  0
    8.6815   14.3130    2.1139 C   0  0  2  0  0  0  0  0  0  0  0  0
    9.8269   13.5562    2.6422 O   0  0  0  0  0  0  0  0  0  0  0  0
   12.9717   15.4895    1.8067 C   0  0  0  0  0  0  0  0  0  0  0  0
   11.7848   15.8101    2.5267 N   0  0  0  0  0  0  0  0  0  0  0  0
    7.3757   14.2641    7.4210 C   0  0  0  0  0  0  0  0  0  0  0  0
    8.4854   15.0072    7.0684 O   0  0  0  0  0  0  0  0  0  0  0  0
    9.0801   15.8372    1.8824 C   0  0  1  0  0  0  0  0  0  0  0  0
    9.9274   15.9890    0.7334 O   0  0  0  0  0  0  0  0  0  0  0  0
  1  2  1  6  0  0  0
  1  6  1  0  0  0  0
  1 23  1  0  0  0  0
  3  4  1  1  0  0  0
  3  8  1  0  0  0  0
  3 30  1  0  0  0  0
  5  9  1  0  0  0  0
  5 21  1  0  0  0  0
  5 25  1  1  0  0  0
  6  7  1  6  0  0  0
  6 11  1  0  0  0  0
  8 13  1  0  0  0  0
  9 10  1  6  0  0  0
  9 15  1  0  0  0  0
 11 12  1  1  0  0  0
 11 17  1  0  0  0  0
 13 14  1  1  0  0  0
 13 19  1  0  0  0  0
 15 16  1  1  0  0  0
 15 20  1  0  0  0  0
 17 18  1  6  0  0  0
 17 22  1  0  0  0  0
 19  2  1  6  0  0  0
 19 24  1  0  0  0  0
 20 21  1  0  0  0  0
 20 26  1  1  0  0  0
 22 23  1  0  0  0  0
 22 28  1  1  0  0  0
 24 25  1  1  0  0  0
 24 30  1  0  0  0  0
 26 27  1  0  0  0  0
 28 29  1  0  0  0  0
 30 31  1  6  0  0  0
M  END
>  <CHROM.1>
148.58195834,20.33354535,-132.24026240,88.06279904,168.68863419,157.29735090
8.50937016,13.85902485,3.22674267,-2.84207011,0.69946462,-0.10699643

>  <Name>
2o3x_lig

>  <RI>
3.65513e+07

>  <Rbt.Current_Directory>
/home/itssahil/PROJECTS/Mol_Feturizer/New_Systems/rnas/2o3x

>  <Rbt.Executable>
rbdock ($Id: //depot/dev/client3/rdock/2013.1/src/exe/rbdock.cxx#4 $)

>  <Rbt.Library>
libRbt.so (2013.1, Build901 2013/11/27)

>  <Rbt.Parameter_File>
/export/apps/rDock/src/rDock_2013.1_src/data/scripts/dock_solv.prm

>  <Rbt.Receptor>
prm/blind_docking_20.prm

>  <SCORE>
31.3766

>  <SCORE.INTER>
-0.449128

>  <SCORE.INTER.CONST>
1

>  <SCORE.INTER.POLAR>
-0.710052

>  <SCORE.INTER.ROT>
6

>  <SCORE.INTER.SOLV>
19.3932

>  <SCORE.INTER.VDW>
-11.997

>  <SCORE.INTER.norm>
-0.014488

>  <SCORE.INTRA>
14.7511

>  <SCORE.INTRA.DIHEDRAL>
11.3296

>  <SCORE.INTRA.DIHEDRAL.0>
9.37739

>  <SCORE.INTRA.POLAR>
0

>  <SCORE.INTRA.POLAR.0>
0

>  <SCORE.INTRA.REPUL>
0

>  <SCORE.INTRA.REPUL.0>
0

>  <SCORE.INTRA.SOLV>
7.74266

>  <SCORE.INTRA.SOLV.lig_0>
-82.9274

>  <SCORE.INTRA.VDW>
5.21495

>  <SCORE.INTRA.VDW.0>
-3.84922

>  <SCORE.INTRA.norm>
0.475842

>  <SCORE.RESTR>
17.0746

>  <SCORE.RESTR.CAVITY>
17.0746

>  <SCORE.RESTR.norm>
0.550793

>  <SCORE.SYSTEM>
0

>  <SCORE.SYSTEM.CONST>
0

>  <SCORE.SYSTEM.DIHEDRAL>
0

>  <SCORE.SYSTEM.SOLV>
0

>  <SCORE.SYSTEM.norm>
0

>  <SCORE.heavy>
31

>  <SCORE.norm>
1.01215

>  <RMSD>
15.539

$$$$
2o3x_lig
 OpenBabel11021811463D
libRbt.so/2013.1/901 2013/11/27
 31 33  0  0  0  0  0  0  0  0999 V2000
    7.5702   12.0465    4.5099 C   0  0  2  0  0  0  0  0  0  0  0  0
    7.1172   12.7672    3.3562 O   0  0  0  0  0  0  0  0  0  0  0  0
    7.5344   16.6522    1.6154 C   0  0  2  0  0  0  0  0  0  0  0  0
    7.8948   18.0660    1.3689 N   0  0  0  0  0  0  0  0  0  0  0  0
   10.7398   13.1185    1.7883 C   0  0  1  0  0  0  0  0  0  0  0  0
    6.3996   11.1479    5.0203 C   0  0  2  0  0  0  0  0  0  0  0  0
    5.7687   10.3734    3.9212 N   0  0  0  0  0  0  0  0  0  0  0  0
    6.5522   16.4975    2.8240 C   0  0  0  0  0  0  0  0  0  0  0  0
   10.7894   13.8716    0.4185 C   0  0  2  0  0  0  0  0  0  0  0  0
    9.8880   13.3813   -0.6117 O   0  0  0  0  0  0  0  0  0  0  0  0
    5.3013   11.9816    5.7069 C   0  0  1  0  0  0  0  0  0  0  0  0
    4.2842   11.1483    6.2024 O   0  0  0  0  0  0  0  0  0  0  0  0
    6.2074   14.9719    2.9851 C   0  0  2  0  0  0  0  0  0  0  0  0
    5.2546   14.7399    4.1119 N   0  0  0  0  0  0  0  0  0  0  0  0
   12.2746   13.7171    0.1371 C   0  0  2  0  0  0  0  0  0  0  0  0
   12.5768   12.3789   -0.3880 O   0  0  0  0  0  0  0  0  0  0  0  0
    5.9096   12.8052    6.8296 C   0  0  2  0  0  0  0  0  0  0  0  0
    4.9156   13.5417    7.4662 O   0  0  0  0  0  0  0  0  0  0  0  0
    7.4982   14.1465    3.2530 C   0  0  2  0  0  0  0  0  0  0  0  0
   12.9431   13.9359    1.4893 C   0  0  2  0  0  0  0  0  0  0  0  0
   12.0579   13.2147    2.3417 O   0  0  0  0  0  0  0  0  0  0  0  0
    7.0004   13.7551    6.2592 C   0  0  2  0  0  0  0  0  0  0  0  0
    8.0172   12.9800    5.5883 O   0  0  0  0  0  0  0  0  0  0  0  0
    8.5672   14.3134    2.1549 C   0  0  2  0  0  0  0  0  0  0  0  0
    9.7785   13.6784    2.6965 O   0  0  0  0  0  0  0  0  0  0  0  0
   13.0461   15.4324    1.9400 C   0  0  0  0  0  0  0  0  0  0  0  0
   11.7439   15.9982    2.0592 N   0  0  0  0  0  0  0  0  0  0  0  0
    7.6586   14.5902    7.3328 C   0  0  0  0  0  0  0  0  0  0  0  0
    7.8411   13.8690    8.4966 O   0  0  0  0  0  0  0  0  0  0  0  0
    8.8283   15.8580    1.8691 C   0  0  1  0  0  0  0  0  0  0  0  0
    9.6508   16.0446    0.7073 O   0  0  0  0  0  0  0  0  0  0  0  0
  1  2  1  6  0  0  0
  1  6  1  0  0  0  0
  1 23  1  0  0  0  0
  3  4  1  1  0  0  0
  3  8  1  0  0  0  0
  3 30  1  0  0  0  0
  5  9  1  0  0  0  0
  5 21  1  0  0  0  0
  5 25  1  1  0  0  0
  6  7  1  6  0  0  0
  6 11  1  0  0  0  0
  8 13  1  0  0  0  0
  9 10  1  6  0  0  0
  9 15  1  0  0  0  0
 11 12  1  1  0  0  0
 11 17  1  0  0  0  0
 13 14  1  1  0  0  0
 13 19  1  0  0  0  0
 15 16  1  1  0  0  0
 15 20  1  0  0  0  0
 17 18  1  6  0  0  0
 17 22  1  0  0  0  0
 19  2  1  6  0  0  0
 19 24  1  0  0  0  0
 20 21  1  0  0  0  0
 20 26  1  1  0  0  0
 22 23  1  0  0  0  0
 22 28  1  1  0  0  0
 24 25  1  1  0  0  0
 24 30  1  0  0  0  0
 26 27  1  0  0  0  0
 28 29  1  0  0  0  0
 30 31  1  6  0  0  0
M  END
>  <CHROM.1>
138.45771392,30.66601869,-128.63955220,60.89489724,38.10988359,152.08099473
8.44828769,13.88211311,3.35446620,-2.60637552,0.61778263,-0.50546170

>  <Name>
2o3x_lig

>  <RI>
3.65513e+07

>  <Rbt.Current_Directory>
/home/itssahil/PROJECTS/Mol_Feturizer/New_Systems/rnas/2o3x

>  <Rbt.Executable>
rbdock ($Id: //depot/dev/client3/rdock/2013.1/src/exe/rbdock.cxx#4 $)

>  <Rbt.Library>
libRbt.so (2013.1, Build901 2013/11/27)

>  <Rbt.Parameter_File>
/export/apps/rDock/src/rDock_2013.1_src/data/scripts/dock_solv.prm

>  <Rbt.Receptor>
prm/blind_docking_20.prm

>  <SCORE>
33.8278

>  <SCORE.INTER>
3.60238

>  <SCORE.INTER.CONST>
1

>  <SCORE.INTER.POLAR>
0

>  <SCORE.INTER.ROT>
6

>  <SCORE.INTER.SOLV>
17.96

>  <SCORE.INTER.VDW>
-11.1851

>  <SCORE.INTER.norm>
0.116206

>  <SCORE.INTRA>
14.2293

>  <SCORE.INTRA.DIHEDRAL>
11.4051

>  <SCORE.INTRA.DIHEDRAL.0>
9.37739

>  <SCORE.INTRA.POLAR>
0

>  <SCORE.INTRA.POLAR.0>
0

>  <SCORE.INTRA.REPUL>
0

>  <SCORE.INTRA.REPUL.0>
0

>  <SCORE.INTRA.SOLV>
8.42294

>  <SCORE.INTRA.SOLV.lig_0>
-82.9274

>  <SCORE.INTRA.VDW>
4.31532

>  <SCORE.INTRA.VDW.0>
-3.84922

>  <SCORE.INTRA.norm>
0.459011

>  <SCORE.RESTR>
15.9961

>  <SCORE.RESTR.CAVITY>
15.9961

>  <SCORE.RESTR.norm>
0.516002

>  <SCORE.SYSTEM>
0

>  <SCORE.SYSTEM.CONST>
0

>  <SCORE.SYSTEM.DIHEDRAL>
0

>  <SCORE.SYSTEM.SOLV>
0

>  <SCORE.SYSTEM.norm>
0

>  <SCORE.heavy>
31

>  <SCORE.norm>
1.09122

>  <RMSD>
15.613

$$$$
2o3x_lig
 OpenBabel11021811463D
libRbt.so/2013.1/901 2013/11/27
 31 33  0  0  0  0  0  0  0  0999 V2000
    7.7387   14.6753    6.1969 C   0  0  2  0  0  0  0  0  0  0  0  0
    8.0361   13.3234    5.8236 O   0  0  0  0  0  0  0  0  0  0  0  0
    7.4300   10.7518    2.4595 C   0  0  2  0  0  0  0  0  0  0  0  0
    6.9338   10.1565    1.1990 N   0  0  0  0  0  0  0  0  0  0  0  0
    9.9099   14.9363    3.0287 C   0  0  1  0  0  0  0  0  0  0  0  0
    6.5534   14.6561    7.2134 C   0  0  2  0  0  0  0  0  0  0  0  0
    6.7644   13.6660    8.3001 N   0  0  0  0  0  0  0  0  0  0  0  0
    6.3359   10.7570    3.5785 C   0  0  0  0  0  0  0  0  0  0  0  0
   10.7539   14.1913    1.9431 C   0  0  2  0  0  0  0  0  0  0  0  0
   11.5513   13.0702    2.4139 O   0  0  0  0  0  0  0  0  0  0  0  0
    5.2171   14.3266    6.5216 C   0  0  1  0  0  0  0  0  0  0  0  0
    4.1589   14.3650    7.4452 O   0  0  0  0  0  0  0  0  0  0  0  0
    6.9656   11.3772    4.8789 C   0  0  2  0  0  0  0  0  0  0  0  0
    5.9861   11.4010    6.0063 N   0  0  0  0  0  0  0  0  0  0  0  0
   11.5274   15.3853    1.4092 C   0  0  2  0  0  0  0  0  0  0  0  0
   12.6471   15.7291    2.2957 O   0  0  0  0  0  0  0  0  0  0  0  0
    4.9711   15.3083    5.3883 C   0  0  2  0  0  0  0  0  0  0  0  0
    3.7536   15.0270    4.7765 O   0  0  0  0  0  0  0  0  0  0  0  0
    7.4455   12.8323    4.6118 C   0  0  2  0  0  0  0  0  0  0  0  0
   10.5028   16.5128    1.3627 C   0  0  2  0  0  0  0  0  0  0  0  0
    9.8175   16.2983    2.5935 O   0  0  0  0  0  0  0  0  0  0  0  0
    6.1264   15.2212    4.3513 C   0  0  2  0  0  0  0  0  0  0  0  0
    7.3851   15.5000    5.0016 O   0  0  0  0  0  0  0  0  0  0  0  0
    8.4596   12.9371    3.4555 C   0  0  2  0  0  0  0  0  0  0  0  0
    8.5971   14.3779    3.1927 O   0  0  0  0  0  0  0  0  0  0  0  0
    9.5050   16.4482    0.1571 C   0  0  0  0  0  0  0  0  0  0  0  0
    8.9264   15.1492    0.0698 N   0  0  0  0  0  0  0  0  0  0  0  0
    5.9490   16.1902    3.2054 C   0  0  0  0  0  0  0  0  0  0  0  0
    7.0785   16.2516    2.4128 O   0  0  0  0  0  0  0  0  0  0  0  0
    7.9052   12.1861    2.1655 C   0  0  1  0  0  0  0  0  0  0  0  0
    8.9127   12.0771    1.1486 O   0  0  0  0  0  0  0  0  0  0  0  0
  1  2  1  6  0  0  0
  1  6  1  0  0  0  0
  1 23  1  0  0  0  0
  3  4  1  6  0  0  0
  3  8  1  0  0  0  0
  3 30  1  0  0  0  0
  5  9  1  0  0  0  0
  5 21  1  0  0  0  0
  5 25  1  6  0  0  0
  6  7  1  1  0  0  0
  6 11  1  0  0  0  0
  8 13  1  0  0  0  0
  9 10  1  1  0  0  0
  9 15  1  0  0  0  0
 11 12  1  1  0  0  0
 11 17  1  0  0  0  0
 13 14  1  1  0  0  0
 13 19  1  0  0  0  0
 15 16  1  1  0  0  0
 15 20  1  0  0  0  0
 17 18  1  6  0  0  0
 17 22  1  0  0  0  0
 19  2  1  1  0  0  0
 19 24  1  0  0  0  0
 20 21  1  0  0  0  0
 20 26  1  6  0  0  0
 22 23  1  0  0  0  0
 22 28  1  6  0  0  0
 24 25  1  6  0  0  0
 24 30  1  0  0  0  0
 26 27  1  0  0  0  0
 28 29  1  0  0  0  0
 30 31  1  6  0  0  0
M  END
>  <CHROM.1>
96.05113107,53.35323486,-138.53868280,50.28220838,170.39375526,134.03109445
7.87762156,14.06339540,3.69017191,-3.11011698,-0.77710888,-2.85952290

>  <Name>
2o3x_lig

>  <RI>
3.65513e+07

>  <Rbt.Current_Directory>
/home/itssahil/PROJECTS/Mol_Feturizer/New_Systems/rnas/2o3x

>  <Rbt.Executable>
rbdock ($Id: //depot/dev/client3/rdock/2013.1/src/exe/rbdock.cxx#4 $)

>  <Rbt.Library>
libRbt.so (2013.1, Build901 2013/11/27)

>  <Rbt.Parameter_File>
/export/apps/rDock/src/rDock_2013.1_src/data/scripts/dock_solv.prm

>  <Rbt.Receptor>
prm/blind_docking_20.prm

>  <SCORE>
35.73

>  <SCORE.INTER>
6.84945

>  <SCORE.INTER.CONST>
1

>  <SCORE.INTER.POLAR>
-0.0218986

>  <SCORE.INTER.ROT>
6

>  <SCORE.INTER.SOLV>
17.1621

>  <SCORE.INTER.VDW>
-8.68142

>  <SCORE.INTER.norm>
0.22095

>  <SCORE.INTRA>
10.1303

>  <SCORE.INTRA.DIHEDRAL>
8.22471

>  <SCORE.INTRA.DIHEDRAL.0>
9.37739

>  <SCORE.INTRA.POLAR>
0

>  <SCORE.INTRA.POLAR.0>
0

>  <SCORE.INTRA.REPUL>
0.0270247

>  <SCORE.INTRA.REPUL.0>
0

>  <SCORE.INTRA.SOLV>
9.00793

>  <SCORE.INTRA.SOLV.lig_0>
-82.9274

>  <SCORE.INTRA.VDW>
1.37886

>  <SCORE.INTRA.VDW.0>
-3.84922

>  <SCORE.INTRA.norm>
0.326784

>  <SCORE.RESTR>
18.7503

>  <SCORE.RESTR.CAVITY>
18.7503

>  <SCORE.RESTR.norm>
0.604848

>  <SCORE.SYSTEM>
0

>  <SCORE.SYSTEM.CONST>
0

>  <SCORE.SYSTEM.DIHEDRAL>
0

>  <SCORE.SYSTEM.SOLV>
0

>  <SCORE.SYSTEM.norm>
0

>  <SCORE.heavy>
31

>  <SCORE.norm>
1.15258

>  <RMSD>
15.616

$$$$
2o3x_lig
 OpenBabel11021811463D
libRbt.so/2013.1/901 2013/11/27
 31 33  0  0  0  0  0  0  0  0999 V2000
    7.1781   14.3792    4.4417 C   0  0  2  0  0  0  0  0  0  0  0  0
    7.7216   13.2305    3.7779 O   0  0  0  0  0  0  0  0  0  0  0  0
   10.7138   12.5084    0.8075 C   0  0  2  0  0  0  0  0  0  0  0  0
   11.6278   12.6419   -0.3484 N   0  0  0  0  0  0  0  0  0  0  0  0
    9.7378   16.1743    2.9518 C   0  0  1  0  0  0  0  0  0  0  0  0
    7.7572   14.4305    5.8909 C   0  0  2  0  0  0  0  0  0  0  0  0
    9.2312   14.2494    5.9112 N   0  0  0  0  0  0  0  0  0  0  0  0
    9.2146   12.4263    0.3659 C   0  0  0  0  0  0  0  0  0  0  0  0
    9.8853   15.9580    1.4099 C   0  0  2  0  0  0  0  0  0  0  0  0
   11.2071   16.2022    0.8553 O   0  0  0  0  0  0  0  0  0  0  0  0
    7.1319   13.3480    6.7911 C   0  0  1  0  0  0  0  0  0  0  0  0
    7.6297   13.4457    8.1014 O   0  0  0  0  0  0  0  0  0  0  0  0
    8.3309   12.2562    1.6552 C   0  0  2  0  0  0  0  0  0  0  0  0
    6.8798   12.1505    1.3168 N   0  0  0  0  0  0  0  0  0  0  0  0
    8.7827   16.8971    0.9503 C   0  0  2  0  0  0  0  0  0  0  0  0
    9.2344   18.2947    0.9748 O   0  0  0  0  0  0  0  0  0  0  0  0
    5.6189   13.4870    6.7841 C   0  0  2  0  0  0  0  0  0  0  0  0
    5.0530   12.5248    7.6146 O   0  0  0  0  0  0  0  0  0  0  0  0
    8.5269   13.4652    2.6139 C   0  0  2  0  0  0  0  0  0  0  0  0
    7.6513   16.6723    1.9465 C   0  0  2  0  0  0  0  0  0  0  0  0
    8.3843   16.5930    3.1658 O   0  0  0  0  0  0  0  0  0  0  0  0
    5.0788   13.3304    5.3344 C   0  0  2  0  0  0  0  0  0  0  0  0
    5.6850   14.3242    4.4801 O   0  0  0  0  0  0  0  0  0  0  0  0
    9.9956   13.6824    3.0287 C   0  0  2  0  0  0  0  0  0  0  0  0
   10.0152   14.9863    3.7093 O   0  0  0  0  0  0  0  0  0  0  0  0
    6.8197   15.3651    1.7166 C   0  0  0  0  0  0  0  0  0  0  0  0
    6.4089   15.2795    0.3551 N   0  0  0  0  0  0  0  0  0  0  0  0
    3.5769   13.4780    5.2579 C   0  0  0  0  0  0  0  0  0  0  0  0
    3.1512   14.6511    5.8500 O   0  0  0  0  0  0  0  0  0  0  0  0
   10.9338   13.7113    1.7424 C   0  0  1  0  0  0  0  0  0  0  0  0
   12.3226   13.6915    2.1058 O   0  0  0  0  0  0  0  0  0  0  0  0
  1  2  1  1  0  0  0
  1  6  1  0  0  0  0
  1 23  1  0  0  0  0
  3  4  1  6  0  0  0
  3  8  1  0  0  0  0
  3 30  1  0  0  0  0
  5  9  1  0  0  0  0
  5 21  1  0  0  0  0
  5 25  1  1  0  0  0
  6  7  1  6  0  0  0
  6 11  1  0  0  0  0
  8 13  1  0  0  0  0
  9 10  1  6  0  0  0
  9 15  1  0  0  0  0
 11 12  1  1  0  0  0
 11 17  1  0  0  0  0
 13 14  1  6  0  0  0
 13 19  1  0  0  0  0
 15 16  1  1  0  0  0
 15 20  1  0  0  0  0
 17 18  1  1  0  0  0
 17 22  1  0  0  0  0
 19  2  1  1  0  0  0
 19 24  1  0  0  0  0
 20 21  1  0  0  0  0
 20 26  1  6  0  0  0
 22 23  1  0  0  0  0
 22 28  1  1  0  0  0
 24 25  1  6  0  0  0
 24 30  1  0  0  0  0
 26 27  1  0  0  0  0
 28 29  1  0  0  0  0
 30 31  1  1  0  0  0
M  END
>  <CHROM.1>
-117.92675551,-17.97263700,-148.42118114,-50.09784833,52.86019405,-66.43587535
8.10056487,14.33909915,3.31052342,2.43854066,-0.48887064,2.29430141

>  <Name>
2o3x_lig

>  <RI>
3.65513e+07

>  <Rbt.Current_Directory>
/home/itssahil/PROJECTS/Mol_Feturizer/New_Systems/rnas/2o3x

>  <Rbt.Executable>
rbdock ($Id: //depot/dev/client3/rdock/2013.1/src/exe/rbdock.cxx#4 $)

>  <Rbt.Library>
libRbt.so (2013.1, Build901 2013/11/27)

>  <Rbt.Parameter_File>
/export/apps/rDock/src/rDock_2013.1_src/data/scripts/dock_solv.prm

>  <Rbt.Receptor>
prm/blind_docking_20.prm

>  <SCORE>
37.934

>  <SCORE.INTER>
1.83535

>  <SCORE.INTER.CONST>
1

>  <SCORE.INTER.POLAR>
-0.500984

>  <SCORE.INTER.ROT>
6

>  <SCORE.INTER.SOLV>
18.6521

>  <SCORE.INTER.VDW>
-10.9239

>  <SCORE.INTER.norm>
0.059205

>  <SCORE.INTRA>
19.8769

>  <SCORE.INTRA.DIHEDRAL>
8.21814

>  <SCORE.INTRA.DIHEDRAL.0>
9.37739

>  <SCORE.INTRA.POLAR>
0

>  <SCORE.INTRA.POLAR.0>
0

>  <SCORE.INTRA.REPUL>
0

>  <SCORE.INTRA.REPUL.0>
0

>  <SCORE.INTRA.SOLV>
7.92585

>  <SCORE.INTRA.SOLV.lig_0>
-82.9274

>  <SCORE.INTRA.VDW>
11.8049

>  <SCORE.INTRA.VDW.0>
-3.84922

>  <SCORE.INTRA.norm>
0.641189

>  <SCORE.RESTR>
16.2217

>  <SCORE.RESTR.CAVITY>
16.2217

>  <SCORE.RESTR.norm>
0.523282

>  <SCORE.SYSTEM>
0

>  <SCORE.SYSTEM.CONST>
0

>  <SCORE.SYSTEM.DIHEDRAL>
0

>  <SCORE.SYSTEM.SOLV>
0

>  <SCORE.SYSTEM.norm>
0

>  <SCORE.heavy>
31

>  <SCORE.norm>
1.22368

>  <RMSD>
15.621

$$$$
2o3x_lig
 OpenBabel11021811463D
libRbt.so/2013.1/901 2013/11/27
 31 33  0  0  0  0  0  0  0  0999 V2000
   10.1498   14.8031    3.7067 C   0  0  2  0  0  0  0  0  0  0  0  0
    9.3986   16.0145    3.5523 O   0  0  0  0  0  0  0  0  0  0  0  0
    5.5516   17.2030    2.1080 C   0  0  2  0  0  0  0  0  0  0  0  0
    4.2370   17.2322    1.4294 N   0  0  0  0  0  0  0  0  0  0  0  0
    7.1185   14.3301    5.8117 C   0  0  1  0  0  0  0  0  0  0  0  0
   11.2288   14.7457    2.5794 C   0  0  2  0  0  0  0  0  0  0  0  0
   11.9825   16.0199    2.4610 N   0  0  0  0  0  0  0  0  0  0  0  0
    6.7395   17.1891    1.0891 C   0  0  0  0  0  0  0  0  0  0  0  0
    5.7451   14.6843    6.4708 C   0  0  2  0  0  0  0  0  0  0  0  0
    5.5597   16.0759    6.8494 O   0  0  0  0  0  0  0  0  0  0  0  0
   10.6010   14.4343    1.2076 C   0  0  1  0  0  0  0  0  0  0  0  0
   11.5948   14.3373    0.2190 O   0  0  0  0  0  0  0  0  0  0  0  0
    8.0850   17.1890    1.9027 C   0  0  2  0  0  0  0  0  0  0  0  0
    9.2739   17.1952    0.9985 N   0  0  0  0  0  0  0  0  0  0  0  0
    5.7835   13.6800    7.6105 C   0  0  2  0  0  0  0  0  0  0  0  0
    6.6333   14.1590    8.7087 O   0  0  0  0  0  0  0  0  0  0  0  0
    9.8037   13.1435    1.2901 C   0  0  2  0  0  0  0  0  0  0  0  0
    9.2546   12.8481    0.0463 O   0  0  0  0  0  0  0  0  0  0  0  0
    8.1684   15.9345    2.8183 C   0  0  2  0  0  0  0  0  0  0  0  0
    6.3619   12.4161    6.9850 C   0  0  2  0  0  0  0  0  0  0  0  0
    7.3930   12.9710    6.1729 O   0  0  0  0  0  0  0  0  0  0  0  0
    8.6790   13.2823    2.3547 C   0  0  2  0  0  0  0  0  0  0  0  0
    9.2605   13.6039    3.6367 O   0  0  0  0  0  0  0  0  0  0  0  0
    6.9827   15.8135    3.7959 C   0  0  2  0  0  0  0  0  0  0  0  0
    7.1023   14.4698    4.3826 O   0  0  0  0  0  0  0  0  0  0  0  0
    5.3558   11.5918    6.1124 C   0  0  0  0  0  0  0  0  0  0  0  0
    6.0046   10.4458    5.5686 N   0  0  0  0  0  0  0  0  0  0  0  0
    7.8598   12.0207    2.4981 C   0  0  0  0  0  0  0  0  0  0  0  0
    6.9139   12.1402    3.4976 O   0  0  0  0  0  0  0  0  0  0  0  0
    5.6041   15.9582    3.0120 C   0  0  1  0  0  0  0  0  0  0  0  0
    4.4953   16.0697    3.9172 O   0  0  0  0  0  0  0  0  0  0  0  0
  1  2  1  6  0  0  0
  1  6  1  0  0  0  0
  1 23  1  0  0  0  0
  3  4  1  6  0  0  0
  3  8  1  0  0  0  0
  3 30  1  0  0  0  0
  5  9  1  0  0  0  0
  5 21  1  0  0  0  0
  5 25  1  6  0  0  0
  6  7  1  6  0  0  0
  6 11  1  0  0  0  0
  8 13  1  0  0  0  0
  9 10  1  1  0  0  0
  9 15  1  0  0  0  0
 11 12  1  6  0  0  0
 11 17  1  0  0  0  0
 13 14  1  6  0  0  0
 13 19  1  0  0  0  0
 15 16  1  1  0  0  0
 15 20  1  0  0  0  0
 17 18  1  6  0  0  0
 17 22  1  0  0  0  0
 19  2  1  1  0  0  0
 19 24  1  0  0  0  0
 20 21  1  0  0  0  0
 20 26  1  6  0  0  0
 22 23  1  0  0  0  0
 22 28  1  1  0  0  0
 24 25  1  6  0  0  0
 24 30  1  0  0  0  0
 26 27  1  0  0  0  0
 28 29  1  0  0  0  0
 30 31  1  1  0  0  0
M  END
>  <CHROM.1>
95.22825904,68.22617738,-138.48728793,179.36461505,176.76334509,126.58689481
7.70503257,14.55862779,3.65763156,-0.75718302,-0.62388915,2.41474941

>  <Name>
2o3x_lig

>  <RI>
3.65513e+07

>  <Rbt.Current_Directory>
/home/itssahil/PROJECTS/Mol_Feturizer/New_Systems/rnas/2o3x

>  <Rbt.Executable>
rbdock ($Id: //depot/dev/client3/rdock/2013.1/src/exe/rbdock.cxx#4 $)

>  <Rbt.Library>
libRbt.so (2013.1, Build901 2013/11/27)

>  <Rbt.Parameter_File>
/export/apps/rDock/src/rDock_2013.1_src/data/scripts/dock_solv.prm

>  <Rbt.Receptor>
prm/blind_docking_20.prm

>  <SCORE>
30.0757

>  <SCORE.INTER>
3.52016

>  <SCORE.INTER.CONST>
1

>  <SCORE.INTER.POLAR>
0

>  <SCORE.INTER.ROT>
6

>  <SCORE.INTER.SOLV>
17.7116

>  <SCORE.INTER.VDW>
-11.1571

>  <SCORE.INTER.norm>
0.113553

>  <SCORE.INTRA>
8.91963

>  <SCORE.INTRA.DIHEDRAL>
8.29021

>  <SCORE.INTRA.DIHEDRAL.0>
9.37739

>  <SCORE.INTRA.POLAR>
0

>  <SCORE.INTRA.POLAR.0>
0

>  <SCORE.INTRA.REPUL>
0.217108

>  <SCORE.INTRA.REPUL.0>
0

>  <SCORE.INTRA.SOLV>
5.34335

>  <SCORE.INTRA.SOLV.lig_0>
-82.9274

>  <SCORE.INTRA.VDW>
1.01731

>  <SCORE.INTRA.VDW.0>
-3.84922

>  <SCORE.INTRA.norm>
0.28773

>  <SCORE.RESTR>
17.6359

>  <SCORE.RESTR.CAVITY>
17.6359

>  <SCORE.RESTR.norm>
0.568899

>  <SCORE.SYSTEM>
0

>  <SCORE.SYSTEM.CONST>
0

>  <SCORE.SYSTEM.DIHEDRAL>
0

>  <SCORE.SYSTEM.SOLV>
0

>  <SCORE.SYSTEM.norm>
0

>  <SCORE.heavy>
31

>  <SCORE.norm>
0.970182

>  <RMSD>
15.651

$$$$
2o3x_lig
 OpenBabel11021811463D
libRbt.so/2013.1/901 2013/11/27
 31 33  0  0  0  0  0  0  0  0999 V2000
    7.8098   14.4081    6.5052 C   0  0  2  0  0  0  0  0  0  0  0  0
    7.9385   13.0199    6.1706 O   0  0  0  0  0  0  0  0  0  0  0  0
    6.6330   10.3316    3.1101 C   0  0  2  0  0  0  0  0  0  0  0  0
    5.9333    9.7288    1.9540 N   0  0  0  0  0  0  0  0  0  0  0  0
    9.7243   14.0871    2.9922 C   0  0  1  0  0  0  0  0  0  0  0  0
    6.6532   14.5593    7.5433 C   0  0  2  0  0  0  0  0  0  0  0  0
    6.7706   13.5844    8.6576 N   0  0  0  0  0  0  0  0  0  0  0  0
    5.6666   10.5892    4.3138 C   0  0  0  0  0  0  0  0  0  0  0  0
    9.9855   13.7108    1.4968 C   0  0  2  0  0  0  0  0  0  0  0  0
   10.4780   12.3642    1.2549 O   0  0  0  0  0  0  0  0  0  0  0  0
    5.2726   14.3689    6.8872 C   0  0  1  0  0  0  0  0  0  0  0  0
    4.2468   14.5594    7.8283 O   0  0  0  0  0  0  0  0  0  0  0  0
    6.5052   11.1987    5.4959 C   0  0  2  0  0  0  0  0  0  0  0  0
    5.6551   11.4575    6.6966 N   0  0  0  0  0  0  0  0  0  0  0  0
   10.9362   14.8438    1.1486 C   0  0  2  0  0  0  0  0  0  0  0  0
   12.2927   14.5652    1.6385 O   0  0  0  0  0  0  0  0  0  0  0  0
    5.1184   15.3382    5.7273 C   0  0  2  0  0  0  0  0  0  0  0  0
    3.8631   15.1840    5.1474 O   0  0  0  0  0  0  0  0  0  0  0  0
    7.1661   12.5381    5.0617 C   0  0  2  0  0  0  0  0  0  0  0  0
   10.3452   16.0643    1.8444 C   0  0  2  0  0  0  0  0  0  0  0  0
    9.9616   15.4965    3.0938 O   0  0  0  0  0  0  0  0  0  0  0  0
    6.2324   15.0844    4.6727 C   0  0  2  0  0  0  0  0  0  0  0  0
    7.5291   15.2324    5.2904 O   0  0  0  0  0  0  0  0  0  0  0  0
    8.0664   12.3985    3.8182 C   0  0  2  0  0  0  0  0  0  0  0  0
    8.3886   13.7771    3.4188 O   0  0  0  0  0  0  0  0  0  0  0  0
    9.1080   16.6999    1.1242 C   0  0  0  0  0  0  0  0  0  0  0  0
    8.5852   17.7717    1.9039 N   0  0  0  0  0  0  0  0  0  0  0  0
    6.1446   16.0326    3.4994 C   0  0  0  0  0  0  0  0  0  0  0  0
    6.9663   15.6352    2.4627 O   0  0  0  0  0  0  0  0  0  0  0  0
    7.2835   11.6491    2.6514 C   0  0  1  0  0  0  0  0  0  0  0  0
    8.1595   11.3102    1.5656 O   0  0  0  0  0  0  0  0  0  0  0  0
  1  2  1  6  0  0  0
  1  6  1  0  0  0  0
  1 23  1  0  0  0  0
  3  4  1  6  0  0  0
  3  8  1  0  0  0  0
  3 30  1  0  0  0  0
  5  9  1  0  0  0  0
  5 21  1  0  0  0  0
  5 25  1  6  0  0  0
  6  7  1  1  0  0  0
  6 11  1  0  0  0  0
  8 13  1  0  0  0  0
  9 10  1  1  0  0  0
  9 15  1  0  0  0  0
 11 12  1  1  0  0  0
 11 17  1  0  0  0  0
 13 14  1  1  0  0  0
 13 19  1  0  0  0  0
 15 16  1  1  0  0  0
 15 20  1  0  0  0  0
 17 18  1  6  0  0  0
 17 22  1  0  0  0  0
 19  2  1  1  0  0  0
 19 24  1  0  0  0  0
 20 21  1  0  0  0  0
 20 26  1  6  0  0  0
 22 23  1  0  0  0  0
 22 28  1  6  0  0  0
 24 25  1  6  0  0  0
 24 30  1  0  0  0  0
 26 27  1  0  0  0  0
 28 29  1  0  0  0  0
 30 31  1  6  0  0  0
M  END
>  <CHROM.1>
90.22947210,81.58561493,-134.31961502,176.11660988,-168.37509439,138.94405518
7.60848487,13.81348473,4.01461961,-3.11062363,-0.83915353,-2.86925625

>  <Name>
2o3x_lig

>  <RI>
3.65513e+07

>  <Rbt.Current_Directory>
/home/itssahil/PROJECTS/Mol_Feturizer/New_Systems/rnas/2o3x

>  <Rbt.Executable>
rbdock ($Id: //depot/dev/client3/rdock/2013.1/src/exe/rbdock.cxx#4 $)

>  <Rbt.Library>
libRbt.so (2013.1, Build901 2013/11/27)

>  <Rbt.Parameter_File>
/export/apps/rDock/src/rDock_2013.1_src/data/scripts/dock_solv.prm

>  <Rbt.Receptor>
prm/blind_docking_20.prm

>  <SCORE>
38.2089

>  <SCORE.INTER>
9.92799

>  <SCORE.INTER.CONST>
1

>  <SCORE.INTER.POLAR>
-0.170356

>  <SCORE.INTER.ROT>
6

>  <SCORE.INTER.SOLV>
21.0914

>  <SCORE.INTER.VDW>
-7.44394

>  <SCORE.INTER.norm>
0.320258

>  <SCORE.INTRA>
10.1085

>  <SCORE.INTRA.DIHEDRAL>
8.76293

>  <SCORE.INTRA.DIHEDRAL.0>
9.37739

>  <SCORE.INTRA.POLAR>
0

>  <SCORE.INTRA.POLAR.0>
0

>  <SCORE.INTRA.REPUL>
0.160984

>  <SCORE.INTRA.REPUL.0>
0

>  <SCORE.INTRA.SOLV>
6.78419

>  <SCORE.INTRA.SOLV.lig_0>
-82.9274

>  <SCORE.INTRA.VDW>
1.53007

>  <SCORE.INTRA.VDW.0>
-3.84922

>  <SCORE.INTRA.norm>
0.326082

>  <SCORE.RESTR>
18.1724

>  <SCORE.RESTR.CAVITY>
18.1724

>  <SCORE.RESTR.norm>
0.586205

>  <SCORE.SYSTEM>
0

>  <SCORE.SYSTEM.CONST>
0

>  <SCORE.SYSTEM.DIHEDRAL>
0

>  <SCORE.SYSTEM.SOLV>
0

>  <SCORE.SYSTEM.norm>
0

>  <SCORE.heavy>
31

>  <SCORE.norm>
1.23255

>  <RMSD>
15.739

$$$$
2o3x_lig
 OpenBabel11021811463D
libRbt.so/2013.1/901 2013/11/27
 31 33  0  0  0  0  0  0  0  0999 V2000
    8.0108   14.0708    7.0529 C   0  0  2  0  0  0  0  0  0  0  0  0
    7.9020   12.6789    6.7270 O   0  0  0  0  0  0  0  0  0  0  0  0
    5.8985   10.2020    3.8723 C   0  0  2  0  0  0  0  0  0  0  0  0
    5.0048    9.7072    2.8018 N   0  0  0  0  0  0  0  0  0  0  0  0
    8.8785   13.4008    2.6606 C   0  0  1  0  0  0  0  0  0  0  0  0
    6.8235   14.4507    7.9934 C   0  0  2  0  0  0  0  0  0  0  0  0
    6.6647   13.4860    9.1115 N   0  0  0  0  0  0  0  0  0  0  0  0
    5.1042   10.6269    5.1522 C   0  0  0  0  0  0  0  0  0  0  0  0
    8.4574   14.6561    1.8282 C   0  0  2  0  0  0  0  0  0  0  0  0
    7.3197   14.4798    0.9399 O   0  0  0  0  0  0  0  0  0  0  0  0
    5.4893   14.5147    7.2263 C   0  0  1  0  0  0  0  0  0  0  0  0
    4.4453   14.9073    8.0808 O   0  0  0  0  0  0  0  0  0  0  0  0
    6.1380   11.1063    6.2357 C   0  0  2  0  0  0  0  0  0  0  0  0
    5.4579   11.5135    7.5018 N   0  0  0  0  0  0  0  0  0  0  0  0
    9.7929   14.9330    1.1584 C   0  0  2  0  0  0  0  0  0  0  0  0
   10.0095   14.0320    0.0186 O   0  0  0  0  0  0  0  0  0  0  0  0
    5.6147   15.4802    6.0597 C   0  0  2  0  0  0  0  0  0  0  0  0
    4.4038   15.5571    5.3789 O   0  0  0  0  0  0  0  0  0  0  0  0
    6.9608   12.3156    5.7069 C   0  0  2  0  0  0  0  0  0  0  0  0
   10.8257   14.6867    2.2519 C   0  0  2  0  0  0  0  0  0  0  0  0
   10.2930   13.5129    2.8592 O   0  0  0  0  0  0  0  0  0  0  0  0
    6.7422   15.0073    5.0991 C   0  0  2  0  0  0  0  0  0  0  0  0
    7.9894   14.9169    5.8211 O   0  0  0  0  0  0  0  0  0  0  0  0
    7.7051   12.0175    4.3903 C   0  0  2  0  0  0  0  0  0  0  0  0
    8.2047   13.3209    3.9262 O   0  0  0  0  0  0  0  0  0  0  0  0
   10.9606   15.8395    3.3038 C   0  0  0  0  0  0  0  0  0  0  0  0
    9.9124   15.7502    4.2647 N   0  0  0  0  0  0  0  0  0  0  0  0
    6.9297   15.9394    3.9246 C   0  0  0  0  0  0  0  0  0  0  0  0
    5.9668   15.7352    2.9556 O   0  0  0  0  0  0  0  0  0  0  0  0
    6.7052   11.3913    3.3207 C   0  0  1  0  0  0  0  0  0  0  0  0
    7.4087   10.9022    2.1687 O   0  0  0  0  0  0  0  0  0  0  0  0
  1  2  1  6  0  0  0
  1  6  1  0  0  0  0
  1 23  1  0  0  0  0
  3  4  1  6  0  0  0
  3  8  1  0  0  0  0
  3 30  1  0  0  0  0
  5  9  1  0  0  0  0
  5 21  1  0  0  0  0
  5 25  1  1  0  0  0
  6  7  1  1  0  0  0
  6 11  1  0  0  0  0
  8 13  1  0  0  0  0
  9 10  1  6  0  0  0
  9 15  1  0  0  0  0
 11 12  1  1  0  0  0
 11 17  1  0  0  0  0
 13 14  1  1  0  0  0
 13 19  1  0  0  0  0
 15 16  1  6  0  0  0
 15 20  1  0  0  0  0
 17 18  1  6  0  0  0
 17 22  1  0  0  0  0
 19  2  1  1  0  0  0
 19 24  1  0  0  0  0
 20 21  1  0  0  0  0
 20 26  1  1  0  0  0
 22 23  1  0  0  0  0
 22 28  1  6  0  0  0
 24 25  1  6  0  0  0
 24 30  1  0  0  0  0
 26 27  1  0  0  0  0
 28 29  1  0  0  0  0
 30 31  1  6  0  0  0
M  END
>  <CHROM.1>
79.54377867,138.06715165,-133.13117256,79.91482455,-78.74409708,-175.99312979
7.35489295,13.60856469,4.47738297,-2.70234165,-0.89648480,-2.40379853

>  <Name>
2o3x_lig

>  <RI>
3.65513e+07

>  <Rbt.Current_Directory>
/home/itssahil/PROJECTS/Mol_Feturizer/New_Systems/rnas/2o3x

>  <Rbt.Executable>
rbdock ($Id: //depot/dev/client3/rdock/2013.1/src/exe/rbdock.cxx#4 $)

>  <Rbt.Library>
libRbt.so (2013.1, Build901 2013/11/27)

>  <Rbt.Parameter_File>
/export/apps/rDock/src/rDock_2013.1_src/data/scripts/dock_solv.prm

>  <Rbt.Receptor>
prm/blind_docking_20.prm

>  <SCORE>
37.1252

>  <SCORE.INTER>
0.252637

>  <SCORE.INTER.CONST>
1

>  <SCORE.INTER.POLAR>
-1.8418

>  <SCORE.INTER.ROT>
6

>  <SCORE.INTER.SOLV>
21.064

>  <SCORE.INTER.VDW>
-8.31357

>  <SCORE.INTER.norm>
0.00814959

>  <SCORE.INTRA>
17.54

>  <SCORE.INTRA.DIHEDRAL>
6.98026

>  <SCORE.INTRA.DIHEDRAL.0>
9.37739

>  <SCORE.INTRA.POLAR>
0

>  <SCORE.INTRA.POLAR.0>
0

>  <SCORE.INTRA.REPUL>
1

>  <SCORE.INTRA.REPUL.0>
0

>  <SCORE.INTRA.SOLV>
10.681

>  <SCORE.INTRA.SOLV.lig_0>
-82.9274

>  <SCORE.INTRA.VDW>
3.70937

>  <SCORE.INTRA.VDW.0>
-3.84922

>  <SCORE.INTRA.norm>
0.565807

>  <SCORE.RESTR>
19.3326

>  <SCORE.RESTR.CAVITY>
19.3326

>  <SCORE.RESTR.norm>
0.623631

>  <SCORE.SYSTEM>
0

>  <SCORE.SYSTEM.CONST>
0

>  <SCORE.SYSTEM.DIHEDRAL>
0

>  <SCORE.SYSTEM.SOLV>
0

>  <SCORE.SYSTEM.norm>
0

>  <SCORE.heavy>
31

>  <SCORE.norm>
1.19759

>  <RMSD>
15.829

$$$$
2o3x_lig
 OpenBabel11021811463D
libRbt.so/2013.1/901 2013/11/27
 31 33  0  0  0  0  0  0  0  0999 V2000
    8.1275   12.9328    4.3637 C   0  0  2  0  0  0  0  0  0  0  0  0
    7.5330   13.5364    3.2071 O   0  0  0  0  0  0  0  0  0  0  0  0
    7.2042   17.4384    1.4852 C   0  0  2  0  0  0  0  0  0  0  0  0
    7.1930   18.9040    1.2822 N   0  0  0  0  0  0  0  0  0  0  0  0
   11.1776   15.0516    2.4844 C   0  0  1  0  0  0  0  0  0  0  0  0
    7.5005   11.5158    4.5569 C   0  0  2  0  0  0  0  0  0  0  0  0
    7.4869   10.7332    3.2947 N   0  0  0  0  0  0  0  0  0  0  0  0
    6.0634   16.9690    2.4483 C   0  0  0  0  0  0  0  0  0  0  0  0
   11.3418   13.6794    1.7521 C   0  0  2  0  0  0  0  0  0  0  0  0
   11.8971   12.5953    2.5462 O   0  0  0  0  0  0  0  0  0  0  0  0
    6.0542   11.6012    5.0802 C   0  0  1  0  0  0  0  0  0  0  0  0
    5.5287   10.3158    5.2945 O   0  0  0  0  0  0  0  0  0  0  0  0
    6.1401   15.4036    2.5751 C   0  0  2  0  0  0  0  0  0  0  0  0
    5.0669   14.8714    3.4674 N   0  0  0  0  0  0  0  0  0  0  0  0
   12.1887   14.1547    0.5833 C   0  0  2  0  0  0  0  0  0  0  0  0
   13.5947   14.3114    0.9785 O   0  0  0  0  0  0  0  0  0  0  0  0
    6.0211   12.4115    6.3651 C   0  0  2  0  0  0  0  0  0  0  0  0
    4.7191   12.4706    6.8520 O   0  0  0  0  0  0  0  0  0  0  0  0
    7.5190   14.9700    3.1494 C   0  0  2  0  0  0  0  0  0  0  0  0
   11.5795   15.4961    0.1924 C   0  0  2  0  0  0  0  0  0  0  0  0
   11.3333   16.0594    1.4779 O   0  0  0  0  0  0  0  0  0  0  0  0
    6.5620   13.8452    6.1017 C   0  0  2  0  0  0  0  0  0  0  0  0
    7.9073   13.7693    5.5826 O   0  0  0  0  0  0  0  0  0  0  0  0
    8.7126   15.4717    2.3129 C   0  0  2  0  0  0  0  0  0  0  0  0
    9.9024   15.1883    3.1302 O   0  0  0  0  0  0  0  0  0  0  0  0
   10.2513   15.4023   -0.6325 C   0  0  0  0  0  0  0  0  0  0  0  0
   10.4247   14.5240   -1.7408 N   0  0  0  0  0  0  0  0  0  0  0  0
    6.5725   14.6974    7.3495 C   0  0  0  0  0  0  0  0  0  0  0  0
    7.3749   14.1500    8.3315 O   0  0  0  0  0  0  0  0  0  0  0  0
    8.5804   17.0359    2.0454 C   0  0  1  0  0  0  0  0  0  0  0  0
    9.5528   17.4889    1.0913 O   0  0  0  0  0  0  0  0  0  0  0  0
  1  2  1  6  0  0  0
  1  6  1  0  0  0  0
  1 23  1  0  0  0  0
  3  4  1  1  0  0  0
  3  8  1  0  0  0  0
  3 30  1  0  0  0  0
  5  9  1  0  0  0  0
  5 21  1  0  0  0  0
  5 25  1  6  0  0  0
  6  7  1  6  0  0  0
  6 11  1  0  0  0  0
  8 13  1  0  0  0  0
  9 10  1  1  0  0  0
  9 15  1  0  0  0  0
 11 12  1  1  0  0  0
 11 17  1  0  0  0  0
 13 14  1  1  0  0  0
 13 19  1  0  0  0  0
 15 16  1  1  0  0  0
 15 20  1  0  0  0  0
 17 18  1  6  0  0  0
 17 22  1  0  0  0  0
 19  2  1  6  0  0  0
 19 24  1  0  0  0  0
 20 21  1  0  0  0  0
 20 26  1  1  0  0  0
 22 23  1  0  0  0  0
 22 28  1  1  0  0  0
 24 25  1  1  0  0  0
 24 30  1  0  0  0  0
 26 27  1  0  0  0  0
 28 29  1  0  0  0  0
 30 31  1  6  0  0  0
M  END
>  <CHROM.1>
154.78032468,-76.00255344,-139.50312215,-50.97745750,60.40068852,156.50816483
8.44421553,14.40179420,3.16359390,-2.39908190,0.55618249,-0.57387781

>  <Name>
2o3x_lig

>  <RI>
3.65513e+07

>  <Rbt.Current_Directory>
/home/itssahil/PROJECTS/Mol_Feturizer/New_Systems/rnas/2o3x

>  <Rbt.Executable>
rbdock ($Id: //depot/dev/client3/rdock/2013.1/src/exe/rbdock.cxx#4 $)

>  <Rbt.Library>
libRbt.so (2013.1, Build901 2013/11/27)

>  <Rbt.Parameter_File>
/export/apps/rDock/src/rDock_2013.1_src/data/scripts/dock_solv.prm

>  <Rbt.Receptor>
prm/blind_docking_20.prm

>  <SCORE>
26.2248

>  <SCORE.INTER>
3.75954

>  <SCORE.INTER.CONST>
1

>  <SCORE.INTER.POLAR>
0

>  <SCORE.INTER.ROT>
6

>  <SCORE.INTER.SOLV>
11.7971

>  <SCORE.INTER.VDW>
-9.02599

>  <SCORE.INTER.norm>
0.121276

>  <SCORE.INTRA>
4.58554

>  <SCORE.INTRA.DIHEDRAL>
2.7635

>  <SCORE.INTRA.DIHEDRAL.0>
9.37739

>  <SCORE.INTRA.POLAR>
0

>  <SCORE.INTRA.POLAR.0>
0

>  <SCORE.INTRA.REPUL>
0

>  <SCORE.INTRA.REPUL.0>
0

>  <SCORE.INTRA.SOLV>
1.49616

>  <SCORE.INTRA.SOLV.lig_0>
-82.9274

>  <SCORE.INTRA.VDW>
2.45572

>  <SCORE.INTRA.VDW.0>
-3.84922

>  <SCORE.INTRA.norm>
0.147921

>  <SCORE.RESTR>
17.8797

>  <SCORE.RESTR.CAVITY>
17.8797

>  <SCORE.RESTR.norm>
0.576765

>  <SCORE.SYSTEM>
0

>  <SCORE.SYSTEM.CONST>
0

>  <SCORE.SYSTEM.DIHEDRAL>
0

>  <SCORE.SYSTEM.SOLV>
0

>  <SCORE.SYSTEM.norm>
0

>  <SCORE.heavy>
31

>  <SCORE.norm>
0.845962

>  <RMSD>
15.856

$$$$
2o3x_lig
 OpenBabel11021811463D
libRbt.so/2013.1/901 2013/11/27
 31 33  0  0  0  0  0  0  0  0999 V2000
    7.6092   12.7919    4.2535 C   0  0  2  0  0  0  0  0  0  0  0  0
    6.7288   13.5777    3.4393 O   0  0  0  0  0  0  0  0  0  0  0  0
    7.2533   17.1281    1.1118 C   0  0  2  0  0  0  0  0  0  0  0  0
    7.6507   18.4762    0.6489 N   0  0  0  0  0  0  0  0  0  0  0  0
   10.2782   13.4481    1.9092 C   0  0  1  0  0  0  0  0  0  0  0  0
    6.9045   11.4359    4.5741 C   0  0  2  0  0  0  0  0  0  0  0  0
    6.3316   10.8021    3.3592 N   0  0  0  0  0  0  0  0  0  0  0  0
    6.2610   17.1898    2.3204 C   0  0  0  0  0  0  0  0  0  0  0  0
   10.5046   13.9548    0.4470 C   0  0  2  0  0  0  0  0  0  0  0  0
    9.5544   13.4807   -0.5464 O   0  0  0  0  0  0  0  0  0  0  0  0
    5.7684   11.6145    5.5990 C   0  0  1  0  0  0  0  0  0  0  0  0
    5.1831   10.3756    5.9101 O   0  0  0  0  0  0  0  0  0  0  0  0
    5.8770   15.7175    2.7168 C   0  0  2  0  0  0  0  0  0  0  0  0
    4.9125   15.6892    3.8571 N   0  0  0  0  0  0  0  0  0  0  0  0
   11.9411   13.4906    0.2741 C   0  0  2  0  0  0  0  0  0  0  0  0
   11.9998   12.0542   -0.0275 O   0  0  0  0  0  0  0  0  0  0  0  0
    6.3101   12.2781    6.8539 C   0  0  2  0  0  0  0  0  0  0  0  0
    5.2906   12.4197    7.7901 O   0  0  0  0  0  0  0  0  0  0  0  0
    7.1451   14.9139    3.1235 C   0  0  2  0  0  0  0  0  0  0  0  0
   12.6030   13.7941    1.6131 C   0  0  2  0  0  0  0  0  0  0  0  0
   11.5758   13.3889    2.5137 O   0  0  0  0  0  0  0  0  0  0  0  0
    6.9125   13.6675    6.5011 C   0  0  2  0  0  0  0  0  0  0  0  0
    7.9580   13.5083    5.5181 O   0  0  0  0  0  0  0  0  0  0  0  0
    8.2238   14.8796    2.0228 C   0  0  2  0  0  0  0  0  0  0  0  0
    9.4158   14.3090    2.6690 O   0  0  0  0  0  0  0  0  0  0  0  0
   12.9737   15.2989    1.8399 C   0  0  0  0  0  0  0  0  0  0  0  0
   11.7896   16.0856    1.9341 N   0  0  0  0  0  0  0  0  0  0  0  0
    7.4868   14.3719    7.7083 C   0  0  0  0  0  0  0  0  0  0  0  0
    6.5059   14.6806    8.6305 O   0  0  0  0  0  0  0  0  0  0  0  0
    8.5254   16.3530    1.4996 C   0  0  1  0  0  0  0  0  0  0  0  0
    9.3587   16.3341    0.3306 O   0  0  0  0  0  0  0  0  0  0  0  0
  1  2  1  6  0  0  0
  1  6  1  0  0  0  0
  1 23  1  0  0  0  0
  3  4  1  1  0  0  0
  3  8  1  0  0  0  0
  3 30  1  0  0  0  0
  5  9  1  0  0  0  0
  5 21  1  0  0  0  0
  5 25  1  1  0  0  0
  6  7  1  6  0  0  0
  6 11  1  0  0  0  0
  8 13  1  0  0  0  0
  9 10  1  6  0  0  0
  9 15  1  0  0  0  0
 11 12  1  1  0  0  0
 11 17  1  0  0  0  0
 13 14  1  1  0  0  0
 13 19  1  0  0  0  0
 15 16  1  1  0  0  0
 15 20  1  0  0  0  0
 17 18  1  1  0  0  0
 17 22  1  0  0  0  0
 19  2  1  6  0  0  0
 19 24  1  0  0  0  0
 20 21  1  0  0  0  0
 20 26  1  6  0  0  0
 22 23  1  0  0  0  0
 22 28  1  1  0  0  0
 24 25  1  1  0  0  0
 24 30  1  0  0  0  0
 26 27  1  0  0  0  0
 28 29  1  0  0  0  0
 30 31  1  6  0  0  0
M  END
>  <CHROM.1>
174.97927091,41.02353847,-159.51183555,66.65102850,-64.67373559,144.20748541
8.28858434,14.08648660,3.26240547,-2.45246918,0.62465281,-0.62114980

>  <Name>
2o3x_lig

>  <RI>
3.65513e+07

>  <Rbt.Current_Directory>
/home/itssahil/PROJECTS/Mol_Feturizer/New_Systems/rnas/2o3x

>  <Rbt.Executable>
rbdock ($Id: //depot/dev/client3/rdock/2013.1/src/exe/rbdock.cxx#4 $)

>  <Rbt.Library>
libRbt.so (2013.1, Build901 2013/11/27)

>  <Rbt.Parameter_File>
/export/apps/rDock/src/rDock_2013.1_src/data/scripts/dock_solv.prm

>  <Rbt.Receptor>
prm/blind_docking_20.prm

>  <SCORE>
20.0923

>  <SCORE.INTER>
-1.27511

>  <SCORE.INTER.CONST>
1

>  <SCORE.INTER.POLAR>
0

>  <SCORE.INTER.ROT>
6

>  <SCORE.INTER.SOLV>
17.4134

>  <SCORE.INTER.VDW>
-14.2545

>  <SCORE.INTER.norm>
-0.0411327

>  <SCORE.INTRA>
2.96718

>  <SCORE.INTRA.DIHEDRAL>
-0.696504

>  <SCORE.INTRA.DIHEDRAL.0>
9.37739

>  <SCORE.INTRA.POLAR>
0

>  <SCORE.INTRA.POLAR.0>
0

>  <SCORE.INTRA.REPUL>
0

>  <SCORE.INTRA.REPUL.0>
0

>  <SCORE.INTRA.SOLV>
3.53911

>  <SCORE.INTRA.SOLV.lig_0>
-82.9274

>  <SCORE.INTRA.VDW>
1.54587

>  <SCORE.INTRA.VDW.0>
-3.84922

>  <SCORE.INTRA.norm>
0.0957154

>  <SCORE.RESTR>
18.4002

>  <SCORE.RESTR.CAVITY>
18.4002

>  <SCORE.RESTR.norm>
0.593555

>  <SCORE.SYSTEM>
0

>  <SCORE.SYSTEM.CONST>
0

>  <SCORE.SYSTEM.DIHEDRAL>
0

>  <SCORE.SYSTEM.SOLV>
0

>  <SCORE.SYSTEM.norm>
0

>  <SCORE.heavy>
31

>  <SCORE.norm>
0.648138

>  <RMSD>
15.877

$$$$
2o3x_lig
 OpenBabel11021811463D
libRbt.so/2013.1/901 2013/11/27
 31 33  0  0  0  0  0  0  0  0999 V2000
    7.6647   12.8909    4.5691 C   0  0  2  0  0  0  0  0  0  0  0  0
    6.8653   13.5455    3.5751 O   0  0  0  0  0  0  0  0  0  0  0  0
    7.1777   17.0739    1.1771 C   0  0  2  0  0  0  0  0  0  0  0  0
    7.5137   18.4256    0.6776 N   0  0  0  0  0  0  0  0  0  0  0  0
   10.3360   13.4840    1.8868 C   0  0  1  0  0  0  0  0  0  0  0  0
    7.0689   11.4700    4.8230 C   0  0  2  0  0  0  0  0  0  0  0  0
    6.8010   10.7413    3.5569 N   0  0  0  0  0  0  0  0  0  0  0  0
    6.2411   17.1255    2.4298 C   0  0  0  0  0  0  0  0  0  0  0  0
   10.5066   13.9826    0.4142 C   0  0  2  0  0  0  0  0  0  0  0  0
    9.5278   13.4917   -0.5426 O   0  0  0  0  0  0  0  0  0  0  0  0
    5.7525   11.5403    5.6199 C   0  0  1  0  0  0  0  0  0  0  0  0
    5.2620   10.2495    5.8801 O   0  0  0  0  0  0  0  0  0  0  0  0
    5.9189   15.6490    2.8640 C   0  0  2  0  0  0  0  0  0  0  0  0
    5.0096   15.6105    4.0484 N   0  0  0  0  0  0  0  0  0  0  0  0
   11.9411   13.5320    0.1951 C   0  0  2  0  0  0  0  0  0  0  0  0
   12.0046   12.0941   -0.0987 O   0  0  0  0  0  0  0  0  0  0  0  0
    5.9793   12.2960    6.9185 C   0  0  2  0  0  0  0  0  0  0  0  0
    4.7972   12.3408    7.6507 O   0  0  0  0  0  0  0  0  0  0  0  0
    7.2274   14.8881    3.2219 C   0  0  2  0  0  0  0  0  0  0  0  0
   12.6455   13.8517    1.5083 C   0  0  2  0  0  0  0  0  0  0  0  0
   11.6543   13.4424    2.4466 O   0  0  0  0  0  0  0  0  0  0  0  0
    6.4773   13.7369    6.6132 C   0  0  2  0  0  0  0  0  0  0  0  0
    7.6955   13.6765    5.8403 O   0  0  0  0  0  0  0  0  0  0  0  0
    8.2545   14.8679    2.0726 C   0  0  2  0  0  0  0  0  0  0  0  0
    9.4913   14.3414    2.6701 O   0  0  0  0  0  0  0  0  0  0  0  0
   13.0079   15.3619    1.7121 C   0  0  0  0  0  0  0  0  0  0  0  0
   11.8201   16.1343    1.8613 N   0  0  0  0  0  0  0  0  0  0  0  0
    6.7402   14.5358    7.8686 C   0  0  0  0  0  0  0  0  0  0  0  0
    7.7943   14.0128    8.5919 O   0  0  0  0  0  0  0  0  0  0  0  0
    8.4885   16.3413    1.5156 C   0  0  1  0  0  0  0  0  0  0  0  0
    9.2668   16.3284    0.3093 O   0  0  0  0  0  0  0  0  0  0  0  0
  1  2  1  6  0  0  0
  1  6  1  0  0  0  0
  1 23  1  0  0  0  0
  3  4  1  1  0  0  0
  3  8  1  0  0  0  0
  3 30  1  0  0  0  0
  5  9  1  0  0  0  0
  5 21  1  0  0  0  0
  5 25  1  1  0  0  0
  6  7  1  6  0  0  0
  6 11  1  0  0  0  0
  8 13  1  0  0  0  0
  9 10  1  6  0  0  0
  9 15  1  0  0  0  0
 11 12  1  1  0  0  0
 11 17  1  0  0  0  0
 13 14  1  1  0  0  0
 13 19  1  0  0  0  0
 15 16  1  1  0  0  0
 15 20  1  0  0  0  0
 17 18  1  6  0  0  0
 17 22  1  0  0  0  0
 19  2  1  6  0  0  0
 19 24  1  0  0  0  0
 20 21  1  0  0  0  0
 20 26  1  6  0  0  0
 22 23  1  0  0  0  0
 22 28  1  1  0  0  0
 24 25  1  1  0  0  0
 24 30  1  0  0  0  0
 26 27  1  0  0  0  0
 28 29  1  0  0  0  0
 30 31  1  6  0  0  0
M  END
>  <CHROM.1>
178.36409118,42.54066283,-147.35032560,67.49282143,65.96083236,143.63721984
8.29618744,14.06921690,3.30795248,-2.43362284,0.61148785,-0.63935385

>  <Name>
2o3x_lig

>  <RI>
3.65513e+07

>  <Rbt.Current_Directory>
/home/itssahil/PROJECTS/Mol_Feturizer/New_Systems/rnas/2o3x

>  <Rbt.Executable>
rbdock ($Id: //depot/dev/client3/rdock/2013.1/src/exe/rbdock.cxx#4 $)

>  <Rbt.Library>
libRbt.so (2013.1, Build901 2013/11/27)

>  <Rbt.Parameter_File>
/export/apps/rDock/src/rDock_2013.1_src/data/scripts/dock_solv.prm

>  <Rbt.Receptor>
prm/blind_docking_20.prm

>  <SCORE>
21.8728

>  <SCORE.INTER>
-0.513585

>  <SCORE.INTER.CONST>
1

>  <SCORE.INTER.POLAR>
0

>  <SCORE.INTER.ROT>
6

>  <SCORE.INTER.SOLV>
16.8842

>  <SCORE.INTER.VDW>
-13.5704

>  <SCORE.INTER.norm>
-0.0165673

>  <SCORE.INTRA>
3.78329

>  <SCORE.INTRA.DIHEDRAL>
1.34494

>  <SCORE.INTRA.DIHEDRAL.0>
9.37739

>  <SCORE.INTRA.POLAR>
0

>  <SCORE.INTRA.POLAR.0>
0

>  <SCORE.INTRA.REPUL>
0

>  <SCORE.INTRA.REPUL.0>
0

>  <SCORE.INTRA.SOLV>
4.24121

>  <SCORE.INTRA.SOLV.lig_0>
-82.9274

>  <SCORE.INTRA.VDW>
0.990207

>  <SCORE.INTRA.VDW.0>
-3.84922

>  <SCORE.INTRA.norm>
0.122041

>  <SCORE.RESTR>
18.6031

>  <SCORE.RESTR.CAVITY>
18.6031

>  <SCORE.RESTR.norm>
0.600101

>  <SCORE.SYSTEM>
0

>  <SCORE.SYSTEM.CONST>
0

>  <SCORE.SYSTEM.DIHEDRAL>
0

>  <SCORE.SYSTEM.SOLV>
0

>  <SCORE.SYSTEM.norm>
0

>  <SCORE.heavy>
31

>  <SCORE.norm>
0.705575

>  <RMSD>
15.878

$$$$
2o3x_lig
 OpenBabel11021811463D
libRbt.so/2013.1/901 2013/11/27
 31 33  0  0  0  0  0  0  0  0999 V2000
    7.3062   12.5956    3.8864 C   0  0  2  0  0  0  0  0  0  0  0  0
    6.5456   13.5171    3.0940 O   0  0  0  0  0  0  0  0  0  0  0  0
    7.3719   17.3622    1.4116 C   0  0  2  0  0  0  0  0  0  0  0  0
    7.8368   18.7520    1.2072 N   0  0  0  0  0  0  0  0  0  0  0  0
   10.1635   13.4114    1.9634 C   0  0  1  0  0  0  0  0  0  0  0  0
    6.4074   11.3580    4.2009 C   0  0  2  0  0  0  0  0  0  0  0  0
    5.7301   10.8354    2.9868 N   0  0  0  0  0  0  0  0  0  0  0  0
    6.2549   17.2701    2.5040 C   0  0  0  0  0  0  0  0  0  0  0  0
   10.4269   13.9521    0.5197 C   0  0  2  0  0  0  0  0  0  0  0  0
    9.4815   13.5303   -0.5015 O   0  0  0  0  0  0  0  0  0  0  0  0
    5.3242   11.6929    5.2437 C   0  0  1  0  0  0  0  0  0  0  0  0
    4.5611   10.5531    5.5483 O   0  0  0  0  0  0  0  0  0  0  0  0
    5.8087   15.7673    2.6254 C   0  0  2  0  0  0  0  0  0  0  0  0
    4.7256   15.5959    3.6396 N   0  0  0  0  0  0  0  0  0  0  0  0
   11.8538   13.4557    0.3567 C   0  0  2  0  0  0  0  0  0  0  0  0
   11.8809   12.0271    0.0161 O   0  0  0  0  0  0  0  0  0  0  0  0
    5.9757   12.2492    6.4986 C   0  0  2  0  0  0  0  0  0  0  0  0
    5.0010   12.5310    7.4506 O   0  0  0  0  0  0  0  0  0  0  0  0
    7.0132   14.8722    3.0341 C   0  0  2  0  0  0  0  0  0  0  0  0
   12.5010   13.7050    1.7140 C   0  0  2  0  0  0  0  0  0  0  0  0
   11.4490   13.3019    2.5866 O   0  0  0  0  0  0  0  0  0  0  0  0
    6.7780   13.5357    6.1538 C   0  0  2  0  0  0  0  0  0  0  0  0
    7.7751   13.2331    5.1543 O   0  0  0  0  0  0  0  0  0  0  0  0
    8.2047   14.9721    2.0612 C   0  0  2  0  0  0  0  0  0  0  0  0
    9.3109   14.2731    2.7332 O   0  0  0  0  0  0  0  0  0  0  0  0
   12.9060   15.1929    1.9887 C   0  0  0  0  0  0  0  0  0  0  0  0
   11.7446   16.0172    2.0261 N   0  0  0  0  0  0  0  0  0  0  0  0
    7.4673   14.1280    7.3609 C   0  0  0  0  0  0  0  0  0  0  0  0
    8.4539   15.0225    6.9942 O   0  0  0  0  0  0  0  0  0  0  0  0
    8.5828   16.4979    1.8067 C   0  0  1  0  0  0  0  0  0  0  0  0
    9.5380   16.6311    0.7431 O   0  0  0  0  0  0  0  0  0  0  0  0
  1  2  1  1  0  0  0
  1  6  1  0  0  0  0
  1 23  1  0  0  0  0
  3  4  1  1  0  0  0
  3  8  1  0  0  0  0
  3 30  1  0  0  0  0
  5  9  1  0  0  0  0
  5 21  1  0  0  0  0
  5 25  1  1  0  0  0
  6  7  1  6  0  0  0
  6 11  1  0  0  0  0
  8 13  1  0  0  0  0
  9 10  1  6  0  0  0
  9 15  1  0  0  0  0
 11 12  1  1  0  0  0
 11 17  1  0  0  0  0
 13 14  1  1  0  0  0
 13 19  1  0  0  0  0
 15 16  1  1  0  0  0
 15 20  1  0  0  0  0
 17 18  1  1  0  0  0
 17 22  1  0  0  0  0
 19  2  1  6  0  0  0
 19 24  1  0  0  0  0
 20 21  1  0  0  0  0
 20 26  1  6  0  0  0
 22 23  1  0  0  0  0
 22 28  1  1  0  0  0
 24 25  1  1  0  0  0
 24 30  1  0  0  0  0
 26 27  1  0  0  0  0
 28 29  1  0  0  0  0
 30 31  1  6  0  0  0
M  END
>  <CHROM.1>
161.49684701,36.43911789,-158.32061459,64.04583263,163.20479680,138.43757234
8.21729832,14.09926011,3.14607957,-2.56910591,0.57593773,-0.44222671

>  <Name>
2o3x_lig

>  <RI>
3.65513e+07

>  <Rbt.Current_Directory>
/home/itssahil/PROJECTS/Mol_Feturizer/New_Systems/rnas/2o3x

>  <Rbt.Executable>
rbdock ($Id: //depot/dev/client3/rdock/2013.1/src/exe/rbdock.cxx#4 $)

>  <Rbt.Library>
libRbt.so (2013.1, Build901 2013/11/27)

>  <Rbt.Parameter_File>
/export/apps/rDock/src/rDock_2013.1_src/data/scripts/dock_solv.prm

>  <Rbt.Receptor>
prm/blind_docking_20.prm

>  <SCORE>
21.7482

>  <SCORE.INTER>
-2.07283

>  <SCORE.INTER.CONST>
1

>  <SCORE.INTER.POLAR>
-0.768449

>  <SCORE.INTER.ROT>
6

>  <SCORE.INTER.SOLV>
14.1691

>  <SCORE.INTER.VDW>
-11.1434

>  <SCORE.INTER.norm>
-0.0668654

>  <SCORE.INTRA>
4.69558

>  <SCORE.INTRA.DIHEDRAL>
3.46146

>  <SCORE.INTRA.DIHEDRAL.0>
9.37739

>  <SCORE.INTRA.POLAR>
0

>  <SCORE.INTRA.POLAR.0>
0

>  <SCORE.INTRA.REPUL>
0

>  <SCORE.INTRA.REPUL.0>
0

>  <SCORE.INTRA.SOLV>
3.71169

>  <SCORE.INTRA.SOLV.lig_0>
-82.9274

>  <SCORE.INTRA.VDW>
1.109

>  <SCORE.INTRA.VDW.0>
-3.84922

>  <SCORE.INTRA.norm>
0.15147

>  <SCORE.RESTR>
19.1255

>  <SCORE.RESTR.CAVITY>
19.1255

>  <SCORE.RESTR.norm>
0.616952

>  <SCORE.SYSTEM>
0

>  <SCORE.SYSTEM.CONST>
0

>  <SCORE.SYSTEM.DIHEDRAL>
0

>  <SCORE.SYSTEM.SOLV>
0

>  <SCORE.SYSTEM.norm>
0

>  <SCORE.heavy>
31

>  <SCORE.norm>
0.701556

>  <RMSD>
15.879

$$$$
2o3x_lig
 OpenBabel11021811463D
libRbt.so/2013.1/901 2013/11/27
 31 33  0  0  0  0  0  0  0  0999 V2000
    7.6705   12.9089    4.1853 C   0  0  2  0  0  0  0  0  0  0  0  0
    6.7601   13.6884    3.3983 O   0  0  0  0  0  0  0  0  0  0  0  0
    7.1294   17.3661    1.2452 C   0  0  2  0  0  0  0  0  0  0  0  0
    7.4643   18.7522    0.8500 N   0  0  0  0  0  0  0  0  0  0  0  0
   10.1988   13.6150    1.9775 C   0  0  1  0  0  0  0  0  0  0  0  0
    7.0078   11.5259    4.4792 C   0  0  2  0  0  0  0  0  0  0  0  0
    6.4414   10.9053    3.2545 N   0  0  0  0  0  0  0  0  0  0  0  0
    6.1260   17.3226    2.4454 C   0  0  0  0  0  0  0  0  0  0  0  0
   10.4237   14.0013    0.4787 C   0  0  2  0  0  0  0  0  0  0  0  0
    9.4206   13.5248   -0.4600 O   0  0  0  0  0  0  0  0  0  0  0  0
    5.8771   11.6472    5.5183 C   0  0  1  0  0  0  0  0  0  0  0  0
    5.3303   10.3848    5.8045 O   0  0  0  0  0  0  0  0  0  0  0  0
    5.8109   15.8164    2.7685 C   0  0  2  0  0  0  0  0  0  0  0  0
    4.8403   15.6878    3.8966 N   0  0  0  0  0  0  0  0  0  0  0  0
   11.8215   13.4289    0.3122 C   0  0  2  0  0  0  0  0  0  0  0  0
   11.7768   11.9743    0.1131 O   0  0  0  0  0  0  0  0  0  0  0  0
    6.4118   12.2957    6.7841 C   0  0  2  0  0  0  0  0  0  0  0  0
    5.3979   12.3854    7.7325 O   0  0  0  0  0  0  0  0  0  0  0  0
    7.1134   15.0565    3.1497 C   0  0  2  0  0  0  0  0  0  0  0  0
   12.5339   13.7795    1.6133 C   0  0  2  0  0  0  0  0  0  0  0  0
   11.5036   13.5096    2.5599 O   0  0  0  0  0  0  0  0  0  0  0  0
    6.9709   13.7098    6.4597 C   0  0  2  0  0  0  0  0  0  0  0  0
    8.0110   13.6044    5.4637 O   0  0  0  0  0  0  0  0  0  0  0  0
    8.2010   15.1264    2.0594 C   0  0  2  0  0  0  0  0  0  0  0  0
    9.4143   14.5840    2.6900 O   0  0  0  0  0  0  0  0  0  0  0  0
   13.0097   15.2676    1.7248 C   0  0  0  0  0  0  0  0  0  0  0  0
   11.8871   16.1442    1.6883 N   0  0  0  0  0  0  0  0  0  0  0  0
    7.5367   14.4013    7.6784 C   0  0  0  0  0  0  0  0  0  0  0  0
    6.5552   14.6657    8.6136 O   0  0  0  0  0  0  0  0  0  0  0  0
    8.4346   16.6357    1.6089 C   0  0  1  0  0  0  0  0  0  0  0  0
    9.2768   16.7123    0.4486 O   0  0  0  0  0  0  0  0  0  0  0  0
  1  2  1  1  0  0  0
  1  6  1  0  0  0  0
  1 23  1  0  0  0  0
  3  4  1  1  0  0  0
  3  8  1  0  0  0  0
  3 30  1  0  0  0  0
  5  9  1  0  0  0  0
  5 21  1  0  0  0  0
  5 25  1  1  0  0  0
  6  7  1  6  0  0  0
  6 11  1  0  0  0  0
  8 13  1  0  0  0  0
  9 10  1  6  0  0  0
  9 15  1  0  0  0  0
 11 12  1  1  0  0  0
 11 17  1  0  0  0  0
 13 14  1  1  0  0  0
 13 19  1  0  0  0  0
 15 16  1  1  0  0  0
 15 20  1  0  0  0  0
 17 18  1  1  0  0  0
 17 22  1  0  0  0  0
 19  2  1  6  0  0  0
 19 24  1  0  0  0  0
 20 21  1  0  0  0  0
 20 26  1  6  0  0  0
 22 23  1  0  0  0  0
 22 28  1  1  0  0  0
 24 25  1  1  0  0  0
 24 30  1  0  0  0  0
 26 27  1  0  0  0  0
 28 29  1  0  0  0  0
 30 31  1  6  0  0  0
M  END
>  <CHROM.1>
172.91220038,44.76898533,-159.41982026,62.49798112,-64.98682035,133.30709016
8.27345135,14.18015452,3.26739057,-2.45133249,0.63872977,-0.59449015

>  <Name>
2o3x_lig

>  <RI>
3.65513e+07

>  <Rbt.Current_Directory>
/home/itssahil/PROJECTS/Mol_Feturizer/New_Systems/rnas/2o3x

>  <Rbt.Executable>
rbdock ($Id: //depot/dev/client3/rdock/2013.1/src/exe/rbdock.cxx#4 $)

>  <Rbt.Library>
libRbt.so (2013.1, Build901 2013/11/27)

>  <Rbt.Parameter_File>
/export/apps/rDock/src/rDock_2013.1_src/data/scripts/dock_solv.prm

>  <Rbt.Receptor>
prm/blind_docking_20.prm

>  <SCORE>
19.7999

>  <SCORE.INTER>
-1.3411

>  <SCORE.INTER.CONST>
1

>  <SCORE.INTER.POLAR>
0

>  <SCORE.INTER.ROT>
6

>  <SCORE.INTER.SOLV>
14.92

>  <SCORE.INTER.VDW>
-13.4674

>  <SCORE.INTER.norm>
-0.0432611

>  <SCORE.INTRA>
2.53733

>  <SCORE.INTRA.DIHEDRAL>
0.464543

>  <SCORE.INTRA.DIHEDRAL.0>
9.37739

>  <SCORE.INTRA.POLAR>
0

>  <SCORE.INTRA.POLAR.0>
0

>  <SCORE.INTRA.REPUL>
0

>  <SCORE.INTRA.REPUL.0>
0

>  <SCORE.INTRA.SOLV>
3.21813

>  <SCORE.INTRA.SOLV.lig_0>
-82.9274

>  <SCORE.INTRA.VDW>
0.695991

>  <SCORE.INTRA.VDW.0>
-3.84922

>  <SCORE.INTRA.norm>
0.0818492

>  <SCORE.RESTR>
18.6036

>  <SCORE.RESTR.CAVITY>
18.6036

>  <SCORE.RESTR.norm>
0.600117

>  <SCORE.SYSTEM>
0

>  <SCORE.SYSTEM.CONST>
0

>  <SCORE.SYSTEM.DIHEDRAL>
0

>  <SCORE.SYSTEM.SOLV>
0

>  <SCORE.SYSTEM.norm>
0

>  <SCORE.heavy>
31

>  <SCORE.norm>
0.638705

>  <RMSD>
15.923

$$$$
2o3x_lig
 OpenBabel11021811463D
libRbt.so/2013.1/901 2013/11/27
 31 33  0  0  0  0  0  0  0  0999 V2000
    8.0411   12.9955    4.6691 C   0  0  2  0  0  0  0  0  0  0  0  0
    7.7639   13.5205    3.3641 O   0  0  0  0  0  0  0  0  0  0  0  0
    7.2470   17.3113    1.4509 C   0  0  2  0  0  0  0  0  0  0  0  0
    7.1759   18.7628    1.1723 N   0  0  0  0  0  0  0  0  0  0  0  0
   11.3210   15.0596    2.4648 C   0  0  1  0  0  0  0  0  0  0  0  0
    7.2640   11.6511    4.8343 C   0  0  2  0  0  0  0  0  0  0  0  0
    7.4515   10.7497    3.6689 N   0  0  0  0  0  0  0  0  0  0  0  0
    6.1487   16.8528    2.4671 C   0  0  0  0  0  0  0  0  0  0  0  0
   11.4387   13.6534    1.7904 C   0  0  2  0  0  0  0  0  0  0  0  0
   11.9956   12.5946    2.6169 O   0  0  0  0  0  0  0  0  0  0  0  0
    5.7527   11.8872    5.0156 C   0  0  1  0  0  0  0  0  0  0  0  0
    5.0815   10.6686    5.2130 O   0  0  0  0  0  0  0  0  0  0  0  0
    6.2869   15.3001    2.6731 C   0  0  2  0  0  0  0  0  0  0  0  0
    5.2567   14.7776    3.6201 N   0  0  0  0  0  0  0  0  0  0  0  0
   12.2612   14.0595    0.5790 C   0  0  2  0  0  0  0  0  0  0  0  0
   13.6805   14.2053    0.9283 O   0  0  0  0  0  0  0  0  0  0  0  0
    5.5173   12.8215    6.1904 C   0  0  2  0  0  0  0  0  0  0  0  0
    4.1518   13.0181    6.3706 O   0  0  0  0  0  0  0  0  0  0  0  0
    7.6948   14.9475    3.2322 C   0  0  2  0  0  0  0  0  0  0  0  0
   11.6666   15.3941    0.1451 C   0  0  2  0  0  0  0  0  0  0  0  0
   11.4673   16.0186    1.4103 O   0  0  0  0  0  0  0  0  0  0  0  0
    6.2271   14.1815    5.9367 C   0  0  2  0  0  0  0  0  0  0  0  0
    7.6401   13.9621    5.7362 O   0  0  0  0  0  0  0  0  0  0  0  0
    8.8479   15.4470    2.3393 C   0  0  2  0  0  0  0  0  0  0  0  0
   10.0672   15.2504    3.1383 O   0  0  0  0  0  0  0  0  0  0  0  0
   10.3142   15.2906   -0.6383 C   0  0  0  0  0  0  0  0  0  0  0  0
   10.0305   16.5254   -1.2899 N   0  0  0  0  0  0  0  0  0  0  0  0
    6.0458   15.1507    7.0816 C   0  0  0  0  0  0  0  0  0  0  0  0
    6.5953   14.6633    8.2514 O   0  0  0  0  0  0  0  0  0  0  0  0
    8.6506   16.9890    1.9944 C   0  0  1  0  0  0  0  0  0  0  0  0
    9.5815   17.4256    0.9925 O   0  0  0  0  0  0  0  0  0  0  0  0
  1  2  1  6  0  0  0
  1  6  1  0  0  0  0
  1 23  1  0  0  0  0
  3  4  1  1  0  0  0
  3  8  1  0  0  0  0
  3 30  1  0  0  0  0
  5  9  1  0  0  0  0
  5 21  1  0  0  0  0
  5 25  1  6  0  0  0
  6  7  1  6  0  0  0
  6 11  1  0  0  0  0
  8 13  1  0  0  0  0
  9 10  1  1  0  0  0
  9 15  1  0  0  0  0
 11 12  1  1  0  0  0
 11 17  1  0  0  0  0
 13 14  1  1  0  0  0
 13 19  1  0  0  0  0
 15 16  1  1  0  0  0
 15 20  1  0  0  0  0
 17 18  1  6  0  0  0
 17 22  1  0  0  0  0
 19  2  1  6  0  0  0
 19 24  1  0  0  0  0
 20 21  1  0  0  0  0
 20 26  1  1  0  0  0
 22 23  1  0  0  0  0
 22 28  1  1  0  0  0
 24 25  1  1  0  0  0
 24 30  1  0  0  0  0
 26 27  1  0  0  0  0
 28 29  1  0  0  0  0
 30 31  1  6  0  0  0
M  END
>  <CHROM.1>
145.77661105,-72.64716561,-121.82555637,-164.84520085,61.81083132,153.45962512
8.36152365,14.53847578,3.17389116,-2.47050405,0.51487972,-0.57234550

>  <Name>
2o3x_lig

>  <RI>
3.65513e+07

>  <Rbt.Current_Directory>
/home/itssahil/PROJECTS/Mol_Feturizer/New_Systems/rnas/2o3x

>  <Rbt.Executable>
rbdock ($Id: //depot/dev/client3/rdock/2013.1/src/exe/rbdock.cxx#4 $)

>  <Rbt.Library>
libRbt.so (2013.1, Build901 2013/11/27)

>  <Rbt.Parameter_File>
/export/apps/rDock/src/rDock_2013.1_src/data/scripts/dock_solv.prm

>  <Rbt.Receptor>
prm/blind_docking_20.prm

>  <SCORE>
29.885

>  <SCORE.INTER>
3.2776

>  <SCORE.INTER.CONST>
1

>  <SCORE.INTER.POLAR>
-0.00683544

>  <SCORE.INTER.ROT>
6

>  <SCORE.INTER.SOLV>
10.8491

>  <SCORE.INTER.VDW>
-9.00852

>  <SCORE.INTER.norm>
0.105729

>  <SCORE.INTRA>
9.38758

>  <SCORE.INTRA.DIHEDRAL>
6.72651

>  <SCORE.INTRA.DIHEDRAL.0>
9.37739

>  <SCORE.INTRA.POLAR>
0

>  <SCORE.INTRA.POLAR.0>
0

>  <SCORE.INTRA.REPUL>
0

>  <SCORE.INTRA.REPUL.0>
0

>  <SCORE.INTRA.SOLV>
5.53011

>  <SCORE.INTRA.SOLV.lig_0>
-82.9274

>  <SCORE.INTRA.VDW>
3.25926

>  <SCORE.INTRA.VDW.0>
-3.84922

>  <SCORE.INTRA.norm>
0.302825

>  <SCORE.RESTR>
17.2198

>  <SCORE.RESTR.CAVITY>
17.2198

>  <SCORE.RESTR.norm>
0.555477

>  <SCORE.SYSTEM>
0

>  <SCORE.SYSTEM.CONST>
0

>  <SCORE.SYSTEM.DIHEDRAL>
0

>  <SCORE.SYSTEM.SOLV>
0

>  <SCORE.SYSTEM.norm>
0

>  <SCORE.heavy>
31

>  <SCORE.norm>
0.964031

>  <RMSD>
15.930

$$$$
2o3x_lig
 OpenBabel11021811463D
libRbt.so/2013.1/901 2013/11/27
 31 33  0  0  0  0  0  0  0  0999 V2000
    8.0653   12.9915    4.6488 C   0  0  2  0  0  0  0  0  0  0  0  0
    7.7426   13.5189    3.3552 O   0  0  0  0  0  0  0  0  0  0  0  0
    7.1264   17.3118    1.4757 C   0  0  2  0  0  0  0  0  0  0  0  0
    7.0166   18.7633    1.2103 N   0  0  0  0  0  0  0  0  0  0  0  0
   11.2516   15.1142    2.4767 C   0  0  1  0  0  0  0  0  0  0  0  0
    7.2986   11.6442    4.8365 C   0  0  2  0  0  0  0  0  0  0  0  0
    7.4495   10.7463    3.6631 N   0  0  0  0  0  0  0  0  0  0  0  0
    6.0392   16.8144    2.4857 C   0  0  0  0  0  0  0  0  0  0  0  0
   11.3379   13.7308    1.7522 C   0  0  2  0  0  0  0  0  0  0  0  0
   11.8623   12.6287    2.5427 O   0  0  0  0  0  0  0  0  0  0  0  0
    5.7934   11.8749    5.0694 C   0  0  1  0  0  0  0  0  0  0  0  0
    5.1332   10.6536    5.2861 O   0  0  0  0  0  0  0  0  0  0  0  0
    6.2191   15.2642    2.6777 C   0  0  2  0  0  0  0  0  0  0  0  0
    5.2019   14.7053    3.6180 N   0  0  0  0  0  0  0  0  0  0  0  0
   12.1784   14.1593    0.5611 C   0  0  2  0  0  0  0  0  0  0  0  0
   13.5986   14.2559    0.9235 O   0  0  0  0  0  0  0  0  0  0  0  0
    5.5949   12.8055    6.2539 C   0  0  2  0  0  0  0  0  0  0  0  0
    4.2356   12.9971    6.4805 O   0  0  0  0  0  0  0  0  0  0  0  0
    7.6351   14.9447    3.2363 C   0  0  2  0  0  0  0  0  0  0  0  0
   11.6209   15.5237    0.1728 C   0  0  2  0  0  0  0  0  0  0  0  0
   11.4291   16.1067    1.4588 O   0  0  0  0  0  0  0  0  0  0  0  0
    6.2913   14.1684    5.9799 C   0  0  2  0  0  0  0  0  0  0  0  0
    7.6975   13.9542    5.7313 O   0  0  0  0  0  0  0  0  0  0  0  0
    8.7757   15.4833    2.3501 C   0  0  2  0  0  0  0  0  0  0  0  0
    9.9986   15.3124    3.1496 O   0  0  0  0  0  0  0  0  0  0  0  0
   10.2715   15.4834   -0.6215 C   0  0  0  0  0  0  0  0  0  0  0  0
   10.3075   14.4435   -1.5947 N   0  0  0  0  0  0  0  0  0  0  0  0
    6.1456   15.1343    7.1328 C   0  0  0  0  0  0  0  0  0  0  0  0
    6.7937   14.6766    8.2635 O   0  0  0  0  0  0  0  0  0  0  0  0
    8.5373   17.0226    2.0190 C   0  0  1  0  0  0  0  0  0  0  0  0
    9.4578   17.4933    1.0228 O   0  0  0  0  0  0  0  0  0  0  0  0
  1  2  1  6  0  0  0
  1  6  1  0  0  0  0
  1 23  1  0  0  0  0
  3  4  1  1  0  0  0
  3  8  1  0  0  0  0
  3 30  1  0  0  0  0
  5  9  1  0  0  0  0
  5 21  1  0  0  0  0
  5 25  1  6  0  0  0
  6  7  1  6  0  0  0
  6 11  1  0  0  0  0
  8 13  1  0  0  0  0
  9 10  1  1  0  0  0
  9 15  1  0  0  0  0
 11 12  1  1  0  0  0
 11 17  1  0  0  0  0
 13 14  1  1  0  0  0
 13 19  1  0  0  0  0
 15 16  1  1  0  0  0
 15 20  1  0  0  0  0
 17 18  1  6  0  0  0
 17 22  1  0  0  0  0
 19  2  1  6  0  0  0
 19 24  1  0  0  0  0
 20 21  1  0  0  0  0
 20 26  1  1  0  0  0
 22 23  1  0  0  0  0
 22 28  1  1  0  0  0
 24 25  1  1  0  0  0
 24 30  1  0  0  0  0
 26 27  1  0  0  0  0
 28 29  1  0  0  0  0
 30 31  1  6  0  0  0
M  END
>  <CHROM.1>
144.41996745,-68.76747792,-123.37108953,-41.97001182,64.85031199,151.26000760
8.34452035,14.49417109,3.18066490,-2.49596638,0.55563452,-0.55238404

>  <Name>
2o3x_lig

>  <RI>
3.65513e+07

>  <Rbt.Current_Directory>
/home/itssahil/PROJECTS/Mol_Feturizer/New_Systems/rnas/2o3x

>  <Rbt.Executable>
rbdock ($Id: //depot/dev/client3/rdock/2013.1/src/exe/rbdock.cxx#4 $)

>  <Rbt.Library>
libRbt.so (2013.1, Build901 2013/11/27)

>  <Rbt.Parameter_File>
/export/apps/rDock/src/rDock_2013.1_src/data/scripts/dock_solv.prm

>  <Rbt.Receptor>
prm/blind_docking_20.prm

>  <SCORE>
28.6841

>  <SCORE.INTER>
3.46119

>  <SCORE.INTER.CONST>
1

>  <SCORE.INTER.POLAR>
-0.0319253

>  <SCORE.INTER.ROT>
6

>  <SCORE.INTER.SOLV>
10.9365

>  <SCORE.INTER.VDW>
-8.83163

>  <SCORE.INTER.norm>
0.111651

>  <SCORE.INTRA>
7.97516

>  <SCORE.INTRA.DIHEDRAL>
7.31824

>  <SCORE.INTRA.DIHEDRAL.0>
9.37739

>  <SCORE.INTRA.POLAR>
0

>  <SCORE.INTRA.POLAR.0>
0

>  <SCORE.INTRA.REPUL>
0

>  <SCORE.INTRA.REPUL.0>
0

>  <SCORE.INTRA.SOLV>
3.96453

>  <SCORE.INTRA.SOLV.lig_0>
-82.9274

>  <SCORE.INTRA.VDW>
2.33377

>  <SCORE.INTRA.VDW.0>
-3.84922

>  <SCORE.INTRA.norm>
0.257263

>  <SCORE.RESTR>
17.2478

>  <SCORE.RESTR.CAVITY>
17.2478

>  <SCORE.RESTR.norm>
0.556379

>  <SCORE.SYSTEM>
0

>  <SCORE.SYSTEM.CONST>
0

>  <SCORE.SYSTEM.DIHEDRAL>
0

>  <SCORE.SYSTEM.SOLV>
0

>  <SCORE.SYSTEM.norm>
0

>  <SCORE.heavy>
31

>  <SCORE.norm>
0.925294

>  <RMSD>
15.938

$$$$
2o3x_lig
 OpenBabel11021811463D
libRbt.so/2013.1/901 2013/11/27
 31 33  0  0  0  0  0  0  0  0999 V2000
    8.1155   12.8942    4.2592 C   0  0  2  0  0  0  0  0  0  0  0  0
    7.4338   13.5274    3.1684 O   0  0  0  0  0  0  0  0  0  0  0  0
    7.1816   17.4559    1.4946 C   0  0  2  0  0  0  0  0  0  0  0  0
    7.2021   18.9237    1.3089 N   0  0  0  0  0  0  0  0  0  0  0  0
   11.1136   15.0071    2.4436 C   0  0  1  0  0  0  0  0  0  0  0  0
    7.4767   11.4880    4.4894 C   0  0  2  0  0  0  0  0  0  0  0  0
    7.3330   10.7248    3.2234 N   0  0  0  0  0  0  0  0  0  0  0  0
    6.0369   17.0009    2.4600 C   0  0  0  0  0  0  0  0  0  0  0  0
   11.3073   13.6238    1.7399 C   0  0  2  0  0  0  0  0  0  0  0  0
   11.8939   12.5712    2.5536 O   0  0  0  0  0  0  0  0  0  0  0  0
    6.0851   11.5961    5.1411 C   0  0  1  0  0  0  0  0  0  0  0  0
    5.5522   10.3190    5.3849 O   0  0  0  0  0  0  0  0  0  0  0  0
    6.0791   15.4328    2.5679 C   0  0  2  0  0  0  0  0  0  0  0  0
    5.0001   14.9142    3.4613 N   0  0  0  0  0  0  0  0  0  0  0  0
   12.1351   14.0943    0.5557 C   0  0  2  0  0  0  0  0  0  0  0  0
   13.5392   14.2940    0.9383 O   0  0  0  0  0  0  0  0  0  0  0  0
    6.1849   12.3876    6.4342 C   0  0  2  0  0  0  0  0  0  0  0  0
    4.9332   12.4670    7.0364 O   0  0  0  0  0  0  0  0  0  0  0  0
    7.4516   14.9615    3.1275 C   0  0  2  0  0  0  0  0  0  0  0  0
   11.4907   15.4115    0.1400 C   0  0  2  0  0  0  0  0  0  0  0  0
   11.2383   15.9964    1.4146 O   0  0  0  0  0  0  0  0  0  0  0  0
    6.7321   13.8134    6.1420 C   0  0  2  0  0  0  0  0  0  0  0  0
    8.0236   13.7169    5.5037 O   0  0  0  0  0  0  0  0  0  0  0  0
    8.6508   15.4462    2.2888 C   0  0  2  0  0  0  0  0  0  0  0  0
    9.8392   15.1265    3.0946 O   0  0  0  0  0  0  0  0  0  0  0  0
   10.1603   15.2672   -0.6741 C   0  0  0  0  0  0  0  0  0  0  0  0
    9.8197   16.5112   -1.2794 N   0  0  0  0  0  0  0  0  0  0  0  0
    6.8729   14.6465    7.3948 C   0  0  0  0  0  0  0  0  0  0  0  0
    5.6422   14.9517    7.9427 O   0  0  0  0  0  0  0  0  0  0  0  0
    8.5520   17.0160    2.0406 C   0  0  1  0  0  0  0  0  0  0  0  0
    9.5280   17.4583    1.0851 O   0  0  0  0  0  0  0  0  0  0  0  0
  1  2  1  6  0  0  0
  1  6  1  0  0  0  0
  1 23  1  0  0  0  0
  3  4  1  1  0  0  0
  3  8  1  0  0  0  0
  3 30  1  0  0  0  0
  5  9  1  0  0  0  0
  5 21  1  0  0  0  0
  5 25  1  6  0  0  0
  6  7  1  6  0  0  0
  6 11  1  0  0  0  0
  8 13  1  0  0  0  0
  9 10  1  1  0  0  0
  9 15  1  0  0  0  0
 11 12  1  1  0  0  0
 11 17  1  0  0  0  0
 13 14  1  1  0  0  0
 13 19  1  0  0  0  0
 15 16  1  1  0  0  0
 15 20  1  0  0  0  0
 17 18  1  6  0  0  0
 17 22  1  0  0  0  0
 19  2  1  6  0  0  0
 19 24  1  0  0  0  0
 20 21  1  0  0  0  0
 20 26  1  1  0  0  0
 22 23  1  0  0  0  0
 22 28  1  1  0  0  0
 24 25  1  1  0  0  0
 24 30  1  0  0  0  0
 26 27  1  0  0  0  0
 28 29  1  0  0  0  0
 30 31  1  6  0  0  0
M  END
>  <CHROM.1>
155.04519795,-79.79253588,-144.36241905,-166.10345283,-67.69884806,158.30109705
8.35705381,14.47032390,3.15827958,-2.39632437,0.55915381,-0.55675248

>  <Name>
2o3x_lig

>  <RI>
3.65513e+07

>  <Rbt.Current_Directory>
/home/itssahil/PROJECTS/Mol_Feturizer/New_Systems/rnas/2o3x

>  <Rbt.Executable>
rbdock ($Id: //depot/dev/client3/rdock/2013.1/src/exe/rbdock.cxx#4 $)

>  <Rbt.Library>
libRbt.so (2013.1, Build901 2013/11/27)

>  <Rbt.Parameter_File>
/export/apps/rDock/src/rDock_2013.1_src/data/scripts/dock_solv.prm

>  <Rbt.Receptor>
prm/blind_docking_20.prm

>  <SCORE>
28.0066

>  <SCORE.INTER>
4.26441

>  <SCORE.INTER.CONST>
1

>  <SCORE.INTER.POLAR>
0

>  <SCORE.INTER.ROT>
6

>  <SCORE.INTER.SOLV>
10.9877

>  <SCORE.INTER.VDW>
-8.41964

>  <SCORE.INTER.norm>
0.137562

>  <SCORE.INTRA>
5.80579

>  <SCORE.INTRA.DIHEDRAL>
2.71403

>  <SCORE.INTRA.DIHEDRAL.0>
9.37739

>  <SCORE.INTRA.POLAR>
0

>  <SCORE.INTRA.POLAR.0>
0

>  <SCORE.INTRA.REPUL>
0

>  <SCORE.INTRA.REPUL.0>
0

>  <SCORE.INTRA.SOLV>
2.73653

>  <SCORE.INTRA.SOLV.lig_0>
-82.9274

>  <SCORE.INTRA.VDW>
3.0805

>  <SCORE.INTRA.VDW.0>
-3.84922

>  <SCORE.INTRA.norm>
0.187283

>  <SCORE.RESTR>
17.9364

>  <SCORE.RESTR.CAVITY>
17.9364

>  <SCORE.RESTR.norm>
0.578592

>  <SCORE.SYSTEM>
0

>  <SCORE.SYSTEM.CONST>
0

>  <SCORE.SYSTEM.DIHEDRAL>
0

>  <SCORE.SYSTEM.SOLV>
0

>  <SCORE.SYSTEM.norm>
0

>  <SCORE.heavy>
31

>  <SCORE.norm>
0.903437

>  <RMSD>
15.938

$$$$
2o3x_lig
 OpenBabel11021811463D
libRbt.so/2013.1/901 2013/11/27
 31 33  0  0  0  0  0  0  0  0999 V2000
    8.1042   12.9224    4.2768 C   0  0  2  0  0  0  0  0  0  0  0  0
    7.4264   13.5426    3.1761 O   0  0  0  0  0  0  0  0  0  0  0  0
    7.1439   17.4622    1.4863 C   0  0  2  0  0  0  0  0  0  0  0  0
    7.1461   18.9296    1.2964 N   0  0  0  0  0  0  0  0  0  0  0  0
   11.0911   15.0459    2.5006 C   0  0  1  0  0  0  0  0  0  0  0  0
    7.4812   11.5088    4.5053 C   0  0  2  0  0  0  0  0  0  0  0  0
    7.3614   10.7391    3.2408 N   0  0  0  0  0  0  0  0  0  0  0  0
    5.9909   16.9934    2.4351 C   0  0  0  0  0  0  0  0  0  0  0  0
   11.2596   13.6848    1.7490 C   0  0  2  0  0  0  0  0  0  0  0  0
   11.8038   12.5871    2.5321 O   0  0  0  0  0  0  0  0  0  0  0  0
    6.0813   11.6012    5.1413 C   0  0  1  0  0  0  0  0  0  0  0  0
    5.5623   10.3182    5.3842 O   0  0  0  0  0  0  0  0  0  0  0  0
    6.0540   15.4264    2.5485 C   0  0  2  0  0  0  0  0  0  0  0  0
    4.9687   14.8949    3.4265 N   0  0  0  0  0  0  0  0  0  0  0  0
   12.1200   14.1758    0.5967 C   0  0  2  0  0  0  0  0  0  0  0  0
   13.5222   14.3227    1.0092 O   0  0  0  0  0  0  0  0  0  0  0  0
    6.1565   12.3988    6.4323 C   0  0  2  0  0  0  0  0  0  0  0  0
    4.8973   12.4641    7.0205 O   0  0  0  0  0  0  0  0  0  0  0  0
    7.4242   14.9766    3.1310 C   0  0  2  0  0  0  0  0  0  0  0  0
   11.5184   15.5246    0.2202 C   0  0  2  0  0  0  0  0  0  0  0  0
   11.2599   16.0687    1.5115 O   0  0  0  0  0  0  0  0  0  0  0  0
    6.6883   13.8305    6.1407 C   0  0  2  0  0  0  0  0  0  0  0  0
    7.9879   13.7484    5.5170 O   0  0  0  0  0  0  0  0  0  0  0  0
    8.6293   15.4762    2.3097 C   0  0  2  0  0  0  0  0  0  0  0  0
    9.8094   15.1761    3.1350 O   0  0  0  0  0  0  0  0  0  0  0  0
   10.1988   15.4471   -0.6201 C   0  0  0  0  0  0  0  0  0  0  0  0
   10.3837   14.5907   -1.7436 N   0  0  0  0  0  0  0  0  0  0  0  0
    6.8044   14.6700    7.3918 C   0  0  0  0  0  0  0  0  0  0  0  0
    5.5654   14.9381    7.9403 O   0  0  0  0  0  0  0  0  0  0  0  0
    8.5118   17.0438    2.0551 C   0  0  1  0  0  0  0  0  0  0  0  0
    9.4962   17.4974    1.1137 O   0  0  0  0  0  0  0  0  0  0  0  0
  1  2  1  6  0  0  0
  1  6  1  0  0  0  0
  1 23  1  0  0  0  0
  3  4  1  1  0  0  0
  3  8  1  0  0  0  0
  3 30  1  0  0  0  0
  5  9  1  0  0  0  0
  5 21  1  0  0  0  0
  5 25  1  6  0  0  0
  6  7  1  6  0  0  0
  6 11  1  0  0  0  0
  8 13  1  0  0  0  0
  9 10  1  1  0  0  0
  9 15  1  0  0  0  0
 11 12  1  1  0  0  0
 11 17  1  0  0  0  0
 13 14  1  1  0  0  0
 13 19  1  0  0  0  0
 15 16  1  1  0  0  0
 15 20  1  0  0  0  0
 17 18  1  6  0  0  0
 17 22  1  0  0  0  0
 19  2  1  6  0  0  0
 19 24  1  0  0  0  0
 20 21  1  0  0  0  0
 20 26  1  6  0  0  0
 22 23  1  0  0  0  0
 22 28  1  1  0  0  0
 24 25  1  1  0  0  0
 24 30  1  0  0  0  0
 26 27  1  0  0  0  0
 28 29  1  0  0  0  0
 30 31  1  6  0  0  0
M  END
>  <CHROM.1>
154.94631929,-76.05126548,-144.58710446,-51.26204541,-66.45716552,157.02391678
8.35142000,14.43733299,3.15807384,-2.44767912,0.58741628,-0.53088629

>  <Name>
2o3x_lig

>  <RI>
3.65513e+07

>  <Rbt.Current_Directory>
/home/itssahil/PROJECTS/Mol_Feturizer/New_Systems/rnas/2o3x

>  <Rbt.Executable>
rbdock ($Id: //depot/dev/client3/rdock/2013.1/src/exe/rbdock.cxx#4 $)

>  <Rbt.Library>
libRbt.so (2013.1, Build901 2013/11/27)

>  <Rbt.Parameter_File>
/export/apps/rDock/src/rDock_2013.1_src/data/scripts/dock_solv.prm

>  <Rbt.Receptor>
prm/blind_docking_20.prm

>  <SCORE>
26.3187

>  <SCORE.INTER>
4.15851

>  <SCORE.INTER.CONST>
1

>  <SCORE.INTER.POLAR>
0

>  <SCORE.INTER.ROT>
6

>  <SCORE.INTER.SOLV>
10.9141

>  <SCORE.INTER.VDW>
-8.4657

>  <SCORE.INTER.norm>
0.134146

>  <SCORE.INTRA>
4.24978

>  <SCORE.INTRA.DIHEDRAL>
1.91491

>  <SCORE.INTRA.DIHEDRAL.0>
9.37739

>  <SCORE.INTRA.POLAR>
0

>  <SCORE.INTRA.POLAR.0>
0

>  <SCORE.INTRA.REPUL>
0

>  <SCORE.INTRA.REPUL.0>
0

>  <SCORE.INTRA.SOLV>
0.891398

>  <SCORE.INTRA.SOLV.lig_0>
-82.9274

>  <SCORE.INTRA.VDW>
2.84662

>  <SCORE.INTRA.VDW.0>
-3.84922

>  <SCORE.INTRA.norm>
0.13709

>  <SCORE.RESTR>
17.9105

>  <SCORE.RESTR.CAVITY>
17.9105

>  <SCORE.RESTR.norm>
0.577757

>  <SCORE.SYSTEM>
0

>  <SCORE.SYSTEM.CONST>
0

>  <SCORE.SYSTEM.DIHEDRAL>
0

>  <SCORE.SYSTEM.SOLV>
0

>  <SCORE.SYSTEM.norm>
0

>  <SCORE.heavy>
31

>  <SCORE.norm>
0.848992

>  <RMSD>
15.940

$$$$
2o3x_lig
 OpenBabel11021811463D
libRbt.so/2013.1/901 2013/11/27
 31 33  0  0  0  0  0  0  0  0999 V2000
    6.8559   12.7407    4.9557 C   0  0  2  0  0  0  0  0  0  0  0  0
    8.0776   13.3061    4.4624 O   0  0  0  0  0  0  0  0  0  0  0  0
    9.6851   12.0384    0.7065 C   0  0  2  0  0  0  0  0  0  0  0  0
   10.0122   11.9258   -0.7322 N   0  0  0  0  0  0  0  0  0  0  0  0
    8.7518   16.0055    2.5554 C   0  0  1  0  0  0  0  0  0  0  0  0
    5.6679   13.6218    4.4549 C   0  0  2  0  0  0  0  0  0  0  0  0
    5.7612   13.9129    3.0015 N   0  0  0  0  0  0  0  0  0  0  0  0
    8.1765   11.7354    0.9923 C   0  0  0  0  0  0  0  0  0  0  0  0
    9.2782   17.0995    1.5694 C   0  0  2  0  0  0  0  0  0  0  0  0
    9.7089   18.3494    2.1748 O   0  0  0  0  0  0  0  0  0  0  0  0
    5.6005   14.9647    5.2063 C   0  0  1  0  0  0  0  0  0  0  0  0
    4.4955   15.7181    4.7754 O   0  0  0  0  0  0  0  0  0  0  0  0
    7.9371   11.8504    2.5421 C   0  0  2  0  0  0  0  0  0  0  0  0
    6.5177   11.5555    2.9022 N   0  0  0  0  0  0  0  0  0  0  0  0
    8.0624   17.1795    0.6615 C   0  0  2  0  0  0  0  0  0  0  0  0
    6.9999   17.9902    1.2711 O   0  0  0  0  0  0  0  0  0  0  0  0
    5.5220   14.7114    6.7024 C   0  0  2  0  0  0  0  0  0  0  0  0
    5.4378   15.9225    7.3821 O   0  0  0  0  0  0  0  0  0  0  0  0
    8.2859   13.2810    3.0431 C   0  0  2  0  0  0  0  0  0  0  0  0
    7.6158   15.7319    0.4946 C   0  0  2  0  0  0  0  0  0  0  0  0
    7.7768   15.2503    1.8260 O   0  0  0  0  0  0  0  0  0  0  0  0
    6.7736   13.9174    7.1721 C   0  0  2  0  0  0  0  0  0  0  0  0
    6.8578   12.6707    6.4487 O   0  0  0  0  0  0  0  0  0  0  0  0
    9.7322   13.7045    2.7188 C   0  0  2  0  0  0  0  0  0  0  0  0
    9.7933   15.1402    3.0337 O   0  0  0  0  0  0  0  0  0  0  0  0
    8.4758   14.8871   -0.5055 C   0  0  0  0  0  0  0  0  0  0  0  0
    7.7318   13.7601   -0.9597 N   0  0  0  0  0  0  0  0  0  0  0  0
    6.7454   13.6166    8.6527 C   0  0  0  0  0  0  0  0  0  0  0  0
    5.5739   12.9837    9.0200 O   0  0  0  0  0  0  0  0  0  0  0  0
   10.0469   13.4585    1.1773 C   0  0  1  0  0  0  0  0  0  0  0  0
   11.4429   13.6349    0.8924 O   0  0  0  0  0  0  0  0  0  0  0  0
  1  2  1  1  0  0  0
  1  6  1  0  0  0  0
  1 23  1  0  0  0  0
  3  4  1  6  0  0  0
  3  8  1  0  0  0  0
  3 30  1  0  0  0  0
  5  9  1  0  0  0  0
  5 21  1  0  0  0  0
  5 25  1  6  0  0  0
  6  7  1  6  0  0  0
  6 11  1  0  0  0  0
  8 13  1  0  0  0  0
  9 10  1  1  0  0  0
  9 15  1  0  0  0  0
 11 12  1  6  0  0  0
 11 17  1  0  0  0  0
 13 14  1  6  0  0  0
 13 19  1  0  0  0  0
 15 16  1  1  0  0  0
 15 20  1  0  0  0  0
 17 18  1  1  0  0  0
 17 22  1  0  0  0  0
 19  2  1  1  0  0  0
 19 24  1  0  0  0  0
 20 21  1  0  0  0  0
 20 26  1  6  0  0  0
 22 23  1  0  0  0  0
 22 28  1  1  0  0  0
 24 25  1  6  0  0  0
 24 30  1  0  0  0  0
 26 27  1  0  0  0  0
 28 29  1  0  0  0  0
 30 31  1  1  0  0  0
M  END
>  <CHROM.1>
-66.15667040,-117.60080289,-46.72722759,-158.87903533,53.66358900,-47.23992642
7.71398765,14.31548210,3.22474374,-2.79356548,1.07361554,-0.30826607

>  <Name>
2o3x_lig

>  <RI>
3.65513e+07

>  <Rbt.Current_Directory>
/home/itssahil/PROJECTS/Mol_Feturizer/New_Systems/rnas/2o3x

>  <Rbt.Executable>
rbdock ($Id: //depot/dev/client3/rdock/2013.1/src/exe/rbdock.cxx#4 $)

>  <Rbt.Library>
libRbt.so (2013.1, Build901 2013/11/27)

>  <Rbt.Parameter_File>
/export/apps/rDock/src/rDock_2013.1_src/data/scripts/dock_solv.prm

>  <Rbt.Receptor>
prm/blind_docking_20.prm

>  <SCORE>
70.1569

>  <SCORE.INTER>
26.1271

>  <SCORE.INTER.CONST>
1

>  <SCORE.INTER.POLAR>
0

>  <SCORE.INTER.ROT>
6

>  <SCORE.INTER.SOLV>
12.7647

>  <SCORE.INTER.VDW>
5.56317

>  <SCORE.INTER.norm>
0.84281

>  <SCORE.INTRA>
24.6268

>  <SCORE.INTRA.DIHEDRAL>
1.24052

>  <SCORE.INTRA.DIHEDRAL.0>
9.37739

>  <SCORE.INTRA.POLAR>
0

>  <SCORE.INTRA.POLAR.0>
0

>  <SCORE.INTRA.REPUL>
0.163634

>  <SCORE.INTRA.REPUL.0>
0

>  <SCORE.INTRA.SOLV>
13.3368

>  <SCORE.INTRA.SOLV.lig_0>
-82.9274

>  <SCORE.INTRA.VDW>
16.52

>  <SCORE.INTRA.VDW.0>
-3.84922

>  <SCORE.INTRA.norm>
0.794412

>  <SCORE.RESTR>
19.403

>  <SCORE.RESTR.CAVITY>
19.403

>  <SCORE.RESTR.norm>
0.625905

>  <SCORE.SYSTEM>
0

>  <SCORE.SYSTEM.CONST>
0

>  <SCORE.SYSTEM.DIHEDRAL>
0

>  <SCORE.SYSTEM.SOLV>
0

>  <SCORE.SYSTEM.norm>
0

>  <SCORE.heavy>
31

>  <SCORE.norm>
2.26313

>  <RMSD>
15.986

$$$$
2o3x_lig
 OpenBabel11021811463D
libRbt.so/2013.1/901 2013/11/27
 31 33  0  0  0  0  0  0  0  0999 V2000
    7.4360   14.7953    6.5783 C   0  0  2  0  0  0  0  0  0  0  0  0
    7.9022   13.5156    6.1307 O   0  0  0  0  0  0  0  0  0  0  0  0
    7.4080   10.9446    2.7478 C   0  0  2  0  0  0  0  0  0  0  0  0
    6.9141   10.3164    1.5025 N   0  0  0  0  0  0  0  0  0  0  0  0
    9.3938   15.3423    3.0819 C   0  0  1  0  0  0  0  0  0  0  0  0
    6.7180   14.6050    7.9519 C   0  0  2  0  0  0  0  0  0  0  0  0
    7.5243   13.7904    8.8964 N   0  0  0  0  0  0  0  0  0  0  0  0
    6.3830   10.8074    3.9226 C   0  0  0  0  0  0  0  0  0  0  0  0
   10.0455   14.6945    1.8163 C   0  0  2  0  0  0  0  0  0  0  0  0
   11.0134   13.6387    2.0672 O   0  0  0  0  0  0  0  0  0  0  0  0
    5.3463   13.9239    7.7863 C   0  0  1  0  0  0  0  0  0  0  0  0
    4.6976   13.8093    9.0274 O   0  0  0  0  0  0  0  0  0  0  0  0
    7.0087   11.4750    5.2014 C   0  0  2  0  0  0  0  0  0  0  0  0
    6.0957   11.3693    6.3789 N   0  0  0  0  0  0  0  0  0  0  0  0
   10.5879   15.9614    1.1762 C   0  0  2  0  0  0  0  0  0  0  0  0
   11.8387   16.3850    1.8196 O   0  0  0  0  0  0  0  0  0  0  0  0
    4.4942   14.7183    6.8109 C   0  0  2  0  0  0  0  0  0  0  0  0
    3.2463   14.1177    6.6772 O   0  0  0  0  0  0  0  0  0  0  0  0
    7.3057   12.9794    4.9411 C   0  0  2  0  0  0  0  0  0  0  0  0
    9.4885   16.9957    1.3878 C   0  0  2  0  0  0  0  0  0  0  0  0
    9.1004   16.6990    2.7264 O   0  0  0  0  0  0  0  0  0  0  0  0
    5.2035   14.7969    5.4294 C   0  0  2  0  0  0  0  0  0  0  0  0
    6.5026   15.4077    5.5844 O   0  0  0  0  0  0  0  0  0  0  0  0
    8.2367   13.2173    3.7358 C   0  0  2  0  0  0  0  0  0  0  0  0
    8.1959   14.6683    3.4975 O   0  0  0  0  0  0  0  0  0  0  0  0
    8.2658   16.8669    0.4174 C   0  0  0  0  0  0  0  0  0  0  0  0
    7.5378   15.6759    0.7030 N   0  0  0  0  0  0  0  0  0  0  0  0
    4.4123   15.5931    4.4178 C   0  0  0  0  0  0  0  0  0  0  0  0
    5.0978   15.7234    3.2257 O   0  0  0  0  0  0  0  0  0  0  0  0
    7.7011   12.4282    2.4605 C   0  0  1  0  0  0  0  0  0  0  0  0
    8.6576   12.4507    1.3901 O   0  0  0  0  0  0  0  0  0  0  0  0
  1  2  1  6  0  0  0
  1  6  1  0  0  0  0
  1 23  1  0  0  0  0
  3  4  1  6  0  0  0
  3  8  1  0  0  0  0
  3 30  1  0  0  0  0
  5  9  1  0  0  0  0
  5 21  1  0  0  0  0
  5 25  1  6  0  0  0
  6  7  1  1  0  0  0
  6 11  1  0  0  0  0
  8 13  1  0  0  0  0
  9 10  1  1  0  0  0
  9 15  1  0  0  0  0
 11 12  1  1  0  0  0
 11 17  1  0  0  0  0
 13 14  1  1  0  0  0
 13 19  1  0  0  0  0
 15 16  1  1  0  0  0
 15 20  1  0  0  0  0
 17 18  1  6  0  0  0
 17 22  1  0  0  0  0
 19  2  1  1  0  0  0
 19 24  1  0  0  0  0
 20 21  1  0  0  0  0
 20 26  1  6  0  0  0
 22 23  1  0  0  0  0
 22 28  1  6  0  0  0
 24 25  1  6  0  0  0
 24 30  1  0  0  0  0
 26 27  1  0  0  0  0
 28 29  1  0  0  0  0
 30 31  1  6  0  0  0
M  END
>  <CHROM.1>
114.38125193,53.62533409,-136.09957079,68.25882774,176.13579266,143.20010041
7.41525957,14.14521236,4.17274736,3.14146175,-0.94068058,-2.88501827

>  <Name>
2o3x_lig

>  <RI>
3.65513e+07

>  <Rbt.Current_Directory>
/home/itssahil/PROJECTS/Mol_Feturizer/New_Systems/rnas/2o3x

>  <Rbt.Executable>
rbdock ($Id: //depot/dev/client3/rdock/2013.1/src/exe/rbdock.cxx#4 $)

>  <Rbt.Library>
libRbt.so (2013.1, Build901 2013/11/27)

>  <Rbt.Parameter_File>
/export/apps/rDock/src/rDock_2013.1_src/data/scripts/dock_solv.prm

>  <Rbt.Receptor>
prm/blind_docking_20.prm

>  <SCORE>
33.1769

>  <SCORE.INTER>
4.14689

>  <SCORE.INTER.CONST>
1

>  <SCORE.INTER.POLAR>
-0.305804

>  <SCORE.INTER.ROT>
6

>  <SCORE.INTER.SOLV>
19.6312

>  <SCORE.INTER.VDW>
-10.3598

>  <SCORE.INTER.norm>
0.133771

>  <SCORE.INTRA>
9.28129

>  <SCORE.INTRA.DIHEDRAL>
9.07373

>  <SCORE.INTRA.DIHEDRAL.0>
9.37739

>  <SCORE.INTRA.POLAR>
0

>  <SCORE.INTRA.POLAR.0>
0

>  <SCORE.INTRA.REPUL>
0

>  <SCORE.INTRA.REPUL.0>
0

>  <SCORE.INTRA.SOLV>
7.47712

>  <SCORE.INTRA.SOLV.lig_0>
-82.9274

>  <SCORE.INTRA.VDW>
1.00587

>  <SCORE.INTRA.VDW.0>
-3.84922

>  <SCORE.INTRA.norm>
0.299396

>  <SCORE.RESTR>
19.7487

>  <SCORE.RESTR.CAVITY>
19.7487

>  <SCORE.RESTR.norm>
0.637055

>  <SCORE.SYSTEM>
0

>  <SCORE.SYSTEM.CONST>
0

>  <SCORE.SYSTEM.DIHEDRAL>
0

>  <SCORE.SYSTEM.SOLV>
0

>  <SCORE.SYSTEM.norm>
0

>  <SCORE.heavy>
31

>  <SCORE.norm>
1.07022

>  <RMSD>
16.065

$$$$
2o3x_lig
 OpenBabel11021811463D
libRbt.so/2013.1/901 2013/11/27
 31 33  0  0  0  0  0  0  0  0999 V2000
    7.5697   14.9668    6.1948 C   0  0  2  0  0  0  0  0  0  0  0  0
    8.1130   13.7258    5.7255 O   0  0  0  0  0  0  0  0  0  0  0  0
    7.3383   10.8267    2.6770 C   0  0  2  0  0  0  0  0  0  0  0  0
    6.7251   10.0608    1.5694 N   0  0  0  0  0  0  0  0  0  0  0  0
    8.4923   15.1030    1.7243 C   0  0  1  0  0  0  0  0  0  0  0  0
    6.8177   14.6990    7.5369 C   0  0  2  0  0  0  0  0  0  0  0  0
    7.6320   13.8951    8.4837 N   0  0  0  0  0  0  0  0  0  0  0  0
    6.4856   10.7512    3.9872 C   0  0  0  0  0  0  0  0  0  0  0  0
    8.8145   16.6335    1.7268 C   0  0  2  0  0  0  0  0  0  0  0  0
    7.7231   17.5154    1.3451 O   0  0  0  0  0  0  0  0  0  0  0  0
    5.4875   13.9579    7.3045 C   0  0  1  0  0  0  0  0  0  0  0  0
    4.8051   13.7732    8.5188 O   0  0  0  0  0  0  0  0  0  0  0  0
    7.2312   11.5658    5.1066 C   0  0  2  0  0  0  0  0  0  0  0  0
    6.4878   11.5273    6.4016 N   0  0  0  0  0  0  0  0  0  0  0  0
   10.0118   16.6070    0.7917 C   0  0  2  0  0  0  0  0  0  0  0  0
    9.5851   16.5203   -0.6112 O   0  0  0  0  0  0  0  0  0  0  0  0
    4.6293   14.7404    6.3247 C   0  0  2  0  0  0  0  0  0  0  0  0
    3.4177   14.0847    6.1308 O   0  0  0  0  0  0  0  0  0  0  0  0
    7.3998   13.0516    4.6788 C   0  0  2  0  0  0  0  0  0  0  0  0
   10.7887   15.3619    1.2031 C   0  0  2  0  0  0  0  0  0  0  0  0
    9.7218   14.4395    1.4063 O   0  0  0  0  0  0  0  0  0  0  0  0
    5.3785   14.8965    4.9711 C   0  0  2  0  0  0  0  0  0  0  0  0
    6.6402   15.5642    5.1883 O   0  0  0  0  0  0  0  0  0  0  0  0
    8.1495   13.2198    3.3424 C   0  0  2  0  0  0  0  0  0  0  0  0
    7.9899   14.6382    2.9867 O   0  0  0  0  0  0  0  0  0  0  0  0
   11.6403   15.5168    2.5085 C   0  0  0  0  0  0  0  0  0  0  0  0
   10.7912   15.4927    3.6523 N   0  0  0  0  0  0  0  0  0  0  0  0
    4.5823   15.6848    3.9573 C   0  0  0  0  0  0  0  0  0  0  0  0
    5.2746   15.8319    2.7711 O   0  0  0  0  0  0  0  0  0  0  0  0
    7.5009   12.2891    2.2249 C   0  0  1  0  0  0  0  0  0  0  0  0
    8.3063   12.2571    1.0368 O   0  0  0  0  0  0  0  0  0  0  0  0
  1  2  1  6  0  0  0
  1  6  1  0  0  0  0
  1 23  1  0  0  0  0
  3  4  1  6  0  0  0
  3  8  1  0  0  0  0
  3 30  1  0  0  0  0
  5  9  1  0  0  0  0
  5 21  1  0  0  0  0
  5 25  1  1  0  0  0
  6  7  1  1  0  0  0
  6 11  1  0  0  0  0
  8 13  1  0  0  0  0
  9 10  1  6  0  0  0
  9 15  1  0  0  0  0
 11 12  1  1  0  0  0
 11 17  1  0  0  0  0
 13 14  1  1  0  0  0
 13 19  1  0  0  0  0
 15 16  1  6  0  0  0
 15 20  1  0  0  0  0
 17 18  1  6  0  0  0
 17 22  1  0  0  0  0
 19  2  1  1  0  0  0
 19 24  1  0  0  0  0
 20 21  1  0  0  0  0
 20 26  1  1  0  0  0
 22 23  1  0  0  0  0
 22 28  1  6  0  0  0
 24 25  1  6  0  0  0
 24 30  1  0  0  0  0
 26 27  1  0  0  0  0
 28 29  1  0  0  0  0
 30 31  1  6  0  0  0
M  END
>  <CHROM.1>
101.12473440,-155.40808773,-131.13023654,75.17278784,178.94404931,-175.17366171
7.45232546,14.19881641,3.87577206,3.08224660,-0.97894369,-2.89670353

>  <Name>
2o3x_lig

>  <RI>
3.65513e+07

>  <Rbt.Current_Directory>
/home/itssahil/PROJECTS/Mol_Feturizer/New_Systems/rnas/2o3x

>  <Rbt.Executable>
rbdock ($Id: //depot/dev/client3/rdock/2013.1/src/exe/rbdock.cxx#4 $)

>  <Rbt.Library>
libRbt.so (2013.1, Build901 2013/11/27)

>  <Rbt.Parameter_File>
/export/apps/rDock/src/rDock_2013.1_src/data/scripts/dock_solv.prm

>  <Rbt.Receptor>
prm/blind_docking_20.prm

>  <SCORE>
33.4714

>  <SCORE.INTER>
4.78339

>  <SCORE.INTER.CONST>
1

>  <SCORE.INTER.POLAR>
-0.0374097

>  <SCORE.INTER.ROT>
6

>  <SCORE.INTER.SOLV>
22.3916

>  <SCORE.INTER.VDW>
-11.7502

>  <SCORE.INTER.norm>
0.154303

>  <SCORE.INTRA>
8.46222

>  <SCORE.INTRA.DIHEDRAL>
6.33101

>  <SCORE.INTRA.DIHEDRAL.0>
9.37739

>  <SCORE.INTRA.POLAR>
0

>  <SCORE.INTRA.POLAR.0>
0

>  <SCORE.INTRA.REPUL>
0

>  <SCORE.INTRA.REPUL.0>
0

>  <SCORE.INTRA.SOLV>
8.07671

>  <SCORE.INTRA.SOLV.lig_0>
-82.9274

>  <SCORE.INTRA.VDW>
1.25836

>  <SCORE.INTRA.VDW.0>
-3.84922

>  <SCORE.INTRA.norm>
0.272975

>  <SCORE.RESTR>
20.2258

>  <SCORE.RESTR.CAVITY>
20.2258

>  <SCORE.RESTR.norm>
0.652444

>  <SCORE.SYSTEM>
0

>  <SCORE.SYSTEM.CONST>
0

>  <SCORE.SYSTEM.DIHEDRAL>
0

>  <SCORE.SYSTEM.SOLV>
0

>  <SCORE.SYSTEM.norm>
0

>  <SCORE.heavy>
31

>  <SCORE.norm>
1.07972

>  <RMSD>
16.097

$$$$
2o3x_lig
 OpenBabel11021811463D
libRbt.so/2013.1/901 2013/11/27
 31 33  0  0  0  0  0  0  0  0999 V2000
    7.6962   13.5429    4.4309 C   0  0  2  0  0  0  0  0  0  0  0  0
    6.7549   14.1435    3.5315 O   0  0  0  0  0  0  0  0  0  0  0  0
    6.8523   17.7522    1.2367 C   0  0  2  0  0  0  0  0  0  0  0  0
    7.0124   19.1606    0.8123 N   0  0  0  0  0  0  0  0  0  0  0  0
   10.1854   14.3948    2.7976 C   0  0  1  0  0  0  0  0  0  0  0  0
    7.3875   12.0147    4.5183 C   0  0  2  0  0  0  0  0  0  0  0  0
    7.2195   11.4002    3.1767 N   0  0  0  0  0  0  0  0  0  0  0  0
    5.6898   17.5774    2.2698 C   0  0  0  0  0  0  0  0  0  0  0  0
    9.7898   13.7450    1.4311 C   0  0  2  0  0  0  0  0  0  0  0  0
    8.8612   12.6282    1.5013 O   0  0  0  0  0  0  0  0  0  0  0  0
    6.1089   11.7391    5.3320 C   0  0  1  0  0  0  0  0  0  0  0  0
    5.8793   10.3571    5.4403 O   0  0  0  0  0  0  0  0  0  0  0  0
    5.5806   16.0516    2.6336 C   0  0  2  0  0  0  0  0  0  0  0  0
    4.4757   15.7962    3.6058 N   0  0  0  0  0  0  0  0  0  0  0  0
   11.1872   13.4230    0.9287 C   0  0  2  0  0  0  0  0  0  0  0  0
   11.7072   12.2022    1.5588 O   0  0  0  0  0  0  0  0  0  0  0  0
    6.2326   12.3683    6.7095 C   0  0  2  0  0  0  0  0  0  0  0  0
    5.0883   12.1012    7.4545 O   0  0  0  0  0  0  0  0  0  0  0  0
    6.9122   15.5427    3.2556 C   0  0  2  0  0  0  0  0  0  0  0  0
   12.0218   14.6367    1.3206 C   0  0  2  0  0  0  0  0  0  0  0  0
   11.5184   14.8926    2.6288 O   0  0  0  0  0  0  0  0  0  0  0  0
    6.4397   13.9034    6.5745 C   0  0  2  0  0  0  0  0  0  0  0  0
    7.6209   14.1669    5.7869 O   0  0  0  0  0  0  0  0  0  0  0  0
    8.1345   15.7618    2.3422 C   0  0  2  0  0  0  0  0  0  0  0  0
    9.3032   15.4602    3.1832 O   0  0  0  0  0  0  0  0  0  0  0  0
   11.8337   15.8913    0.4018 C   0  0  0  0  0  0  0  0  0  0  0  0
   12.5594   16.9977    0.9300 N   0  0  0  0  0  0  0  0  0  0  0  0
    6.5892   14.5866    7.9140 C   0  0  0  0  0  0  0  0  0  0  0  0
    7.6833   14.1086    8.6085 O   0  0  0  0  0  0  0  0  0  0  0  0
    8.1846   17.2721    1.8401 C   0  0  1  0  0  0  0  0  0  0  0  0
    9.1783   17.4529    0.8198 O   0  0  0  0  0  0  0  0  0  0  0  0
  1  2  1  6  0  0  0
  1  6  1  0  0  0  0
  1 23  1  0  0  0  0
  3  4  1  1  0  0  0
  3  8  1  0  0  0  0
  3 30  1  0  0  0  0
  5  9  1  0  0  0  0
  5 21  1  0  0  0  0
  5 25  1  6  0  0  0
  6  7  1  6  0  0  0
  6 11  1  0  0  0  0
  8 13  1  0  0  0  0
  9 10  1  1  0  0  0
  9 15  1  0  0  0  0
 11 12  1  1  0  0  0
 11 17  1  0  0  0  0
 13 14  1  1  0  0  0
 13 19  1  0  0  0  0
 15 16  1  1  0  0  0
 15 20  1  0  0  0  0
 17 18  1  1  0  0  0
 17 22  1  0  0  0  0
 19  2  1  6  0  0  0
 19 24  1  0  0  0  0
 20 21  1  0  0  0  0
 20 26  1  6  0  0  0
 22 23  1  0  0  0  0
 22 28  1  1  0  0  0
 24 25  1  1  0  0  0
 24 30  1  0  0  0  0
 26 27  1  0  0  0  0
 28 29  1  0  0  0  0
 30 31  1  6  0  0  0
M  END
>  <CHROM.1>
-176.77781950,3.49882899,-163.26327889,174.56346642,60.70293573,119.35384395
8.13198656,14.51822812,3.42104755,-2.29043848,0.55699925,-0.59540170

>  <Name>
2o3x_lig

>  <RI>
3.65513e+07

>  <Rbt.Current_Directory>
/home/itssahil/PROJECTS/Mol_Feturizer/New_Systems/rnas/2o3x

>  <Rbt.Executable>
rbdock ($Id: //depot/dev/client3/rdock/2013.1/src/exe/rbdock.cxx#4 $)

>  <Rbt.Library>
libRbt.so (2013.1, Build901 2013/11/27)

>  <Rbt.Parameter_File>
/export/apps/rDock/src/rDock_2013.1_src/data/scripts/dock_solv.prm

>  <Rbt.Receptor>
prm/blind_docking_20.prm

>  <SCORE>
23.3827

>  <SCORE.INTER>
-0.0493755

>  <SCORE.INTER.CONST>
1

>  <SCORE.INTER.POLAR>
0

>  <SCORE.INTER.ROT>
6

>  <SCORE.INTER.SOLV>
18.5238

>  <SCORE.INTER.VDW>
-13.8075

>  <SCORE.INTER.norm>
-0.00159276

>  <SCORE.INTRA>
5.06379

>  <SCORE.INTRA.DIHEDRAL>
6.56719

>  <SCORE.INTRA.DIHEDRAL.0>
9.37739

>  <SCORE.INTRA.POLAR>
0

>  <SCORE.INTRA.POLAR.0>
0

>  <SCORE.INTRA.REPUL>
0

>  <SCORE.INTRA.REPUL.0>
0

>  <SCORE.INTRA.SOLV>
1.20682

>  <SCORE.INTRA.SOLV.lig_0>
-82.9274

>  <SCORE.INTRA.VDW>
1.17679

>  <SCORE.INTRA.VDW.0>
-3.84922

>  <SCORE.INTRA.norm>
0.163348

>  <SCORE.RESTR>
18.3683

>  <SCORE.RESTR.CAVITY>
18.3683

>  <SCORE.RESTR.norm>
0.592525

>  <SCORE.SYSTEM>
0

>  <SCORE.SYSTEM.CONST>
0

>  <SCORE.SYSTEM.DIHEDRAL>
0

>  <SCORE.SYSTEM.SOLV>
0

>  <SCORE.SYSTEM.norm>
0

>  <SCORE.heavy>
31

>  <SCORE.norm>
0.754281

>  <RMSD>
16.110

$$$$
2o3x_lig
 OpenBabel11021811463D
libRbt.so/2013.1/901 2013/11/27
 31 33  0  0  0  0  0  0  0  0999 V2000
    7.4194   15.3889    5.1134 C   0  0  2  0  0  0  0  0  0  0  0  0
    8.7091   14.9017    4.7199 O   0  0  0  0  0  0  0  0  0  0  0  0
   10.7877   13.7965    1.1484 C   0  0  2  0  0  0  0  0  0  0  0  0
   11.1671   13.5887   -0.2667 N   0  0  0  0  0  0  0  0  0  0  0  0
    8.3312   17.3158    2.2333 C   0  0  1  0  0  0  0  0  0  0  0  0
    6.9547   14.5911    6.3728 C   0  0  2  0  0  0  0  0  0  0  0  0
    8.0149   14.5163    7.4101 N   0  0  0  0  0  0  0  0  0  0  0  0
    9.5326   12.9528    1.5511 C   0  0  0  0  0  0  0  0  0  0  0  0
    8.3321   18.7516    1.6133 C   0  0  2  0  0  0  0  0  0  0  0  0
    7.8265   19.8149    2.4667 O   0  0  0  0  0  0  0  0  0  0  0  0
    6.5387   13.1525    6.0121 C   0  0  1  0  0  0  0  0  0  0  0  0
    6.0769   12.4707    7.1507 O   0  0  0  0  0  0  0  0  0  0  0  0
    9.2293   13.2175    3.0711 C   0  0  2  0  0  0  0  0  0  0  0  0
    8.0502   12.4301    3.5413 N   0  0  0  0  0  0  0  0  0  0  0  0
    7.5195   18.4519    0.3649 C   0  0  2  0  0  0  0  0  0  0  0  0
    6.0837   18.3940    0.6699 O   0  0  0  0  0  0  0  0  0  0  0  0
    5.4648   13.1837    4.9376 C   0  0  2  0  0  0  0  0  0  0  0  0
    5.0710   11.8861    4.6266 O   0  0  0  0  0  0  0  0  0  0  0  0
    8.9437   14.7267    3.3153 C   0  0  2  0  0  0  0  0  0  0  0  0
    8.0317   17.0959   -0.1064 C   0  0  2  0  0  0  0  0  0  0  0  0
    8.1494   16.4108    1.1374 O   0  0  0  0  0  0  0  0  0  0  0  0
    6.0060   13.8999    3.6680 C   0  0  2  0  0  0  0  0  0  0  0  0
    6.4253   15.2393    4.0073 O   0  0  0  0  0  0  0  0  0  0  0  0
   10.0933   15.6464    2.8582 C   0  0  2  0  0  0  0  0  0  0  0  0
    9.5481   17.0107    2.9319 O   0  0  0  0  0  0  0  0  0  0  0  0
    9.4106   17.1330   -0.8485 C   0  0  0  0  0  0  0  0  0  0  0  0
    9.7570   15.8279   -1.3029 N   0  0  0  0  0  0  0  0  0  0  0  0
    4.9752   13.9804    2.5660 C   0  0  0  0  0  0  0  0  0  0  0  0
    5.4930   14.5681    1.4283 O   0  0  0  0  0  0  0  0  0  0  0  0
   10.5189   15.2967    1.3641 C   0  0  1  0  0  0  0  0  0  0  0  0
   11.7239   15.9808    0.9884 O   0  0  0  0  0  0  0  0  0  0  0  0
  1  2  1  6  0  0  0
  1  6  1  0  0  0  0
  1 23  1  0  0  0  0
  3  4  1  6  0  0  0
  3  8  1  0  0  0  0
  3 30  1  0  0  0  0
  5  9  1  0  0  0  0
  5 21  1  0  0  0  0
  5 25  1  6  0  0  0
  6  7  1  1  0  0  0
  6 11  1  0  0  0  0
  8 13  1  0  0  0  0
  9 10  1  1  0  0  0
  9 15  1  0  0  0  0
 11 12  1  1  0  0  0
 11 17  1  0  0  0  0
 13 14  1  6  0  0  0
 13 19  1  0  0  0  0
 15 16  1  1  0  0  0
 15 20  1  0  0  0  0
 17 18  1  6  0  0  0
 17 22  1  0  0  0  0
 19  2  1  1  0  0  0
 19 24  1  0  0  0  0
 20 21  1  0  0  0  0
 20 26  1  1  0  0  0
 22 23  1  0  0  0  0
 22 28  1  6  0  0  0
 24 25  1  6  0  0  0
 24 30  1  0  0  0  0
 26 27  1  0  0  0  0
 28 29  1  0  0  0  0
 30 31  1  1  0  0  0
M  END
>  <CHROM.1>
138.45679198,-142.95746627,-118.14410610,-177.00066610,-177.41742082,-54.58588010
8.04249925,15.23064639,2.73778004,2.11903227,-0.65345606,2.54792221

>  <Name>
2o3x_lig

>  <RI>
3.65513e+07

>  <Rbt.Current_Directory>
/home/itssahil/PROJECTS/Mol_Feturizer/New_Systems/rnas/2o3x

>  <Rbt.Executable>
rbdock ($Id: //depot/dev/client3/rdock/2013.1/src/exe/rbdock.cxx#4 $)

>  <Rbt.Library>
libRbt.so (2013.1, Build901 2013/11/27)

>  <Rbt.Parameter_File>
/export/apps/rDock/src/rDock_2013.1_src/data/scripts/dock_solv.prm

>  <Rbt.Receptor>
prm/blind_docking_20.prm

>  <SCORE>
50.7774

>  <SCORE.INTER>
17.0877

>  <SCORE.INTER.CONST>
1

>  <SCORE.INTER.POLAR>
-1.2996

>  <SCORE.INTER.ROT>
6

>  <SCORE.INTER.SOLV>
16.8639

>  <SCORE.INTER.VDW>
2.50248

>  <SCORE.INTER.norm>
0.551216

>  <SCORE.INTRA>
12.6756

>  <SCORE.INTRA.DIHEDRAL>
8.61338

>  <SCORE.INTRA.DIHEDRAL.0>
9.37739

>  <SCORE.INTRA.POLAR>
0

>  <SCORE.INTRA.POLAR.0>
0

>  <SCORE.INTRA.REPUL>
0.0686434

>  <SCORE.INTRA.REPUL.0>
0

>  <SCORE.INTRA.SOLV>
9.8701

>  <SCORE.INTRA.SOLV.lig_0>
-82.9274

>  <SCORE.INTRA.VDW>
3.09067

>  <SCORE.INTRA.VDW.0>
-3.84922

>  <SCORE.INTRA.norm>
0.408891

>  <SCORE.RESTR>
21.0141

>  <SCORE.RESTR.CAVITY>
21.0141

>  <SCORE.RESTR.norm>
0.677875

>  <SCORE.SYSTEM>
0

>  <SCORE.SYSTEM.CONST>
0

>  <SCORE.SYSTEM.DIHEDRAL>
0

>  <SCORE.SYSTEM.SOLV>
0

>  <SCORE.SYSTEM.norm>
0

>  <SCORE.heavy>
31

>  <SCORE.norm>
1.63798

>  <RMSD>
16.110

$$$$
2o3x_lig
 OpenBabel11021811463D
libRbt.so/2013.1/901 2013/11/27
 31 33  0  0  0  0  0  0  0  0999 V2000
    7.6847   13.5586    4.4125 C   0  0  2  0  0  0  0  0  0  0  0  0
    6.7551   14.1608    3.5023 O   0  0  0  0  0  0  0  0  0  0  0  0
    6.8753   17.7711    1.2111 C   0  0  2  0  0  0  0  0  0  0  0  0
    7.0416   19.1795    0.7889 N   0  0  0  0  0  0  0  0  0  0  0  0
   10.1912   14.4044    2.7876 C   0  0  1  0  0  0  0  0  0  0  0  0
    7.3686   12.0320    4.5011 C   0  0  2  0  0  0  0  0  0  0  0  0
    7.2112   11.4145    3.1596 N   0  0  0  0  0  0  0  0  0  0  0  0
    5.7064   17.5986    2.2374 C   0  0  0  0  0  0  0  0  0  0  0  0
    9.7898   13.7436    1.4281 C   0  0  2  0  0  0  0  0  0  0  0  0
    8.8638   12.6256    1.5114 O   0  0  0  0  0  0  0  0  0  0  0  0
    6.0808   11.7642    5.3028 C   0  0  1  0  0  0  0  0  0  0  0  0
    5.8442   10.3835    5.4126 O   0  0  0  0  0  0  0  0  0  0  0  0
    5.5910   16.0728    2.5992 C   0  0  2  0  0  0  0  0  0  0  0  0
    4.4798   15.8195    3.5648 N   0  0  0  0  0  0  0  0  0  0  0  0
   11.1853   13.4205    0.9210 C   0  0  2  0  0  0  0  0  0  0  0  0
   11.7109   12.2055    1.5575 O   0  0  0  0  0  0  0  0  0  0  0  0
    6.1936   12.3967    6.6798 C   0  0  2  0  0  0  0  0  0  0  0  0
    5.0408   12.1365    7.4141 O   0  0  0  0  0  0  0  0  0  0  0  0
    6.9177   15.5598    3.2284 C   0  0  2  0  0  0  0  0  0  0  0  0
   12.0194   14.6388    1.2994 C   0  0  2  0  0  0  0  0  0  0  0  0
   11.5222   14.9035    2.6083 O   0  0  0  0  0  0  0  0  0  0  0  0
    6.4087   13.9305    6.5426 C   0  0  2  0  0  0  0  0  0  0  0  0
    7.5987   14.1867    5.7661 O   0  0  0  0  0  0  0  0  0  0  0  0
    8.1458   15.7764    2.3223 C   0  0  2  0  0  0  0  0  0  0  0  0
    9.3088   15.4709    3.1697 O   0  0  0  0  0  0  0  0  0  0  0  0
   11.8242   15.8860    0.3723 C   0  0  0  0  0  0  0  0  0  0  0  0
   12.5569   16.9956    0.8841 N   0  0  0  0  0  0  0  0  0  0  0  0
    6.5478   14.6167    7.8816 C   0  0  0  0  0  0  0  0  0  0  0  0
    7.6385   14.1427    8.5843 O   0  0  0  0  0  0  0  0  0  0  0  0
    8.2028   17.2870    1.8218 C   0  0  1  0  0  0  0  0  0  0  0  0
    9.2028   17.4660    0.8074 O   0  0  0  0  0  0  0  0  0  0  0  0
  1  2  1  6  0  0  0
  1  6  1  0  0  0  0
  1 23  1  0  0  0  0
  3  4  1  1  0  0  0
  3  8  1  0  0  0  0
  3 30  1  0  0  0  0
  5  9  1  0  0  0  0
  5 21  1  0  0  0  0
  5 25  1  6  0  0  0
  6  7  1  6  0  0  0
  6 11  1  0  0  0  0
  8 13  1  0  0  0  0
  9 10  1  1  0  0  0
  9 15  1  0  0  0  0
 11 12  1  1  0  0  0
 11 17  1  0  0  0  0
 13 14  1  1  0  0  0
 13 19  1  0  0  0  0
 15 16  1  1  0  0  0
 15 20  1  0  0  0  0
 17 18  1  1  0  0  0
 17 22  1  0  0  0  0
 19  2  1  6  0  0  0
 19 24  1  0  0  0  0
 20 21  1  0  0  0  0
 20 26  1  6  0  0  0
 22 23  1  0  0  0  0
 22 28  1  1  0  0  0
 24 25  1  1  0  0  0
 24 30  1  0  0  0  0
 26 27  1  0  0  0  0
 28 29  1  0  0  0  0
 30 31  1  6  0  0  0
M  END
>  <CHROM.1>
-177.03388137,2.64078734,-162.90954877,174.90907834,61.13038928,119.41650945
8.12590484,14.53368617,3.39875688,-2.30023762,0.55868072,-0.58925624

>  <Name>
2o3x_lig

>  <RI>
3.65513e+07

>  <Rbt.Current_Directory>
/home/itssahil/PROJECTS/Mol_Feturizer/New_Systems/rnas/2o3x

>  <Rbt.Executable>
rbdock ($Id: //depot/dev/client3/rdock/2013.1/src/exe/rbdock.cxx#4 $)

>  <Rbt.Library>
libRbt.so (2013.1, Build901 2013/11/27)

>  <Rbt.Parameter_File>
/export/apps/rDock/src/rDock_2013.1_src/data/scripts/dock_solv.prm

>  <Rbt.Receptor>
prm/blind_docking_20.prm

>  <SCORE>
23.4449

>  <SCORE.INTER>
-0.0646687

>  <SCORE.INTER.CONST>
1

>  <SCORE.INTER.POLAR>
0

>  <SCORE.INTER.ROT>
6

>  <SCORE.INTER.SOLV>
18.1709

>  <SCORE.INTER.VDW>
-13.7001

>  <SCORE.INTER.norm>
-0.00208609

>  <SCORE.INTRA>
5.12679

>  <SCORE.INTRA.DIHEDRAL>
6.62647

>  <SCORE.INTRA.DIHEDRAL.0>
9.37739

>  <SCORE.INTRA.POLAR>
0

>  <SCORE.INTRA.POLAR.0>
0

>  <SCORE.INTRA.REPUL>
0

>  <SCORE.INTRA.REPUL.0>
0

>  <SCORE.INTRA.SOLV>
1.25917

>  <SCORE.INTRA.SOLV.lig_0>
-82.9274

>  <SCORE.INTRA.VDW>
1.18397

>  <SCORE.INTRA.VDW.0>
-3.84922

>  <SCORE.INTRA.norm>
0.16538

>  <SCORE.RESTR>
18.3828

>  <SCORE.RESTR.CAVITY>
18.3828

>  <SCORE.RESTR.norm>
0.592994

>  <SCORE.SYSTEM>
0

>  <SCORE.SYSTEM.CONST>
0

>  <SCORE.SYSTEM.DIHEDRAL>
0

>  <SCORE.SYSTEM.SOLV>
0

>  <SCORE.SYSTEM.norm>
0

>  <SCORE.heavy>
31

>  <SCORE.norm>
0.756288

>  <RMSD>
16.122

$$$$
2o3x_lig
 OpenBabel11021811463D
libRbt.so/2013.1/901 2013/11/27
 31 33  0  0  0  0  0  0  0  0999 V2000
    7.6720   13.6056    4.4929 C   0  0  2  0  0  0  0  0  0  0  0  0
    6.6939   14.2019    3.6308 O   0  0  0  0  0  0  0  0  0  0  0  0
    6.8297   17.7418    1.2330 C   0  0  2  0  0  0  0  0  0  0  0  0
    6.9979   19.1370    0.7700 N   0  0  0  0  0  0  0  0  0  0  0  0
   10.2010   14.5091    2.8778 C   0  0  1  0  0  0  0  0  0  0  0  0
    7.4158   12.0658    4.5375 C   0  0  2  0  0  0  0  0  0  0  0  0
    7.2418   11.4881    3.1804 N   0  0  0  0  0  0  0  0  0  0  0  0
    5.6521   17.5985    2.2538 C   0  0  0  0  0  0  0  0  0  0  0  0
    9.8727   13.8877    1.4806 C   0  0  2  0  0  0  0  0  0  0  0  0
    9.0117   12.7160    1.4903 O   0  0  0  0  0  0  0  0  0  0  0  0
    6.1632   11.7222    5.3657 C   0  0  1  0  0  0  0  0  0  0  0  0
    5.9816   10.3306    5.4343 O   0  0  0  0  0  0  0  0  0  0  0  0
    5.5354   16.0840    2.6604 C   0  0  2  0  0  0  0  0  0  0  0  0
    4.4161   15.8583    3.6234 N   0  0  0  0  0  0  0  0  0  0  0  0
   11.2968   13.6678    0.9984 C   0  0  2  0  0  0  0  0  0  0  0  0
   11.8764   12.4577    1.5961 O   0  0  0  0  0  0  0  0  0  0  0  0
    6.2931   12.3120    6.7599 C   0  0  2  0  0  0  0  0  0  0  0  0
    5.1731   11.9834    7.5172 O   0  0  0  0  0  0  0  0  0  0  0  0
    6.8571   15.5922    3.3164 C   0  0  2  0  0  0  0  0  0  0  0  0
   12.0489   14.9136    1.4517 C   0  0  2  0  0  0  0  0  0  0  0  0
   11.5048   15.0909    2.7566 O   0  0  0  0  0  0  0  0  0  0  0  0
    6.4466   13.8567    6.6699 C   0  0  2  0  0  0  0  0  0  0  0  0
    7.6028   14.1842    5.8693 O   0  0  0  0  0  0  0  0  0  0  0  0
    8.0929   15.7833    2.4149 C   0  0  2  0  0  0  0  0  0  0  0  0
    9.2488   15.5053    3.2813 O   0  0  0  0  0  0  0  0  0  0  0  0
   11.8044   16.1878    0.5741 C   0  0  0  0  0  0  0  0  0  0  0  0
   12.0654   15.8960   -0.7957 N   0  0  0  0  0  0  0  0  0  0  0  0
    6.5998   14.5025    8.0274 C   0  0  0  0  0  0  0  0  0  0  0  0
    7.7380   14.0616    8.6740 O   0  0  0  0  0  0  0  0  0  0  0  0
    8.1524   17.2783    1.8696 C   0  0  1  0  0  0  0  0  0  0  0  0
    9.1610   17.4281    0.8590 O   0  0  0  0  0  0  0  0  0  0  0  0
  1  2  1  6  0  0  0
  1  6  1  0  0  0  0
  1 23  1  0  0  0  0
  3  4  1  1  0  0  0
  3  8  1  0  0  0  0
  3 30  1  0  0  0  0
  5  9  1  0  0  0  0
  5 21  1  0  0  0  0
  5 25  1  6  0  0  0
  6  7  1  6  0  0  0
  6 11  1  0  0  0  0
  8 13  1  0  0  0  0
  9 10  1  1  0  0  0
  9 15  1  0  0  0  0
 11 12  1  1  0  0  0
 11 17  1  0  0  0  0
 13 14  1  1  0  0  0
 13 19  1  0  0  0  0
 15 16  1  1  0  0  0
 15 20  1  0  0  0  0
 17 18  1  1  0  0  0
 17 22  1  0  0  0  0
 19  2  1  6  0  0  0
 19 24  1  0  0  0  0
 20 21  1  0  0  0  0
 20 26  1  6  0  0  0
 22 23  1  0  0  0  0
 22 28  1  1  0  0  0
 24 25  1  1  0  0  0
 24 30  1  0  0  0  0
 26 27  1  0  0  0  0
 28 29  1  0  0  0  0
 30 31  1  6  0  0  0
M  END
>  <CHROM.1>
-172.23788815,2.51074726,-167.19856314,-53.41500442,61.99447192,124.90077046
8.13210890,14.53663646,3.41868449,-2.26168650,0.56216487,-0.64800187

>  <Name>
2o3x_lig

>  <RI>
3.65513e+07

>  <Rbt.Current_Directory>
/home/itssahil/PROJECTS/Mol_Feturizer/New_Systems/rnas/2o3x

>  <Rbt.Executable>
rbdock ($Id: //depot/dev/client3/rdock/2013.1/src/exe/rbdock.cxx#4 $)

>  <Rbt.Library>
libRbt.so (2013.1, Build901 2013/11/27)

>  <Rbt.Parameter_File>
/export/apps/rDock/src/rDock_2013.1_src/data/scripts/dock_solv.prm

>  <Rbt.Receptor>
prm/blind_docking_20.prm

>  <SCORE>
22.7811

>  <SCORE.INTER>
-0.806128

>  <SCORE.INTER.CONST>
1

>  <SCORE.INTER.POLAR>
0

>  <SCORE.INTER.ROT>
6

>  <SCORE.INTER.SOLV>
15.6882

>  <SCORE.INTER.VDW>
-13.3668

>  <SCORE.INTER.norm>
-0.0260041

>  <SCORE.INTRA>
5.21004

>  <SCORE.INTRA.DIHEDRAL>
6.24589

>  <SCORE.INTRA.DIHEDRAL.0>
9.37739

>  <SCORE.INTRA.POLAR>
0

>  <SCORE.INTRA.POLAR.0>
0

>  <SCORE.INTRA.REPUL>
0

>  <SCORE.INTRA.REPUL.0>
0

>  <SCORE.INTRA.SOLV>
1.0297

>  <SCORE.INTRA.SOLV.lig_0>
-82.9274

>  <SCORE.INTRA.VDW>
1.57224

>  <SCORE.INTRA.VDW.0>
-3.84922

>  <SCORE.INTRA.norm>
0.168066

>  <SCORE.RESTR>
18.3772

>  <SCORE.RESTR.CAVITY>
18.3772

>  <SCORE.RESTR.norm>
0.592813

>  <SCORE.SYSTEM>
0

>  <SCORE.SYSTEM.CONST>
0

>  <SCORE.SYSTEM.DIHEDRAL>
0

>  <SCORE.SYSTEM.SOLV>
0

>  <SCORE.SYSTEM.norm>
0

>  <SCORE.heavy>
31

>  <SCORE.norm>
0.734875

>  <RMSD>
16.139

$$$$
2o3x_lig
 OpenBabel11021811463D
libRbt.so/2013.1/901 2013/11/27
 31 33  0  0  0  0  0  0  0  0999 V2000
    7.8270   13.4473    4.3757 C   0  0  2  0  0  0  0  0  0  0  0  0
    6.8857   14.0261    3.4622 O   0  0  0  0  0  0  0  0  0  0  0  0
    6.7041   17.7050    1.2873 C   0  0  2  0  0  0  0  0  0  0  0  0
    6.7970   19.1292    0.8968 N   0  0  0  0  0  0  0  0  0  0  0  0
   10.1037   14.2276    2.5904 C   0  0  1  0  0  0  0  0  0  0  0  0
    7.5139   11.9229    4.5055 C   0  0  2  0  0  0  0  0  0  0  0  0
    7.3412   11.2726    3.1815 N   0  0  0  0  0  0  0  0  0  0  0  0
    5.6427   17.4718    2.4136 C   0  0  0  0  0  0  0  0  0  0  0  0
    9.8175   13.7338    1.1343 C   0  0  2  0  0  0  0  0  0  0  0  0
    8.7143   12.7987    0.9835 O   0  0  0  0  0  0  0  0  0  0  0  0
    6.2361   11.6736    5.3290 C   0  0  1  0  0  0  0  0  0  0  0  0
    6.0026   10.2958    5.4753 O   0  0  0  0  0  0  0  0  0  0  0  0
    5.5973   15.9334    2.7354 C   0  0  2  0  0  0  0  0  0  0  0  0
    4.5895   15.6228    3.7932 N   0  0  0  0  0  0  0  0  0  0  0  0
   11.2007   13.1950    0.8097 C   0  0  2  0  0  0  0  0  0  0  0  0
   11.4050   11.8687    1.4072 O   0  0  0  0  0  0  0  0  0  0  0  0
    6.3646   12.3398    6.6885 C   0  0  2  0  0  0  0  0  0  0  0  0
    5.2210   12.0966    7.4428 O   0  0  0  0  0  0  0  0  0  0  0  0
    6.9894   15.4363    3.2194 C   0  0  2  0  0  0  0  0  0  0  0  0
   12.1582   14.2171    1.4109 C   0  0  2  0  0  0  0  0  0  0  0  0
   11.5114   14.4878    2.6514 O   0  0  0  0  0  0  0  0  0  0  0  0
    6.5761   13.8700    6.5113 C   0  0  2  0  0  0  0  0  0  0  0  0
    7.7564   14.1082    5.7144 O   0  0  0  0  0  0  0  0  0  0  0  0
    8.1201   15.7115    2.2085 C   0  0  2  0  0  0  0  0  0  0  0  0
    9.3654   15.4111    2.9317 O   0  0  0  0  0  0  0  0  0  0  0  0
   12.3270   15.5329    0.5781 C   0  0  0  0  0  0  0  0  0  0  0  0
   11.0805   16.2167    0.4856 N   0  0  0  0  0  0  0  0  0  0  0  0
    6.7304   14.5890    7.8313 C   0  0  0  0  0  0  0  0  0  0  0  0
    5.5772   14.5147    8.5879 O   0  0  0  0  0  0  0  0  0  0  0  0
    8.0945   17.2374    1.7537 C   0  0  1  0  0  0  0  0  0  0  0  0
    8.9888   17.4723    0.6554 O   0  0  0  0  0  0  0  0  0  0  0  0
  1  2  1  6  0  0  0
  1  6  1  0  0  0  0
  1 23  1  0  0  0  0
  3  4  1  1  0  0  0
  3  8  1  0  0  0  0
  3 30  1  0  0  0  0
  5  9  1  0  0  0  0
  5 21  1  0  0  0  0
  5 25  1  6  0  0  0
  6  7  1  6  0  0  0
  6 11  1  0  0  0  0
  8 13  1  0  0  0  0
  9 10  1  1  0  0  0
  9 15  1  0  0  0  0
 11 12  1  1  0  0  0
 11 17  1  0  0  0  0
 13 14  1  1  0  0  0
 13 19  1  0  0  0  0
 15 16  1  1  0  0  0
 15 20  1  0  0  0  0
 17 18  1  1  0  0  0
 17 22  1  0  0  0  0
 19  2  1  6  0  0  0
 19 24  1  0  0  0  0
 20 21  1  0  0  0  0
 20 26  1  6  0  0  0
 22 23  1  0  0  0  0
 22 28  1  1  0  0  0
 24 25  1  1  0  0  0
 24 30  1  0  0  0  0
 26 27  1  0  0  0  0
 28 29  1  0  0  0  0
 30 31  1  6  0  0  0
M  END
>  <CHROM.1>
179.01503041,23.82735892,-156.37743105,62.13801182,-64.52296168,107.84459792
8.04297920,14.40808035,3.35619574,-2.36994525,0.64492081,-0.57775372

>  <Name>
2o3x_lig

>  <RI>
3.65513e+07

>  <Rbt.Current_Directory>
/home/itssahil/PROJECTS/Mol_Feturizer/New_Systems/rnas/2o3x

>  <Rbt.Executable>
rbdock ($Id: //depot/dev/client3/rdock/2013.1/src/exe/rbdock.cxx#4 $)

>  <Rbt.Library>
libRbt.so (2013.1, Build901 2013/11/27)

>  <Rbt.Parameter_File>
/export/apps/rDock/src/rDock_2013.1_src/data/scripts/dock_solv.prm

>  <Rbt.Receptor>
prm/blind_docking_20.prm

>  <SCORE>
24.9986

>  <SCORE.INTER>
0.497706

>  <SCORE.INTER.CONST>
1

>  <SCORE.INTER.POLAR>
0

>  <SCORE.INTER.ROT>
6

>  <SCORE.INTER.SOLV>
14.6719

>  <SCORE.INTER.VDW>
-12.1588

>  <SCORE.INTER.norm>
0.016055

>  <SCORE.INTRA>
6.60648

>  <SCORE.INTRA.DIHEDRAL>
4.50487

>  <SCORE.INTRA.DIHEDRAL.0>
9.37739

>  <SCORE.INTRA.POLAR>
0

>  <SCORE.INTRA.POLAR.0>
0

>  <SCORE.INTRA.REPUL>
0.0041099

>  <SCORE.INTRA.REPUL.0>
0

>  <SCORE.INTRA.SOLV>
5.53237

>  <SCORE.INTRA.SOLV.lig_0>
-82.9274

>  <SCORE.INTRA.VDW>
1.56732

>  <SCORE.INTRA.VDW.0>
-3.84922

>  <SCORE.INTRA.norm>
0.213112

>  <SCORE.RESTR>
17.8944

>  <SCORE.RESTR.CAVITY>
17.8944

>  <SCORE.RESTR.norm>
0.577239

>  <SCORE.SYSTEM>
0

>  <SCORE.SYSTEM.CONST>
0

>  <SCORE.SYSTEM.DIHEDRAL>
0

>  <SCORE.SYSTEM.SOLV>
0

>  <SCORE.SYSTEM.norm>
0

>  <SCORE.heavy>
31

>  <SCORE.norm>
0.806407

>  <RMSD>
16.149

$$$$
2o3x_lig
 OpenBabel11021811463D
libRbt.so/2013.1/901 2013/11/27
 31 33  0  0  0  0  0  0  0  0999 V2000
    7.7622   13.4870    4.3440 C   0  0  2  0  0  0  0  0  0  0  0  0
    6.8313   14.0299    3.3985 O   0  0  0  0  0  0  0  0  0  0  0  0
    6.4202   17.6680    1.1864 C   0  0  2  0  0  0  0  0  0  0  0  0
    6.4889   19.0810    0.7526 N   0  0  0  0  0  0  0  0  0  0  0  0
   10.3780   15.3890    1.6052 C   0  0  1  0  0  0  0  0  0  0  0  0
    7.4791   11.9585    4.4919 C   0  0  2  0  0  0  0  0  0  0  0  0
    7.3531   11.2830    3.1752 N   0  0  0  0  0  0  0  0  0  0  0  0
    5.5307   17.4865    2.4613 C   0  0  0  0  0  0  0  0  0  0  0  0
   11.6722   14.8071    2.2631 C   0  0  2  0  0  0  0  0  0  0  0  0
   12.4937   15.7538    3.0001 O   0  0  0  0  0  0  0  0  0  0  0  0
    6.1873   11.6945    5.2884 C   0  0  1  0  0  0  0  0  0  0  0  0
    5.9802   10.3145    5.4523 O   0  0  0  0  0  0  0  0  0  0  0  0
    5.4962   15.9567    2.8229 C   0  0  2  0  0  0  0  0  0  0  0  0
    4.6477   15.6950    4.0241 N   0  0  0  0  0  0  0  0  0  0  0  0
   12.2996   14.2048    1.0171 C   0  0  2  0  0  0  0  0  0  0  0  0
   12.9630   15.2359    0.2080 O   0  0  0  0  0  0  0  0  0  0  0  0
    6.2680   12.3854    6.6392 C   0  0  2  0  0  0  0  0  0  0  0  0
    5.1119   12.1294    7.3697 O   0  0  0  0  0  0  0  0  0  0  0  0
    6.9319   15.4316    3.1095 C   0  0  2  0  0  0  0  0  0  0  0  0
   11.1284   13.5884    0.2610 C   0  0  2  0  0  0  0  0  0  0  0  0
   10.1407   14.6010    0.4323 O   0  0  0  0  0  0  0  0  0  0  0  0
    6.4505   13.9168    6.4413 C   0  0  2  0  0  0  0  0  0  0  0  0
    7.6446   14.1681    5.6693 O   0  0  0  0  0  0  0  0  0  0  0  0
    7.9080   15.6555    1.9375 C   0  0  2  0  0  0  0  0  0  0  0  0
    9.2385   15.3358    2.4775 O   0  0  0  0  0  0  0  0  0  0  0  0
   10.6213   12.2207    0.8315 C   0  0  0  0  0  0  0  0  0  0  0  0
    9.5203   11.7472    0.0610 N   0  0  0  0  0  0  0  0  0  0  0  0
    6.5569   14.6605    7.7524 C   0  0  0  0  0  0  0  0  0  0  0  0
    7.6034   14.1885    8.5205 O   0  0  0  0  0  0  0  0  0  0  0  0
    7.8524   17.1721    1.4551 C   0  0  1  0  0  0  0  0  0  0  0  0
    8.5808   17.3605    0.2323 O   0  0  0  0  0  0  0  0  0  0  0  0
  1  2  1  6  0  0  0
  1  6  1  0  0  0  0
  1 23  1  0  0  0  0
  3  4  1  1  0  0  0
  3  8  1  0  0  0  0
  3 30  1  0  0  0  0
  5  9  1  0  0  0  0
  5 21  1  0  0  0  0
  5 25  1  1  0  0  0
  6  7  1  6  0  0  0
  6 11  1  0  0  0  0
  8 13  1  0  0  0  0
  9 10  1  6  0  0  0
  9 15  1  0  0  0  0
 11 12  1  1  0  0  0
 11 17  1  0  0  0  0
 13 14  1  1  0  0  0
 13 19  1  0  0  0  0
 15 16  1  6  0  0  0
 15 20  1  0  0  0  0
 17 18  1  6  0  0  0
 17 22  1  0  0  0  0
 19  2  1  6  0  0  0
 19 24  1  0  0  0  0
 20 21  1  0  0  0  0
 20 26  1  1  0  0  0
 22 23  1  0  0  0  0
 22 28  1  1  0  0  0
 24 25  1  1  0  0  0
 24 30  1  0  0  0  0
 26 27  1  0  0  0  0
 28 29  1  0  0  0  0
 30 31  1  6  0  0  0
M  END
>  <CHROM.1>
-179.47158779,-170.84539039,-146.94715737,179.31907312,57.70665800,177.24461469
8.13736840,14.46239981,3.20946357,-2.36083412,0.59634007,-0.64879825

>  <Name>
2o3x_lig

>  <RI>
3.65513e+07

>  <Rbt.Current_Directory>
/home/itssahil/PROJECTS/Mol_Feturizer/New_Systems/rnas/2o3x

>  <Rbt.Executable>
rbdock ($Id: //depot/dev/client3/rdock/2013.1/src/exe/rbdock.cxx#4 $)

>  <Rbt.Library>
libRbt.so (2013.1, Build901 2013/11/27)

>  <Rbt.Parameter_File>
/export/apps/rDock/src/rDock_2013.1_src/data/scripts/dock_solv.prm

>  <Rbt.Receptor>
prm/blind_docking_20.prm

>  <SCORE>
19.9629

>  <SCORE.INTER>
1.07779

>  <SCORE.INTER.CONST>
1

>  <SCORE.INTER.POLAR>
0

>  <SCORE.INTER.ROT>
6

>  <SCORE.INTER.SOLV>
15.9064

>  <SCORE.INTER.VDW>
-12.1836

>  <SCORE.INTER.norm>
0.0347675

>  <SCORE.INTRA>
-2.11337

>  <SCORE.INTRA.DIHEDRAL>
-4.60768

>  <SCORE.INTRA.DIHEDRAL.0>
9.37739

>  <SCORE.INTRA.POLAR>
0

>  <SCORE.INTRA.POLAR.0>
0

>  <SCORE.INTRA.REPUL>
0

>  <SCORE.INTRA.REPUL.0>
0

>  <SCORE.INTRA.SOLV>
-0.474945

>  <SCORE.INTRA.SOLV.lig_0>
-82.9274

>  <SCORE.INTRA.VDW>
0.427942

>  <SCORE.INTRA.VDW.0>
-3.84922

>  <SCORE.INTRA.norm>
-0.0681732

>  <SCORE.RESTR>
20.9985

>  <SCORE.RESTR.CAVITY>
20.9985

>  <SCORE.RESTR.norm>
0.677371

>  <SCORE.SYSTEM>
0

>  <SCORE.SYSTEM.CONST>
0

>  <SCORE.SYSTEM.DIHEDRAL>
0

>  <SCORE.SYSTEM.SOLV>
0

>  <SCORE.SYSTEM.norm>
0

>  <SCORE.heavy>
31

>  <SCORE.norm>
0.643966

>  <RMSD>
16.163

$$$$
2o3x_lig
 OpenBabel11021811463D
libRbt.so/2013.1/901 2013/11/27
 31 33  0  0  0  0  0  0  0  0999 V2000
    6.7045   14.5629    4.6894 C   0  0  2  0  0  0  0  0  0  0  0  0
    7.0541   13.3372    4.0329 O   0  0  0  0  0  0  0  0  0  0  0  0
   10.2046   12.6078    1.2327 C   0  0  2  0  0  0  0  0  0  0  0  0
   11.0813   12.6438    0.0413 N   0  0  0  0  0  0  0  0  0  0  0  0
    7.9249   16.2349    2.4936 C   0  0  1  0  0  0  0  0  0  0  0  0
    7.5673   14.6913    5.9846 C   0  0  2  0  0  0  0  0  0  0  0  0
    9.0059   14.4273    5.7270 N   0  0  0  0  0  0  0  0  0  0  0  0
    8.7893   12.0258    0.9044 C   0  0  0  0  0  0  0  0  0  0  0  0
    8.5584   17.5390    1.9071 C   0  0  2  0  0  0  0  0  0  0  0  0
    8.3613   18.7502    2.6871 O   0  0  0  0  0  0  0  0  0  0  0  0
    7.0934   13.7189    7.0813 C   0  0  1  0  0  0  0  0  0  0  0  0
    7.8503   13.8876    8.2531 O   0  0  0  0  0  0  0  0  0  0  0  0
    7.9479   12.0008    2.2324 C   0  0  2  0  0  0  0  0  0  0  0  0
    6.5827   11.4379    2.0074 N   0  0  0  0  0  0  0  0  0  0  0  0
    7.8965   17.5084    0.5397 C   0  0  2  0  0  0  0  0  0  0  0  0
    6.5147   18.0017    0.6101 O   0  0  0  0  0  0  0  0  0  0  0  0
    5.6175   13.9443    7.3633 C   0  0  2  0  0  0  0  0  0  0  0  0
    5.1927   13.0829    8.3698 O   0  0  0  0  0  0  0  0  0  0  0  0
    7.7999   13.4369    2.8112 C   0  0  2  0  0  0  0  0  0  0  0  0
    7.9311   16.0400    0.1326 C   0  0  2  0  0  0  0  0  0  0  0  0
    7.5901   15.4153    1.3670 O   0  0  0  0  0  0  0  0  0  0  0  0
    4.7886   13.7088    6.0690 C   0  0  2  0  0  0  0  0  0  0  0  0
    5.2493   14.5976    5.0285 O   0  0  0  0  0  0  0  0  0  0  0  0
    9.1514   14.1287    3.0782 C   0  0  2  0  0  0  0  0  0  0  0  0
    8.8155   15.5303    3.3724 O   0  0  0  0  0  0  0  0  0  0  0  0
    9.3209   15.5296   -0.3786 C   0  0  0  0  0  0  0  0  0  0  0  0
   10.3722   16.2046    0.3063 N   0  0  0  0  0  0  0  0  0  0  0  0
    3.3098   13.9368    6.2802 C   0  0  0  0  0  0  0  0  0  0  0  0
    2.5776   13.5886    5.1619 O   0  0  0  0  0  0  0  0  0  0  0  0
   10.0820   14.0378    1.7892 C   0  0  1  0  0  0  0  0  0  0  0  0
   11.4190   14.4754    2.0757 O   0  0  0  0  0  0  0  0  0  0  0  0
  1  2  1  1  0  0  0
  1  6  1  0  0  0  0
  1 23  1  0  0  0  0
  3  4  1  6  0  0  0
  3  8  1  0  0  0  0
  3 30  1  0  0  0  0
  5  9  1  0  0  0  0
  5 21  1  0  0  0  0
  5 25  1  1  0  0  0
  6  7  1  6  0  0  0
  6 11  1  0  0  0  0
  8 13  1  0  0  0  0
  9 10  1  1  0  0  0
  9 15  1  0  0  0  0
 11 12  1  1  0  0  0
 11 17  1  0  0  0  0
 13 14  1  6  0  0  0
 13 19  1  0  0  0  0
 15 16  1  1  0  0  0
 15 20  1  0  0  0  0
 17 18  1  1  0  0  0
 17 22  1  0  0  0  0
 19  2  1  1  0  0  0
 19 24  1  0  0  0  0
 20 21  1  0  0  0  0
 20 26  1  1  0  0  0
 22 23  1  0  0  0  0
 22 28  1  1  0  0  0
 24 25  1  6  0  0  0
 24 30  1  0  0  0  0
 26 27  1  0  0  0  0
 28 29  1  0  0  0  0
 30 31  1  1  0  0  0
M  END
>  <CHROM.1>
-108.59687201,-122.98228880,-175.17334360,33.20010762,-173.69484938,-48.63792781
7.65679690,14.57171704,3.36341504,2.45735743,-0.78027466,2.54903864

>  <Name>
2o3x_lig

>  <RI>
3.65513e+07

>  <Rbt.Current_Directory>
/home/itssahil/PROJECTS/Mol_Feturizer/New_Systems/rnas/2o3x

>  <Rbt.Executable>
rbdock ($Id: //depot/dev/client3/rdock/2013.1/src/exe/rbdock.cxx#4 $)

>  <Rbt.Library>
libRbt.so (2013.1, Build901 2013/11/27)

>  <Rbt.Parameter_File>
/export/apps/rDock/src/rDock_2013.1_src/data/scripts/dock_solv.prm

>  <Rbt.Receptor>
prm/blind_docking_20.prm

>  <SCORE>
40.9587

>  <SCORE.INTER>
3.98939

>  <SCORE.INTER.CONST>
1

>  <SCORE.INTER.POLAR>
-0.711615

>  <SCORE.INTER.ROT>
6

>  <SCORE.INTER.SOLV>
15.889

>  <SCORE.INTER.VDW>
-7.86469

>  <SCORE.INTER.norm>
0.12869

>  <SCORE.INTRA>
17.9911

>  <SCORE.INTRA.DIHEDRAL>
7.53323

>  <SCORE.INTRA.DIHEDRAL.0>
9.37739

>  <SCORE.INTRA.POLAR>
0

>  <SCORE.INTRA.POLAR.0>
0

>  <SCORE.INTRA.REPUL>
0

>  <SCORE.INTRA.REPUL.0>
0

>  <SCORE.INTRA.SOLV>
8.68125

>  <SCORE.INTRA.SOLV.lig_0>
-82.9274

>  <SCORE.INTRA.VDW>
9.88381

>  <SCORE.INTRA.VDW.0>
-3.84922

>  <SCORE.INTRA.norm>
0.580356

>  <SCORE.RESTR>
18.9783

>  <SCORE.RESTR.CAVITY>
18.9783

>  <SCORE.RESTR.norm>
0.612202

>  <SCORE.SYSTEM>
0

>  <SCORE.SYSTEM.CONST>
0

>  <SCORE.SYSTEM.DIHEDRAL>
0

>  <SCORE.SYSTEM.SOLV>
0

>  <SCORE.SYSTEM.norm>
0

>  <SCORE.heavy>
31

>  <SCORE.norm>
1.32125

>  <RMSD>
16.178

$$$$
2o3x_lig
 OpenBabel11021811463D
libRbt.so/2013.1/901 2013/11/27
 31 33  0  0  0  0  0  0  0  0999 V2000
    7.8038   13.4265    4.3242 C   0  0  2  0  0  0  0  0  0  0  0  0
    6.8317   13.9896    3.4334 O   0  0  0  0  0  0  0  0  0  0  0  0
    6.4418   17.6178    1.2013 C   0  0  2  0  0  0  0  0  0  0  0  0
    6.5257   19.0263    0.7558 N   0  0  0  0  0  0  0  0  0  0  0  0
   10.3782   15.3366    1.5869 C   0  0  1  0  0  0  0  0  0  0  0  0
    7.5061   11.9013    4.4775 C   0  0  2  0  0  0  0  0  0  0  0  0
    7.2995   11.2369    3.1654 N   0  0  0  0  0  0  0  0  0  0  0  0
    5.5708   17.4597    2.4919 C   0  0  0  0  0  0  0  0  0  0  0  0
   11.6864   14.7722    2.2320 C   0  0  2  0  0  0  0  0  0  0  0  0
   12.4924   15.7257    2.9774 O   0  0  0  0  0  0  0  0  0  0  0  0
    6.2550   11.6507    5.3406 C   0  0  1  0  0  0  0  0  0  0  0  0
    6.0363   10.2727    5.5068 O   0  0  0  0  0  0  0  0  0  0  0  0
    5.5181   15.9333    2.8655 C   0  0  2  0  0  0  0  0  0  0  0  0
    4.6855   15.6938    4.0823 N   0  0  0  0  0  0  0  0  0  0  0  0
   12.3200   14.1979    0.9759 C   0  0  2  0  0  0  0  0  0  0  0  0
   12.9594   15.2518    0.1771 O   0  0  0  0  0  0  0  0  0  0  0  0
    6.4183   12.3309    6.6894 C   0  0  2  0  0  0  0  0  0  0  0  0
    5.2993   12.0868    7.4793 O   0  0  0  0  0  0  0  0  0  0  0  0
    6.9498   15.3874    3.1323 C   0  0  2  0  0  0  0  0  0  0  0  0
   11.1579   13.5680    0.2171 C   0  0  2  0  0  0  0  0  0  0  0  0
   10.1512   14.5588    0.4052 O   0  0  0  0  0  0  0  0  0  0  0  0
    6.6130   13.8608    6.4915 C   0  0  2  0  0  0  0  0  0  0  0  0
    7.7676   14.0999    5.6581 O   0  0  0  0  0  0  0  0  0  0  0  0
    7.9098   15.5872    1.9428 C   0  0  2  0  0  0  0  0  0  0  0  0
    9.2438   15.2502    2.4632 O   0  0  0  0  0  0  0  0  0  0  0  0
   10.6802   12.1836    0.7726 C   0  0  0  0  0  0  0  0  0  0  0  0
    9.5425   11.7304    0.0444 N   0  0  0  0  0  0  0  0  0  0  0  0
    6.8006   14.5937    7.7996 C   0  0  0  0  0  0  0  0  0  0  0  0
    5.6605   14.5437    8.5777 O   0  0  0  0  0  0  0  0  0  0  0  0
    7.8703   17.1010    1.4500 C   0  0  1  0  0  0  0  0  0  0  0  0
    8.5813   17.2689    0.2141 O   0  0  0  0  0  0  0  0  0  0  0  0
  1  2  1  6  0  0  0
  1  6  1  0  0  0  0
  1 23  1  0  0  0  0
  3  4  1  1  0  0  0
  3  8  1  0  0  0  0
  3 30  1  0  0  0  0
  5  9  1  0  0  0  0
  5 21  1  0  0  0  0
  5 25  1  1  0  0  0
  6  7  1  6  0  0  0
  6 11  1  0  0  0  0
  8 13  1  0  0  0  0
  9 10  1  6  0  0  0
  9 15  1  0  0  0  0
 11 12  1  1  0  0  0
 11 17  1  0  0  0  0
 13 14  1  1  0  0  0
 13 19  1  0  0  0  0
 15 16  1  6  0  0  0
 15 20  1  0  0  0  0
 17 18  1  1  0  0  0
 17 22  1  0  0  0  0
 19  2  1  6  0  0  0
 19 24  1  0  0  0  0
 20 21  1  0  0  0  0
 20 26  1  1  0  0  0
 22 23  1  0  0  0  0
 22 28  1  1  0  0  0
 24 25  1  1  0  0  0
 24 30  1  0  0  0  0
 26 27  1  0  0  0  0
 28 29  1  0  0  0  0
 30 31  1  6  0  0  0
M  END
>  <CHROM.1>
-178.56134474,-172.56282850,-149.48941474,176.36172848,-65.87060135,179.99945465
8.11038882,14.43290636,3.21786452,-2.41762892,0.63180496,-0.61385856

>  <Name>
2o3x_lig

>  <RI>
3.65513e+07

>  <Rbt.Current_Directory>
/home/itssahil/PROJECTS/Mol_Feturizer/New_Systems/rnas/2o3x

>  <Rbt.Executable>
rbdock ($Id: //depot/dev/client3/rdock/2013.1/src/exe/rbdock.cxx#4 $)

>  <Rbt.Library>
libRbt.so (2013.1, Build901 2013/11/27)

>  <Rbt.Parameter_File>
/export/apps/rDock/src/rDock_2013.1_src/data/scripts/dock_solv.prm

>  <Rbt.Receptor>
prm/blind_docking_20.prm

>  <SCORE>
20.0684

>  <SCORE.INTER>
1.38049

>  <SCORE.INTER.CONST>
1

>  <SCORE.INTER.POLAR>
0

>  <SCORE.INTER.ROT>
6

>  <SCORE.INTER.SOLV>
14.783

>  <SCORE.INTER.VDW>
-11.6073

>  <SCORE.INTER.norm>
0.0445318

>  <SCORE.INTRA>
-2.27908

>  <SCORE.INTRA.DIHEDRAL>
-5.08962

>  <SCORE.INTRA.DIHEDRAL.0>
9.37739

>  <SCORE.INTRA.POLAR>
0

>  <SCORE.INTRA.POLAR.0>
0

>  <SCORE.INTRA.REPUL>
0

>  <SCORE.INTRA.REPUL.0>
0

>  <SCORE.INTRA.SOLV>
-0.775683

>  <SCORE.INTRA.SOLV.lig_0>
-82.9274

>  <SCORE.INTRA.VDW>
0.653576

>  <SCORE.INTRA.VDW.0>
-3.84922

>  <SCORE.INTRA.norm>
-0.0735186

>  <SCORE.RESTR>
20.967

>  <SCORE.RESTR.CAVITY>
20.967

>  <SCORE.RESTR.norm>
0.676356

>  <SCORE.SYSTEM>
0

>  <SCORE.SYSTEM.CONST>
0

>  <SCORE.SYSTEM.DIHEDRAL>
0

>  <SCORE.SYSTEM.SOLV>
0

>  <SCORE.SYSTEM.norm>
0

>  <SCORE.heavy>
31

>  <SCORE.norm>
0.647369

>  <RMSD>
16.181

$$$$
2o3x_lig
 OpenBabel11021811463D
libRbt.so/2013.1/901 2013/11/27
 31 33  0  0  0  0  0  0  0  0999 V2000
    7.7947   13.4447    4.3055 C   0  0  2  0  0  0  0  0  0  0  0  0
    6.8149   14.0144    3.4274 O   0  0  0  0  0  0  0  0  0  0  0  0
    6.4381   17.6466    1.1996 C   0  0  2  0  0  0  0  0  0  0  0  0
    6.5249   19.0558    0.7569 N   0  0  0  0  0  0  0  0  0  0  0  0
   10.3706   15.3587    1.5995 C   0  0  1  0  0  0  0  0  0  0  0  0
    7.4938   11.9197    4.4558 C   0  0  2  0  0  0  0  0  0  0  0  0
    7.2711   11.2614    3.1433 N   0  0  0  0  0  0  0  0  0  0  0  0
    5.5607   17.4869    2.4857 C   0  0  0  0  0  0  0  0  0  0  0  0
   11.6772   14.8017    2.2541 C   0  0  2  0  0  0  0  0  0  0  0  0
   12.4775   15.7619    2.9970 O   0  0  0  0  0  0  0  0  0  0  0  0
    6.2512   11.6696    5.3312 C   0  0  1  0  0  0  0  0  0  0  0  0
    6.0299   10.2916    5.4942 O   0  0  0  0  0  0  0  0  0  0  0  0
    5.5052   15.9598    2.8564 C   0  0  2  0  0  0  0  0  0  0  0  0
    4.6666   15.7188    4.0688 N   0  0  0  0  0  0  0  0  0  0  0  0
   12.3179   14.2208    1.0047 C   0  0  2  0  0  0  0  0  0  0  0  0
   12.9585   15.2711    0.2019 O   0  0  0  0  0  0  0  0  0  0  0  0
    6.4311   12.3438    6.6810 C   0  0  2  0  0  0  0  0  0  0  0  0
    5.3199   12.0999    7.4818 O   0  0  0  0  0  0  0  0  0  0  0  0
    6.9353   15.4127    3.1293 C   0  0  2  0  0  0  0  0  0  0  0  0
   11.1608   13.5832    0.2447 C   0  0  2  0  0  0  0  0  0  0  0  0
   10.1508   14.5727    0.4218 O   0  0  0  0  0  0  0  0  0  0  0  0
    6.6285   13.8738    6.4872 C   0  0  2  0  0  0  0  0  0  0  0  0
    7.7749   14.1127    5.6424 O   0  0  0  0  0  0  0  0  0  0  0  0
    7.9012   15.6139    1.9448 C   0  0  2  0  0  0  0  0  0  0  0  0
    9.2324   15.2752    2.4711 O   0  0  0  0  0  0  0  0  0  0  0  0
   10.6838   12.2013    0.8069 C   0  0  0  0  0  0  0  0  0  0  0  0
    9.5746   11.7224    0.0518 N   0  0  0  0  0  0  0  0  0  0  0  0
    6.8325   14.6008    7.7961 C   0  0  0  0  0  0  0  0  0  0  0  0
    5.6988   14.5559    8.5839 O   0  0  0  0  0  0  0  0  0  0  0  0
    7.8650   17.1285    1.4544 C   0  0  1  0  0  0  0  0  0  0  0  0
    8.5821   17.2981    0.2223 O   0  0  0  0  0  0  0  0  0  0  0  0
  1  2  1  6  0  0  0
  1  6  1  0  0  0  0
  1 23  1  0  0  0  0
  3  4  1  1  0  0  0
  3  8  1  0  0  0  0
  3 30  1  0  0  0  0
  5  9  1  0  0  0  0
  5 21  1  0  0  0  0
  5 25  1  1  0  0  0
  6  7  1  6  0  0  0
  6 11  1  0  0  0  0
  8 13  1  0  0  0  0
  9 10  1  6  0  0  0
  9 15  1  0  0  0  0
 11 12  1  1  0  0  0
 11 17  1  0  0  0  0
 13 14  1  1  0  0  0
 13 19  1  0  0  0  0
 15 16  1  6  0  0  0
 15 20  1  0  0  0  0
 17 18  1  1  0  0  0
 17 22  1  0  0  0  0
 19  2  1  6  0  0  0
 19 24  1  0  0  0  0
 20 21  1  0  0  0  0
 20 26  1  1  0  0  0
 22 23  1  0  0  0  0
 22 28  1  1  0  0  0
 24 25  1  1  0  0  0
 24 30  1  0  0  0  0
 26 27  1  0  0  0  0
 28 29  1  0  0  0  0
 30 31  1  6  0  0  0
M  END
>  <CHROM.1>
-178.47706436,-172.94898492,-150.44031548,178.02707219,-66.11909702,179.82247679
8.10957489,14.45332716,3.22027889,-2.41418035,0.62889423,-0.61422141

>  <Name>
2o3x_lig

>  <RI>
3.65513e+07

>  <Rbt.Current_Directory>
/home/itssahil/PROJECTS/Mol_Feturizer/New_Systems/rnas/2o3x

>  <Rbt.Executable>
rbdock ($Id: //depot/dev/client3/rdock/2013.1/src/exe/rbdock.cxx#4 $)

>  <Rbt.Library>
libRbt.so (2013.1, Build901 2013/11/27)

>  <Rbt.Parameter_File>
/export/apps/rDock/src/rDock_2013.1_src/data/scripts/dock_solv.prm

>  <Rbt.Receptor>
prm/blind_docking_20.prm

>  <SCORE>
20.1677

>  <SCORE.INTER>
1.71601

>  <SCORE.INTER.CONST>
1

>  <SCORE.INTER.POLAR>
0

>  <SCORE.INTER.ROT>
6

>  <SCORE.INTER.SOLV>
14.8714

>  <SCORE.INTER.VDW>
-11.4131

>  <SCORE.INTER.norm>
0.0553553

>  <SCORE.INTRA>
-2.48847

>  <SCORE.INTRA.DIHEDRAL>
-5.31746

>  <SCORE.INTRA.DIHEDRAL.0>
9.37739

>  <SCORE.INTRA.POLAR>
0

>  <SCORE.INTRA.POLAR.0>
0

>  <SCORE.INTRA.REPUL>
0

>  <SCORE.INTRA.REPUL.0>
0

>  <SCORE.INTRA.SOLV>
-0.915606

>  <SCORE.INTRA.SOLV.lig_0>
-82.9274

>  <SCORE.INTRA.VDW>
0.628062

>  <SCORE.INTRA.VDW.0>
-3.84922

>  <SCORE.INTRA.norm>
-0.0802733

>  <SCORE.RESTR>
20.9402

>  <SCORE.RESTR.CAVITY>
20.9402

>  <SCORE.RESTR.norm>
0.67549

>  <SCORE.SYSTEM>
0

>  <SCORE.SYSTEM.CONST>
0

>  <SCORE.SYSTEM.DIHEDRAL>
0

>  <SCORE.SYSTEM.SOLV>
0

>  <SCORE.SYSTEM.norm>
0

>  <SCORE.heavy>
31

>  <SCORE.norm>
0.650572

>  <RMSD>
16.187

$$$$
2o3x_lig
 OpenBabel11021811463D
libRbt.so/2013.1/901 2013/11/27
 31 33  0  0  0  0  0  0  0  0999 V2000
    7.7855   13.4350    4.3327 C   0  0  2  0  0  0  0  0  0  0  0  0
    6.8191   13.9969    3.4350 O   0  0  0  0  0  0  0  0  0  0  0  0
    6.4243   17.6343    1.2188 C   0  0  2  0  0  0  0  0  0  0  0  0
    6.5042   19.0454    0.7807 N   0  0  0  0  0  0  0  0  0  0  0  0
   10.3670   15.3571    1.6090 C   0  0  1  0  0  0  0  0  0  0  0  0
    7.4929   11.9080    4.4784 C   0  0  2  0  0  0  0  0  0  0  0  0
    7.3009   11.2471    3.1623 N   0  0  0  0  0  0  0  0  0  0  0  0
    5.5478   17.4662    2.5045 C   0  0  0  0  0  0  0  0  0  0  0  0
   11.6748   14.7997    2.2609 C   0  0  2  0  0  0  0  0  0  0  0  0
   12.4763   15.7594    3.0032 O   0  0  0  0  0  0  0  0  0  0  0  0
    6.2352   11.6494    5.3294 C   0  0  1  0  0  0  0  0  0  0  0  0
    6.0208   10.2700    5.4893 O   0  0  0  0  0  0  0  0  0  0  0  0
    5.4998   15.9377    2.8703 C   0  0  2  0  0  0  0  0  0  0  0  0
    4.6626   15.6888    4.0820 N   0  0  0  0  0  0  0  0  0  0  0  0
   12.3135   14.2200    1.0098 C   0  0  2  0  0  0  0  0  0  0  0  0
   12.9524   15.2711    0.2069 O   0  0  0  0  0  0  0  0  0  0  0  0
    6.3836   12.3259    6.6819 C   0  0  2  0  0  0  0  0  0  0  0  0
    5.2586   12.0745    7.4609 O   0  0  0  0  0  0  0  0  0  0  0  0
    6.9327   15.3967    3.1413 C   0  0  2  0  0  0  0  0  0  0  0  0
   11.1551   13.5829    0.2513 C   0  0  2  0  0  0  0  0  0  0  0  0
   10.1453   14.5720    0.4311 O   0  0  0  0  0  0  0  0  0  0  0  0
    6.5736   13.8572    6.4907 C   0  0  2  0  0  0  0  0  0  0  0  0
    7.7346   14.1038    5.6684 O   0  0  0  0  0  0  0  0  0  0  0  0
    7.8974   15.6064    1.9575 C   0  0  2  0  0  0  0  0  0  0  0  0
    9.2303   15.2726    2.4826 O   0  0  0  0  0  0  0  0  0  0  0  0
   10.6794   12.2003    0.8131 C   0  0  0  0  0  0  0  0  0  0  0  0
    9.5621   11.7270    0.0665 N   0  0  0  0  0  0  0  0  0  0  0  0
    6.7465   14.5866    7.8027 C   0  0  0  0  0  0  0  0  0  0  0  0
    5.5992   14.5305    8.5698 O   0  0  0  0  0  0  0  0  0  0  0  0
    7.8538   17.1224    1.4719 C   0  0  1  0  0  0  0  0  0  0  0  0
    8.5699   17.2994    0.2402 O   0  0  0  0  0  0  0  0  0  0  0  0
  1  2  1  6  0  0  0
  1  6  1  0  0  0  0
  1 23  1  0  0  0  0
  3  4  1  1  0  0  0
  3  8  1  0  0  0  0
  3 30  1  0  0  0  0
  5  9  1  0  0  0  0
  5 21  1  0  0  0  0
  5 25  1  1  0  0  0
  6  7  1  6  0  0  0
  6 11  1  0  0  0  0
  8 13  1  0  0  0  0
  9 10  1  6  0  0  0
  9 15  1  0  0  0  0
 11 12  1  1  0  0  0
 11 17  1  0  0  0  0
 13 14  1  1  0  0  0
 13 19  1  0  0  0  0
 15 16  1  6  0  0  0
 15 20  1  0  0  0  0
 17 18  1  1  0  0  0
 17 22  1  0  0  0  0
 19  2  1  6  0  0  0
 19 24  1  0  0  0  0
 20 21  1  0  0  0  0
 20 26  1  1  0  0  0
 22 23  1  0  0  0  0
 22 28  1  1  0  0  0
 24 25  1  1  0  0  0
 24 30  1  0  0  0  0
 26 27  1  0  0  0  0
 28 29  1  0  0  0  0
 30 31  1  6  0  0  0
M  END
>  <CHROM.1>
-178.66536376,-172.71320058,-149.20318489,177.55713445,-65.93344558,179.46939163
8.09221230,14.44254781,3.22972611,-2.42217655,0.62721591,-0.60677682

>  <Name>
2o3x_lig

>  <RI>
3.65513e+07

>  <Rbt.Current_Directory>
/home/itssahil/PROJECTS/Mol_Feturizer/New_Systems/rnas/2o3x

>  <Rbt.Executable>
rbdock ($Id: //depot/dev/client3/rdock/2013.1/src/exe/rbdock.cxx#4 $)

>  <Rbt.Library>
libRbt.so (2013.1, Build901 2013/11/27)

>  <Rbt.Parameter_File>
/export/apps/rDock/src/rDock_2013.1_src/data/scripts/dock_solv.prm

>  <Rbt.Receptor>
prm/blind_docking_20.prm

>  <SCORE>
20.1454

>  <SCORE.INTER>
1.47228

>  <SCORE.INTER.CONST>
1

>  <SCORE.INTER.POLAR>
0

>  <SCORE.INTER.ROT>
6

>  <SCORE.INTER.SOLV>
14.8121

>  <SCORE.INTER.VDW>
-11.5558

>  <SCORE.INTER.norm>
0.0474929

>  <SCORE.INTRA>
-2.28878

>  <SCORE.INTRA.DIHEDRAL>
-5.0721

>  <SCORE.INTRA.DIHEDRAL.0>
9.37739

>  <SCORE.INTRA.POLAR>
0

>  <SCORE.INTRA.POLAR.0>
0

>  <SCORE.INTRA.REPUL>
0

>  <SCORE.INTRA.REPUL.0>
0

>  <SCORE.INTRA.SOLV>
-0.768017

>  <SCORE.INTRA.SOLV.lig_0>
-82.9274

>  <SCORE.INTRA.VDW>
0.631279

>  <SCORE.INTRA.VDW.0>
-3.84922

>  <SCORE.INTRA.norm>
-0.0738316

>  <SCORE.RESTR>
20.9619

>  <SCORE.RESTR.CAVITY>
20.9619

>  <SCORE.RESTR.norm>
0.676189

>  <SCORE.SYSTEM>
0

>  <SCORE.SYSTEM.CONST>
0

>  <SCORE.SYSTEM.DIHEDRAL>
0

>  <SCORE.SYSTEM.SOLV>
0

>  <SCORE.SYSTEM.norm>
0

>  <SCORE.heavy>
31

>  <SCORE.norm>
0.64985

>  <RMSD>
16.196

$$$$
2o3x_lig
 OpenBabel11021811463D
libRbt.so/2013.1/901 2013/11/27
 31 33  0  0  0  0  0  0  0  0999 V2000
    7.6719   13.5716    4.4876 C   0  0  2  0  0  0  0  0  0  0  0  0
    6.6706   14.1830    3.6635 O   0  0  0  0  0  0  0  0  0  0  0  0
    6.8300   17.6977    1.2305 C   0  0  2  0  0  0  0  0  0  0  0  0
    7.0111   19.0863    0.7527 N   0  0  0  0  0  0  0  0  0  0  0  0
   10.2073   14.4839    2.8521 C   0  0  1  0  0  0  0  0  0  0  0  0
    7.3977   12.0352    4.5378 C   0  0  2  0  0  0  0  0  0  0  0  0
    7.1665   11.4637    3.1866 N   0  0  0  0  0  0  0  0  0  0  0  0
    5.6586   17.5783    2.2614 C   0  0  0  0  0  0  0  0  0  0  0  0
    9.8968   13.9049    1.4328 C   0  0  2  0  0  0  0  0  0  0  0  0
    9.0531   12.7212    1.3977 O   0  0  0  0  0  0  0  0  0  0  0  0
    6.1721   11.7052    5.4107 C   0  0  1  0  0  0  0  0  0  0  0  0
    5.9752   10.3159    5.4825 O   0  0  0  0  0  0  0  0  0  0  0  0
    5.5271   16.0693    2.6836 C   0  0  2  0  0  0  0  0  0  0  0  0
    4.4126   15.8662    3.6572 N   0  0  0  0  0  0  0  0  0  0  0  0
   11.3270   13.7218    0.9532 C   0  0  2  0  0  0  0  0  0  0  0  0
   11.9205   12.5008    1.5143 O   0  0  0  0  0  0  0  0  0  0  0  0
    6.3608   12.2893    6.8007 C   0  0  2  0  0  0  0  0  0  0  0  0
    5.2653   11.9729    7.5979 O   0  0  0  0  0  0  0  0  0  0  0  0
    6.8479   15.5681    3.3343 C   0  0  2  0  0  0  0  0  0  0  0  0
   12.0579   14.9625    1.4527 C   0  0  2  0  0  0  0  0  0  0  0  0
   11.5031   15.0883    2.7591 O   0  0  0  0  0  0  0  0  0  0  0  0
    6.5309   13.8321    6.7088 C   0  0  2  0  0  0  0  0  0  0  0  0
    7.6609   14.1471    5.8670 O   0  0  0  0  0  0  0  0  0  0  0  0
    8.0789   15.7358    2.4217 C   0  0  2  0  0  0  0  0  0  0  0  0
    9.2380   15.4524    3.2820 O   0  0  0  0  0  0  0  0  0  0  0  0
   11.8003   16.2616    0.6164 C   0  0  0  0  0  0  0  0  0  0  0  0
   12.0270   16.0061   -0.7668 N   0  0  0  0  0  0  0  0  0  0  0  0
    6.7421   14.4719    8.0613 C   0  0  0  0  0  0  0  0  0  0  0  0
    5.5665   14.5320    8.7839 O   0  0  0  0  0  0  0  0  0  0  0  0
    8.1519   17.2246    1.8615 C   0  0  1  0  0  0  0  0  0  0  0  0
    9.1545   17.3527    0.8419 O   0  0  0  0  0  0  0  0  0  0  0  0
  1  2  1  6  0  0  0
  1  6  1  0  0  0  0
  1 23  1  0  0  0  0
  3  4  1  1  0  0  0
  3  8  1  0  0  0  0
  3 30  1  0  0  0  0
  5  9  1  0  0  0  0
  5 21  1  0  0  0  0
  5 25  1  6  0  0  0
  6  7  1  6  0  0  0
  6 11  1  0  0  0  0
  8 13  1  0  0  0  0
  9 10  1  1  0  0  0
  9 15  1  0  0  0  0
 11 12  1  1  0  0  0
 11 17  1  0  0  0  0
 13 14  1  1  0  0  0
 13 19  1  0  0  0  0
 15 16  1  1  0  0  0
 15 20  1  0  0  0  0
 17 18  1  1  0  0  0
 17 22  1  0  0  0  0
 19  2  1  6  0  0  0
 19 24  1  0  0  0  0
 20 21  1  0  0  0  0
 20 26  1  6  0  0  0
 22 23  1  0  0  0  0
 22 28  1  1  0  0  0
 24 25  1  1  0  0  0
 24 30  1  0  0  0  0
 26 27  1  0  0  0  0
 28 29  1  0  0  0  0
 30 31  1  6  0  0  0
M  END
>  <CHROM.1>
-171.56086218,2.91785202,-169.22271680,-51.30587277,-75.06391037,127.68408281
8.06663521,14.54340881,3.42708997,-2.33341678,0.59690974,-0.60932143

>  <Name>
2o3x_lig

>  <RI>
3.65513e+07

>  <Rbt.Current_Directory>
/home/itssahil/PROJECTS/Mol_Feturizer/New_Systems/rnas/2o3x

>  <Rbt.Executable>
rbdock ($Id: //depot/dev/client3/rdock/2013.1/src/exe/rbdock.cxx#4 $)

>  <Rbt.Library>
libRbt.so (2013.1, Build901 2013/11/27)

>  <Rbt.Parameter_File>
/export/apps/rDock/src/rDock_2013.1_src/data/scripts/dock_solv.prm

>  <Rbt.Receptor>
prm/blind_docking_20.prm

>  <SCORE>
22.6506

>  <SCORE.INTER>
-1.27364

>  <SCORE.INTER.CONST>
1

>  <SCORE.INTER.POLAR>
0

>  <SCORE.INTER.ROT>
6

>  <SCORE.INTER.SOLV>
14.1528

>  <SCORE.INTER.VDW>
-13.1667

>  <SCORE.INTER.norm>
-0.0410852

>  <SCORE.INTRA>
5.56377

>  <SCORE.INTRA.DIHEDRAL>
6.75935

>  <SCORE.INTRA.DIHEDRAL.0>
9.37739

>  <SCORE.INTRA.POLAR>
0

>  <SCORE.INTRA.POLAR.0>
0

>  <SCORE.INTRA.REPUL>
0

>  <SCORE.INTRA.REPUL.0>
0

>  <SCORE.INTRA.SOLV>
0.832243

>  <SCORE.INTRA.SOLV.lig_0>
-82.9274

>  <SCORE.INTRA.VDW>
1.76797

>  <SCORE.INTRA.VDW.0>
-3.84922

>  <SCORE.INTRA.norm>
0.179476

>  <SCORE.RESTR>
18.3605

>  <SCORE.RESTR.CAVITY>
18.3605

>  <SCORE.RESTR.norm>
0.592275

>  <SCORE.SYSTEM>
0

>  <SCORE.SYSTEM.CONST>
0

>  <SCORE.SYSTEM.DIHEDRAL>
0

>  <SCORE.SYSTEM.SOLV>
0

>  <SCORE.SYSTEM.norm>
0

>  <SCORE.heavy>
31

>  <SCORE.norm>
0.730666

>  <RMSD>
16.202

$$$$
2o3x_lig
 OpenBabel11021811463D
libRbt.so/2013.1/901 2013/11/27
 31 33  0  0  0  0  0  0  0  0999 V2000
    7.4882   14.1592    5.2058 C   0  0  2  0  0  0  0  0  0  0  0  0
    6.8127   14.4517    3.9755 O   0  0  0  0  0  0  0  0  0  0  0  0
    6.7842   17.6397    1.1234 C   0  0  2  0  0  0  0  0  0  0  0  0
    6.8867   18.9665    0.4765 N   0  0  0  0  0  0  0  0  0  0  0  0
   10.3004   14.8175    3.1737 C   0  0  1  0  0  0  0  0  0  0  0  0
    7.3239   12.6360    5.5078 C   0  0  2  0  0  0  0  0  0  0  0  0
    7.6388   11.7941    4.3255 N   0  0  0  0  0  0  0  0  0  0  0  0
    5.6130   17.5794    2.1598 C   0  0  0  0  0  0  0  0  0  0  0  0
   10.0370   14.0403    1.8423 C   0  0  2  0  0  0  0  0  0  0  0  0
    9.2155   12.8457    1.9532 O   0  0  0  0  0  0  0  0  0  0  0  0
    5.8920   12.2988    5.9649 C   0  0  1  0  0  0  0  0  0  0  0  0
    5.7813   10.9339    6.2794 O   0  0  0  0  0  0  0  0  0  0  0  0
    5.5677   16.1295    2.7666 C   0  0  2  0  0  0  0  0  0  0  0  0
    4.4589   15.9826    3.7566 N   0  0  0  0  0  0  0  0  0  0  0  0
   11.4821   13.8225    1.4261 C   0  0  2  0  0  0  0  0  0  0  0  0
   12.0824   12.7043    2.1655 O   0  0  0  0  0  0  0  0  0  0  0  0
    5.5226   13.1539    7.1654 C   0  0  2  0  0  0  0  0  0  0  0  0
    4.2381   12.8349    7.5943 O   0  0  0  0  0  0  0  0  0  0  0  0
    6.9103   15.7933    3.4764 C   0  0  2  0  0  0  0  0  0  0  0  0
   12.1778   15.1358    1.7643 C   0  0  2  0  0  0  0  0  0  0  0  0
   11.5873   15.4302    3.0273 O   0  0  0  0  0  0  0  0  0  0  0  0
    5.6048   14.6602    6.7887 C   0  0  2  0  0  0  0  0  0  0  0  0
    6.9376   14.9746    6.3309 O   0  0  0  0  0  0  0  0  0  0  0  0
    8.1370   15.9197    2.5515 C   0  0  2  0  0  0  0  0  0  0  0  0
    9.3034   15.8156    3.4418 O   0  0  0  0  0  0  0  0  0  0  0  0
   11.9189   16.3003    0.7493 C   0  0  0  0  0  0  0  0  0  0  0  0
   12.1419   15.8468   -0.5828 N   0  0  0  0  0  0  0  0  0  0  0  0
    5.2660   15.5658    7.9499 C   0  0  0  0  0  0  0  0  0  0  0  0
    5.6143   14.9940    9.1581 O   0  0  0  0  0  0  0  0  0  0  0  0
    8.1263   17.3290    1.8101 C   0  0  1  0  0  0  0  0  0  0  0  0
    9.1284   17.3892    0.7837 O   0  0  0  0  0  0  0  0  0  0  0  0
  1  2  1  6  0  0  0
  1  6  1  0  0  0  0
  1 23  1  0  0  0  0
  3  4  1  1  0  0  0
  3  8  1  0  0  0  0
  3 30  1  0  0  0  0
  5  9  1  0  0  0  0
  5 21  1  0  0  0  0
  5 25  1  6  0  0  0
  6  7  1  6  0  0  0
  6 11  1  0  0  0  0
  8 13  1  0  0  0  0
  9 10  1  1  0  0  0
  9 15  1  0  0  0  0
 11 12  1  1  0  0  0
 11 17  1  0  0  0  0
 13 14  1  1  0  0  0
 13 19  1  0  0  0  0
 15 16  1  1  0  0  0
 15 20  1  0  0  0  0
 17 18  1  6  0  0  0
 17 22  1  0  0  0  0
 19  2  1  6  0  0  0
 19 24  1  0  0  0  0
 20 21  1  0  0  0  0
 20 26  1  6  0  0  0
 22 23  1  0  0  0  0
 22 28  1  1  0  0  0
 24 25  1  1  0  0  0
 24 30  1  0  0  0  0
 26 27  1  0  0  0  0
 28 29  1  0  0  0  0
 30 31  1  6  0  0  0
M  END
>  <CHROM.1>
-176.47334528,5.12058276,-146.16657675,-49.34230288,30.51334095,124.70614758
7.94029934,14.87404778,3.71892814,-2.42091548,0.53586466,-0.70579697

>  <Name>
2o3x_lig

>  <RI>
3.65513e+07

>  <Rbt.Current_Directory>
/home/itssahil/PROJECTS/Mol_Feturizer/New_Systems/rnas/2o3x

>  <Rbt.Executable>
rbdock ($Id: //depot/dev/client3/rdock/2013.1/src/exe/rbdock.cxx#4 $)

>  <Rbt.Library>
libRbt.so (2013.1, Build901 2013/11/27)

>  <Rbt.Parameter_File>
/export/apps/rDock/src/rDock_2013.1_src/data/scripts/dock_solv.prm

>  <Rbt.Receptor>
prm/blind_docking_20.prm

>  <SCORE>
24.0257

>  <SCORE.INTER>
-2.19048

>  <SCORE.INTER.CONST>
1

>  <SCORE.INTER.POLAR>
-0.184596

>  <SCORE.INTER.ROT>
6

>  <SCORE.INTER.SOLV>
18.0996

>  <SCORE.INTER.VDW>
-14.4782

>  <SCORE.INTER.norm>
-0.0706606

>  <SCORE.INTRA>
8.35768

>  <SCORE.INTRA.DIHEDRAL>
12.1837

>  <SCORE.INTRA.DIHEDRAL.0>
9.37739

>  <SCORE.INTRA.POLAR>
0

>  <SCORE.INTRA.POLAR.0>
0

>  <SCORE.INTRA.REPUL>
0.0255513

>  <SCORE.INTRA.REPUL.0>
0

>  <SCORE.INTRA.SOLV>
1.87146

>  <SCORE.INTRA.SOLV.lig_0>
-82.9274

>  <SCORE.INTRA.VDW>
1.20236

>  <SCORE.INTRA.VDW.0>
-3.84922

>  <SCORE.INTRA.norm>
0.269603

>  <SCORE.RESTR>
17.8585

>  <SCORE.RESTR.CAVITY>
17.8585

>  <SCORE.RESTR.norm>
0.576082

>  <SCORE.SYSTEM>
0

>  <SCORE.SYSTEM.CONST>
0

>  <SCORE.SYSTEM.DIHEDRAL>
0

>  <SCORE.SYSTEM.SOLV>
0

>  <SCORE.SYSTEM.norm>
0

>  <SCORE.heavy>
31

>  <SCORE.norm>
0.775024

>  <RMSD>
16.362

$$$$
2o3x_lig
 OpenBabel11021811463D
libRbt.so/2013.1/901 2013/11/27
 31 33  0  0  0  0  0  0  0  0999 V2000
    7.6122   13.8854    4.8827 C   0  0  2  0  0  0  0  0  0  0  0  0
    7.0028   14.1872    3.6205 O   0  0  0  0  0  0  0  0  0  0  0  0
    6.3701   17.5598    1.0665 C   0  0  2  0  0  0  0  0  0  0  0  0
    6.3564   18.9243    0.4942 N   0  0  0  0  0  0  0  0  0  0  0  0
   10.4482   15.5140    1.6437 C   0  0  1  0  0  0  0  0  0  0  0  0
    7.3179   12.3909    5.2268 C   0  0  2  0  0  0  0  0  0  0  0  0
    7.6039   11.4868    4.0837 N   0  0  0  0  0  0  0  0  0  0  0  0
    5.5044   17.4582    2.3663 C   0  0  0  0  0  0  0  0  0  0  0  0
   11.7203   14.8581    2.2744 C   0  0  2  0  0  0  0  0  0  0  0  0
   12.6087   15.7549    2.9961 O   0  0  0  0  0  0  0  0  0  0  0  0
    5.8496   12.1824    5.6432 C   0  0  1  0  0  0  0  0  0  0  0  0
    5.6209   10.8419    5.9966 O   0  0  0  0  0  0  0  0  0  0  0  0
    5.5579   15.9723    2.8777 C   0  0  2  0  0  0  0  0  0  0  0  0
    4.7369   15.7859    4.1116 N   0  0  0  0  0  0  0  0  0  0  0  0
   12.2875   14.2246    1.0151 C   0  0  2  0  0  0  0  0  0  0  0  0
   12.9918   15.2186    0.1943 O   0  0  0  0  0  0  0  0  0  0  0  0
    5.5097   13.1045    6.8020 C   0  0  2  0  0  0  0  0  0  0  0  0
    4.1906   12.9016    7.1950 O   0  0  0  0  0  0  0  0  0  0  0  0
    7.0232   15.5566    3.1930 C   0  0  2  0  0  0  0  0  0  0  0  0
   11.0684   13.6774    0.2819 C   0  0  2  0  0  0  0  0  0  0  0  0
   10.1432   14.7437    0.4746 O   0  0  0  0  0  0  0  0  0  0  0  0
    5.7232   14.5860    6.3810 C   0  0  2  0  0  0  0  0  0  0  0  0
    7.0911   14.7794    5.9611 O   0  0  0  0  0  0  0  0  0  0  0  0
    7.9740   15.7152    1.9900 C   0  0  2  0  0  0  0  0  0  0  0  0
    9.3252   15.5231    2.5387 O   0  0  0  0  0  0  0  0  0  0  0  0
   10.4962   12.3390    0.8605 C   0  0  0  0  0  0  0  0  0  0  0  0
    9.3249   11.9576    0.1445 N   0  0  0  0  0  0  0  0  0  0  0  0
    5.4192   15.5546    7.5001 C   0  0  0  0  0  0  0  0  0  0  0  0
    6.0713   15.2041    8.6663 O   0  0  0  0  0  0  0  0  0  0  0  0
    7.8301   17.1711    1.3611 C   0  0  1  0  0  0  0  0  0  0  0  0
    8.5351   17.2760    0.1148 O   0  0  0  0  0  0  0  0  0  0  0  0
  1  2  1  6  0  0  0
  1  6  1  0  0  0  0
  1 23  1  0  0  0  0
  3  4  1  1  0  0  0
  3  8  1  0  0  0  0
  3 30  1  0  0  0  0
  5  9  1  0  0  0  0
  5 21  1  0  0  0  0
  5 25  1  1  0  0  0
  6  7  1  6  0  0  0
  6 11  1  0  0  0  0
  8 13  1  0  0  0  0
  9 10  1  6  0  0  0
  9 15  1  0  0  0  0
 11 12  1  1  0  0  0
 11 17  1  0  0  0  0
 13 14  1  1  0  0  0
 13 19  1  0  0  0  0
 15 16  1  6  0  0  0
 15 20  1  0  0  0  0
 17 18  1  6  0  0  0
 17 22  1  0  0  0  0
 19  2  1  6  0  0  0
 19 24  1  0  0  0  0
 20 21  1  0  0  0  0
 20 26  1  1  0  0  0
 22 23  1  0  0  0  0
 22 28  1  1  0  0  0
 24 25  1  1  0  0  0
 24 30  1  0  0  0  0
 26 27  1  0  0  0  0
 28 29  1  0  0  0  0
 30 31  1  6  0  0  0
M  END
>  <CHROM.1>
172.95965708,-161.51144040,-125.88397914,177.08760866,50.52563610,175.54932845
7.93002458,14.71634081,3.31419815,-2.50941474,0.59989433,-0.66818248

>  <Name>
2o3x_lig

>  <RI>
3.65513e+07

>  <Rbt.Current_Directory>
/home/itssahil/PROJECTS/Mol_Feturizer/New_Systems/rnas/2o3x

>  <Rbt.Executable>
rbdock ($Id: //depot/dev/client3/rdock/2013.1/src/exe/rbdock.cxx#4 $)

>  <Rbt.Library>
libRbt.so (2013.1, Build901 2013/11/27)

>  <Rbt.Parameter_File>
/export/apps/rDock/src/rDock_2013.1_src/data/scripts/dock_solv.prm

>  <Rbt.Receptor>
prm/blind_docking_20.prm

>  <SCORE>
23.8189

>  <SCORE.INTER>
2.23698

>  <SCORE.INTER.CONST>
1

>  <SCORE.INTER.POLAR>
0

>  <SCORE.INTER.ROT>
6

>  <SCORE.INTER.SOLV>
16.5059

>  <SCORE.INTER.VDW>
-11.6107

>  <SCORE.INTER.norm>
0.0721606

>  <SCORE.INTRA>
1.37898

>  <SCORE.INTRA.DIHEDRAL>
-0.00867143

>  <SCORE.INTRA.DIHEDRAL.0>
9.37739

>  <SCORE.INTRA.POLAR>
0

>  <SCORE.INTRA.POLAR.0>
0

>  <SCORE.INTRA.REPUL>
0

>  <SCORE.INTRA.REPUL.0>
0

>  <SCORE.INTRA.SOLV>
1.11286

>  <SCORE.INTRA.SOLV.lig_0>
-82.9274

>  <SCORE.INTRA.VDW>
0.826886

>  <SCORE.INTRA.VDW.0>
-3.84922

>  <SCORE.INTRA.norm>
0.0444833

>  <SCORE.RESTR>
20.203

>  <SCORE.RESTR.CAVITY>
20.203

>  <SCORE.RESTR.norm>
0.651709

>  <SCORE.SYSTEM>
0

>  <SCORE.SYSTEM.CONST>
0

>  <SCORE.SYSTEM.DIHEDRAL>
0

>  <SCORE.SYSTEM.SOLV>
0

>  <SCORE.SYSTEM.norm>
0

>  <SCORE.heavy>
31

>  <SCORE.norm>
0.768353

>  <RMSD>
16.387

$$$$
2o3x_lig
 OpenBabel11021811463D
libRbt.so/2013.1/901 2013/11/27
 31 33  0  0  0  0  0  0  0  0999 V2000
    7.5175   14.0942    5.1709 C   0  0  2  0  0  0  0  0  0  0  0  0
    6.8496   14.3931    3.9380 O   0  0  0  0  0  0  0  0  0  0  0  0
    6.6556   17.6562    1.1789 C   0  0  2  0  0  0  0  0  0  0  0  0
    6.7124   19.0013    0.5650 N   0  0  0  0  0  0  0  0  0  0  0  0
   10.2551   14.7773    3.0476 C   0  0  1  0  0  0  0  0  0  0  0  0
    7.3196   12.5770    5.4830 C   0  0  2  0  0  0  0  0  0  0  0  0
    7.6170   11.7204    4.3066 N   0  0  0  0  0  0  0  0  0  0  0  0
    5.5311   17.5509    2.2624 C   0  0  0  0  0  0  0  0  0  0  0  0
    9.9089   13.9733    1.7515 C   0  0  2  0  0  0  0  0  0  0  0  0
    9.0652   12.8031    1.9334 O   0  0  0  0  0  0  0  0  0  0  0  0
    5.8804   12.2743    5.9410 C   0  0  1  0  0  0  0  0  0  0  0  0
    5.7396   10.9142    6.2645 O   0  0  0  0  0  0  0  0  0  0  0  0
    5.5314   16.0847    2.8303 C   0  0  2  0  0  0  0  0  0  0  0  0
    4.4683   15.8950    3.8624 N   0  0  0  0  0  0  0  0  0  0  0  0
   11.3265   13.7084    1.2728 C   0  0  2  0  0  0  0  0  0  0  0  0
   11.9348   12.5945    2.0123 O   0  0  0  0  0  0  0  0  0  0  0  0
    5.5288   13.1453    7.1353 C   0  0  2  0  0  0  0  0  0  0  0  0
    4.2373   12.8574    7.5652 O   0  0  0  0  0  0  0  0  0  0  0  0
    6.9077   15.7490    3.4725 C   0  0  2  0  0  0  0  0  0  0  0  0
   12.0692   15.0118    1.5422 C   0  0  2  0  0  0  0  0  0  0  0  0
   11.5478   15.3533    2.8236 O   0  0  0  0  0  0  0  0  0  0  0  0
    5.6442   14.6469    6.7486 C   0  0  2  0  0  0  0  0  0  0  0  0
    6.9840   14.9289    6.2901 O   0  0  0  0  0  0  0  0  0  0  0  0
    8.0916   15.9181    2.4998 C   0  0  2  0  0  0  0  0  0  0  0  0
    9.2966   15.8069    3.3362 O   0  0  0  0  0  0  0  0  0  0  0  0
   11.7896   16.1561    0.5099 C   0  0  0  0  0  0  0  0  0  0  0  0
   12.0038   15.6818   -0.8164 N   0  0  0  0  0  0  0  0  0  0  0  0
    5.3245   15.5675    7.9035 C   0  0  0  0  0  0  0  0  0  0  0  0
    5.6480   14.9916    9.1165 O   0  0  0  0  0  0  0  0  0  0  0  0
    8.0301   17.3465    1.7988 C   0  0  1  0  0  0  0  0  0  0  0  0
    8.9861   17.4490    0.7325 O   0  0  0  0  0  0  0  0  0  0  0  0
  1  2  1  6  0  0  0
  1  6  1  0  0  0  0
  1 23  1  0  0  0  0
  3  4  1  1  0  0  0
  3  8  1  0  0  0  0
  3 30  1  0  0  0  0
  5  9  1  0  0  0  0
  5 21  1  0  0  0  0
  5 25  1  6  0  0  0
  6  7  1  6  0  0  0
  6 11  1  0  0  0  0
  8 13  1  0  0  0  0
  9 10  1  1  0  0  0
  9 15  1  0  0  0  0
 11 12  1  1  0  0  0
 11 17  1  0  0  0  0
 13 14  1  1  0  0  0
 13 19  1  0  0  0  0
 15 16  1  1  0  0  0
 15 20  1  0  0  0  0
 17 18  1  6  0  0  0
 17 22  1  0  0  0  0
 19  2  1  6  0  0  0
 19 24  1  0  0  0  0
 20 21  1  0  0  0  0
 20 26  1  6  0  0  0
 22 23  1  0  0  0  0
 22 28  1  1  0  0  0
 24 25  1  1  0  0  0
 24 30  1  0  0  0  0
 26 27  1  0  0  0  0
 28 29  1  0  0  0  0
 30 31  1  6  0  0  0
M  END
>  <CHROM.1>
179.76852051,5.09653219,-142.66970692,-52.31505974,29.97138671,120.92607310
7.88980532,14.83215359,3.66539606,-2.42727447,0.57305189,-0.69155118

>  <Name>
2o3x_lig

>  <RI>
3.65513e+07

>  <Rbt.Current_Directory>
/home/itssahil/PROJECTS/Mol_Feturizer/New_Systems/rnas/2o3x

>  <Rbt.Executable>
rbdock ($Id: //depot/dev/client3/rdock/2013.1/src/exe/rbdock.cxx#4 $)

>  <Rbt.Library>
libRbt.so (2013.1, Build901 2013/11/27)

>  <Rbt.Parameter_File>
/export/apps/rDock/src/rDock_2013.1_src/data/scripts/dock_solv.prm

>  <Rbt.Receptor>
prm/blind_docking_20.prm

>  <SCORE>
24.493

>  <SCORE.INTER>
-1.75595

>  <SCORE.INTER.CONST>
1

>  <SCORE.INTER.POLAR>
-0.168752

>  <SCORE.INTER.ROT>
6

>  <SCORE.INTER.SOLV>
17.5914

>  <SCORE.INTER.VDW>
-14.0719

>  <SCORE.INTER.norm>
-0.0566435

>  <SCORE.INTRA>
8.54516

>  <SCORE.INTRA.DIHEDRAL>
12.7498

>  <SCORE.INTRA.DIHEDRAL.0>
9.37739

>  <SCORE.INTRA.POLAR>
0

>  <SCORE.INTRA.POLAR.0>
0

>  <SCORE.INTRA.REPUL>
0.0163276

>  <SCORE.INTRA.REPUL.0>
0

>  <SCORE.INTRA.SOLV>
2.03718

>  <SCORE.INTRA.SOLV.lig_0>
-82.9274

>  <SCORE.INTRA.VDW>
1.07004

>  <SCORE.INTRA.VDW.0>
-3.84922

>  <SCORE.INTRA.norm>
0.27565

>  <SCORE.RESTR>
17.7038

>  <SCORE.RESTR.CAVITY>
17.7038

>  <SCORE.RESTR.norm>
0.571091

>  <SCORE.SYSTEM>
0

>  <SCORE.SYSTEM.CONST>
0

>  <SCORE.SYSTEM.DIHEDRAL>
0

>  <SCORE.SYSTEM.SOLV>
0

>  <SCORE.SYSTEM.norm>
0

>  <SCORE.heavy>
31

>  <SCORE.norm>
0.790097

>  <RMSD>
16.402

$$$$
2o3x_lig
 OpenBabel11021811463D
libRbt.so/2013.1/901 2013/11/27
 31 33  0  0  0  0  0  0  0  0999 V2000
    5.5263   30.9108   16.0718 C   0  0  2  0  0  0  0  0  0  0  0  0
    5.8976   32.2657   16.3581 O   0  0  0  0  0  0  0  0  0  0  0  0
    6.4227   31.6683   20.5612 C   0  0  2  0  0  0  0  0  0  0  0  0
    6.7133   31.8690   21.9981 N   0  0  0  0  0  0  0  0  0  0  0  0
    4.8823   35.0571   18.1533 C   0  0  1  0  0  0  0  0  0  0  0  0
    4.7858   30.8831   14.6973 C   0  0  2  0  0  0  0  0  0  0  0  0
    5.5210   31.6376   13.6504 N   0  0  0  0  0  0  0  0  0  0  0  0
    7.7082   31.7953   19.6776 C   0  0  0  0  0  0  0  0  0  0  0  0
    4.3859   35.9864   16.9975 C   0  0  2  0  0  0  0  0  0  0  0  0
    5.1043   35.8767   15.7380 O   0  0  0  0  0  0  0  0  0  0  0  0
    3.3677   31.4752   14.8040 C   0  0  1  0  0  0  0  0  0  0  0  0
    2.7030   31.3933   13.5688 O   0  0  0  0  0  0  0  0  0  0  0  0
    7.3030   31.5373   18.1803 C   0  0  2  0  0  0  0  0  0  0  0  0
    8.4836   31.6221   17.2692 N   0  0  0  0  0  0  0  0  0  0  0  0
    4.5029   37.3175   17.7209 C   0  0  2  0  0  0  0  0  0  0  0  0
    5.8940   37.7889   17.7392 O   0  0  0  0  0  0  0  0  0  0  0  0
    2.5854   30.7409   15.8799 C   0  0  2  0  0  0  0  0  0  0  0  0
    1.2967   31.2587   15.9623 O   0  0  0  0  0  0  0  0  0  0  0  0
    6.2450   32.5780   17.7147 C   0  0  2  0  0  0  0  0  0  0  0  0
    4.0067   37.0284   19.1328 C   0  0  2  0  0  0  0  0  0  0  0  0
    4.6127   35.7611   19.3718 O   0  0  0  0  0  0  0  0  0  0  0  0
    3.3089   30.8795   17.2492 C   0  0  2  0  0  0  0  0  0  0  0  0
    4.6494   30.3530   17.1460 O   0  0  0  0  0  0  0  0  0  0  0  0
    4.9763   32.5908   18.5902 C   0  0  2  0  0  0  0  0  0  0  0  0
    4.2246   33.7806   18.1621 O   0  0  0  0  0  0  0  0  0  0  0  0
    2.4501   36.9319   19.2783 C   0  0  0  0  0  0  0  0  0  0  0  0
    2.0998   35.7725   20.0286 N   0  0  0  0  0  0  0  0  0  0  0  0
    2.5878   30.1523   18.3603 C   0  0  0  0  0  0  0  0  0  0  0  0
    3.2496   30.2825   19.5656 O   0  0  0  0  0  0  0  0  0  0  0  0
    5.3689   32.7039   20.1292 C   0  0  1  0  0  0  0  0  0  0  0  0
    4.2292   32.4981   20.9777 O   0  0  0  0  0  0  0  0  0  0  0  0
  1  2  1  1  0  0  0
  1  6  1  0  0  0  0
  1 23  1  0  0  0  0
  3  4  1  1  0  0  0
  3  8  1  0  0  0  0
  3 30  1  0  0  0  0
  5  9  1  0  0  0  0
  5 21  1  0  0  0  0
  5 25  1  1  0  0  0
  6  7  1  6  0  0  0
  6 11  1  0  0  0  0
  8 13  1  0  0  0  0
  9 10  1  6  0  0  0
  9 15  1  0  0  0  0
 11 12  1  6  0  0  0
 11 17  1  0  0  0  0
 13 14  1  6  0  0  0
 13 19  1  0  0  0  0
 15 16  1  1  0  0  0
 15 20  1  0  0  0  0
 17 18  1  1  0  0  0
 17 22  1  0  0  0  0
 19  2  1  6  0  0  0
 19 24  1  0  0  0  0
 20 21  1  0  0  0  0
 20 26  1  6  0  0  0
 22 23  1  0  0  0  0
 22 28  1  1  0  0  0
 24 25  1  6  0  0  0
 24 30  1  0  0  0  0
 26 27  1  0  0  0  0
 28 29  1  0  0  0  0
 30 31  1  1  0  0  0
M  END
>  <CHROM.1>
162.92702596,146.20698119,50.91819113,132.68999799,179.70856508,-53.57092262
4.65316320,32.98792823,17.75830056,-1.71225034,-1.09677978,0.40231016

>  <Name>
2o3x_lig

>  <RI>
0

>  <Rbt.Current_Directory>
/home/itssahil/PROJECTS/Mol_Feturizer/New_Systems/rnas/2o3x

>  <Rbt.Executable>
rbdock ($Id: //depot/dev/client3/rdock/2013.1/src/exe/rbdock.cxx#4 $)

>  <Rbt.Library>
libRbt.so (2013.1, Build901 2013/11/27)

>  <Rbt.Parameter_File>
/export/apps/rDock/src/rDock_2013.1_src/data/scripts/dock_solv.prm

>  <Rbt.Receptor>
prm/blind_docking_80.prm

>  <SCORE>
13.6957

>  <SCORE.INTER>
-0.36011

>  <SCORE.INTER.CONST>
1

>  <SCORE.INTER.POLAR>
-1.0879

>  <SCORE.INTER.ROT>
6

>  <SCORE.INTER.SOLV>
31.4914

>  <SCORE.INTER.VDW>
-14.7109

>  <SCORE.INTER.norm>
-0.0116165

>  <SCORE.INTRA>
4.76148

>  <SCORE.INTRA.DIHEDRAL>
1.58713

>  <SCORE.INTRA.DIHEDRAL.0>
9.37739

>  <SCORE.INTRA.POLAR>
0

>  <SCORE.INTRA.POLAR.0>
0

>  <SCORE.INTRA.REPUL>
0

>  <SCORE.INTRA.REPUL.0>
0

>  <SCORE.INTRA.SOLV>
1.10331

>  <SCORE.INTRA.SOLV.lig_0>
-82.9274

>  <SCORE.INTRA.VDW>
3.41626

>  <SCORE.INTRA.VDW.0>
-3.84922

>  <SCORE.INTRA.norm>
0.153596

>  <SCORE.RESTR>
9.29436

>  <SCORE.RESTR.CAVITY>
9.29436

>  <SCORE.RESTR.norm>
0.299818

>  <SCORE.SYSTEM>
0

>  <SCORE.SYSTEM.CONST>
0

>  <SCORE.SYSTEM.DIHEDRAL>
0

>  <SCORE.SYSTEM.SOLV>
0

>  <SCORE.SYSTEM.norm>
0

>  <SCORE.heavy>
31

>  <SCORE.norm>
0.441798

>  <RMSD>
31.779

$$$$
2o3x_lig
 OpenBabel11021811463D
libRbt.so/2013.1/901 2013/11/27
 31 33  0  0  0  0  0  0  0  0999 V2000
    3.6670   35.1696   17.0200 C   0  0  2  0  0  0  0  0  0  0  0  0
    4.5096   34.2451   16.3194 O   0  0  0  0  0  0  0  0  0  0  0  0
    3.0077   30.2407   16.3981 C   0  0  2  0  0  0  0  0  0  0  0  0
    2.7874   28.8133   16.7200 N   0  0  0  0  0  0  0  0  0  0  0  0
    4.3512   32.8366   19.6511 C   0  0  1  0  0  0  0  0  0  0  0  0
    3.3683   36.3768   16.0756 C   0  0  2  0  0  0  0  0  0  0  0  0
    2.9422   35.9367   14.7227 N   0  0  0  0  0  0  0  0  0  0  0  0
    4.3982   30.4836   15.7224 C   0  0  0  0  0  0  0  0  0  0  0  0
    4.8206   31.3800   19.3285 C   0  0  2  0  0  0  0  0  0  0  0  0
    4.1043   30.3137   20.0099 O   0  0  0  0  0  0  0  0  0  0  0  0
    4.5987   37.2895   15.9141 C   0  0  1  0  0  0  0  0  0  0  0  0
    4.2920   38.3946   15.1023 O   0  0  0  0  0  0  0  0  0  0  0  0
    4.5240   32.0161   15.3936 C   0  0  2  0  0  0  0  0  0  0  0  0
    5.8227   32.3300   14.7257 N   0  0  0  0  0  0  0  0  0  0  0  0
    6.2881   31.5376   19.6896 C   0  0  2  0  0  0  0  0  0  0  0  0
    6.4854   31.4669   21.1435 O   0  0  0  0  0  0  0  0  0  0  0  0
    5.0789   37.7489   17.2805 C   0  0  2  0  0  0  0  0  0  0  0  0
    6.1762   38.5920   17.1358 O   0  0  0  0  0  0  0  0  0  0  0  0
    4.4209   32.8630   16.6940 C   0  0  2  0  0  0  0  0  0  0  0  0
    6.6663   32.9137   19.1544 C   0  0  2  0  0  0  0  0  0  0  0  0
    5.5124   33.6657   19.5195 O   0  0  0  0  0  0  0  0  0  0  0  0
    5.4583   36.5175   18.1506 C   0  0  2  0  0  0  0  0  0  0  0  0
    4.3162   35.6436   18.2801 O   0  0  0  0  0  0  0  0  0  0  0  0
    3.1180   32.6166   17.4802 C   0  0  2  0  0  0  0  0  0  0  0  0
    3.3127   33.2942   18.7712 O   0  0  0  0  0  0  0  0  0  0  0  0
    6.9002   32.9785   17.6070 C   0  0  0  0  0  0  0  0  0  0  0  0
    7.7474   31.9097   17.1950 N   0  0  0  0  0  0  0  0  0  0  0  0
    5.9271   36.9087   19.5329 C   0  0  0  0  0  0  0  0  0  0  0  0
    6.7373   38.0268   19.4967 O   0  0  0  0  0  0  0  0  0  0  0  0
    2.8924   31.0555   17.6990 C   0  0  1  0  0  0  0  0  0  0  0  0
    1.5869   30.7838   18.2311 O   0  0  0  0  0  0  0  0  0  0  0  0
  1  2  1  6  0  0  0
  1  6  1  0  0  0  0
  1 23  1  0  0  0  0
  3  4  1  1  0  0  0
  3  8  1  0  0  0  0
  3 30  1  0  0  0  0
  5  9  1  0  0  0  0
  5 21  1  0  0  0  0
  5 25  1  6  0  0  0
  6  7  1  6  0  0  0
  6 11  1  0  0  0  0
  8 13  1  0  0  0  0
  9 10  1  1  0  0  0
  9 15  1  0  0  0  0
 11 12  1  6  0  0  0
 11 17  1  0  0  0  0
 13 14  1  1  0  0  0
 13 19  1  0  0  0  0
 15 16  1  1  0  0  0
 15 20  1  0  0  0  0
 17 18  1  6  0  0  0
 17 22  1  0  0  0  0
 19  2  1  6  0  0  0
 19 24  1  0  0  0  0
 20 21  1  0  0  0  0
 20 26  1  6  0  0  0
 22 23  1  0  0  0  0
 22 28  1  1  0  0  0
 24 25  1  1  0  0  0
 24 30  1  0  0  0  0
 26 27  1  0  0  0  0
 28 29  1  0  0  0  0
 30 31  1  6  0  0  0
M  END
>  <CHROM.1>
-152.20789677,-19.55427762,141.17747336,-47.73066723,-40.51189882,-63.55981027
4.71199739,33.72519179,17.65526954,1.29727032,-0.96913696,-0.36302327

>  <Name>
2o3x_lig

>  <RI>
0

>  <Rbt.Current_Directory>
/home/itssahil/PROJECTS/Mol_Feturizer/New_Systems/rnas/2o3x

>  <Rbt.Executable>
rbdock ($Id: //depot/dev/client3/rdock/2013.1/src/exe/rbdock.cxx#4 $)

>  <Rbt.Library>
libRbt.so (2013.1, Build901 2013/11/27)

>  <Rbt.Parameter_File>
/export/apps/rDock/src/rDock_2013.1_src/data/scripts/dock_solv.prm

>  <Rbt.Receptor>
prm/blind_docking_80.prm

>  <SCORE>
20.3023

>  <SCORE.INTER>
-6.6395

>  <SCORE.INTER.CONST>
1

>  <SCORE.INTER.POLAR>
-1.03923

>  <SCORE.INTER.ROT>
6

>  <SCORE.INTER.SOLV>
27.1959

>  <SCORE.INTER.VDW>
-17.6275

>  <SCORE.INTER.norm>
-0.214177

>  <SCORE.INTRA>
20.3646

>  <SCORE.INTRA.DIHEDRAL>
6.38892

>  <SCORE.INTRA.DIHEDRAL.0>
9.37739

>  <SCORE.INTRA.POLAR>
0

>  <SCORE.INTRA.POLAR.0>
0

>  <SCORE.INTRA.REPUL>
0

>  <SCORE.INTRA.REPUL.0>
0

>  <SCORE.INTRA.SOLV>
5.47262

>  <SCORE.INTRA.SOLV.lig_0>
-82.9274

>  <SCORE.INTRA.VDW>
14.4339

>  <SCORE.INTRA.VDW.0>
-3.84922

>  <SCORE.INTRA.norm>
0.656924

>  <SCORE.RESTR>
6.57715

>  <SCORE.RESTR.CAVITY>
6.57715

>  <SCORE.RESTR.norm>
0.212166

>  <SCORE.SYSTEM>
0

>  <SCORE.SYSTEM.CONST>
0

>  <SCORE.SYSTEM.DIHEDRAL>
0

>  <SCORE.SYSTEM.SOLV>
0

>  <SCORE.SYSTEM.norm>
0

>  <SCORE.heavy>
31

>  <SCORE.norm>
0.654913

>  <RMSD>
32.217

$$$$
2o3x_lig
 OpenBabel11021811463D
libRbt.so/2013.1/901 2013/11/27
 31 33  0  0  0  0  0  0  0  0999 V2000
    5.1996   31.3801   15.8787 C   0  0  2  0  0  0  0  0  0  0  0  0
    5.5132   32.7100   16.3130 O   0  0  0  0  0  0  0  0  0  0  0  0
    5.4217   31.8902   20.5104 C   0  0  2  0  0  0  0  0  0  0  0  0
    5.5816   31.9824   21.9785 N   0  0  0  0  0  0  0  0  0  0  0  0
    4.9656   35.5361   17.8816 C   0  0  1  0  0  0  0  0  0  0  0  0
    4.2021   31.4755   14.6811 C   0  0  2  0  0  0  0  0  0  0  0  0
    4.6497   32.4532   13.6567 N   0  0  0  0  0  0  0  0  0  0  0  0
    6.7980   31.7708   19.7750 C   0  0  0  0  0  0  0  0  0  0  0  0
    4.5577   36.6168   16.8271 C   0  0  2  0  0  0  0  0  0  0  0  0
    4.9953   36.3728   15.4621 O   0  0  0  0  0  0  0  0  0  0  0  0
    2.7924   31.8857   15.1474 C   0  0  1  0  0  0  0  0  0  0  0  0
    1.9011   31.9156   14.0616 O   0  0  0  0  0  0  0  0  0  0  0  0
    6.5219   31.6485   18.2319 C   0  0  2  0  0  0  0  0  0  0  0  0
    7.7908   31.5107   17.4558 N   0  0  0  0  0  0  0  0  0  0  0  0
    5.1574   37.8317   17.5152 C   0  0  2  0  0  0  0  0  0  0  0  0
    6.6070   37.9052   17.2893 O   0  0  0  0  0  0  0  0  0  0  0  0
    2.3031   30.9185   16.2122 C   0  0  2  0  0  0  0  0  0  0  0  0
    1.0207   31.2735   16.6184 O   0  0  0  0  0  0  0  0  0  0  0  0
    5.7604   32.9016   17.7133 C   0  0  2  0  0  0  0  0  0  0  0  0
    4.8457   37.6250   18.9927 C   0  0  2  0  0  0  0  0  0  0  0  0
    5.1098   36.2311   19.1262 O   0  0  0  0  0  0  0  0  0  0  0  0
    3.2743   30.9310   17.4264 C   0  0  2  0  0  0  0  0  0  0  0  0
    4.6038   30.5761   16.9889 O   0  0  0  0  0  0  0  0  0  0  0  0
    4.4299   33.1544   18.4498 C   0  0  2  0  0  0  0  0  0  0  0  0
    3.9924   34.4878   18.0087 O   0  0  0  0  0  0  0  0  0  0  0  0
    3.3706   37.9493   19.4076 C   0  0  0  0  0  0  0  0  0  0  0  0
    3.1063   39.3379   19.2296 N   0  0  0  0  0  0  0  0  0  0  0  0
    2.8512   29.9722   18.5149 C   0  0  0  0  0  0  0  0  0  0  0  0
    3.5533   30.1899   19.6844 O   0  0  0  0  0  0  0  0  0  0  0  0
    4.6594   33.1365   20.0254 C   0  0  1  0  0  0  0  0  0  0  0  0
    3.4126   33.1493   20.7371 O   0  0  0  0  0  0  0  0  0  0  0  0
  1  2  1  1  0  0  0
  1  6  1  0  0  0  0
  1 23  1  0  0  0  0
  3  4  1  1  0  0  0
  3  8  1  0  0  0  0
  3 30  1  0  0  0  0
  5  9  1  0  0  0  0
  5 21  1  0  0  0  0
  5 25  1  1  0  0  0
  6  7  1  6  0  0  0
  6 11  1  0  0  0  0
  8 13  1  0  0  0  0
  9 10  1  6  0  0  0
  9 15  1  0  0  0  0
 11 12  1  6  0  0  0
 11 17  1  0  0  0  0
 13 14  1  6  0  0  0
 13 19  1  0  0  0  0
 15 16  1  1  0  0  0
 15 20  1  0  0  0  0
 17 18  1  1  0  0  0
 17 22  1  0  0  0  0
 19  2  1  6  0  0  0
 19 24  1  0  0  0  0
 20 21  1  0  0  0  0
 20 26  1  6  0  0  0
 22 23  1  0  0  0  0
 22 28  1  1  0  0  0
 24 25  1  6  0  0  0
 24 30  1  0  0  0  0
 26 27  1  0  0  0  0
 28 29  1  0  0  0  0
 30 31  1  1  0  0  0
M  END
>  <CHROM.1>
146.79838888,152.98845272,36.96383035,-64.99568041,-167.62284063,-41.12985071
4.46056527,33.44711475,17.72813789,2.07007296,1.26848316,2.87832887

>  <Name>
2o3x_lig

>  <RI>
0

>  <Rbt.Current_Directory>
/home/itssahil/PROJECTS/Mol_Feturizer/New_Systems/rnas/2o3x

>  <Rbt.Executable>
rbdock ($Id: //depot/dev/client3/rdock/2013.1/src/exe/rbdock.cxx#4 $)

>  <Rbt.Library>
libRbt.so (2013.1, Build901 2013/11/27)

>  <Rbt.Parameter_File>
/export/apps/rDock/src/rDock_2013.1_src/data/scripts/dock_solv.prm

>  <Rbt.Receptor>
prm/blind_docking_80.prm

>  <SCORE>
5.9921

>  <SCORE.INTER>
-10.609

>  <SCORE.INTER.CONST>
1

>  <SCORE.INTER.POLAR>
-1.62453

>  <SCORE.INTER.ROT>
6

>  <SCORE.INTER.SOLV>
30.1625

>  <SCORE.INTER.VDW>
-19.3117

>  <SCORE.INTER.norm>
-0.342224

>  <SCORE.INTRA>
8.61728

>  <SCORE.INTRA.DIHEDRAL>
2.57294

>  <SCORE.INTRA.DIHEDRAL.0>
9.37739

>  <SCORE.INTRA.POLAR>
0

>  <SCORE.INTRA.POLAR.0>
0

>  <SCORE.INTRA.REPUL>
0

>  <SCORE.INTRA.REPUL.0>
0

>  <SCORE.INTRA.SOLV>
0.615942

>  <SCORE.INTRA.SOLV.lig_0>
-82.9274

>  <SCORE.INTRA.VDW>
7.02284

>  <SCORE.INTRA.VDW.0>
-3.84922

>  <SCORE.INTRA.norm>
0.277977

>  <SCORE.RESTR>
7.98378

>  <SCORE.RESTR.CAVITY>
7.98378

>  <SCORE.RESTR.norm>
0.257541

>  <SCORE.SYSTEM>
0

>  <SCORE.SYSTEM.CONST>
0

>  <SCORE.SYSTEM.DIHEDRAL>
0

>  <SCORE.SYSTEM.SOLV>
0

>  <SCORE.SYSTEM.norm>
0

>  <SCORE.heavy>
31

>  <SCORE.norm>
0.193294

>  <RMSD>
32.286

$$$$
2o3x_lig
 OpenBabel11021811463D
libRbt.so/2013.1/901 2013/11/27
 31 33  0  0  0  0  0  0  0  0999 V2000
    2.1545   32.5298   18.1609 C   0  0  2  0  0  0  0  0  0  0  0  0
    3.0243   32.7060   19.2869 O   0  0  0  0  0  0  0  0  0  0  0  0
    7.1618   32.2527   20.2738 C   0  0  2  0  0  0  0  0  0  0  0  0
    8.6171   31.9940   20.2063 N   0  0  0  0  0  0  0  0  0  0  0  0
    5.5409   35.7238   17.7731 C   0  0  1  0  0  0  0  0  0  0  0  0
    1.7462   31.0245   18.0847 C   0  0  2  0  0  0  0  0  0  0  0  0
    1.2957   30.4998   19.3991 N   0  0  0  0  0  0  0  0  0  0  0  0
    6.3218   30.9526   20.0422 C   0  0  0  0  0  0  0  0  0  0  0  0
    4.7860   36.5936   16.7149 C   0  0  2  0  0  0  0  0  0  0  0  0
    5.2164   36.4348   15.3351 O   0  0  0  0  0  0  0  0  0  0  0  0
    2.9113   30.1442   17.5943 C   0  0  1  0  0  0  0  0  0  0  0  0
    2.5064   28.8031   17.4851 O   0  0  0  0  0  0  0  0  0  0  0  0
    4.7986   31.3235   20.1628 C   0  0  2  0  0  0  0  0  0  0  0  0
    3.9249   30.1270   19.9723 N   0  0  0  0  0  0  0  0  0  0  0  0
    5.0287   37.9576   17.3390 C   0  0  2  0  0  0  0  0  0  0  0  0
    6.3803   38.4454   17.0343 O   0  0  0  0  0  0  0  0  0  0  0  0
    3.4150   30.6594   16.2566 C   0  0  2  0  0  0  0  0  0  0  0  0
    4.4523   29.8520   15.8005 O   0  0  0  0  0  0  0  0  0  0  0  0
    4.4115   32.3910   19.0998 C   0  0  2  0  0  0  0  0  0  0  0  0
    4.8567   37.7275   18.8359 C   0  0  2  0  0  0  0  0  0  0  0  0
    5.5270   36.4795   18.9903 O   0  0  0  0  0  0  0  0  0  0  0  0
    3.9024   32.1285   16.4038 C   0  0  2  0  0  0  0  0  0  0  0  0
    2.8217   32.9524   16.8920 O   0  0  0  0  0  0  0  0  0  0  0  0
    5.2570   33.6767   19.1912 C   0  0  2  0  0  0  0  0  0  0  0  0
    4.9281   34.4414   17.9784 O   0  0  0  0  0  0  0  0  0  0  0  0
    3.3712   37.6195   19.3205 C   0  0  0  0  0  0  0  0  0  0  0  0
    2.7408   36.4924   18.7187 N   0  0  0  0  0  0  0  0  0  0  0  0
    4.3995   32.7062   15.0990 C   0  0  0  0  0  0  0  0  0  0  0  0
    5.5225   32.0424   14.6449 O   0  0  0  0  0  0  0  0  0  0  0  0
    6.8079   33.3165   19.2190 C   0  0  1  0  0  0  0  0  0  0  0  0
    7.6085   34.4687   19.5233 O   0  0  0  0  0  0  0  0  0  0  0  0
  1  2  1  1  0  0  0
  1  6  1  0  0  0  0
  1 23  1  0  0  0  0
  3  4  1  6  0  0  0
  3  8  1  0  0  0  0
  3 30  1  0  0  0  0
  5  9  1  0  0  0  0
  5 21  1  0  0  0  0
  5 25  1  1  0  0  0
  6  7  1  1  0  0  0
  6 11  1  0  0  0  0
  8 13  1  0  0  0  0
  9 10  1  6  0  0  0
  9 15  1  0  0  0  0
 11 12  1  6  0  0  0
 11 17  1  0  0  0  0
 13 14  1  6  0  0  0
 13 19  1  0  0  0  0
 15 16  1  1  0  0  0
 15 20  1  0  0  0  0
 17 18  1  1  0  0  0
 17 22  1  0  0  0  0
 19  2  1  1  0  0  0
 19 24  1  0  0  0  0
 20 21  1  0  0  0  0
 20 26  1  6  0  0  0
 22 23  1  0  0  0  0
 22 28  1  6  0  0  0
 24 25  1  6  0  0  0
 24 30  1  0  0  0  0
 26 27  1  0  0  0  0
 28 29  1  0  0  0  0
 30 31  1  1  0  0  0
M  END
>  <CHROM.1>
82.54927203,-162.08414020,-123.28349724,62.73683049,-64.42136288,178.77851970
4.57566480,33.38258144,18.05152347,1.95530406,0.75282961,2.86369330

>  <Name>
2o3x_lig

>  <RI>
0

>  <Rbt.Current_Directory>
/home/itssahil/PROJECTS/Mol_Feturizer/New_Systems/rnas/2o3x

>  <Rbt.Executable>
rbdock ($Id: //depot/dev/client3/rdock/2013.1/src/exe/rbdock.cxx#4 $)

>  <Rbt.Library>
libRbt.so (2013.1, Build901 2013/11/27)

>  <Rbt.Parameter_File>
/export/apps/rDock/src/rDock_2013.1_src/data/scripts/dock_solv.prm

>  <Rbt.Receptor>
prm/blind_docking_80.prm

>  <SCORE>
26.0159

>  <SCORE.INTER>
11.8223

>  <SCORE.INTER.CONST>
1

>  <SCORE.INTER.POLAR>
0

>  <SCORE.INTER.ROT>
6

>  <SCORE.INTER.SOLV>
19.3273

>  <SCORE.INTER.VDW>
-6.16094

>  <SCORE.INTER.norm>
0.381363

>  <SCORE.INTRA>
7.50422

>  <SCORE.INTRA.DIHEDRAL>
1.65342

>  <SCORE.INTRA.DIHEDRAL.0>
9.37739

>  <SCORE.INTRA.POLAR>
0

>  <SCORE.INTRA.POLAR.0>
0

>  <SCORE.INTRA.REPUL>
0

>  <SCORE.INTRA.REPUL.0>
0

>  <SCORE.INTRA.SOLV>
9.0141

>  <SCORE.INTRA.SOLV.lig_0>
-82.9274

>  <SCORE.INTRA.VDW>
2.17046

>  <SCORE.INTRA.VDW.0>
-3.84922

>  <SCORE.INTRA.norm>
0.242072

>  <SCORE.RESTR>
6.68942

>  <SCORE.RESTR.CAVITY>
6.68942

>  <SCORE.RESTR.norm>
0.215788

>  <SCORE.SYSTEM>
0

>  <SCORE.SYSTEM.CONST>
0

>  <SCORE.SYSTEM.DIHEDRAL>
0

>  <SCORE.SYSTEM.SOLV>
0

>  <SCORE.SYSTEM.norm>
0

>  <SCORE.heavy>
31

>  <SCORE.norm>
0.839223

>  <RMSD>
32.290

$$$$
2o3x_lig
 OpenBabel11021811463D
libRbt.so/2013.1/901 2013/11/27
 31 33  0  0  0  0  0  0  0  0999 V2000
    3.8485   35.6683   17.8311 C   0  0  2  0  0  0  0  0  0  0  0  0
    4.6941   34.6261   17.3268 O   0  0  0  0  0  0  0  0  0  0  0  0
    6.3315   32.3265   20.5406 C   0  0  2  0  0  0  0  0  0  0  0  0
    6.6690   31.2264   21.4708 N   0  0  0  0  0  0  0  0  0  0  0  0
    5.6595   31.2126   16.3846 C   0  0  1  0  0  0  0  0  0  0  0  0
    3.3104   36.4951   16.6206 C   0  0  2  0  0  0  0  0  0  0  0  0
    2.7731   35.6250   15.5435 N   0  0  0  0  0  0  0  0  0  0  0  0
    4.8218   32.7294   20.6289 C   0  0  0  0  0  0  0  0  0  0  0  0
    4.1982   31.2794   16.9380 C   0  0  2  0  0  0  0  0  0  0  0  0
    4.0077   30.7938   18.2953 O   0  0  0  0  0  0  0  0  0  0  0  0
    4.4075   37.3872   16.0096 C   0  0  1  0  0  0  0  0  0  0  0  0
    3.8885   38.1585   14.9560 O   0  0  0  0  0  0  0  0  0  0  0  0
    4.5712   33.9186   19.6312 C   0  0  2  0  0  0  0  0  0  0  0  0
    3.1501   34.3773   19.6690 N   0  0  0  0  0  0  0  0  0  0  0  0
    3.5115   30.4843   15.8402 C   0  0  2  0  0  0  0  0  0  0  0  0
    3.7056   29.0410   16.0323 O   0  0  0  0  0  0  0  0  0  0  0  0
    4.9977   38.2831   17.0855 C   0  0  2  0  0  0  0  0  0  0  0  0
    5.9730   39.1061   16.5312 O   0  0  0  0  0  0  0  0  0  0  0  0
    4.9125   33.4901   18.1755 C   0  0  2  0  0  0  0  0  0  0  0  0
    4.1780   30.9575   14.5537 C   0  0  2  0  0  0  0  0  0  0  0  0
    5.5393   31.0226   14.9695 O   0  0  0  0  0  0  0  0  0  0  0  0
    5.6091   37.4152   18.2215 C   0  0  2  0  0  0  0  0  0  0  0  0
    4.5910   36.5554   18.7775 O   0  0  0  0  0  0  0  0  0  0  0  0
    6.3598   32.9854   18.0122 C   0  0  2  0  0  0  0  0  0  0  0  0
    6.4147   32.4019   16.6630 O   0  0  0  0  0  0  0  0  0  0  0  0
    3.6926   32.3529   14.0336 C   0  0  0  0  0  0  0  0  0  0  0  0
    2.2693   32.3865   13.9784 N   0  0  0  0  0  0  0  0  0  0  0  0
    6.1972   38.2509   19.3347 C   0  0  0  0  0  0  0  0  0  0  0  0
    5.3054   39.2091   19.7758 O   0  0  0  0  0  0  0  0  0  0  0  0
    6.6860   31.8798   19.1108 C   0  0  1  0  0  0  0  0  0  0  0  0
    8.0835   31.5513   19.1254 O   0  0  0  0  0  0  0  0  0  0  0  0
  1  2  1  6  0  0  0
  1  6  1  0  0  0  0
  1 23  1  0  0  0  0
  3  4  1  1  0  0  0
  3  8  1  0  0  0  0
  3 30  1  0  0  0  0
  5  9  1  0  0  0  0
  5 21  1  0  0  0  0
  5 25  1  6  0  0  0
  6  7  1  6  0  0  0
  6 11  1  0  0  0  0
  8 13  1  0  0  0  0
  9 10  1  1  0  0  0
  9 15  1  0  0  0  0
 11 12  1  6  0  0  0
 11 17  1  0  0  0  0
 13 14  1  6  0  0  0
 13 19  1  0  0  0  0
 15 16  1  1  0  0  0
 15 20  1  0  0  0  0
 17 18  1  6  0  0  0
 17 22  1  0  0  0  0
 19  2  1  6  0  0  0
 19 24  1  0  0  0  0
 20 21  1  0  0  0  0
 20 26  1  1  0  0  0
 22 23  1  0  0  0  0
 22 28  1  1  0  0  0
 24 25  1  6  0  0  0
 24 30  1  0  0  0  0
 26 27  1  0  0  0  0
 28 29  1  0  0  0  0
 30 31  1  1  0  0  0
M  END
>  <CHROM.1>
-158.64467911,45.45982242,-19.92490764,-50.53194882,50.34081516,-66.98433697
4.86547646,33.99066631,17.47486397,1.55656919,-1.12393521,0.09393337

>  <Name>
2o3x_lig

>  <RI>
0

>  <Rbt.Current_Directory>
/home/itssahil/PROJECTS/Mol_Feturizer/New_Systems/rnas/2o3x

>  <Rbt.Executable>
rbdock ($Id: //depot/dev/client3/rdock/2013.1/src/exe/rbdock.cxx#4 $)

>  <Rbt.Library>
libRbt.so (2013.1, Build901 2013/11/27)

>  <Rbt.Parameter_File>
/export/apps/rDock/src/rDock_2013.1_src/data/scripts/dock_solv.prm

>  <Rbt.Receptor>
prm/blind_docking_80.prm

>  <SCORE>
19.2717

>  <SCORE.INTER>
-3.93464

>  <SCORE.INTER.CONST>
1

>  <SCORE.INTER.POLAR>
-0.821745

>  <SCORE.INTER.ROT>
6

>  <SCORE.INTER.SOLV>
20.8198

>  <SCORE.INTER.VDW>
-14.4239

>  <SCORE.INTER.norm>
-0.126924

>  <SCORE.INTRA>
14.8819

>  <SCORE.INTRA.DIHEDRAL>
0.0113247

>  <SCORE.INTRA.DIHEDRAL.0>
9.37739

>  <SCORE.INTRA.POLAR>
0

>  <SCORE.INTRA.POLAR.0>
0

>  <SCORE.INTRA.REPUL>
0

>  <SCORE.INTRA.REPUL.0>
0

>  <SCORE.INTRA.SOLV>
3.60035

>  <SCORE.INTRA.SOLV.lig_0>
-82.9274

>  <SCORE.INTRA.VDW>
13.0761

>  <SCORE.INTRA.VDW.0>
-3.84922

>  <SCORE.INTRA.norm>
0.480063

>  <SCORE.RESTR>
8.32436

>  <SCORE.RESTR.CAVITY>
8.32436

>  <SCORE.RESTR.norm>
0.268528

>  <SCORE.SYSTEM>
0

>  <SCORE.SYSTEM.CONST>
0

>  <SCORE.SYSTEM.DIHEDRAL>
0

>  <SCORE.SYSTEM.SOLV>
0

>  <SCORE.SYSTEM.norm>
0

>  <SCORE.heavy>
31

>  <SCORE.norm>
0.621666

>  <RMSD>
32.351

$$$$
2o3x_lig
 OpenBabel11021811463D
libRbt.so/2013.1/901 2013/11/27
 31 33  0  0  0  0  0  0  0  0999 V2000
    5.0545   35.6675   17.9802 C   0  0  2  0  0  0  0  0  0  0  0  0
    4.1172   35.2352   16.9852 O   0  0  0  0  0  0  0  0  0  0  0  0
    4.1676   31.5639   14.7905 C   0  0  2  0  0  0  0  0  0  0  0  0
    4.5418   30.4601   13.8789 N   0  0  0  0  0  0  0  0  0  0  0  0
    6.9535   32.4831   18.3436 C   0  0  1  0  0  0  0  0  0  0  0  0
    4.2553   36.1902   19.2157 C   0  0  2  0  0  0  0  0  0  0  0  0
    3.1873   35.2456   19.6316 N   0  0  0  0  0  0  0  0  0  0  0  0
    3.8056   32.8726   14.0122 C   0  0  0  0  0  0  0  0  0  0  0  0
    7.6028   33.1886   19.5792 C   0  0  2  0  0  0  0  0  0  0  0  0
    8.9792   33.6269   19.4127 O   0  0  0  0  0  0  0  0  0  0  0  0
    3.6001   37.5552   18.9322 C   0  0  1  0  0  0  0  0  0  0  0  0
    2.9299   38.0290   20.0727 O   0  0  0  0  0  0  0  0  0  0  0  0
    3.3951   33.9703   15.0604 C   0  0  2  0  0  0  0  0  0  0  0  0
    3.0146   35.2517   14.3937 N   0  0  0  0  0  0  0  0  0  0  0  0
    7.3691   32.0924   20.6053 C   0  0  2  0  0  0  0  0  0  0  0  0
    8.3658   31.0217   20.4715 O   0  0  0  0  0  0  0  0  0  0  0  0
    4.6591   38.5489   18.4851 C   0  0  2  0  0  0  0  0  0  0  0  0
    4.0732   39.7889   18.2506 O   0  0  0  0  0  0  0  0  0  0  0  0
    4.5688   34.2541   16.0408 C   0  0  2  0  0  0  0  0  0  0  0  0
    5.9687   31.5752   20.2977 C   0  0  2  0  0  0  0  0  0  0  0  0
    6.0026   31.5513   18.8733 O   0  0  0  0  0  0  0  0  0  0  0  0
    5.3597   38.0332   17.1964 C   0  0  2  0  0  0  0  0  0  0  0  0
    5.9499   36.7398   17.4487 O   0  0  0  0  0  0  0  0  0  0  0  0
    5.0580   32.9965   16.7861 C   0  0  2  0  0  0  0  0  0  0  0  0
    6.3028   33.4048   17.4552 O   0  0  0  0  0  0  0  0  0  0  0  0
    4.8017   32.4877   20.8065 C   0  0  0  0  0  0  0  0  0  0  0  0
    3.5678   32.0722   20.2280 N   0  0  0  0  0  0  0  0  0  0  0  0
    6.4400   38.9714   16.7108 C   0  0  0  0  0  0  0  0  0  0  0  0
    5.9154   40.1825   16.3034 O   0  0  0  0  0  0  0  0  0  0  0  0
    5.3414   31.8182   15.7532 C   0  0  1  0  0  0  0  0  0  0  0  0
    5.5853   30.5754   16.4295 O   0  0  0  0  0  0  0  0  0  0  0  0
  1  2  1  6  0  0  0
  1  6  1  0  0  0  0
  1 23  1  0  0  0  0
  3  4  1  6  0  0  0
  3  8  1  0  0  0  0
  3 30  1  0  0  0  0
  5  9  1  0  0  0  0
  5 21  1  0  0  0  0
  5 25  1  6  0  0  0
  6  7  1  6  0  0  0
  6 11  1  0  0  0  0
  8 13  1  0  0  0  0
  9 10  1  6  0  0  0
  9 15  1  0  0  0  0
 11 12  1  1  0  0  0
 11 17  1  0  0  0  0
 13 14  1  6  0  0  0
 13 19  1  0  0  0  0
 15 16  1  6  0  0  0
 15 20  1  0  0  0  0
 17 18  1  6  0  0  0
 17 22  1  0  0  0  0
 19  2  1  1  0  0  0
 19 24  1  0  0  0  0
 20 21  1  0  0  0  0
 20 26  1  6  0  0  0
 22 23  1  0  0  0  0
 22 28  1  1  0  0  0
 24 25  1  6  0  0  0
 24 30  1  0  0  0  0
 26 27  1  0  0  0  0
 28 29  1  0  0  0  0
 30 31  1  1  0  0  0
M  END
>  <CHROM.1>
-155.27994342,-143.48915337,-178.99353029,167.61377679,-65.36247614,174.37107656
5.21842356,34.46516807,17.77342519,-2.04969348,1.12239225,-2.73878224

>  <Name>
2o3x_lig

>  <RI>
0

>  <Rbt.Current_Directory>
/home/itssahil/PROJECTS/Mol_Feturizer/New_Systems/rnas/2o3x

>  <Rbt.Executable>
rbdock ($Id: //depot/dev/client3/rdock/2013.1/src/exe/rbdock.cxx#4 $)

>  <Rbt.Library>
libRbt.so (2013.1, Build901 2013/11/27)

>  <Rbt.Parameter_File>
/export/apps/rDock/src/rDock_2013.1_src/data/scripts/dock_solv.prm

>  <Rbt.Receptor>
prm/blind_docking_80.prm

>  <SCORE>
11.3038

>  <SCORE.INTER>
-0.0642279

>  <SCORE.INTER.CONST>
1

>  <SCORE.INTER.POLAR>
0

>  <SCORE.INTER.ROT>
6

>  <SCORE.INTER.SOLV>
19.5649

>  <SCORE.INTER.VDW>
-14.1645

>  <SCORE.INTER.norm>
-0.00207187

>  <SCORE.INTRA>
1.65606

>  <SCORE.INTRA.DIHEDRAL>
-0.989554

>  <SCORE.INTRA.DIHEDRAL.0>
9.37739

>  <SCORE.INTRA.POLAR>
0

>  <SCORE.INTRA.POLAR.0>
0

>  <SCORE.INTRA.REPUL>
0

>  <SCORE.INTRA.REPUL.0>
0

>  <SCORE.INTRA.SOLV>
0.934171

>  <SCORE.INTRA.SOLV.lig_0>
-82.9274

>  <SCORE.INTRA.VDW>
1.68375

>  <SCORE.INTRA.VDW.0>
-3.84922

>  <SCORE.INTRA.norm>
0.0534213

>  <SCORE.RESTR>
9.71192

>  <SCORE.RESTR.CAVITY>
9.71192

>  <SCORE.RESTR.norm>
0.313288

>  <SCORE.SYSTEM>
0

>  <SCORE.SYSTEM.CONST>
0

>  <SCORE.SYSTEM.DIHEDRAL>
0

>  <SCORE.SYSTEM.SOLV>
0

>  <SCORE.SYSTEM.norm>
0

>  <SCORE.heavy>
31

>  <SCORE.norm>
0.364637

>  <RMSD>
32.604

$$$$
2o3x_lig
 OpenBabel11021811463D
libRbt.so/2013.1/901 2013/11/27
 31 33  0  0  0  0  0  0  0  0999 V2000
    5.6808   31.1767   16.7707 C   0  0  2  0  0  0  0  0  0  0  0  0
    6.0327   32.5384   17.0493 O   0  0  0  0  0  0  0  0  0  0  0  0
    4.3292   32.7310   20.9684 C   0  0  2  0  0  0  0  0  0  0  0  0
    3.9916   33.1354   22.3511 N   0  0  0  0  0  0  0  0  0  0  0  0
    4.2303   36.1123   18.3931 C   0  0  1  0  0  0  0  0  0  0  0  0
    5.0638   31.1109   15.3377 C   0  0  2  0  0  0  0  0  0  0  0  0
    5.8922   31.8325   14.3382 N   0  0  0  0  0  0  0  0  0  0  0  0
    5.8126   32.2483   20.8421 C   0  0  0  0  0  0  0  0  0  0  0  0
    5.5343   36.9655   18.5264 C   0  0  2  0  0  0  0  0  0  0  0  0
    6.3233   36.7407   19.7270 O   0  0  0  0  0  0  0  0  0  0  0  0
    3.6450   31.7096   15.3021 C   0  0  1  0  0  0  0  0  0  0  0  0
    3.0909   31.5935   14.0161 O   0  0  0  0  0  0  0  0  0  0  0  0
    6.0632   31.8144   19.3517 C   0  0  2  0  0  0  0  0  0  0  0  0
    7.4583   31.3200   19.1505 N   0  0  0  0  0  0  0  0  0  0  0  0
    4.9102   38.3435   18.3840 C   0  0  2  0  0  0  0  0  0  0  0  0
    4.2892   38.7753   19.6433 O   0  0  0  0  0  0  0  0  0  0  0  0
    2.7674   31.0092   16.3257 C   0  0  2  0  0  0  0  0  0  0  0  0
    1.4791   31.5327   16.2794 O   0  0  0  0  0  0  0  0  0  0  0  0
    5.8199   33.0102   18.3874 C   0  0  2  0  0  0  0  0  0  0  0  0
    3.8631   38.1760   17.2892 C   0  0  2  0  0  0  0  0  0  0  0  0
    3.3067   36.9137   17.6463 O   0  0  0  0  0  0  0  0  0  0  0  0
    3.3684   31.1858   17.7488 C   0  0  2  0  0  0  0  0  0  0  0  0
    4.7100   30.6528   17.7792 O   0  0  0  0  0  0  0  0  0  0  0  0
    4.4073   33.6149   18.5106 C   0  0  2  0  0  0  0  0  0  0  0  0
    4.4509   34.8593   17.7274 O   0  0  0  0  0  0  0  0  0  0  0  0
    4.4338   38.1349   15.8311 C   0  0  0  0  0  0  0  0  0  0  0  0
    4.9566   39.4112   15.4741 N   0  0  0  0  0  0  0  0  0  0  0  0
    2.5487   30.4933   18.8126 C   0  0  0  0  0  0  0  0  0  0  0  0
    3.2485   30.3775   19.9978 O   0  0  0  0  0  0  0  0  0  0  0  0
    4.0721   33.9282   20.0355 C   0  0  1  0  0  0  0  0  0  0  0  0
    2.6919   34.2842   20.2067 O   0  0  0  0  0  0  0  0  0  0  0  0
  1  2  1  1  0  0  0
  1  6  1  0  0  0  0
  1 23  1  0  0  0  0
  3  4  1  1  0  0  0
  3  8  1  0  0  0  0
  3 30  1  0  0  0  0
  5  9  1  0  0  0  0
  5 21  1  0  0  0  0
  5 25  1  6  0  0  0
  6  7  1  6  0  0  0
  6 11  1  0  0  0  0
  8 13  1  0  0  0  0
  9 10  1  1  0  0  0
  9 15  1  0  0  0  0
 11 12  1  6  0  0  0
 11 17  1  0  0  0  0
 13 14  1  1  0  0  0
 13 19  1  0  0  0  0
 15 16  1  1  0  0  0
 15 20  1  0  0  0  0
 17 18  1  1  0  0  0
 17 22  1  0  0  0  0
 19  2  1  6  0  0  0
 19 24  1  0  0  0  0
 20 21  1  0  0  0  0
 20 26  1  6  0  0  0
 22 23  1  0  0  0  0
 22 28  1  1  0  0  0
 24 25  1  6  0  0  0
 24 30  1  0  0  0  0
 26 27  1  0  0  0  0
 28 29  1  0  0  0  0
 30 31  1  6  0  0  0
M  END
>  <CHROM.1>
142.20851718,108.25247727,33.18989808,-68.27957300,165.27729947,-117.75538125
4.44124395,33.74059667,18.00837374,2.12719162,1.44621193,2.67061802

>  <Name>
2o3x_lig

>  <RI>
0

>  <Rbt.Current_Directory>
/home/itssahil/PROJECTS/Mol_Feturizer/New_Systems/rnas/2o3x

>  <Rbt.Executable>
rbdock ($Id: //depot/dev/client3/rdock/2013.1/src/exe/rbdock.cxx#4 $)

>  <Rbt.Library>
libRbt.so (2013.1, Build901 2013/11/27)

>  <Rbt.Parameter_File>
/export/apps/rDock/src/rDock_2013.1_src/data/scripts/dock_solv.prm

>  <Rbt.Receptor>
prm/blind_docking_80.prm

>  <SCORE>
24.8566

>  <SCORE.INTER>
3.69719

>  <SCORE.INTER.CONST>
1

>  <SCORE.INTER.POLAR>
-0.0859072

>  <SCORE.INTER.ROT>
6

>  <SCORE.INTER.SOLV>
32.7163

>  <SCORE.INTER.VDW>
-15.7543

>  <SCORE.INTER.norm>
0.119264

>  <SCORE.INTRA>
16.8256

>  <SCORE.INTRA.DIHEDRAL>
13.4708

>  <SCORE.INTRA.DIHEDRAL.0>
9.37739

>  <SCORE.INTRA.POLAR>
0

>  <SCORE.INTRA.POLAR.0>
0

>  <SCORE.INTRA.REPUL>
0

>  <SCORE.INTRA.REPUL.0>
0

>  <SCORE.INTRA.SOLV>
0.781332

>  <SCORE.INTRA.SOLV.lig_0>
-82.9274

>  <SCORE.INTRA.VDW>
9.69955

>  <SCORE.INTRA.VDW.0>
-3.84922

>  <SCORE.INTRA.norm>
0.542762

>  <SCORE.RESTR>
4.33379

>  <SCORE.RESTR.CAVITY>
4.33379

>  <SCORE.RESTR.norm>
0.1398

>  <SCORE.SYSTEM>
0

>  <SCORE.SYSTEM.CONST>
0

>  <SCORE.SYSTEM.DIHEDRAL>
0

>  <SCORE.SYSTEM.SOLV>
0

>  <SCORE.SYSTEM.norm>
0

>  <SCORE.heavy>
31

>  <SCORE.norm>
0.801826

>  <RMSD>
32.662

$$$$
2o3x_lig
 OpenBabel11021811463D
libRbt.so/2013.1/901 2013/11/27
 31 33  0  0  0  0  0  0  0  0999 V2000
    4.9414   34.2440   16.0305 C   0  0  2  0  0  0  0  0  0  0  0  0
    3.8389   34.6569   16.8487 O   0  0  0  0  0  0  0  0  0  0  0  0
    5.6223   38.3388   18.0981 C   0  0  2  0  0  0  0  0  0  0  0  0
    5.8923   39.6291   18.7702 N   0  0  0  0  0  0  0  0  0  0  0  0
    4.4047   33.5318   19.3130 C   0  0  1  0  0  0  0  0  0  0  0  0
    4.3994   33.2920   14.9177 C   0  0  2  0  0  0  0  0  0  0  0  0
    3.2016   33.8494   14.2392 N   0  0  0  0  0  0  0  0  0  0  0  0
    4.3765   38.4167   17.1540 C   0  0  0  0  0  0  0  0  0  0  0  0
    4.5954   32.6006   20.5550 C   0  0  2  0  0  0  0  0  0  0  0  0
    5.9447   32.1081   20.7815 O   0  0  0  0  0  0  0  0  0  0  0  0
    4.0253   31.9098   15.4853 C   0  0  1  0  0  0  0  0  0  0  0  0
    3.5888   31.0549   14.4591 O   0  0  0  0  0  0  0  0  0  0  0  0
    4.1915   37.0142   16.4676 C   0  0  2  0  0  0  0  0  0  0  0  0
    3.0280   37.0101   15.5308 N   0  0  0  0  0  0  0  0  0  0  0  0
    3.5506   31.5538   20.2067 C   0  0  2  0  0  0  0  0  0  0  0  0
    4.0607   30.6117   19.2018 O   0  0  0  0  0  0  0  0  0  0  0  0
    5.2216   31.3106   16.2053 C   0  0  2  0  0  0  0  0  0  0  0  0
    4.8931   30.0520   16.6991 O   0  0  0  0  0  0  0  0  0  0  0  0
    3.9663   35.9086   17.5383 C   0  0  2  0  0  0  0  0  0  0  0  0
    2.3771   32.3556   19.6561 C   0  0  2  0  0  0  0  0  0  0  0  0
    3.0639   33.3147   18.8567 O   0  0  0  0  0  0  0  0  0  0  0  0
    5.6639   32.2449   17.3667 C   0  0  2  0  0  0  0  0  0  0  0  0
    5.9871   33.5512   16.8433 O   0  0  0  0  0  0  0  0  0  0  0  0
    5.1050   35.8221   18.5738 C   0  0  2  0  0  0  0  0  0  0  0  0
    4.6048   34.9197   19.6223 O   0  0  0  0  0  0  0  0  0  0  0  0
    1.4985   33.0681   20.7395 C   0  0  0  0  0  0  0  0  0  0  0  0
    0.1204   32.7837   20.5164 N   0  0  0  0  0  0  0  0  0  0  0  0
    6.8654   31.7118   18.1120 C   0  0  0  0  0  0  0  0  0  0  0  0
    7.9724   31.6195   17.2910 O   0  0  0  0  0  0  0  0  0  0  0  0
    5.4116   37.2629   19.1786 C   0  0  1  0  0  0  0  0  0  0  0  0
    6.6048   37.2534   19.9769 O   0  0  0  0  0  0  0  0  0  0  0  0
  1  2  1  1  0  0  0
  1  6  1  0  0  0  0
  1 23  1  0  0  0  0
  3  4  1  1  0  0  0
  3  8  1  0  0  0  0
  3 30  1  0  0  0  0
  5  9  1  0  0  0  0
  5 21  1  0  0  0  0
  5 25  1  1  0  0  0
  6  7  1  1  0  0  0
  6 11  1  0  0  0  0
  8 13  1  0  0  0  0
  9 10  1  6  0  0  0
  9 15  1  0  0  0  0
 11 12  1  6  0  0  0
 11 17  1  0  0  0  0
 13 14  1  6  0  0  0
 13 19  1  0  0  0  0
 15 16  1  6  0  0  0
 15 20  1  0  0  0  0
 17 18  1  1  0  0  0
 17 22  1  0  0  0  0
 19  2  1  6  0  0  0
 19 24  1  0  0  0  0
 20 21  1  0  0  0  0
 20 26  1  1  0  0  0
 22 23  1  0  0  0  0
 22 28  1  6  0  0  0
 24 25  1  1  0  0  0
 24 30  1  0  0  0  0
 26 27  1  0  0  0  0
 28 29  1  0  0  0  0
 30 31  1  6  0  0  0
M  END
>  <CHROM.1>
-154.38162475,150.54651297,58.92520277,-130.35755268,62.49449528,67.62603412
4.50872740,33.91601673,17.92017576,-1.06906781,-1.35502542,-2.59866547

>  <Name>
2o3x_lig

>  <RI>
0

>  <Rbt.Current_Directory>
/home/itssahil/PROJECTS/Mol_Feturizer/New_Systems/rnas/2o3x

>  <Rbt.Executable>
rbdock ($Id: //depot/dev/client3/rdock/2013.1/src/exe/rbdock.cxx#4 $)

>  <Rbt.Library>
libRbt.so (2013.1, Build901 2013/11/27)

>  <Rbt.Parameter_File>
/export/apps/rDock/src/rDock_2013.1_src/data/scripts/dock_solv.prm

>  <Rbt.Receptor>
prm/blind_docking_80.prm

>  <SCORE>
10.5459

>  <SCORE.INTER>
-4.00331

>  <SCORE.INTER.CONST>
1

>  <SCORE.INTER.POLAR>
-1.01373

>  <SCORE.INTER.ROT>
6

>  <SCORE.INTER.SOLV>
19.1815

>  <SCORE.INTER.VDW>
-13.2836

>  <SCORE.INTER.norm>
-0.129139

>  <SCORE.INTRA>
5.48896

>  <SCORE.INTRA.DIHEDRAL>
2.05267

>  <SCORE.INTRA.DIHEDRAL.0>
9.37739

>  <SCORE.INTRA.POLAR>
0

>  <SCORE.INTRA.POLAR.0>
0

>  <SCORE.INTRA.REPUL>
0.160965

>  <SCORE.INTRA.REPUL.0>
0

>  <SCORE.INTRA.SOLV>
1.11428

>  <SCORE.INTRA.SOLV.lig_0>
-82.9274

>  <SCORE.INTRA.VDW>
3.10066

>  <SCORE.INTRA.VDW.0>
-3.84922

>  <SCORE.INTRA.norm>
0.177063

>  <SCORE.RESTR>
9.06022

>  <SCORE.RESTR.CAVITY>
9.06022

>  <SCORE.RESTR.norm>
0.292265

>  <SCORE.SYSTEM>
0

>  <SCORE.SYSTEM.CONST>
0

>  <SCORE.SYSTEM.DIHEDRAL>
0

>  <SCORE.SYSTEM.SOLV>
0

>  <SCORE.SYSTEM.norm>
0

>  <SCORE.heavy>
31

>  <SCORE.norm>
0.34019

>  <RMSD>
32.669

$$$$
2o3x_lig
 OpenBabel11021811463D
libRbt.so/2013.1/901 2013/11/27
 31 33  0  0  0  0  0  0  0  0999 V2000
    5.0082   35.7876   17.6417 C   0  0  2  0  0  0  0  0  0  0  0  0
    4.0550   34.9537   16.9698 O   0  0  0  0  0  0  0  0  0  0  0  0
    3.6344   30.8568   15.8137 C   0  0  2  0  0  0  0  0  0  0  0  0
    3.7891   29.3891   15.7061 N   0  0  0  0  0  0  0  0  0  0  0  0
    4.2297   32.5820   19.7672 C   0  0  1  0  0  0  0  0  0  0  0  0
    4.3647   36.3003   18.9690 C   0  0  2  0  0  0  0  0  0  0  0  0
    3.7333   35.2027   19.7451 N   0  0  0  0  0  0  0  0  0  0  0  0
    4.9151   31.6199   15.3375 C   0  0  0  0  0  0  0  0  0  0  0  0
    4.6873   31.1429   19.3600 C   0  0  2  0  0  0  0  0  0  0  0  0
    4.0116   30.0449   20.0324 O   0  0  0  0  0  0  0  0  0  0  0  0
    3.2922   37.3735   18.7026 C   0  0  1  0  0  0  0  0  0  0  0  0
    2.7639   37.8560   19.9119 O   0  0  0  0  0  0  0  0  0  0  0  0
    4.6419   33.1635   15.4608 C   0  0  2  0  0  0  0  0  0  0  0  0
    5.8156   33.9673   15.0052 N   0  0  0  0  0  0  0  0  0  0  0  0
    6.1710   31.2943   19.6508 C   0  0  2  0  0  0  0  0  0  0  0  0
    6.4439   31.1644   21.0883 O   0  0  0  0  0  0  0  0  0  0  0  0
    3.8942   38.5097   17.8931 C   0  0  2  0  0  0  0  0  0  0  0  0
    2.9334   39.4912   17.6710 O   0  0  0  0  0  0  0  0  0  0  0  0
    4.3252   33.5450   16.9350 C   0  0  2  0  0  0  0  0  0  0  0  0
    6.5154   32.6937   19.1548 C   0  0  2  0  0  0  0  0  0  0  0  0
    5.3791   33.4229   19.6104 O   0  0  0  0  0  0  0  0  0  0  0  0
    4.4326   37.9684   16.5386 C   0  0  2  0  0  0  0  0  0  0  0  0
    5.4169   36.9406   16.7829 O   0  0  0  0  0  0  0  0  0  0  0  0
    3.1303   32.7683   17.5224 C   0  0  2  0  0  0  0  0  0  0  0  0
    3.1450   33.0695   18.9622 O   0  0  0  0  0  0  0  0  0  0  0  0
    6.6683   32.8242   17.6014 C   0  0  0  0  0  0  0  0  0  0  0  0
    7.7092   31.9686   17.1386 N   0  0  0  0  0  0  0  0  0  0  0  0
    5.0629   39.0505   15.6930 C   0  0  0  0  0  0  0  0  0  0  0  0
    4.2907   40.1956   15.6755 O   0  0  0  0  0  0  0  0  0  0  0  0
    3.3142   31.2055   17.2784 C   0  0  1  0  0  0  0  0  0  0  0  0
    2.1231   30.4783   17.6154 O   0  0  0  0  0  0  0  0  0  0  0  0
  1  2  1  6  0  0  0
  1  6  1  0  0  0  0
  1 23  1  0  0  0  0
  3  4  1  1  0  0  0
  3  8  1  0  0  0  0
  3 30  1  0  0  0  0
  5  9  1  0  0  0  0
  5 21  1  0  0  0  0
  5 25  1  6  0  0  0
  6  7  1  6  0  0  0
  6 11  1  0  0  0  0
  8 13  1  0  0  0  0
  9 10  1  1  0  0  0
  9 15  1  0  0  0  0
 11 12  1  1  0  0  0
 11 17  1  0  0  0  0
 13 14  1  1  0  0  0
 13 19  1  0  0  0  0
 15 16  1  1  0  0  0
 15 20  1  0  0  0  0
 17 18  1  6  0  0  0
 17 22  1  0  0  0  0
 19  2  1  6  0  0  0
 19 24  1  0  0  0  0
 20 21  1  0  0  0  0
 20 26  1  6  0  0  0
 22 23  1  0  0  0  0
 22 28  1  1  0  0  0
 24 25  1  1  0  0  0
 24 30  1  0  0  0  0
 26 27  1  0  0  0  0
 28 29  1  0  0  0  0
 30 31  1  6  0  0  0
M  END
>  <CHROM.1>
-109.11273470,-38.66674532,-111.69832652,-60.05207594,-44.60087260,-67.06983014
4.49573352,34.12640429,17.80707277,2.46003868,1.46523779,-1.01178185

>  <Name>
2o3x_lig

>  <RI>
0

>  <Rbt.Current_Directory>
/home/itssahil/PROJECTS/Mol_Feturizer/New_Systems/rnas/2o3x

>  <Rbt.Executable>
rbdock ($Id: //depot/dev/client3/rdock/2013.1/src/exe/rbdock.cxx#4 $)

>  <Rbt.Library>
libRbt.so (2013.1, Build901 2013/11/27)

>  <Rbt.Parameter_File>
/export/apps/rDock/src/rDock_2013.1_src/data/scripts/dock_solv.prm

>  <Rbt.Receptor>
prm/blind_docking_80.prm

>  <SCORE>
52.82

>  <SCORE.INTER>
19.6687

>  <SCORE.INTER.CONST>
1

>  <SCORE.INTER.POLAR>
-1.59038

>  <SCORE.INTER.ROT>
6

>  <SCORE.INTER.SOLV>
25.5395

>  <SCORE.INTER.VDW>
2.3006

>  <SCORE.INTER.norm>
0.634476

>  <SCORE.INTRA>
27.015

>  <SCORE.INTRA.DIHEDRAL>
7.28253

>  <SCORE.INTRA.DIHEDRAL.0>
9.37739

>  <SCORE.INTRA.POLAR>
0

>  <SCORE.INTRA.POLAR.0>
0

>  <SCORE.INTRA.REPUL>
0

>  <SCORE.INTRA.REPUL.0>
0

>  <SCORE.INTRA.SOLV>
9.7636

>  <SCORE.INTRA.SOLV.lig_0>
-82.9274

>  <SCORE.INTRA.VDW>
18.4919

>  <SCORE.INTRA.VDW.0>
-3.84922

>  <SCORE.INTRA.norm>
0.871452

>  <SCORE.RESTR>
6.13624

>  <SCORE.RESTR.CAVITY>
6.13624

>  <SCORE.RESTR.norm>
0.197943

>  <SCORE.SYSTEM>
0

>  <SCORE.SYSTEM.CONST>
0

>  <SCORE.SYSTEM.DIHEDRAL>
0

>  <SCORE.SYSTEM.SOLV>
0

>  <SCORE.SYSTEM.norm>
0

>  <SCORE.heavy>
31

>  <SCORE.norm>
1.70387

>  <RMSD>
32.674

$$$$
2o3x_lig
 OpenBabel11021811463D
libRbt.so/2013.1/901 2013/11/27
 31 33  0  0  0  0  0  0  0  0999 V2000
    5.1847   35.9647   17.2462 C   0  0  2  0  0  0  0  0  0  0  0  0
    4.1398   35.1469   17.7891 O   0  0  0  0  0  0  0  0  0  0  0  0
    6.2012   32.4330   20.3743 C   0  0  2  0  0  0  0  0  0  0  0  0
    6.7051   31.2098   21.0373 N   0  0  0  0  0  0  0  0  0  0  0  0
    5.7070   31.9825   16.1440 C   0  0  1  0  0  0  0  0  0  0  0  0
    5.6482   36.9682   18.3492 C   0  0  2  0  0  0  0  0  0  0  0  0
    5.8981   36.2945   19.6490 N   0  0  0  0  0  0  0  0  0  0  0  0
    4.6683   32.6415   20.6108 C   0  0  0  0  0  0  0  0  0  0  0  0
    4.3207   31.4782   16.6636 C   0  0  2  0  0  0  0  0  0  0  0  0
    4.3337   30.7780   17.9379 O   0  0  0  0  0  0  0  0  0  0  0  0
    4.6062   38.0788   18.5808 C   0  0  1  0  0  0  0  0  0  0  0  0
    5.0665   38.9971   19.5395 O   0  0  0  0  0  0  0  0  0  0  0  0
    4.2376   33.9746   19.8968 C   0  0  2  0  0  0  0  0  0  0  0  0
    2.7839   34.2574   20.0918 N   0  0  0  0  0  0  0  0  0  0  0  0
    3.9186   30.6547   15.4516 C   0  0  2  0  0  0  0  0  0  0  0  0
    4.5913   29.3489   15.4528 O   0  0  0  0  0  0  0  0  0  0  0  0
    4.3079   38.7834   17.2681 C   0  0  2  0  0  0  0  0  0  0  0  0
    3.3841   39.8021   17.4789 O   0  0  0  0  0  0  0  0  0  0  0  0
    4.5235   33.8924   18.3701 C   0  0  2  0  0  0  0  0  0  0  0  0
    4.3592   31.4938   14.2579 C   0  0  2  0  0  0  0  0  0  0  0  0
    5.6277   31.9563   14.7136 O   0  0  0  0  0  0  0  0  0  0  0  0
    3.7560   37.7634   16.2324 C   0  0  2  0  0  0  0  0  0  0  0  0
    4.7169   36.7040   16.0343 O   0  0  0  0  0  0  0  0  0  0  0  0
    5.9997   33.5933   18.0418 C   0  0  2  0  0  0  0  0  0  0  0  0
    6.0233   33.3072   16.5991 O   0  0  0  0  0  0  0  0  0  0  0  0
    3.4213   32.7014   13.9180 C   0  0  0  0  0  0  0  0  0  0  0  0
    3.4560   33.6596   14.9717 N   0  0  0  0  0  0  0  0  0  0  0  0
    3.4569   38.4013   14.8956 C   0  0  0  0  0  0  0  0  0  0  0  0
    4.4315   39.3126   14.5385 O   0  0  0  0  0  0  0  0  0  0  0  0
    6.5038   32.3292   18.8686 C   0  0  1  0  0  0  0  0  0  0  0  0
    7.9247   32.1598   18.7532 O   0  0  0  0  0  0  0  0  0  0  0  0
  1  2  1  1  0  0  0
  1  6  1  0  0  0  0
  1 23  1  0  0  0  0
  3  4  1  1  0  0  0
  3  8  1  0  0  0  0
  3 30  1  0  0  0  0
  5  9  1  0  0  0  0
  5 21  1  0  0  0  0
  5 25  1  1  0  0  0
  6  7  1  1  0  0  0
  6 11  1  0  0  0  0
  8 13  1  0  0  0  0
  9 10  1  1  0  0  0
  9 15  1  0  0  0  0
 11 12  1  1  0  0  0
 11 17  1  0  0  0  0
 13 14  1  6  0  0  0
 13 19  1  0  0  0  0
 15 16  1  1  0  0  0
 15 20  1  0  0  0  0
 17 18  1  1  0  0  0
 17 22  1  0  0  0  0
 19  2  1  6  0  0  0
 19 24  1  0  0  0  0
 20 21  1  0  0  0  0
 20 26  1  1  0  0  0
 22 23  1  0  0  0  0
 22 28  1  6  0  0  0
 24 25  1  6  0  0  0
 24 30  1  0  0  0  0
 26 27  1  0  0  0  0
 28 29  1  0  0  0  0
 30 31  1  1  0  0  0
M  END
>  <CHROM.1>
-93.54550810,54.64864205,113.45505394,65.98869267,40.67524036,-83.73357708
4.84045671,34.41034270,17.38303172,-2.01814355,1.27307991,-2.71749356

>  <Name>
2o3x_lig

>  <RI>
0

>  <Rbt.Current_Directory>
/home/itssahil/PROJECTS/Mol_Feturizer/New_Systems/rnas/2o3x

>  <Rbt.Executable>
rbdock ($Id: //depot/dev/client3/rdock/2013.1/src/exe/rbdock.cxx#4 $)

>  <Rbt.Library>
libRbt.so (2013.1, Build901 2013/11/27)

>  <Rbt.Parameter_File>
/export/apps/rDock/src/rDock_2013.1_src/data/scripts/dock_solv.prm

>  <Rbt.Receptor>
prm/blind_docking_80.prm

>  <SCORE>
17.9622

>  <SCORE.INTER>
0.024947

>  <SCORE.INTER.CONST>
1

>  <SCORE.INTER.POLAR>
-0.442729

>  <SCORE.INTER.ROT>
6

>  <SCORE.INTER.SOLV>
24.0182

>  <SCORE.INTER.VDW>
-14.1137

>  <SCORE.INTER.norm>
0.000804741

>  <SCORE.INTRA>
11.6562

>  <SCORE.INTRA.DIHEDRAL>
5.88243

>  <SCORE.INTRA.DIHEDRAL.0>
9.37739

>  <SCORE.INTRA.POLAR>
0

>  <SCORE.INTRA.POLAR.0>
0

>  <SCORE.INTRA.REPUL>
0

>  <SCORE.INTRA.REPUL.0>
0

>  <SCORE.INTRA.SOLV>
8.43233

>  <SCORE.INTRA.SOLV.lig_0>
-82.9274

>  <SCORE.INTRA.VDW>
4.49879

>  <SCORE.INTRA.VDW.0>
-3.84922

>  <SCORE.INTRA.norm>
0.376006

>  <SCORE.RESTR>
6.28111

>  <SCORE.RESTR.CAVITY>
6.28111

>  <SCORE.RESTR.norm>
0.202617

>  <SCORE.SYSTEM>
0

>  <SCORE.SYSTEM.CONST>
0

>  <SCORE.SYSTEM.DIHEDRAL>
0

>  <SCORE.SYSTEM.SOLV>
0

>  <SCORE.SYSTEM.norm>
0

>  <SCORE.heavy>
31

>  <SCORE.norm>
0.579427

>  <RMSD>
32.694

$$$$
2o3x_lig
 OpenBabel11021811463D
libRbt.so/2013.1/901 2013/11/27
 31 33  0  0  0  0  0  0  0  0999 V2000
    5.2457   35.9673   17.2581 C   0  0  2  0  0  0  0  0  0  0  0  0
    4.1879   35.1526   17.7805 O   0  0  0  0  0  0  0  0  0  0  0  0
    6.2002   32.4432   20.4088 C   0  0  2  0  0  0  0  0  0  0  0  0
    6.6885   31.2213   21.0857 N   0  0  0  0  0  0  0  0  0  0  0  0
    5.7317   31.9774   16.1728 C   0  0  1  0  0  0  0  0  0  0  0  0
    5.6870   36.9729   18.3683 C   0  0  2  0  0  0  0  0  0  0  0  0
    5.9077   36.3022   19.6749 N   0  0  0  0  0  0  0  0  0  0  0  0
    4.6655   32.6615   20.6238 C   0  0  0  0  0  0  0  0  0  0  0  0
    4.3514   31.4893   16.7228 C   0  0  2  0  0  0  0  0  0  0  0  0
    4.3851   30.7826   17.9932 O   0  0  0  0  0  0  0  0  0  0  0  0
    4.6422   38.0858   18.5745 C   0  0  1  0  0  0  0  0  0  0  0  0
    5.0832   39.0059   19.5405 O   0  0  0  0  0  0  0  0  0  0  0  0
    4.2516   33.9925   19.8963 C   0  0  2  0  0  0  0  0  0  0  0  0
    2.7970   34.2845   20.0705 N   0  0  0  0  0  0  0  0  0  0  0  0
    3.9096   30.6773   15.5168 C   0  0  2  0  0  0  0  0  0  0  0  0
    4.5644   29.3626   15.4960 O   0  0  0  0  0  0  0  0  0  0  0  0
    4.3734   38.7874   17.2538 C   0  0  2  0  0  0  0  0  0  0  0  0
    3.4470   39.8083   17.4421 O   0  0  0  0  0  0  0  0  0  0  0  0
    4.5571   33.8996   18.3741 C   0  0  2  0  0  0  0  0  0  0  0  0
    4.3332   31.5164   14.3170 C   0  0  2  0  0  0  0  0  0  0  0  0
    5.6182   31.9594   14.7445 O   0  0  0  0  0  0  0  0  0  0  0  0
    3.8422   37.7656   16.2091 C   0  0  2  0  0  0  0  0  0  0  0  0
    4.8054   36.7042   16.0345 O   0  0  0  0  0  0  0  0  0  0  0  0
    6.0357   33.5905   18.0669 C   0  0  2  0  0  0  0  0  0  0  0  0
    6.0767   33.2955   16.6264 O   0  0  0  0  0  0  0  0  0  0  0  0
    3.4040   32.7381   14.0050 C   0  0  0  0  0  0  0  0  0  0  0  0
    2.0671   32.2941   13.7917 N   0  0  0  0  0  0  0  0  0  0  0  0
    3.5731   38.4005   14.8646 C   0  0  0  0  0  0  0  0  0  0  0  0
    2.7235   39.4840   14.9756 O   0  0  0  0  0  0  0  0  0  0  0  0
    6.5219   32.3287   18.9079 C   0  0  1  0  0  0  0  0  0  0  0  0
    7.9433   32.1507   18.8121 O   0  0  0  0  0  0  0  0  0  0  0  0
  1  2  1  1  0  0  0
  1  6  1  0  0  0  0
  1 23  1  0  0  0  0
  3  4  1  1  0  0  0
  3  8  1  0  0  0  0
  3 30  1  0  0  0  0
  5  9  1  0  0  0  0
  5 21  1  0  0  0  0
  5 25  1  1  0  0  0
  6  7  1  1  0  0  0
  6 11  1  0  0  0  0
  8 13  1  0  0  0  0
  9 10  1  1  0  0  0
  9 15  1  0  0  0  0
 11 12  1  1  0  0  0
 11 17  1  0  0  0  0
 13 14  1  6  0  0  0
 13 19  1  0  0  0  0
 15 16  1  6  0  0  0
 15 20  1  0  0  0  0
 17 18  1  1  0  0  0
 17 22  1  0  0  0  0
 19  2  1  6  0  0  0
 19 24  1  0  0  0  0
 20 21  1  0  0  0  0
 20 26  1  1  0  0  0
 22 23  1  0  0  0  0
 22 28  1  6  0  0  0
 24 25  1  6  0  0  0
 24 30  1  0  0  0  0
 26 27  1  0  0  0  0
 28 29  1  0  0  0  0
 30 31  1  1  0  0  0
M  END
>  <CHROM.1>
-93.48953795,52.07602106,112.86638241,-57.38188027,-54.41494663,-82.43475021
4.76056978,34.38022733,17.38042163,-1.93928059,1.17186089,-2.78278484

>  <Name>
2o3x_lig

>  <RI>
0

>  <Rbt.Current_Directory>
/home/itssahil/PROJECTS/Mol_Feturizer/New_Systems/rnas/2o3x

>  <Rbt.Executable>
rbdock ($Id: //depot/dev/client3/rdock/2013.1/src/exe/rbdock.cxx#4 $)

>  <Rbt.Library>
libRbt.so (2013.1, Build901 2013/11/27)

>  <Rbt.Parameter_File>
/export/apps/rDock/src/rDock_2013.1_src/data/scripts/dock_solv.prm

>  <Rbt.Receptor>
prm/blind_docking_80.prm

>  <SCORE>
20.7772

>  <SCORE.INTER>
3.63282

>  <SCORE.INTER.CONST>
1

>  <SCORE.INTER.POLAR>
-0.0202061

>  <SCORE.INTER.ROT>
6

>  <SCORE.INTER.SOLV>
23.2423

>  <SCORE.INTER.VDW>
-12.8582

>  <SCORE.INTER.norm>
0.117188

>  <SCORE.INTRA>
9.14773

>  <SCORE.INTRA.DIHEDRAL>
4.56376

>  <SCORE.INTRA.DIHEDRAL.0>
9.37739

>  <SCORE.INTRA.POLAR>
0

>  <SCORE.INTRA.POLAR.0>
0

>  <SCORE.INTRA.REPUL>
0

>  <SCORE.INTRA.REPUL.0>
0

>  <SCORE.INTRA.SOLV>
3.17123

>  <SCORE.INTRA.SOLV.lig_0>
-82.9274

>  <SCORE.INTRA.VDW>
5.28024

>  <SCORE.INTRA.VDW.0>
-3.84922

>  <SCORE.INTRA.norm>
0.295088

>  <SCORE.RESTR>
7.99668

>  <SCORE.RESTR.CAVITY>
7.99668

>  <SCORE.RESTR.norm>
0.257958

>  <SCORE.SYSTEM>
0

>  <SCORE.SYSTEM.CONST>
0

>  <SCORE.SYSTEM.DIHEDRAL>
0

>  <SCORE.SYSTEM.SOLV>
0

>  <SCORE.SYSTEM.norm>
0

>  <SCORE.heavy>
31

>  <SCORE.norm>
0.670233

>  <RMSD>
32.713

$$$$
2o3x_lig
 OpenBabel11021811463D
libRbt.so/2013.1/901 2013/11/27
 31 33  0  0  0  0  0  0  0  0999 V2000
    5.1493   33.9323   16.0867 C   0  0  2  0  0  0  0  0  0  0  0  0
    3.9972   34.4763   16.7441 O   0  0  0  0  0  0  0  0  0  0  0  0
    5.9113   38.0967   17.9797 C   0  0  2  0  0  0  0  0  0  0  0  0
    6.2043   39.4060   18.6038 N   0  0  0  0  0  0  0  0  0  0  0  0
    4.1648   33.4870   19.3044 C   0  0  1  0  0  0  0  0  0  0  0  0
    4.7983   32.4951   15.5868 C   0  0  2  0  0  0  0  0  0  0  0  0
    3.5022   32.4556   14.8627 N   0  0  0  0  0  0  0  0  0  0  0  0
    4.7886   38.2004   16.8943 C   0  0  0  0  0  0  0  0  0  0  0  0
    4.0209   32.6377   20.6099 C   0  0  2  0  0  0  0  0  0  0  0  0
    5.2413   32.0255   21.1099 O   0  0  0  0  0  0  0  0  0  0  0  0
    4.7236   31.4909   16.7525 C   0  0  1  0  0  0  0  0  0  0  0  0
    4.4572   30.1967   16.2744 O   0  0  0  0  0  0  0  0  0  0  0  0
    4.5726   36.7725   16.2724 C   0  0  2  0  0  0  0  0  0  0  0  0
    3.5243   36.7893   15.2085 N   0  0  0  0  0  0  0  0  0  0  0  0
    2.9402   31.6824   20.1318 C   0  0  2  0  0  0  0  0  0  0  0  0
    3.5081   30.6188   19.2929 O   0  0  0  0  0  0  0  0  0  0  0  0
    6.0274   31.5130   17.5324 C   0  0  2  0  0  0  0  0  0  0  0  0
    5.9708   30.5901   18.5720 O   0  0  0  0  0  0  0  0  0  0  0  0
    4.1440   35.7584   17.3711 C   0  0  2  0  0  0  0  0  0  0  0  0
    1.9854   32.5585   19.3293 C   0  0  2  0  0  0  0  0  0  0  0  0
    2.9109   33.3773   18.6197 O   0  0  0  0  0  0  0  0  0  0  0  0
    6.2850   32.9399   18.0939 C   0  0  2  0  0  0  0  0  0  0  0  0
    6.3261   33.8896   17.0071 O   0  0  0  0  0  0  0  0  0  0  0  0
    5.1497   35.6596   18.5352 C   0  0  2  0  0  0  0  0  0  0  0  0
    4.4668   34.8658   19.5683 O   0  0  0  0  0  0  0  0  0  0  0  0
    1.0167   33.4388   20.1895 C   0  0  0  0  0  0  0  0  0  0  0  0
    0.5352   34.5347   19.4168 N   0  0  0  0  0  0  0  0  0  0  0  0
    7.5807   33.0320   18.8660 C   0  0  0  0  0  0  0  0  0  0  0  0
    7.5220   32.3134   20.0441 O   0  0  0  0  0  0  0  0  0  0  0  0
    5.4982   37.1117   19.0881 C   0  0  1  0  0  0  0  0  0  0  0  0
    6.5905   37.0702   20.0189 O   0  0  0  0  0  0  0  0  0  0  0  0
  1  2  1  1  0  0  0
  1  6  1  0  0  0  0
  1 23  1  0  0  0  0
  3  4  1  1  0  0  0
  3  8  1  0  0  0  0
  3 30  1  0  0  0  0
  5  9  1  0  0  0  0
  5 21  1  0  0  0  0
  5 25  1  1  0  0  0
  6  7  1  1  0  0  0
  6 11  1  0  0  0  0
  8 13  1  0  0  0  0
  9 10  1  6  0  0  0
  9 15  1  0  0  0  0
 11 12  1  6  0  0  0
 11 17  1  0  0  0  0
 13 14  1  6  0  0  0
 13 19  1  0  0  0  0
 15 16  1  6  0  0  0
 15 20  1  0  0  0  0
 17 18  1  1  0  0  0
 17 22  1  0  0  0  0
 19  2  1  6  0  0  0
 19 24  1  0  0  0  0
 20 21  1  0  0  0  0
 20 26  1  1  0  0  0
 22 23  1  0  0  0  0
 22 28  1  6  0  0  0
 24 25  1  1  0  0  0
 24 30  1  0  0  0  0
 26 27  1  0  0  0  0
 28 29  1  0  0  0  0
 30 31  1  1  0  0  0
M  END
>  <CHROM.1>
175.29333024,155.59963065,59.03770789,158.90763318,-68.34483594,66.06465946
4.64944058,33.93338349,18.22120326,-1.08264395,-1.24182930,-2.80627130

>  <Name>
2o3x_lig

>  <RI>
0

>  <Rbt.Current_Directory>
/home/itssahil/PROJECTS/Mol_Feturizer/New_Systems/rnas/2o3x

>  <Rbt.Executable>
rbdock ($Id: //depot/dev/client3/rdock/2013.1/src/exe/rbdock.cxx#4 $)

>  <Rbt.Library>
libRbt.so (2013.1, Build901 2013/11/27)

>  <Rbt.Parameter_File>
/export/apps/rDock/src/rDock_2013.1_src/data/scripts/dock_solv.prm

>  <Rbt.Receptor>
prm/blind_docking_80.prm

>  <SCORE>
16.0714

>  <SCORE.INTER>
1.24073

>  <SCORE.INTER.CONST>
1

>  <SCORE.INTER.POLAR>
0

>  <SCORE.INTER.ROT>
6

>  <SCORE.INTER.SOLV>
18.184

>  <SCORE.INTER.VDW>
-12.8342

>  <SCORE.INTER.norm>
0.0400237

>  <SCORE.INTRA>
7.52223

>  <SCORE.INTRA.DIHEDRAL>
-4.67516

>  <SCORE.INTRA.DIHEDRAL.0>
9.37739

>  <SCORE.INTRA.POLAR>
0

>  <SCORE.INTRA.POLAR.0>
0

>  <SCORE.INTRA.REPUL>
0.211643

>  <SCORE.INTRA.REPUL.0>
0

>  <SCORE.INTRA.SOLV>
2.85701

>  <SCORE.INTRA.SOLV.lig_0>
-82.9274

>  <SCORE.INTRA.VDW>
7.3731

>  <SCORE.INTRA.VDW.0>
-3.84922

>  <SCORE.INTRA.norm>
0.242653

>  <SCORE.RESTR>
7.30844

>  <SCORE.RESTR.CAVITY>
7.30844

>  <SCORE.RESTR.norm>
0.235756

>  <SCORE.SYSTEM>
0

>  <SCORE.SYSTEM.CONST>
0

>  <SCORE.SYSTEM.DIHEDRAL>
0

>  <SCORE.SYSTEM.SOLV>
0

>  <SCORE.SYSTEM.norm>
0

>  <SCORE.heavy>
31

>  <SCORE.norm>
0.518432

>  <RMSD>
32.713

$$$$
2o3x_lig
 OpenBabel11021811463D
libRbt.so/2013.1/901 2013/11/27
 31 33  0  0  0  0  0  0  0  0999 V2000
    5.2326   35.9701   17.3843 C   0  0  2  0  0  0  0  0  0  0  0  0
    4.1969   35.1673   17.9661 O   0  0  0  0  0  0  0  0  0  0  0  0
    6.1864   32.4212   20.5736 C   0  0  2  0  0  0  0  0  0  0  0  0
    6.6866   31.1897   21.2236 N   0  0  0  0  0  0  0  0  0  0  0  0
    5.8734   32.1215   16.3013 C   0  0  1  0  0  0  0  0  0  0  0  0
    5.7031   37.0129   18.4472 C   0  0  2  0  0  0  0  0  0  0  0  0
    5.9693   36.3855   19.7668 N   0  0  0  0  0  0  0  0  0  0  0  0
    4.6374   32.5813   20.7295 C   0  0  0  0  0  0  0  0  0  0  0  0
    4.5211   31.5628   16.8541 C   0  0  2  0  0  0  0  0  0  0  0  0
    4.6064   30.7831   18.0784 O   0  0  0  0  0  0  0  0  0  0  0  0
    4.6587   38.1267   18.6512 C   0  0  1  0  0  0  0  0  0  0  0  0
    5.1248   39.0794   19.5728 O   0  0  0  0  0  0  0  0  0  0  0  0
    4.2099   33.9264   20.0364 C   0  0  2  0  0  0  0  0  0  0  0  0
    2.7403   34.1643   20.1579 N   0  0  0  0  0  0  0  0  0  0  0  0
    4.0703   30.8119   15.6124 C   0  0  2  0  0  0  0  0  0  0  0  0
    4.7591   29.5197   15.4968 O   0  0  0  0  0  0  0  0  0  0  0  0
    4.3439   38.7843   17.3182 C   0  0  2  0  0  0  0  0  0  0  0  0
    3.4179   39.8061   17.5034 O   0  0  0  0  0  0  0  0  0  0  0  0
    4.5827   33.9042   18.5265 C   0  0  2  0  0  0  0  0  0  0  0  0
    4.4404   31.7325   14.4553 C   0  0  2  0  0  0  0  0  0  0  0  0
    5.7237   32.1853   14.8777 O   0  0  0  0  0  0  0  0  0  0  0  0
    3.7858   37.7269   16.3241 C   0  0  2  0  0  0  0  0  0  0  0  0
    4.7492   36.6652   16.1526 O   0  0  0  0  0  0  0  0  0  0  0  0
    6.0826   33.6552   18.2726 C   0  0  2  0  0  0  0  0  0  0  0  0
    6.1946   33.4194   16.8249 O   0  0  0  0  0  0  0  0  0  0  0  0
    3.4712   32.9439   14.2399 C   0  0  0  0  0  0  0  0  0  0  0  0
    2.1295   32.4811   14.1157 N   0  0  0  0  0  0  0  0  0  0  0  0
    3.4702   38.3171   14.9693 C   0  0  0  0  0  0  0  0  0  0  0  0
    4.4099   39.2571   14.5935 O   0  0  0  0  0  0  0  0  0  0  0  0
    6.5751   32.3771   19.0848 C   0  0  1  0  0  0  0  0  0  0  0  0
    8.0045   32.2489   19.0445 O   0  0  0  0  0  0  0  0  0  0  0  0
  1  2  1  1  0  0  0
  1  6  1  0  0  0  0
  1 23  1  0  0  0  0
  3  4  1  1  0  0  0
  3  8  1  0  0  0  0
  3 30  1  0  0  0  0
  5  9  1  0  0  0  0
  5 21  1  0  0  0  0
  5 25  1  1  0  0  0
  6  7  1  1  0  0  0
  6 11  1  0  0  0  0
  8 13  1  0  0  0  0
  9 10  1  1  0  0  0
  9 15  1  0  0  0  0
 11 12  1  1  0  0  0
 11 17  1  0  0  0  0
 13 14  1  6  0  0  0
 13 19  1  0  0  0  0
 15 16  1  6  0  0  0
 15 20  1  0  0  0  0
 17 18  1  1  0  0  0
 17 22  1  0  0  0  0
 19  2  1  1  0  0  0
 19 24  1  0  0  0  0
 20 21  1  0  0  0  0
 20 26  1  1  0  0  0
 22 23  1  0  0  0  0
 22 28  1  6  0  0  0
 24 25  1  6  0  0  0
 24 30  1  0  0  0  0
 26 27  1  0  0  0  0
 28 29  1  0  0  0  0
 30 31  1  1  0  0  0
M  END
>  <CHROM.1>
-96.58975738,47.41535503,119.76448392,-53.77624993,38.36758440,-80.49405491
4.86330929,34.41973294,17.49222464,-1.96636758,1.23215307,-2.79108489

>  <Name>
2o3x_lig

>  <RI>
0

>  <Rbt.Current_Directory>
/home/itssahil/PROJECTS/Mol_Feturizer/New_Systems/rnas/2o3x

>  <Rbt.Executable>
rbdock ($Id: //depot/dev/client3/rdock/2013.1/src/exe/rbdock.cxx#4 $)

>  <Rbt.Library>
libRbt.so (2013.1, Build901 2013/11/27)

>  <Rbt.Parameter_File>
/export/apps/rDock/src/rDock_2013.1_src/data/scripts/dock_solv.prm

>  <Rbt.Receptor>
prm/blind_docking_80.prm

>  <SCORE>
20.8458

>  <SCORE.INTER>
3.64969

>  <SCORE.INTER.CONST>
1

>  <SCORE.INTER.POLAR>
-0.415339

>  <SCORE.INTER.ROT>
6

>  <SCORE.INTER.SOLV>
24.8081

>  <SCORE.INTER.VDW>
-12.0518

>  <SCORE.INTER.norm>
0.117732

>  <SCORE.INTRA>
10.5585

>  <SCORE.INTRA.DIHEDRAL>
6.98251

>  <SCORE.INTRA.DIHEDRAL.0>
9.37739

>  <SCORE.INTRA.POLAR>
0

>  <SCORE.INTRA.POLAR.0>
0

>  <SCORE.INTRA.REPUL>
0

>  <SCORE.INTRA.REPUL.0>
0

>  <SCORE.INTRA.SOLV>
2.8618

>  <SCORE.INTRA.SOLV.lig_0>
-82.9274

>  <SCORE.INTRA.VDW>
5.6363

>  <SCORE.INTRA.VDW.0>
-3.84922

>  <SCORE.INTRA.norm>
0.340596

>  <SCORE.RESTR>
6.6376

>  <SCORE.RESTR.CAVITY>
6.6376

>  <SCORE.RESTR.norm>
0.214116

>  <SCORE.SYSTEM>
0

>  <SCORE.SYSTEM.CONST>
0

>  <SCORE.SYSTEM.DIHEDRAL>
0

>  <SCORE.SYSTEM.SOLV>
0

>  <SCORE.SYSTEM.norm>
0

>  <SCORE.heavy>
31

>  <SCORE.norm>
0.672444

>  <RMSD>
32.728

$$$$
2o3x_lig
 OpenBabel11021811463D
libRbt.so/2013.1/901 2013/11/27
 31 33  0  0  0  0  0  0  0  0999 V2000
    3.9607   37.0635   17.5192 C   0  0  2  0  0  0  0  0  0  0  0  0
    4.5532   35.9187   16.8915 O   0  0  0  0  0  0  0  0  0  0  0  0
    7.1943   33.2721   18.9696 C   0  0  2  0  0  0  0  0  0  0  0  0
    7.7428   32.1750   19.7972 N   0  0  0  0  0  0  0  0  0  0  0  0
    4.0044   31.9014   16.5220 C   0  0  1  0  0  0  0  0  0  0  0  0
    3.0763   37.8008   16.4645 C   0  0  2  0  0  0  0  0  0  0  0  0
    2.1805   36.8675   15.7349 N   0  0  0  0  0  0  0  0  0  0  0  0
    6.3719   34.2963   19.8204 C   0  0  0  0  0  0  0  0  0  0  0  0
    2.7423   31.5098   15.6854 C   0  0  2  0  0  0  0  0  0  0  0  0
    1.4689   32.0058   16.1822 O   0  0  0  0  0  0  0  0  0  0  0  0
    3.9346   38.5472   15.4256 C   0  0  1  0  0  0  0  0  0  0  0  0
    3.1188   39.2439   14.5182 O   0  0  0  0  0  0  0  0  0  0  0  0
    5.8600   35.4328   18.8619 C   0  0  2  0  0  0  0  0  0  0  0  0
    5.0776   36.4665   19.6039 N   0  0  0  0  0  0  0  0  0  0  0  0
    2.9263   30.0016   15.7041 C   0  0  2  0  0  0  0  0  0  0  0  0
    2.4750   29.4297   16.9797 O   0  0  0  0  0  0  0  0  0  0  0  0
    4.8806   39.5023   16.1336 C   0  0  2  0  0  0  0  0  0  0  0  0
    5.6409   40.1944   15.1962 O   0  0  0  0  0  0  0  0  0  0  0  0
    4.9561   34.8379   17.7447 C   0  0  2  0  0  0  0  0  0  0  0  0
    4.4251   29.7985   15.5156 C   0  0  2  0  0  0  0  0  0  0  0  0
    4.9392   30.8285   16.3553 O   0  0  0  0  0  0  0  0  0  0  0  0
    5.8078   38.7115   17.0993 C   0  0  2  0  0  0  0  0  0  0  0  0
    5.0066   37.9861   18.0568 O   0  0  0  0  0  0  0  0  0  0  0  0
    5.6559   33.7462   16.9113 C   0  0  2  0  0  0  0  0  0  0  0  0
    4.5910   33.1411   16.0965 O   0  0  0  0  0  0  0  0  0  0  0  0
    4.9357   29.9787   14.0458 C   0  0  0  0  0  0  0  0  0  0  0  0
    4.1982   29.1361   13.1649 N   0  0  0  0  0  0  0  0  0  0  0  0
    6.7624   39.6107   17.8500 C   0  0  0  0  0  0  0  0  0  0  0  0
    6.1162   40.3211   18.8428 O   0  0  0  0  0  0  0  0  0  0  0  0
    6.3118   32.6561   17.8691 C   0  0  1  0  0  0  0  0  0  0  0  0
    7.1525   31.7520   17.1364 O   0  0  0  0  0  0  0  0  0  0  0  0
  1  2  1  6  0  0  0
  1  6  1  0  0  0  0
  1 23  1  0  0  0  0
  3  4  1  1  0  0  0
  3  8  1  0  0  0  0
  3 30  1  0  0  0  0
  5  9  1  0  0  0  0
  5 21  1  0  0  0  0
  5 25  1  6  0  0  0
  6  7  1  6  0  0  0
  6 11  1  0  0  0  0
  8 13  1  0  0  0  0
  9 10  1  1  0  0  0
  9 15  1  0  0  0  0
 11 12  1  6  0  0  0
 11 17  1  0  0  0  0
 13 14  1  1  0  0  0
 13 19  1  0  0  0  0
 15 16  1  1  0  0  0
 15 20  1  0  0  0  0
 17 18  1  6  0  0  0
 17 22  1  0  0  0  0
 19  2  1  6  0  0  0
 19 24  1  0  0  0  0
 20 21  1  0  0  0  0
 20 26  1  6  0  0  0
 22 23  1  0  0  0  0
 22 28  1  1  0  0  0
 24 25  1  6  0  0  0
 24 30  1  0  0  0  0
 26 27  1  0  0  0  0
 28 29  1  0  0  0  0
 30 31  1  6  0  0  0
M  END
>  <CHROM.1>
-156.20596477,170.75521887,-52.34990451,-54.18581287,74.14129088,-99.43124607
4.76686395,34.66975463,16.84981044,1.42965504,-0.81665284,0.02118017

>  <Name>
2o3x_lig

>  <RI>
0

>  <Rbt.Current_Directory>
/home/itssahil/PROJECTS/Mol_Feturizer/New_Systems/rnas/2o3x

>  <Rbt.Executable>
rbdock ($Id: //depot/dev/client3/rdock/2013.1/src/exe/rbdock.cxx#4 $)

>  <Rbt.Library>
libRbt.so (2013.1, Build901 2013/11/27)

>  <Rbt.Parameter_File>
/export/apps/rDock/src/rDock_2013.1_src/data/scripts/dock_solv.prm

>  <Rbt.Receptor>
prm/blind_docking_80.prm

>  <SCORE>
44.7816

>  <SCORE.INTER>
21.088

>  <SCORE.INTER.CONST>
1

>  <SCORE.INTER.POLAR>
-0.932497

>  <SCORE.INTER.ROT>
6

>  <SCORE.INTER.SOLV>
16.1446

>  <SCORE.INTER.VDW>
4.18547

>  <SCORE.INTER.norm>
0.680258

>  <SCORE.INTRA>
12.9127

>  <SCORE.INTRA.DIHEDRAL>
0.04936

>  <SCORE.INTRA.DIHEDRAL.0>
9.37739

>  <SCORE.INTRA.POLAR>
0

>  <SCORE.INTRA.POLAR.0>
0

>  <SCORE.INTRA.REPUL>
0

>  <SCORE.INTRA.REPUL.0>
0

>  <SCORE.INTRA.SOLV>
1.58763

>  <SCORE.INTRA.SOLV.lig_0>
-82.9274

>  <SCORE.INTRA.VDW>
12.0942

>  <SCORE.INTRA.VDW.0>
-3.84922

>  <SCORE.INTRA.norm>
0.416538

>  <SCORE.RESTR>
10.7809

>  <SCORE.RESTR.CAVITY>
10.7809

>  <SCORE.RESTR.norm>
0.34777

>  <SCORE.SYSTEM>
0

>  <SCORE.SYSTEM.CONST>
0

>  <SCORE.SYSTEM.DIHEDRAL>
0

>  <SCORE.SYSTEM.SOLV>
0

>  <SCORE.SYSTEM.norm>
0

>  <SCORE.heavy>
31

>  <SCORE.norm>
1.44457

>  <RMSD>
32.734

$$$$
2o3x_lig
 OpenBabel11021811463D
libRbt.so/2013.1/901 2013/11/27
 31 33  0  0  0  0  0  0  0  0999 V2000
    4.2013   36.7311   17.5004 C   0  0  2  0  0  0  0  0  0  0  0  0
    4.9255   35.6539   16.8916 O   0  0  0  0  0  0  0  0  0  0  0  0
    6.1130   32.2228   19.1533 C   0  0  2  0  0  0  0  0  0  0  0  0
    6.1457   30.8970   19.8096 N   0  0  0  0  0  0  0  0  0  0  0  0
    4.2041   32.1747   15.3169 C   0  0  1  0  0  0  0  0  0  0  0  0
    3.4393   37.5075   16.3800 C   0  0  2  0  0  0  0  0  0  0  0  0
    2.6958   36.5954   15.4739 N   0  0  0  0  0  0  0  0  0  0  0  0
    5.0178   33.1567   19.7679 C   0  0  0  0  0  0  0  0  0  0  0  0
    4.5910   30.7691   15.8832 C   0  0  2  0  0  0  0  0  0  0  0  0
    5.2557   29.8687   14.9549 O   0  0  0  0  0  0  0  0  0  0  0  0
    4.3990   38.3534   15.5220 C   0  0  1  0  0  0  0  0  0  0  0  0
    3.6864   39.0816   14.5543 O   0  0  0  0  0  0  0  0  0  0  0  0
    5.0825   34.5430   19.0287 C   0  0  2  0  0  0  0  0  0  0  0  0
    4.0757   35.5032   19.5724 N   0  0  0  0  0  0  0  0  0  0  0  0
    3.2145   30.3395   16.3625 C   0  0  2  0  0  0  0  0  0  0  0  0
    2.3921   29.8575   15.2449 O   0  0  0  0  0  0  0  0  0  0  0  0
    5.1943   39.2905   16.4153 C   0  0  2  0  0  0  0  0  0  0  0  0
    6.0453   40.0719   15.6402 O   0  0  0  0  0  0  0  0  0  0  0  0
    4.8194   34.3620   17.5065 C   0  0  2  0  0  0  0  0  0  0  0  0
    2.6151   31.5989   16.9770 C   0  0  2  0  0  0  0  0  0  0  0  0
    3.0272   32.5783   16.0276 O   0  0  0  0  0  0  0  0  0  0  0  0
    6.0132   38.4685   17.4503 C   0  0  2  0  0  0  0  0  0  0  0  0
    5.1203   37.6510   18.2374 O   0  0  0  0  0  0  0  0  0  0  0  0
    5.7968   33.3794   16.8316 C   0  0  2  0  0  0  0  0  0  0  0  0
    5.2452   33.1489   15.4876 O   0  0  0  0  0  0  0  0  0  0  0  0
    3.1503   31.9554   18.4052 C   0  0  0  0  0  0  0  0  0  0  0  0
    2.4097   31.2484   19.3959 N   0  0  0  0  0  0  0  0  0  0  0  0
    6.8134   39.3471   18.3835 C   0  0  0  0  0  0  0  0  0  0  0  0
    5.9944   40.0565   19.2402 O   0  0  0  0  0  0  0  0  0  0  0  0
    5.8596   32.0144   17.6494 C   0  0  1  0  0  0  0  0  0  0  0  0
    6.9174   31.1673   17.1754 O   0  0  0  0  0  0  0  0  0  0  0  0
  1  2  1  6  0  0  0
  1  6  1  0  0  0  0
  1 23  1  0  0  0  0
  3  4  1  1  0  0  0
  3  8  1  0  0  0  0
  3 30  1  0  0  0  0
  5  9  1  0  0  0  0
  5 21  1  0  0  0  0
  5 25  1  1  0  0  0
  6  7  1  6  0  0  0
  6 11  1  0  0  0  0
  8 13  1  0  0  0  0
  9 10  1  6  0  0  0
  9 15  1  0  0  0  0
 11 12  1  6  0  0  0
 11 17  1  0  0  0  0
 13 14  1  1  0  0  0
 13 19  1  0  0  0  0
 15 16  1  6  0  0  0
 15 20  1  0  0  0  0
 17 18  1  6  0  0  0
 17 22  1  0  0  0  0
 19  2  1  6  0  0  0
 19 24  1  0  0  0  0
 20 21  1  0  0  0  0
 20 26  1  1  0  0  0
 22 23  1  0  0  0  0
 22 28  1  1  0  0  0
 24 25  1  6  0  0  0
 24 30  1  0  0  0  0
 26 27  1  0  0  0  0
 28 29  1  0  0  0  0
 30 31  1  6  0  0  0
M  END
>  <CHROM.1>
-132.93654152,-54.17835642,-49.04412344,-85.28705285,68.73856283,-82.99878557
4.66850470,34.52453625,17.13734297,-1.30912088,1.10181843,2.91126101

>  <Name>
2o3x_lig

>  <RI>
0

>  <Rbt.Current_Directory>
/home/itssahil/PROJECTS/Mol_Feturizer/New_Systems/rnas/2o3x

>  <Rbt.Executable>
rbdock ($Id: //depot/dev/client3/rdock/2013.1/src/exe/rbdock.cxx#4 $)

>  <Rbt.Library>
libRbt.so (2013.1, Build901 2013/11/27)

>  <Rbt.Parameter_File>
/export/apps/rDock/src/rDock_2013.1_src/data/scripts/dock_solv.prm

>  <Rbt.Receptor>
prm/blind_docking_80.prm

>  <SCORE>
28.3021

>  <SCORE.INTER>
-4.26063

>  <SCORE.INTER.CONST>
1

>  <SCORE.INTER.POLAR>
-0.924982

>  <SCORE.INTER.ROT>
6

>  <SCORE.INTER.SOLV>
20.502

>  <SCORE.INTER.VDW>
-14.1911

>  <SCORE.INTER.norm>
-0.13744

>  <SCORE.INTRA>
26.1047

>  <SCORE.INTRA.DIHEDRAL>
2.46824

>  <SCORE.INTRA.DIHEDRAL.0>
9.37739

>  <SCORE.INTRA.POLAR>
0

>  <SCORE.INTRA.POLAR.0>
0

>  <SCORE.INTRA.REPUL>
0

>  <SCORE.INTRA.REPUL.0>
0

>  <SCORE.INTRA.SOLV>
5.81812

>  <SCORE.INTRA.SOLV.lig_0>
-82.9274

>  <SCORE.INTRA.VDW>
21.9615

>  <SCORE.INTRA.VDW.0>
-3.84922

>  <SCORE.INTRA.norm>
0.842087

>  <SCORE.RESTR>
6.45803

>  <SCORE.RESTR.CAVITY>
6.45803

>  <SCORE.RESTR.norm>
0.208324

>  <SCORE.SYSTEM>
0

>  <SCORE.SYSTEM.CONST>
0

>  <SCORE.SYSTEM.DIHEDRAL>
0

>  <SCORE.SYSTEM.SOLV>
0

>  <SCORE.SYSTEM.norm>
0

>  <SCORE.heavy>
31

>  <SCORE.norm>
0.912972

>  <RMSD>
32.740

$$$$
2o3x_lig
 OpenBabel11021811463D
libRbt.so/2013.1/901 2013/11/27
 31 33  0  0  0  0  0  0  0  0999 V2000
    3.6782   36.1588   16.9831 C   0  0  2  0  0  0  0  0  0  0  0  0
    4.4907   35.1316   16.3997 O   0  0  0  0  0  0  0  0  0  0  0  0
    2.8077   31.7741   18.4474 C   0  0  2  0  0  0  0  0  0  0  0  0
    2.6217   30.4709   19.1231 N   0  0  0  0  0  0  0  0  0  0  0  0
    6.6408   33.6323   19.1337 C   0  0  1  0  0  0  0  0  0  0  0  0
    3.4623   37.2802   15.9181 C   0  0  2  0  0  0  0  0  0  0  0  0
    3.0474   36.7299   14.6025 N   0  0  0  0  0  0  0  0  0  0  0  0
    3.1444   31.6065   16.9283 C   0  0  0  0  0  0  0  0  0  0  0  0
    6.3209   32.3029   19.8929 C   0  0  2  0  0  0  0  0  0  0  0  0
    6.5139   32.3292   21.3339 O   0  0  0  0  0  0  0  0  0  0  0  0
    4.7398   38.1140   15.7042 C   0  0  1  0  0  0  0  0  0  0  0  0
    4.5077   39.1473   14.7808 O   0  0  0  0  0  0  0  0  0  0  0  0
    3.2924   33.0388   16.2966 C   0  0  2  0  0  0  0  0  0  0  0  0
    3.5970   32.9664   14.8360 N   0  0  0  0  0  0  0  0  0  0  0  0
    7.2390   31.3779   19.1115 C   0  0  2  0  0  0  0  0  0  0  0  0
    8.6303   31.5077   19.5645 O   0  0  0  0  0  0  0  0  0  0  0  0
    5.2093   38.6822   17.0329 C   0  0  2  0  0  0  0  0  0  0  0  0
    6.3501   39.4546   16.8388 O   0  0  0  0  0  0  0  0  0  0  0  0
    4.4326   33.8295   16.9995 C   0  0  2  0  0  0  0  0  0  0  0  0
    7.0927   31.8306   17.6635 C   0  0  2  0  0  0  0  0  0  0  0  0
    7.0868   33.2459   17.8281 O   0  0  0  0  0  0  0  0  0  0  0  0
    5.5064   37.5256   18.0288 C   0  0  2  0  0  0  0  0  0  0  0  0
    4.3197   36.7231   18.2094 O   0  0  0  0  0  0  0  0  0  0  0  0
    4.2327   33.9631   18.5221 C   0  0  2  0  0  0  0  0  0  0  0  0
    5.5028   34.5023   19.0318 O   0  0  0  0  0  0  0  0  0  0  0  0
    5.7818   31.3525   16.9519 C   0  0  0  0  0  0  0  0  0  0  0  0
    5.8848   31.5593   15.5460 N   0  0  0  0  0  0  0  0  0  0  0  0
    5.9608   38.0281   19.3795 C   0  0  0  0  0  0  0  0  0  0  0  0
    5.0357   38.8879   19.9388 O   0  0  0  0  0  0  0  0  0  0  0  0
    3.9340   32.5379   19.1667 C   0  0  1  0  0  0  0  0  0  0  0  0
    3.5285   32.6575   20.5387 O   0  0  0  0  0  0  0  0  0  0  0  0
  1  2  1  6  0  0  0
  1  6  1  0  0  0  0
  1 23  1  0  0  0  0
  3  4  1  1  0  0  0
  3  8  1  0  0  0  0
  3 30  1  0  0  0  0
  5  9  1  0  0  0  0
  5 21  1  0  0  0  0
  5 25  1  6  0  0  0
  6  7  1  6  0  0  0
  6 11  1  0  0  0  0
  8 13  1  0  0  0  0
  9 10  1  1  0  0  0
  9 15  1  0  0  0  0
 11 12  1  6  0  0  0
 11 17  1  0  0  0  0
 13 14  1  6  0  0  0
 13 19  1  0  0  0  0
 15 16  1  1  0  0  0
 15 20  1  0  0  0  0
 17 18  1  6  0  0  0
 17 22  1  0  0  0  0
 19  2  1  6  0  0  0
 19 24  1  0  0  0  0
 20 21  1  0  0  0  0
 20 26  1  1  0  0  0
 22 23  1  0  0  0  0
 22 28  1  1  0  0  0
 24 25  1  1  0  0  0
 24 30  1  0  0  0  0
 26 27  1  0  0  0  0
 28 29  1  0  0  0  0
 30 31  1  1  0  0  0
M  END
>  <CHROM.1>
-158.83565775,-50.84265244,89.63345762,-166.70860907,56.65856003,-75.38471902
5.01721457,34.50425685,17.79598196,1.74257243,-0.92048993,-0.16610021

>  <Name>
2o3x_lig

>  <RI>
0

>  <Rbt.Current_Directory>
/home/itssahil/PROJECTS/Mol_Feturizer/New_Systems/rnas/2o3x

>  <Rbt.Executable>
rbdock ($Id: //depot/dev/client3/rdock/2013.1/src/exe/rbdock.cxx#4 $)

>  <Rbt.Library>
libRbt.so (2013.1, Build901 2013/11/27)

>  <Rbt.Parameter_File>
/export/apps/rDock/src/rDock_2013.1_src/data/scripts/dock_solv.prm

>  <Rbt.Receptor>
prm/blind_docking_80.prm

>  <SCORE>
25.5783

>  <SCORE.INTER>
0.303636

>  <SCORE.INTER.CONST>
1

>  <SCORE.INTER.POLAR>
-0.395494

>  <SCORE.INTER.ROT>
6

>  <SCORE.INTER.SOLV>
21.7087

>  <SCORE.INTER.VDW>
-13.3155

>  <SCORE.INTER.norm>
0.00979469

>  <SCORE.INTRA>
19.1323

>  <SCORE.INTRA.DIHEDRAL>
-1.60734

>  <SCORE.INTRA.DIHEDRAL.0>
9.37739

>  <SCORE.INTRA.POLAR>
0

>  <SCORE.INTRA.POLAR.0>
0

>  <SCORE.INTRA.REPUL>
0

>  <SCORE.INTRA.REPUL.0>
0

>  <SCORE.INTRA.SOLV>
7.15731

>  <SCORE.INTRA.SOLV.lig_0>
-82.9274

>  <SCORE.INTRA.VDW>
16.3573

>  <SCORE.INTRA.VDW.0>
-3.84922

>  <SCORE.INTRA.norm>
0.617172

>  <SCORE.RESTR>
6.14237

>  <SCORE.RESTR.CAVITY>
6.14237

>  <SCORE.RESTR.norm>
0.198141

>  <SCORE.SYSTEM>
0

>  <SCORE.SYSTEM.CONST>
0

>  <SCORE.SYSTEM.DIHEDRAL>
0

>  <SCORE.SYSTEM.SOLV>
0

>  <SCORE.SYSTEM.norm>
0

>  <SCORE.heavy>
31

>  <SCORE.norm>
0.825108

>  <RMSD>
32.759

$$$$
2o3x_lig
 OpenBabel11021811463D
libRbt.so/2013.1/901 2013/11/27
 31 33  0  0  0  0  0  0  0  0999 V2000
    6.6426   34.0823   18.7822 C   0  0  2  0  0  0  0  0  0  0  0  0
    6.5762   33.6527   17.4160 O   0  0  0  0  0  0  0  0  0  0  0  0
    3.8060   31.7747   14.7519 C   0  0  2  0  0  0  0  0  0  0  0  0
    2.5951   31.1575   14.1668 N   0  0  0  0  0  0  0  0  0  0  0  0
    4.6073   36.4246   16.2692 C   0  0  1  0  0  0  0  0  0  0  0  0
    7.3209   32.9533   19.6211 C   0  0  2  0  0  0  0  0  0  0  0  0
    8.5696   32.4586   18.9871 N   0  0  0  0  0  0  0  0  0  0  0  0
    4.4109   30.9058   15.9045 C   0  0  0  0  0  0  0  0  0  0  0  0
    3.6519   37.5533   16.7786 C   0  0  2  0  0  0  0  0  0  0  0  0
    2.5390   37.8890   15.9050 O   0  0  0  0  0  0  0  0  0  0  0  0
    6.3794   31.7506   19.8209 C   0  0  1  0  0  0  0  0  0  0  0  0
    6.9914   30.7703   20.6202 O   0  0  0  0  0  0  0  0  0  0  0  0
    5.7030   31.6264   16.4371 C   0  0  2  0  0  0  0  0  0  0  0  0
    6.3546   30.8474   17.5325 N   0  0  0  0  0  0  0  0  0  0  0  0
    4.6909   38.6422   16.9874 C   0  0  2  0  0  0  0  0  0  0  0  0
    5.0516   39.2799   15.7142 O   0  0  0  0  0  0  0  0  0  0  0  0
    5.0788   32.2174   20.4528 C   0  0  2  0  0  0  0  0  0  0  0  0
    4.2357   31.1294   20.6554 O   0  0  0  0  0  0  0  0  0  0  0  0
    5.3536   33.0419   16.9791 C   0  0  2  0  0  0  0  0  0  0  0  0
    5.8871   37.9163   17.5918 C   0  0  2  0  0  0  0  0  0  0  0  0
    5.9011   36.7287   16.8045 O   0  0  0  0  0  0  0  0  0  0  0  0
    4.3904   33.2670   19.5351 C   0  0  2  0  0  0  0  0  0  0  0  0
    5.2810   34.3831   19.3203 O   0  0  0  0  0  0  0  0  0  0  0  0
    4.6634   33.9412   15.9346 C   0  0  2  0  0  0  0  0  0  0  0  0
    4.1930   35.1146   16.6868 O   0  0  0  0  0  0  0  0  0  0  0  0
    5.7484   37.5685   19.1127 C   0  0  0  0  0  0  0  0  0  0  0  0
    4.5272   36.8727   19.3461 N   0  0  0  0  0  0  0  0  0  0  0  0
    3.0970   33.7859   20.1192 C   0  0  0  0  0  0  0  0  0  0  0  0
    2.2427   32.7545   20.4573 O   0  0  0  0  0  0  0  0  0  0  0  0
    3.4346   33.1749   15.2723 C   0  0  1  0  0  0  0  0  0  0  0  0
    2.9104   33.8975   14.1479 O   0  0  0  0  0  0  0  0  0  0  0  0
  1  2  1  6  0  0  0
  1  6  1  0  0  0  0
  1 23  1  0  0  0  0
  3  4  1  1  0  0  0
  3  8  1  0  0  0  0
  3 30  1  0  0  0  0
  5  9  1  0  0  0  0
  5 21  1  0  0  0  0
  5 25  1  1  0  0  0
  6  7  1  6  0  0  0
  6 11  1  0  0  0  0
  8 13  1  0  0  0  0
  9 10  1  6  0  0  0
  9 15  1  0  0  0  0
 11 12  1  1  0  0  0
 11 17  1  0  0  0  0
 13 14  1  1  0  0  0
 13 19  1  0  0  0  0
 15 16  1  6  0  0  0
 15 20  1  0  0  0  0
 17 18  1  6  0  0  0
 17 22  1  0  0  0  0
 19  2  1  6  0  0  0
 19 24  1  0  0  0  0
 20 21  1  0  0  0  0
 20 26  1  1  0  0  0
 22 23  1  0  0  0  0
 22 28  1  1  0  0  0
 24 25  1  1  0  0  0
 24 30  1  0  0  0  0
 26 27  1  0  0  0  0
 28 29  1  0  0  0  0
 30 31  1  6  0  0  0
M  END
>  <CHROM.1>
95.55489804,158.43335588,-122.55398646,52.39071094,-53.14431228,124.09500958
4.90897520,34.13334957,17.69043432,-1.15618932,-1.11056805,-0.02001809

>  <Name>
2o3x_lig

>  <RI>
0

>  <Rbt.Current_Directory>
/home/itssahil/PROJECTS/Mol_Feturizer/New_Systems/rnas/2o3x

>  <Rbt.Executable>
rbdock ($Id: //depot/dev/client3/rdock/2013.1/src/exe/rbdock.cxx#4 $)

>  <Rbt.Library>
libRbt.so (2013.1, Build901 2013/11/27)

>  <Rbt.Parameter_File>
/export/apps/rDock/src/rDock_2013.1_src/data/scripts/dock_solv.prm

>  <Rbt.Receptor>
prm/blind_docking_80.prm

>  <SCORE>
28.7013

>  <SCORE.INTER>
6.02032

>  <SCORE.INTER.CONST>
1

>  <SCORE.INTER.POLAR>
0

>  <SCORE.INTER.ROT>
6

>  <SCORE.INTER.SOLV>
21.3706

>  <SCORE.INTER.VDW>
-10.71

>  <SCORE.INTER.norm>
0.194204

>  <SCORE.INTRA>
14.3011

>  <SCORE.INTRA.DIHEDRAL>
12.0612

>  <SCORE.INTRA.DIHEDRAL.0>
9.37739

>  <SCORE.INTRA.POLAR>
0

>  <SCORE.INTRA.POLAR.0>
0

>  <SCORE.INTRA.REPUL>
0

>  <SCORE.INTRA.REPUL.0>
0

>  <SCORE.INTRA.SOLV>
10.2568

>  <SCORE.INTRA.SOLV.lig_0>
-82.9274

>  <SCORE.INTRA.VDW>
3.14216

>  <SCORE.INTRA.VDW.0>
-3.84922

>  <SCORE.INTRA.norm>
0.461327

>  <SCORE.RESTR>
8.37986

>  <SCORE.RESTR.CAVITY>
8.37986

>  <SCORE.RESTR.norm>
0.270318

>  <SCORE.SYSTEM>
0

>  <SCORE.SYSTEM.CONST>
0

>  <SCORE.SYSTEM.DIHEDRAL>
0

>  <SCORE.SYSTEM.SOLV>
0

>  <SCORE.SYSTEM.norm>
0

>  <SCORE.heavy>
31

>  <SCORE.norm>
0.925849

>  <RMSD>
32.788

$$$$
2o3x_lig
 OpenBabel11021811463D
libRbt.so/2013.1/901 2013/11/27
 31 33  0  0  0  0  0  0  0  0999 V2000
    5.6331   31.2208   16.9758 C   0  0  2  0  0  0  0  0  0  0  0  0
    6.1095   32.5322   17.3054 O   0  0  0  0  0  0  0  0  0  0  0  0
    4.0972   32.8648   21.0655 C   0  0  2  0  0  0  0  0  0  0  0  0
    3.6730   33.2990   22.4149 N   0  0  0  0  0  0  0  0  0  0  0  0
    4.3765   36.2294   18.4702 C   0  0  1  0  0  0  0  0  0  0  0  0
    5.0404   31.2607   15.5317 C   0  0  2  0  0  0  0  0  0  0  0  0
    5.9538   31.9296   14.5704 N   0  0  0  0  0  0  0  0  0  0  0  0
    5.5478   32.2773   21.0654 C   0  0  0  0  0  0  0  0  0  0  0  0
    5.6584   37.1117   18.6263 C   0  0  2  0  0  0  0  0  0  0  0  0
    6.4067   36.9362   19.8607 O   0  0  0  0  0  0  0  0  0  0  0  0
    3.6871   31.9955   15.4932 C   0  0  1  0  0  0  0  0  0  0  0  0
    3.1493   31.9746   14.1952 O   0  0  0  0  0  0  0  0  0  0  0  0
    5.8927   31.8193   19.6013 C   0  0  2  0  0  0  0  0  0  0  0  0
    7.2611   31.2261   19.5190 N   0  0  0  0  0  0  0  0  0  0  0  0
    5.0141   38.4726   18.4220 C   0  0  2  0  0  0  0  0  0  0  0  0
    4.3391   38.9269   19.6450 O   0  0  0  0  0  0  0  0  0  0  0  0
    2.7262   31.3517   16.4785 C   0  0  2  0  0  0  0  0  0  0  0  0
    1.4958   31.9992   16.4290 O   0  0  0  0  0  0  0  0  0  0  0  0
    5.8179   33.0246   18.6211 C   0  0  2  0  0  0  0  0  0  0  0  0
    4.0115   38.2538   17.2951 C   0  0  2  0  0  0  0  0  0  0  0  0
    3.4662   36.9912   17.6676 O   0  0  0  0  0  0  0  0  0  0  0  0
    3.3140   31.4238   17.9163 C   0  0  2  0  0  0  0  0  0  0  0  0
    4.5969   30.7621   17.9505 O   0  0  0  0  0  0  0  0  0  0  0  0
    4.4466   33.7287   18.6243 C   0  0  2  0  0  0  0  0  0  0  0  0
    4.6451   34.9629   17.8489 O   0  0  0  0  0  0  0  0  0  0  0  0
    4.6362   38.1834   15.8605 C   0  0  0  0  0  0  0  0  0  0  0  0
    5.0106   39.4873   15.4252 N   0  0  0  0  0  0  0  0  0  0  0  0
    2.4107   30.7810   18.9430 C   0  0  0  0  0  0  0  0  0  0  0  0
    2.5139   29.4038   18.9188 O   0  0  0  0  0  0  0  0  0  0  0  0
    4.0063   34.0725   20.1155 C   0  0  1  0  0  0  0  0  0  0  0  0
    2.6453   34.5265   20.1689 O   0  0  0  0  0  0  0  0  0  0  0  0
  1  2  1  1  0  0  0
  1  6  1  0  0  0  0
  1 23  1  0  0  0  0
  3  4  1  1  0  0  0
  3  8  1  0  0  0  0
  3 30  1  0  0  0  0
  5  9  1  0  0  0  0
  5 21  1  0  0  0  0
  5 25  1  6  0  0  0
  6  7  1  6  0  0  0
  6 11  1  0  0  0  0
  8 13  1  0  0  0  0
  9 10  1  1  0  0  0
  9 15  1  0  0  0  0
 11 12  1  6  0  0  0
 11 17  1  0  0  0  0
 13 14  1  1  0  0  0
 13 19  1  0  0  0  0
 15 16  1  1  0  0  0
 15 20  1  0  0  0  0
 17 18  1  1  0  0  0
 17 22  1  0  0  0  0
 19  2  1  6  0  0  0
 19 24  1  0  0  0  0
 20 21  1  0  0  0  0
 20 26  1  6  0  0  0
 22 23  1  0  0  0  0
 22 28  1  1  0  0  0
 24 25  1  6  0  0  0
 24 30  1  0  0  0  0
 26 27  1  0  0  0  0
 28 29  1  0  0  0  0
 30 31  1  6  0  0  0
M  END
>  <CHROM.1>
137.07215703,115.18856869,35.96701146,-74.82004451,78.25920263,-121.66869647
4.41187757,33.84451715,18.09348419,2.41313230,1.43430315,2.34869230

>  <Name>
2o3x_lig

>  <RI>
0

>  <Rbt.Current_Directory>
/home/itssahil/PROJECTS/Mol_Feturizer/New_Systems/rnas/2o3x

>  <Rbt.Executable>
rbdock ($Id: //depot/dev/client3/rdock/2013.1/src/exe/rbdock.cxx#4 $)

>  <Rbt.Library>
libRbt.so (2013.1, Build901 2013/11/27)

>  <Rbt.Parameter_File>
/export/apps/rDock/src/rDock_2013.1_src/data/scripts/dock_solv.prm

>  <Rbt.Receptor>
prm/blind_docking_80.prm

>  <SCORE>
27.7516

>  <SCORE.INTER>
5.11213

>  <SCORE.INTER.CONST>
1

>  <SCORE.INTER.POLAR>
-0.0100418

>  <SCORE.INTER.ROT>
6

>  <SCORE.INTER.SOLV>
33.4012

>  <SCORE.INTER.VDW>
-15.2922

>  <SCORE.INTER.norm>
0.164908

>  <SCORE.INTRA>
18.8489

>  <SCORE.INTRA.DIHEDRAL>
15.237

>  <SCORE.INTRA.DIHEDRAL.0>
9.37739

>  <SCORE.INTRA.POLAR>
0

>  <SCORE.INTRA.POLAR.0>
0

>  <SCORE.INTRA.REPUL>
0

>  <SCORE.INTRA.REPUL.0>
0

>  <SCORE.INTRA.SOLV>
-0.273931

>  <SCORE.INTRA.SOLV.lig_0>
-82.9274

>  <SCORE.INTRA.VDW>
11.3673

>  <SCORE.INTRA.VDW.0>
-3.84922

>  <SCORE.INTRA.norm>
0.608028

>  <SCORE.RESTR>
3.79058

>  <SCORE.RESTR.CAVITY>
3.79058

>  <SCORE.RESTR.norm>
0.122277

>  <SCORE.SYSTEM>
0

>  <SCORE.SYSTEM.CONST>
0

>  <SCORE.SYSTEM.DIHEDRAL>
0

>  <SCORE.SYSTEM.SOLV>
0

>  <SCORE.SYSTEM.norm>
0

>  <SCORE.heavy>
31

>  <SCORE.norm>
0.895212

>  <RMSD>
32.803

$$$$
2o3x_lig
 OpenBabel11021811463D
libRbt.so/2013.1/901 2013/11/27
 31 33  0  0  0  0  0  0  0  0999 V2000
    4.5475   36.1800   19.1881 C   0  0  2  0  0  0  0  0  0  0  0  0
    4.1750   35.0436   18.3973 O   0  0  0  0  0  0  0  0  0  0  0  0
    6.4168   32.2059   20.6819 C   0  0  2  0  0  0  0  0  0  0  0  0
    7.0291   30.9577   21.1886 N   0  0  0  0  0  0  0  0  0  0  0  0
    6.0387   32.3899   16.3952 C   0  0  1  0  0  0  0  0  0  0  0  0
    3.3221   37.1441   19.2728 C   0  0  2  0  0  0  0  0  0  0  0  0
    2.0710   36.4286   19.6314 N   0  0  0  0  0  0  0  0  0  0  0  0
    4.8605   32.2071   20.8473 C   0  0  0  0  0  0  0  0  0  0  0  0
    4.7368   31.6940   16.9119 C   0  0  2  0  0  0  0  0  0  0  0  0
    4.9054   30.7693   18.0213 O   0  0  0  0  0  0  0  0  0  0  0  0
    3.0849   37.8797   17.9402 C   0  0  1  0  0  0  0  0  0  0  0  0
    2.0106   38.7779   18.0551 O   0  0  0  0  0  0  0  0  0  0  0  0
    4.3103   33.5790   20.3112 C   0  0  2  0  0  0  0  0  0  0  0  0
    2.8259   33.6683   20.4517 N   0  0  0  0  0  0  0  0  0  0  0  0
    4.2771   31.0856   15.5975 C   0  0  2  0  0  0  0  0  0  0  0  0
    5.0233   29.8573   15.2939 O   0  0  0  0  0  0  0  0  0  0  0  0
    4.3503   38.6123   17.5271 C   0  0  2  0  0  0  0  0  0  0  0  0
    4.1315   39.2963   16.3354 O   0  0  0  0  0  0  0  0  0  0  0  0
    4.6756   33.7642   18.8107 C   0  0  2  0  0  0  0  0  0  0  0  0
    4.5586   32.1653   14.5592 C   0  0  2  0  0  0  0  0  0  0  0  0
    5.8332   32.6277   14.9973 O   0  0  0  0  0  0  0  0  0  0  0  0
    5.5182   37.5998   17.3589 C   0  0  2  0  0  0  0  0  0  0  0  0
    5.7248   36.8863   18.5971 O   0  0  0  0  0  0  0  0  0  0  0  0
    6.1905   33.6819   18.5376 C   0  0  2  0  0  0  0  0  0  0  0  0
    6.3157   33.6252   17.0730 O   0  0  0  0  0  0  0  0  0  0  0  0
    3.5242   33.3412   14.5328 C   0  0  0  0  0  0  0  0  0  0  0  0
    2.8196   33.4009   15.7697 N   0  0  0  0  0  0  0  0  0  0  0  0
    6.8135   38.2714   16.9659 C   0  0  0  0  0  0  0  0  0  0  0  0
    7.2156   39.1928   17.9132 O   0  0  0  0  0  0  0  0  0  0  0  0
    6.8002   32.3684   19.2000 C   0  0  1  0  0  0  0  0  0  0  0  0
    8.2351   32.3747   19.1526 O   0  0  0  0  0  0  0  0  0  0  0  0
  1  2  1  6  0  0  0
  1  6  1  0  0  0  0
  1 23  1  0  0  0  0
  3  4  1  6  0  0  0
  3  8  1  0  0  0  0
  3 30  1  0  0  0  0
  5  9  1  0  0  0  0
  5 21  1  0  0  0  0
  5 25  1  1  0  0  0
  6  7  1  6  0  0  0
  6 11  1  0  0  0  0
  8 13  1  0  0  0  0
  9 10  1  1  0  0  0
  9 15  1  0  0  0  0
 11 12  1  1  0  0  0
 11 17  1  0  0  0  0
 13 14  1  6  0  0  0
 13 19  1  0  0  0  0
 15 16  1  6  0  0  0
 15 20  1  0  0  0  0
 17 18  1  6  0  0  0
 17 22  1  0  0  0  0
 19  2  1  1  0  0  0
 19 24  1  0  0  0  0
 20 21  1  0  0  0  0
 20 26  1  1  0  0  0
 22 23  1  0  0  0  0
 22 28  1  1  0  0  0
 24 25  1  6  0  0  0
 24 30  1  0  0  0  0
 26 27  1  0  0  0  0
 28 29  1  0  0  0  0
 30 31  1  1  0  0  0
M  END
>  <CHROM.1>
-141.95045057,44.83391095,52.60559944,20.50523822,59.92703617,-77.14353471
4.93424044,34.44447586,17.89236707,-2.17981938,1.25616984,-2.51228264

>  <Name>
2o3x_lig

>  <RI>
0

>  <Rbt.Current_Directory>
/home/itssahil/PROJECTS/Mol_Feturizer/New_Systems/rnas/2o3x

>  <Rbt.Executable>
rbdock ($Id: //depot/dev/client3/rdock/2013.1/src/exe/rbdock.cxx#4 $)

>  <Rbt.Library>
libRbt.so (2013.1, Build901 2013/11/27)

>  <Rbt.Parameter_File>
/export/apps/rDock/src/rDock_2013.1_src/data/scripts/dock_solv.prm

>  <Rbt.Receptor>
prm/blind_docking_80.prm

>  <SCORE>
17.1437

>  <SCORE.INTER>
2.10181

>  <SCORE.INTER.CONST>
1

>  <SCORE.INTER.POLAR>
-0.0351991

>  <SCORE.INTER.ROT>
6

>  <SCORE.INTER.SOLV>
19.9942

>  <SCORE.INTER.VDW>
-12.7462

>  <SCORE.INTER.norm>
0.0678003

>  <SCORE.INTRA>
7.72168

>  <SCORE.INTRA.DIHEDRAL>
2.33025

>  <SCORE.INTRA.DIHEDRAL.0>
9.37739

>  <SCORE.INTRA.POLAR>
0

>  <SCORE.INTRA.POLAR.0>
0

>  <SCORE.INTRA.REPUL>
0

>  <SCORE.INTRA.REPUL.0>
0

>  <SCORE.INTRA.SOLV>
5.95075

>  <SCORE.INTRA.SOLV.lig_0>
-82.9274

>  <SCORE.INTRA.VDW>
3.58118

>  <SCORE.INTRA.VDW.0>
-3.84922

>  <SCORE.INTRA.norm>
0.249086

>  <SCORE.RESTR>
7.32026

>  <SCORE.RESTR.CAVITY>
7.32026

>  <SCORE.RESTR.norm>
0.236137

>  <SCORE.SYSTEM>
0

>  <SCORE.SYSTEM.CONST>
0

>  <SCORE.SYSTEM.DIHEDRAL>
0

>  <SCORE.SYSTEM.SOLV>
0

>  <SCORE.SYSTEM.norm>
0

>  <SCORE.heavy>
31

>  <SCORE.norm>
0.553024

>  <RMSD>
32.824

$$$$
2o3x_lig
 OpenBabel11021811463D
libRbt.so/2013.1/901 2013/11/27
 31 33  0  0  0  0  0  0  0  0999 V2000
    5.5181   31.0061   17.6192 C   0  0  2  0  0  0  0  0  0  0  0  0
    5.8618   32.3887   17.7795 O   0  0  0  0  0  0  0  0  0  0  0  0
    3.1816   33.1933   21.0148 C   0  0  2  0  0  0  0  0  0  0  0  0
    2.4945   33.8171   22.1673 N   0  0  0  0  0  0  0  0  0  0  0  0
    5.0871   35.7910   17.9843 C   0  0  1  0  0  0  0  0  0  0  0  0
    5.0925   30.7734   16.1349 C   0  0  2  0  0  0  0  0  0  0  0  0
    6.0609   31.3639   15.1761 N   0  0  0  0  0  0  0  0  0  0  0  0
    4.6385   32.7454   21.3703 C   0  0  0  0  0  0  0  0  0  0  0  0
    5.0725   36.9929   16.9835 C   0  0  2  0  0  0  0  0  0  0  0  0
    6.0162   36.9151   15.8800 O   0  0  0  0  0  0  0  0  0  0  0  0
    3.7047   31.3739   15.8411 C   0  0  1  0  0  0  0  0  0  0  0  0
    3.3211   31.1085   14.5157 O   0  0  0  0  0  0  0  0  0  0  0  0
    5.2699   32.0712   20.0979 C   0  0  2  0  0  0  0  0  0  0  0  0
    6.6614   31.5962   20.3611 N   0  0  0  0  0  0  0  0  0  0  0  0
    5.3030   38.1135   17.9835 C   0  0  2  0  0  0  0  0  0  0  0  0
    6.7217   38.2098   18.3519 O   0  0  0  0  0  0  0  0  0  0  0  0
    2.6848   30.8078   16.8146 C   0  0  2  0  0  0  0  0  0  0  0  0
    1.4261   31.3313   16.5365 O   0  0  0  0  0  0  0  0  0  0  0  0
    5.3079   33.0755   18.9108 C   0  0  2  0  0  0  0  0  0  0  0  0
    4.4518   37.7299   19.1882 C   0  0  2  0  0  0  0  0  0  0  0  0
    4.7055   36.3294   19.2561 O   0  0  0  0  0  0  0  0  0  0  0  0
    3.0985   31.1494   18.2740 C   0  0  2  0  0  0  0  0  0  0  0  0
    4.4119   30.6141   18.5447 O   0  0  0  0  0  0  0  0  0  0  0  0
    3.9217   33.6453   18.5499 C   0  0  2  0  0  0  0  0  0  0  0  0
    4.1889   34.7378   17.6018 O   0  0  0  0  0  0  0  0  0  0  0  0
    2.9184   38.0057   19.0274 C   0  0  0  0  0  0  0  0  0  0  0  0
    2.6904   39.3968   18.8207 N   0  0  0  0  0  0  0  0  0  0  0  0
    2.1308   30.5955   19.2939 C   0  0  0  0  0  0  0  0  0  0  0  0
    2.4805   29.3173   19.6838 O   0  0  0  0  0  0  0  0  0  0  0  0
    3.1980   34.2038   19.8537 C   0  0  1  0  0  0  0  0  0  0  0  0
    1.8269   34.5379   19.5900 O   0  0  0  0  0  0  0  0  0  0  0  0
  1  2  1  6  0  0  0
  1  6  1  0  0  0  0
  1 23  1  0  0  0  0
  3  4  1  1  0  0  0
  3  8  1  0  0  0  0
  3 30  1  0  0  0  0
  5  9  1  0  0  0  0
  5 21  1  0  0  0  0
  5 25  1  6  0  0  0
  6  7  1  6  0  0  0
  6 11  1  0  0  0  0
  8 13  1  0  0  0  0
  9 10  1  6  0  0  0
  9 15  1  0  0  0  0
 11 12  1  6  0  0  0
 11 17  1  0  0  0  0
 13 14  1  1  0  0  0
 13 19  1  0  0  0  0
 15 16  1  1  0  0  0
 15 20  1  0  0  0  0
 17 18  1  6  0  0  0
 17 22  1  0  0  0  0
 19  2  1  6  0  0  0
 19 24  1  0  0  0  0
 20 21  1  0  0  0  0
 20 26  1  6  0  0  0
 22 23  1  0  0  0  0
 22 28  1  1  0  0  0
 24 25  1  6  0  0  0
 24 30  1  0  0  0  0
 26 27  1  0  0  0  0
 28 29  1  0  0  0  0
 30 31  1  6  0  0  0
M  END
>  <CHROM.1>
132.61607859,-169.90425303,36.51619443,-60.78230328,89.22474007,-55.19191485
4.16653962,33.64132129,18.33921170,-1.89978153,1.15734282,0.40637156

>  <Name>
2o3x_lig

>  <RI>
0

>  <Rbt.Current_Directory>
/home/itssahil/PROJECTS/Mol_Feturizer/New_Systems/rnas/2o3x

>  <Rbt.Executable>
rbdock ($Id: //depot/dev/client3/rdock/2013.1/src/exe/rbdock.cxx#4 $)

>  <Rbt.Library>
libRbt.so (2013.1, Build901 2013/11/27)

>  <Rbt.Parameter_File>
/export/apps/rDock/src/rDock_2013.1_src/data/scripts/dock_solv.prm

>  <Rbt.Receptor>
prm/blind_docking_80.prm

>  <SCORE>
24.5803

>  <SCORE.INTER>
4.03402

>  <SCORE.INTER.CONST>
1

>  <SCORE.INTER.POLAR>
-0.145564

>  <SCORE.INTER.ROT>
6

>  <SCORE.INTER.SOLV>
25.2375

>  <SCORE.INTER.VDW>
-12.8379

>  <SCORE.INTER.norm>
0.13013

>  <SCORE.INTRA>
15.3798

>  <SCORE.INTRA.DIHEDRAL>
2.74755

>  <SCORE.INTRA.DIHEDRAL.0>
9.37739

>  <SCORE.INTRA.POLAR>
0

>  <SCORE.INTRA.POLAR.0>
0

>  <SCORE.INTRA.REPUL>
0

>  <SCORE.INTRA.REPUL.0>
0

>  <SCORE.INTRA.SOLV>
0.622209

>  <SCORE.INTRA.SOLV.lig_0>
-82.9274

>  <SCORE.INTRA.VDW>
13.6949

>  <SCORE.INTRA.VDW.0>
-3.84922

>  <SCORE.INTRA.norm>
0.496122

>  <SCORE.RESTR>
5.16646

>  <SCORE.RESTR.CAVITY>
5.16646

>  <SCORE.RESTR.norm>
0.16666

>  <SCORE.SYSTEM>
0

>  <SCORE.SYSTEM.CONST>
0

>  <SCORE.SYSTEM.DIHEDRAL>
0

>  <SCORE.SYSTEM.SOLV>
0

>  <SCORE.SYSTEM.norm>
0

>  <SCORE.heavy>
31

>  <SCORE.norm>
0.792911

>  <RMSD>
32.916

$$$$
2o3x_lig
 OpenBabel11021811463D
libRbt.so/2013.1/901 2013/11/27
 31 33  0  0  0  0  0  0  0  0999 V2000
    3.5287   36.2498   17.8783 C   0  0  2  0  0  0  0  0  0  0  0  0
    4.5410   35.2449   17.7344 O   0  0  0  0  0  0  0  0  0  0  0  0
    5.0789   32.6437   21.0874 C   0  0  2  0  0  0  0  0  0  0  0  0
    5.0493   31.4789   21.9995 N   0  0  0  0  0  0  0  0  0  0  0  0
    5.5012   31.5766   16.9542 C   0  0  1  0  0  0  0  0  0  0  0  0
    3.2369   36.8601   16.4709 C   0  0  2  0  0  0  0  0  0  0  0  0
    3.0335   35.8124   15.4381 N   0  0  0  0  0  0  0  0  0  0  0  0
    3.6526   33.2435   20.8526 C   0  0  0  0  0  0  0  0  0  0  0  0
    3.9592   31.5163   17.2084 C   0  0  2  0  0  0  0  0  0  0  0  0
    3.5469   31.0268   18.5140 O   0  0  0  0  0  0  0  0  0  0  0  0
    4.3822   37.7766   16.0007 C   0  0  1  0  0  0  0  0  0  0  0  0
    4.0754   38.3537   14.7569 O   0  0  0  0  0  0  0  0  0  0  0  0
    3.7928   34.4870   19.9005 C   0  0  2  0  0  0  0  0  0  0  0  0
    2.4708   35.1318   19.6404 N   0  0  0  0  0  0  0  0  0  0  0  0
    3.5745   30.6536   16.0181 C   0  0  2  0  0  0  0  0  0  0  0  0
    3.8508   29.2352   16.2820 O   0  0  0  0  0  0  0  0  0  0  0  0
    4.6353   38.8551   17.0406 C   0  0  2  0  0  0  0  0  0  0  0  0
    5.6540   39.6980   16.6076 O   0  0  0  0  0  0  0  0  0  0  0  0
    4.4113   34.0632   18.5377 C   0  0  2  0  0  0  0  0  0  0  0  0
    4.4386   31.1740   14.8755 C   0  0  2  0  0  0  0  0  0  0  0  0
    5.6800   31.3647   15.5485 O   0  0  0  0  0  0  0  0  0  0  0  0
    5.0187   38.2024   18.3988 C   0  0  2  0  0  0  0  0  0  0  0  0
    3.9608   37.3190   18.8292 O   0  0  0  0  0  0  0  0  0  0  0  0
    5.7826   33.3733   18.6790 C   0  0  2  0  0  0  0  0  0  0  0  0
    6.0807   32.8312   17.3444 O   0  0  0  0  0  0  0  0  0  0  0  0
    3.9467   32.5158   14.2344 C   0  0  0  0  0  0  0  0  0  0  0  0
    4.2197   32.5189   12.8361 N   0  0  0  0  0  0  0  0  0  0  0  0
    5.2652   39.2258   19.4829 C   0  0  0  0  0  0  0  0  0  0  0  0
    6.2417   40.1306   19.1145 O   0  0  0  0  0  0  0  0  0  0  0  0
    5.7018   32.1993   19.7517 C   0  0  1  0  0  0  0  0  0  0  0  0
    7.0050   31.6849   20.0654 O   0  0  0  0  0  0  0  0  0  0  0  0
  1  2  1  6  0  0  0
  1  6  1  0  0  0  0
  1 23  1  0  0  0  0
  3  4  1  1  0  0  0
  3  8  1  0  0  0  0
  3 30  1  0  0  0  0
  5  9  1  0  0  0  0
  5 21  1  0  0  0  0
  5 25  1  6  0  0  0
  6  7  1  6  0  0  0
  6 11  1  0  0  0  0
  8 13  1  0  0  0  0
  9 10  1  1  0  0  0
  9 15  1  0  0  0  0
 11 12  1  6  0  0  0
 11 17  1  0  0  0  0
 13 14  1  6  0  0  0
 13 19  1  0  0  0  0
 15 16  1  1  0  0  0
 15 20  1  0  0  0  0
 17 18  1  6  0  0  0
 17 22  1  0  0  0  0
 19  2  1  6  0  0  0
 19 24  1  0  0  0  0
 20 21  1  0  0  0  0
 20 26  1  1  0  0  0
 22 23  1  0  0  0  0
 22 28  1  1  0  0  0
 24 25  1  6  0  0  0
 24 30  1  0  0  0  0
 26 27  1  0  0  0  0
 28 29  1  0  0  0  0
 30 31  1  1  0  0  0
M  END
>  <CHROM.1>
-142.04450505,49.63601738,-34.59398493,-145.32507920,-56.50124713,-81.78891935
4.58316830,34.41907567,17.66821978,-1.46614761,1.42653251,3.06578953

>  <Name>
2o3x_lig

>  <RI>
0

>  <Rbt.Current_Directory>
/home/itssahil/PROJECTS/Mol_Feturizer/New_Systems/rnas/2o3x

>  <Rbt.Executable>
rbdock ($Id: //depot/dev/client3/rdock/2013.1/src/exe/rbdock.cxx#4 $)

>  <Rbt.Library>
libRbt.so (2013.1, Build901 2013/11/27)

>  <Rbt.Parameter_File>
/export/apps/rDock/src/rDock_2013.1_src/data/scripts/dock_solv.prm

>  <Rbt.Receptor>
prm/blind_docking_80.prm

>  <SCORE>
26.5812

>  <SCORE.INTER>
6.00286

>  <SCORE.INTER.CONST>
1

>  <SCORE.INTER.POLAR>
-0.946293

>  <SCORE.INTER.ROT>
6

>  <SCORE.INTER.SOLV>
27.1105

>  <SCORE.INTER.VDW>
-9.48061

>  <SCORE.INTER.norm>
0.193641

>  <SCORE.INTRA>
13.127

>  <SCORE.INTRA.DIHEDRAL>
4.31945

>  <SCORE.INTRA.DIHEDRAL.0>
9.37739

>  <SCORE.INTRA.POLAR>
0

>  <SCORE.INTRA.POLAR.0>
0

>  <SCORE.INTRA.REPUL>
0

>  <SCORE.INTRA.REPUL.0>
0

>  <SCORE.INTRA.SOLV>
1.60225

>  <SCORE.INTRA.SOLV.lig_0>
-82.9274

>  <SCORE.INTRA.VDW>
10.1661

>  <SCORE.INTRA.VDW.0>
-3.84922

>  <SCORE.INTRA.norm>
0.42345

>  <SCORE.RESTR>
7.45137

>  <SCORE.RESTR.CAVITY>
7.45137

>  <SCORE.RESTR.norm>
0.240367

>  <SCORE.SYSTEM>
0

>  <SCORE.SYSTEM.CONST>
0

>  <SCORE.SYSTEM.DIHEDRAL>
0

>  <SCORE.SYSTEM.SOLV>
0

>  <SCORE.SYSTEM.norm>
0

>  <SCORE.heavy>
31

>  <SCORE.norm>
0.857458

>  <RMSD>
32.929

$$$$
2o3x_lig
 OpenBabel11021811463D
libRbt.so/2013.1/901 2013/11/27
 31 33  0  0  0  0  0  0  0  0999 V2000
    3.6640   37.0022   17.2987 C   0  0  2  0  0  0  0  0  0  0  0  0
    4.5664   35.9426   16.9550 O   0  0  0  0  0  0  0  0  0  0  0  0
    6.3410   32.6240   18.9887 C   0  0  2  0  0  0  0  0  0  0  0  0
    6.5718   31.4568   19.8684 N   0  0  0  0  0  0  0  0  0  0  0  0
    3.2861   32.3870   15.4294 C   0  0  1  0  0  0  0  0  0  0  0  0
    3.4181   37.8722   16.0254 C   0  0  2  0  0  0  0  0  0  0  0  0
    3.0956   37.0438   14.8356 N   0  0  0  0  0  0  0  0  0  0  0  0
    6.1102   33.9393   19.8048 C   0  0  0  0  0  0  0  0  0  0  0  0
    4.5763   31.5413   15.1722 C   0  0  2  0  0  0  0  0  0  0  0  0
    5.5318   32.1057   14.2326 O   0  0  0  0  0  0  0  0  0  0  0  0
    4.6450   38.7388   15.6841 C   0  0  1  0  0  0  0  0  0  0  0  0
    4.3830   39.5494   14.5667 O   0  0  0  0  0  0  0  0  0  0  0  0
    5.9059   35.1201   18.7868 C   0  0  2  0  0  0  0  0  0  0  0  0
    5.6972   36.4216   19.4895 N   0  0  0  0  0  0  0  0  0  0  0  0
    3.9074   30.2443   14.7486 C   0  0  2  0  0  0  0  0  0  0  0  0
    3.4609   30.3117   13.3508 O   0  0  0  0  0  0  0  0  0  0  0  0
    5.0202   39.5913   16.8846 C   0  0  2  0  0  0  0  0  0  0  0  0
    6.1141   40.3919   16.5712 O   0  0  0  0  0  0  0  0  0  0  0  0
    4.6744   34.8482   17.8764 C   0  0  2  0  0  0  0  0  0  0  0  0
    2.7202   30.1018   15.6939 C   0  0  2  0  0  0  0  0  0  0  0  0
    2.2485   31.4459   15.7305 O   0  0  0  0  0  0  0  0  0  0  0  0
    5.3522   38.6793   18.0994 C   0  0  2  0  0  0  0  0  0  0  0  0
    4.2151   37.8434   18.4044 O   0  0  0  0  0  0  0  0  0  0  0  0
    4.7710   33.5191   17.1014 C   0  0  2  0  0  0  0  0  0  0  0  0
    3.4387   33.3198   16.5105 O   0  0  0  0  0  0  0  0  0  0  0  0
    3.0801   29.6040   17.1347 C   0  0  0  0  0  0  0  0  0  0  0  0
    1.9189   29.6145   17.9602 N   0  0  0  0  0  0  0  0  0  0  0  0
    5.7157   39.4708   19.3342 C   0  0  0  0  0  0  0  0  0  0  0  0
    4.6125   40.1004   19.8768 O   0  0  0  0  0  0  0  0  0  0  0  0
    5.1240   32.3255   18.0946 C   0  0  1  0  0  0  0  0  0  0  0  0
    5.4355   31.1214   17.3776 O   0  0  0  0  0  0  0  0  0  0  0  0
  1  2  1  6  0  0  0
  1  6  1  0  0  0  0
  1 23  1  0  0  0  0
  3  4  1  1  0  0  0
  3  8  1  0  0  0  0
  3 30  1  0  0  0  0
  5  9  1  0  0  0  0
  5 21  1  0  0  0  0
  5 25  1  1  0  0  0
  6  7  1  6  0  0  0
  6 11  1  0  0  0  0
  8 13  1  0  0  0  0
  9 10  1  6  0  0  0
  9 15  1  0  0  0  0
 11 12  1  6  0  0  0
 11 17  1  0  0  0  0
 13 14  1  1  0  0  0
 13 19  1  0  0  0  0
 15 16  1  6  0  0  0
 15 20  1  0  0  0  0
 17 18  1  6  0  0  0
 17 22  1  0  0  0  0
 19  2  1  6  0  0  0
 19 24  1  0  0  0  0
 20 21  1  0  0  0  0
 20 26  1  1  0  0  0
 22 23  1  0  0  0  0
 22 28  1  1  0  0  0
 24 25  1  1  0  0  0
 24 30  1  0  0  0  0
 26 27  1  0  0  0  0
 28 29  1  0  0  0  0
 30 31  1  6  0  0  0
M  END
>  <CHROM.1>
-165.28300558,8.58049708,-96.14399202,175.17023428,71.57155006,162.56508976
4.49789634,34.68065166,17.00414440,1.22589392,-1.16083792,-0.15680129

>  <Name>
2o3x_lig

>  <RI>
0

>  <Rbt.Current_Directory>
/home/itssahil/PROJECTS/Mol_Feturizer/New_Systems/rnas/2o3x

>  <Rbt.Executable>
rbdock ($Id: //depot/dev/client3/rdock/2013.1/src/exe/rbdock.cxx#4 $)

>  <Rbt.Library>
libRbt.so (2013.1, Build901 2013/11/27)

>  <Rbt.Parameter_File>
/export/apps/rDock/src/rDock_2013.1_src/data/scripts/dock_solv.prm

>  <Rbt.Receptor>
prm/blind_docking_80.prm

>  <SCORE>
46.9539

>  <SCORE.INTER>
24.8607

>  <SCORE.INTER.CONST>
1

>  <SCORE.INTER.POLAR>
-0.679981

>  <SCORE.INTER.ROT>
6

>  <SCORE.INTER.SOLV>
20.9387

>  <SCORE.INTER.VDW>
4.26087

>  <SCORE.INTER.norm>
0.801959

>  <SCORE.INTRA>
12.5279

>  <SCORE.INTRA.DIHEDRAL>
5.28933

>  <SCORE.INTRA.DIHEDRAL.0>
9.37739

>  <SCORE.INTRA.POLAR>
0

>  <SCORE.INTRA.POLAR.0>
0

>  <SCORE.INTRA.REPUL>
0

>  <SCORE.INTRA.REPUL.0>
0

>  <SCORE.INTRA.SOLV>
3.56155

>  <SCORE.INTRA.SOLV.lig_0>
-82.9274

>  <SCORE.INTRA.VDW>
8.10246

>  <SCORE.INTRA.VDW.0>
-3.84922

>  <SCORE.INTRA.norm>
0.404126

>  <SCORE.RESTR>
9.56531

>  <SCORE.RESTR.CAVITY>
9.56531

>  <SCORE.RESTR.norm>
0.308558

>  <SCORE.SYSTEM>
0

>  <SCORE.SYSTEM.CONST>
0

>  <SCORE.SYSTEM.DIHEDRAL>
0

>  <SCORE.SYSTEM.SOLV>
0

>  <SCORE.SYSTEM.norm>
0

>  <SCORE.heavy>
31

>  <SCORE.norm>
1.51464

>  <RMSD>
32.960

$$$$
2o3x_lig
 OpenBabel11021811463D
libRbt.so/2013.1/901 2013/11/27
 31 33  0  0  0  0  0  0  0  0999 V2000
    5.4693   36.0829   17.8068 C   0  0  2  0  0  0  0  0  0  0  0  0
    4.5115   35.2846   18.5144 O   0  0  0  0  0  0  0  0  0  0  0  0
    2.4901   31.5748   17.8439 C   0  0  2  0  0  0  0  0  0  0  0  0
    2.1671   30.1846   17.4536 N   0  0  0  0  0  0  0  0  0  0  0  0
    6.5741   32.3238   19.1625 C   0  0  1  0  0  0  0  0  0  0  0  0
    5.9069   37.2624   18.7319 C   0  0  2  0  0  0  0  0  0  0  0  0
    6.2620   36.8000   20.0978 N   0  0  0  0  0  0  0  0  0  0  0  0
    2.7753   32.4835   16.6020 C   0  0  0  0  0  0  0  0  0  0  0  0
    7.1629   33.2503   18.0484 C   0  0  2  0  0  0  0  0  0  0  0  0
    6.5438   33.1432   16.7371 O   0  0  0  0  0  0  0  0  0  0  0  0
    4.7982   38.3239   18.8615 C   0  0  1  0  0  0  0  0  0  0  0  0
    5.2322   39.3985   19.6561 O   0  0  0  0  0  0  0  0  0  0  0  0
    3.0764   33.9385   17.1162 C   0  0  2  0  0  0  0  0  0  0  0  0
    3.3419   34.8772   15.9850 N   0  0  0  0  0  0  0  0  0  0  0  0
    8.6141   32.8096   18.1413 C   0  0  2  0  0  0  0  0  0  0  0  0
    8.8260   31.5364   17.4401 O   0  0  0  0  0  0  0  0  0  0  0  0
    4.3920   38.8119   17.4811 C   0  0  2  0  0  0  0  0  0  0  0  0
    3.4068   39.7875   17.5968 O   0  0  0  0  0  0  0  0  0  0  0  0
    4.3142   33.9387   18.0580 C   0  0  2  0  0  0  0  0  0  0  0  0
    8.8711   32.6581   19.6360 C   0  0  2  0  0  0  0  0  0  0  0  0
    7.6600   32.0319   20.0504 O   0  0  0  0  0  0  0  0  0  0  0  0
    3.8706   37.6199   16.6297 C   0  0  2  0  0  0  0  0  0  0  0  0
    4.8962   36.6085   16.5303 O   0  0  0  0  0  0  0  0  0  0  0  0
    4.1610   32.9936   19.2662 C   0  0  2  0  0  0  0  0  0  0  0  0
    5.4949   32.9381   19.8838 O   0  0  0  0  0  0  0  0  0  0  0  0
    9.0888   34.0035   20.4079 C   0  0  0  0  0  0  0  0  0  0  0  0
   10.3427   34.5765   20.0485 N   0  0  0  0  0  0  0  0  0  0  0  0
    3.4674   38.0385   15.2349 C   0  0  0  0  0  0  0  0  0  0  0  0
    4.3267   38.9906   14.7221 O   0  0  0  0  0  0  0  0  0  0  0  0
    3.7114   31.5453   18.7804 C   0  0  1  0  0  0  0  0  0  0  0  0
    3.3494   30.7090   19.8897 O   0  0  0  0  0  0  0  0  0  0  0  0
  1  2  1  1  0  0  0
  1  6  1  0  0  0  0
  1 23  1  0  0  0  0
  3  4  1  6  0  0  0
  3  8  1  0  0  0  0
  3 30  1  0  0  0  0
  5  9  1  0  0  0  0
  5 21  1  0  0  0  0
  5 25  1  1  0  0  0
  6  7  1  1  0  0  0
  6 11  1  0  0  0  0
  8 13  1  0  0  0  0
  9 10  1  6  0  0  0
  9 15  1  0  0  0  0
 11 12  1  1  0  0  0
 11 17  1  0  0  0  0
 13 14  1  6  0  0  0
 13 19  1  0  0  0  0
 15 16  1  6  0  0  0
 15 20  1  0  0  0  0
 17 18  1  1  0  0  0
 17 22  1  0  0  0  0
 19  2  1  1  0  0  0
 19 24  1  0  0  0  0
 20 21  1  0  0  0  0
 20 26  1  1  0  0  0
 22 23  1  0  0  0  0
 22 28  1  6  0  0  0
 24 25  1  6  0  0  0
 24 30  1  0  0  0  0
 26 27  1  0  0  0  0
 28 29  1  0  0  0  0
 30 31  1  1  0  0  0
M  END
>  <CHROM.1>
-159.65102428,77.91660893,-96.41440190,-70.54733255,38.29030959,-66.68080682
5.33299167,34.68416564,18.13694275,-1.90964331,0.41346424,3.00996241

>  <Name>
2o3x_lig

>  <RI>
0

>  <Rbt.Current_Directory>
/home/itssahil/PROJECTS/Mol_Feturizer/New_Systems/rnas/2o3x

>  <Rbt.Executable>
rbdock ($Id: //depot/dev/client3/rdock/2013.1/src/exe/rbdock.cxx#4 $)

>  <Rbt.Library>
libRbt.so (2013.1, Build901 2013/11/27)

>  <Rbt.Parameter_File>
/export/apps/rDock/src/rDock_2013.1_src/data/scripts/dock_solv.prm

>  <Rbt.Receptor>
prm/blind_docking_80.prm

>  <SCORE>
12.815

>  <SCORE.INTER>
-1.1936

>  <SCORE.INTER.CONST>
1

>  <SCORE.INTER.POLAR>
-0.449717

>  <SCORE.INTER.ROT>
6

>  <SCORE.INTER.SOLV>
23.1796

>  <SCORE.INTER.VDW>
-14.6232

>  <SCORE.INTER.norm>
-0.0385033

>  <SCORE.INTRA>
4.49962

>  <SCORE.INTRA.DIHEDRAL>
0.98704

>  <SCORE.INTRA.DIHEDRAL.0>
9.37739

>  <SCORE.INTRA.POLAR>
0

>  <SCORE.INTRA.POLAR.0>
0

>  <SCORE.INTRA.REPUL>
0

>  <SCORE.INTRA.REPUL.0>
0

>  <SCORE.INTRA.SOLV>
3.1656

>  <SCORE.INTRA.SOLV.lig_0>
-82.9274

>  <SCORE.INTRA.VDW>
2.4233

>  <SCORE.INTRA.VDW.0>
-3.84922

>  <SCORE.INTRA.norm>
0.145149

>  <SCORE.RESTR>
9.50901

>  <SCORE.RESTR.CAVITY>
9.50901

>  <SCORE.RESTR.norm>
0.306742

>  <SCORE.SYSTEM>
0

>  <SCORE.SYSTEM.CONST>
0

>  <SCORE.SYSTEM.DIHEDRAL>
0

>  <SCORE.SYSTEM.SOLV>
0

>  <SCORE.SYSTEM.norm>
0

>  <SCORE.heavy>
31

>  <SCORE.norm>
0.413388

>  <RMSD>
32.985

$$$$
2o3x_lig
 OpenBabel11021811463D
libRbt.so/2013.1/901 2013/11/27
 31 33  0  0  0  0  0  0  0  0999 V2000
    5.7609   31.2950   17.1811 C   0  0  2  0  0  0  0  0  0  0  0  0
    6.4306   32.4076   17.7886 O   0  0  0  0  0  0  0  0  0  0  0  0
    3.4394   33.1374   20.7582 C   0  0  2  0  0  0  0  0  0  0  0  0
    2.6909   33.6703   21.9180 N   0  0  0  0  0  0  0  0  0  0  0  0
    4.3869   36.1474   17.5457 C   0  0  1  0  0  0  0  0  0  0  0  0
    5.2035   31.7522   15.7959 C   0  0  2  0  0  0  0  0  0  0  0  0
    6.2242   32.4717   14.9920 N   0  0  0  0  0  0  0  0  0  0  0  0
    4.7242   32.3576   21.1950 C   0  0  0  0  0  0  0  0  0  0  0  0
    4.3581   37.2437   18.6607 C   0  0  2  0  0  0  0  0  0  0  0  0
    3.3332   37.0891   19.6805 O   0  0  0  0  0  0  0  0  0  0  0  0
    3.9818   32.6772   15.9526 C   0  0  1  0  0  0  0  0  0  0  0  0
    3.4669   33.0344   14.6950 O   0  0  0  0  0  0  0  0  0  0  0  0
    5.4293   31.8081   19.9015 C   0  0  2  0  0  0  0  0  0  0  0  0
    6.6608   31.0312   20.2349 N   0  0  0  0  0  0  0  0  0  0  0  0
    4.2318   38.4644   17.7646 C   0  0  2  0  0  0  0  0  0  0  0  0
    2.8474   38.6436   17.3073 O   0  0  0  0  0  0  0  0  0  0  0  0
    2.9177   31.9838   16.7867 C   0  0  2  0  0  0  0  0  0  0  0  0
    1.8038   32.8083   16.9103 O   0  0  0  0  0  0  0  0  0  0  0  0
    5.8255   32.9789   18.9573 C   0  0  2  0  0  0  0  0  0  0  0  0
    5.1601   38.1731   16.5913 C   0  0  2  0  0  0  0  0  0  0  0  0
    4.8759   36.7953   16.3650 O   0  0  0  0  0  0  0  0  0  0  0  0
    3.4878   31.6365   18.1910 C   0  0  2  0  0  0  0  0  0  0  0  0
    4.6515   30.7937   18.0482 O   0  0  0  0  0  0  0  0  0  0  0  0
    4.6309   33.8634   18.5489 C   0  0  2  0  0  0  0  0  0  0  0  0
    5.2264   35.0323   17.8834 O   0  0  0  0  0  0  0  0  0  0  0  0
    6.6840   38.3806   16.8883 C   0  0  0  0  0  0  0  0  0  0  0  0
    6.9296   39.7328   17.2639 N   0  0  0  0  0  0  0  0  0  0  0  0
    2.4801   30.9257   19.0644 C   0  0  0  0  0  0  0  0  0  0  0  0
    3.0985   30.1224   20.0026 O   0  0  0  0  0  0  0  0  0  0  0  0
    3.8115   34.3138   19.8378 C   0  0  1  0  0  0  0  0  0  0  0  0
    2.5763   34.9509   19.4779 O   0  0  0  0  0  0  0  0  0  0  0  0
  1  2  1  1  0  0  0
  1  6  1  0  0  0  0
  1 23  1  0  0  0  0
  3  4  1  1  0  0  0
  3  8  1  0  0  0  0
  3 30  1  0  0  0  0
  5  9  1  0  0  0  0
  5 21  1  0  0  0  0
  5 25  1  1  0  0  0
  6  7  1  1  0  0  0
  6 11  1  0  0  0  0
  8 13  1  0  0  0  0
  9 10  1  1  0  0  0
  9 15  1  0  0  0  0
 11 12  1  6  0  0  0
 11 17  1  0  0  0  0
 13 14  1  1  0  0  0
 13 19  1  0  0  0  0
 15 16  1  6  0  0  0
 15 20  1  0  0  0  0
 17 18  1  1  0  0  0
 17 22  1  0  0  0  0
 19  2  1  6  0  0  0
 19 24  1  0  0  0  0
 20 21  1  0  0  0  0
 20 26  1  1  0  0  0
 22 23  1  0  0  0  0
 22 28  1  1  0  0  0
 24 25  1  1  0  0  0
 24 30  1  0  0  0  0
 26 27  1  0  0  0  0
 28 29  1  0  0  0  0
 30 31  1  6  0  0  0
M  END
>  <CHROM.1>
111.63877271,92.74316046,46.45549578,-60.14443784,153.18419432,-171.30935339
4.40154496,34.06353968,18.12397667,-1.86367744,1.22987810,0.07930681

>  <Name>
2o3x_lig

>  <RI>
0

>  <Rbt.Current_Directory>
/home/itssahil/PROJECTS/Mol_Feturizer/New_Systems/rnas/2o3x

>  <Rbt.Executable>
rbdock ($Id: //depot/dev/client3/rdock/2013.1/src/exe/rbdock.cxx#4 $)

>  <Rbt.Library>
libRbt.so (2013.1, Build901 2013/11/27)

>  <Rbt.Parameter_File>
/export/apps/rDock/src/rDock_2013.1_src/data/scripts/dock_solv.prm

>  <Rbt.Receptor>
prm/blind_docking_80.prm

>  <SCORE>
37.7689

>  <SCORE.INTER>
1.97328

>  <SCORE.INTER.CONST>
1

>  <SCORE.INTER.POLAR>
-0.0738911

>  <SCORE.INTER.ROT>
6

>  <SCORE.INTER.SOLV>
30.0649

>  <SCORE.INTER.VDW>
-16.0598

>  <SCORE.INTER.norm>
0.0636543

>  <SCORE.INTRA>
30.6179

>  <SCORE.INTRA.DIHEDRAL>
5.17

>  <SCORE.INTRA.DIHEDRAL.0>
9.37739

>  <SCORE.INTRA.POLAR>
0

>  <SCORE.INTRA.POLAR.0>
0

>  <SCORE.INTRA.REPUL>
0

>  <SCORE.INTRA.REPUL.0>
0

>  <SCORE.INTRA.SOLV>
4.52609

>  <SCORE.INTRA.SOLV.lig_0>
-82.9274

>  <SCORE.INTRA.VDW>
25.7698

>  <SCORE.INTRA.VDW.0>
-3.84922

>  <SCORE.INTRA.norm>
0.987673

>  <SCORE.RESTR>
5.1777

>  <SCORE.RESTR.CAVITY>
5.1777

>  <SCORE.RESTR.norm>
0.167023

>  <SCORE.SYSTEM>
0

>  <SCORE.SYSTEM.CONST>
0

>  <SCORE.SYSTEM.DIHEDRAL>
0

>  <SCORE.SYSTEM.SOLV>
0

>  <SCORE.SYSTEM.norm>
0

>  <SCORE.heavy>
31

>  <SCORE.norm>
1.21835

>  <RMSD>
33.027

$$$$
2o3x_lig
 OpenBabel11021811463D
libRbt.so/2013.1/901 2013/11/27
 31 33  0  0  0  0  0  0  0  0999 V2000
    5.4983   36.7117   17.3152 C   0  0  2  0  0  0  0  0  0  0  0  0
    4.4471   35.8353   17.7422 O   0  0  0  0  0  0  0  0  0  0  0  0
    2.7424   32.0661   16.6536 C   0  0  2  0  0  0  0  0  0  0  0  0
    2.4714   30.7664   16.0003 N   0  0  0  0  0  0  0  0  0  0  0  0
    6.6018   33.1445   19.3926 C   0  0  1  0  0  0  0  0  0  0  0  0
    5.9169   37.6051   18.5256 C   0  0  2  0  0  0  0  0  0  0  0  0
    6.1355   36.8083   19.7598 N   0  0  0  0  0  0  0  0  0  0  0  0
    2.5289   33.2709   15.6777 C   0  0  0  0  0  0  0  0  0  0  0  0
    6.7849   31.6064   19.6088 C   0  0  2  0  0  0  0  0  0  0  0  0
    5.6477   30.9030   20.1799 O   0  0  0  0  0  0  0  0  0  0  0  0
    4.8557   38.6784   18.8332 C   0  0  1  0  0  0  0  0  0  0  0  0
    5.2763   39.5013   19.8916 O   0  0  0  0  0  0  0  0  0  0  0  0
    2.8101   34.6002   16.4690 C   0  0  2  0  0  0  0  0  0  0  0  0
    2.6087   35.8048   15.6089 N   0  0  0  0  0  0  0  0  0  0  0  0
    8.0407   31.6531   20.4631 C   0  0  2  0  0  0  0  0  0  0  0  0
    7.7199   31.9887   21.8567 O   0  0  0  0  0  0  0  0  0  0  0  0
    4.5887   39.5068   17.5877 C   0  0  2  0  0  0  0  0  0  0  0  0
    3.6473   40.4918   17.8692 O   0  0  0  0  0  0  0  0  0  0  0  0
    4.2697   34.6165   17.0063 C   0  0  2  0  0  0  0  0  0  0  0  0
    8.8960   32.7406   19.8235 C   0  0  2  0  0  0  0  0  0  0  0  0
    7.9044   33.7233   19.5381 O   0  0  0  0  0  0  0  0  0  0  0  0
    4.0800   38.5896   16.4399 C   0  0  2  0  0  0  0  0  0  0  0  0
    5.0586   37.5632   16.1682 O   0  0  0  0  0  0  0  0  0  0  0  0
    4.6016   33.4092   17.9056 C   0  0  2  0  0  0  0  0  0  0  0  0
    6.0583   33.4641   18.1024 O   0  0  0  0  0  0  0  0  0  0  0  0
    9.6395   32.3103   18.5138 C   0  0  0  0  0  0  0  0  0  0  0  0
    8.7026   31.8263   17.5558 N   0  0  0  0  0  0  0  0  0  0  0  0
    3.8137   39.3540   15.1639 C   0  0  0  0  0  0  0  0  0  0  0  0
    4.9352   40.0395   14.7393 O   0  0  0  0  0  0  0  0  0  0  0  0
    4.1880   32.0522   17.1823 C   0  0  1  0  0  0  0  0  0  0  0  0
    4.2801   30.9324   18.0760 O   0  0  0  0  0  0  0  0  0  0  0  0
  1  2  1  1  0  0  0
  1  6  1  0  0  0  0
  1 23  1  0  0  0  0
  3  4  1  6  0  0  0
  3  8  1  0  0  0  0
  3 30  1  0  0  0  0
  5  9  1  0  0  0  0
  5 21  1  0  0  0  0
  5 25  1  6  0  0  0
  6  7  1  1  0  0  0
  6 11  1  0  0  0  0
  8 13  1  0  0  0  0
  9 10  1  1  0  0  0
  9 15  1  0  0  0  0
 11 12  1  1  0  0  0
 11 17  1  0  0  0  0
 13 14  1  6  0  0  0
 13 19  1  0  0  0  0
 15 16  1  1  0  0  0
 15 20  1  0  0  0  0
 17 18  1  1  0  0  0
 17 22  1  0  0  0  0
 19  2  1  1  0  0  0
 19 24  1  0  0  0  0
 20 21  1  0  0  0  0
 20 26  1  6  0  0  0
 22 23  1  0  0  0  0
 22 28  1  6  0  0  0
 24 25  1  6  0  0  0
 24 30  1  0  0  0  0
 26 27  1  0  0  0  0
 28 29  1  0  0  0  0
 30 31  1  1  0  0  0
M  END
>  <CHROM.1>
-156.25476340,83.52859191,-122.32501754,56.19046765,56.67108229,140.69450458
5.32398167,34.91758481,17.94117634,-1.97693960,0.68868814,3.10043982

>  <Name>
2o3x_lig

>  <RI>
0

>  <Rbt.Current_Directory>
/home/itssahil/PROJECTS/Mol_Feturizer/New_Systems/rnas/2o3x

>  <Rbt.Executable>
rbdock ($Id: //depot/dev/client3/rdock/2013.1/src/exe/rbdock.cxx#4 $)

>  <Rbt.Library>
libRbt.so (2013.1, Build901 2013/11/27)

>  <Rbt.Parameter_File>
/export/apps/rDock/src/rDock_2013.1_src/data/scripts/dock_solv.prm

>  <Rbt.Receptor>
prm/blind_docking_80.prm

>  <SCORE>
16.9611

>  <SCORE.INTER>
-0.533258

>  <SCORE.INTER.CONST>
1

>  <SCORE.INTER.POLAR>
-0.602676

>  <SCORE.INTER.ROT>
6

>  <SCORE.INTER.SOLV>
25.3159

>  <SCORE.INTER.VDW>
-14.3852

>  <SCORE.INTER.norm>
-0.0172019

>  <SCORE.INTRA>
6.92829

>  <SCORE.INTRA.DIHEDRAL>
8.10193

>  <SCORE.INTRA.DIHEDRAL.0>
9.37739

>  <SCORE.INTRA.POLAR>
0

>  <SCORE.INTRA.POLAR.0>
0

>  <SCORE.INTRA.REPUL>
0

>  <SCORE.INTRA.REPUL.0>
0

>  <SCORE.INTRA.SOLV>
4.93391

>  <SCORE.INTRA.SOLV.lig_0>
-82.9274

>  <SCORE.INTRA.VDW>
0.410372

>  <SCORE.INTRA.VDW.0>
-3.84922

>  <SCORE.INTRA.norm>
0.223493

>  <SCORE.RESTR>
10.5661

>  <SCORE.RESTR.CAVITY>
10.5661

>  <SCORE.RESTR.norm>
0.340842

>  <SCORE.SYSTEM>
0

>  <SCORE.SYSTEM.CONST>
0

>  <SCORE.SYSTEM.DIHEDRAL>
0

>  <SCORE.SYSTEM.SOLV>
0

>  <SCORE.SYSTEM.norm>
0

>  <SCORE.heavy>
31

>  <SCORE.norm>
0.547133

>  <RMSD>
33.072

$$$$
2o3x_lig
 OpenBabel11021811463D
libRbt.so/2013.1/901 2013/11/27
 31 33  0  0  0  0  0  0  0  0999 V2000
    3.8508   36.9473   17.6229 C   0  0  2  0  0  0  0  0  0  0  0  0
    4.8000   35.8975   17.3943 O   0  0  0  0  0  0  0  0  0  0  0  0
    5.1689   32.7187   20.2329 C   0  0  2  0  0  0  0  0  0  0  0  0
    5.0196   31.4355   20.9545 N   0  0  0  0  0  0  0  0  0  0  0  0
    4.7125   32.8642   15.8061 C   0  0  1  0  0  0  0  0  0  0  0  0
    3.2744   37.3989   16.2436 C   0  0  2  0  0  0  0  0  0  0  0  0
    2.8472   36.2456   15.4112 N   0  0  0  0  0  0  0  0  0  0  0  0
    3.8492   33.5598   20.2490 C   0  0  0  0  0  0  0  0  0  0  0  0
    4.9789   31.4988   15.0913 C   0  0  2  0  0  0  0  0  0  0  0  0
    5.4409   31.5792   13.7149 O   0  0  0  0  0  0  0  0  0  0  0  0
    4.3035   38.2133   15.4371 C   0  0  1  0  0  0  0  0  0  0  0  0
    3.7467   38.6516   14.2238 O   0  0  0  0  0  0  0  0  0  0  0  0
    4.1171   34.9094   19.4880 C   0  0  2  0  0  0  0  0  0  0  0  0
    2.9053   35.7827   19.4748 N   0  0  0  0  0  0  0  0  0  0  0  0
    3.6117   30.8703   15.3027 C   0  0  2  0  0  0  0  0  0  0  0  0
    2.6365   31.3877   14.3338 O   0  0  0  0  0  0  0  0  0  0  0  0
    4.7811   39.3964   16.2624 C   0  0  2  0  0  0  0  0  0  0  0  0
    5.6935   40.1465   15.5273 O   0  0  0  0  0  0  0  0  0  0  0  0
    4.5406   34.6314   18.0174 C   0  0  2  0  0  0  0  0  0  0  0  0
    3.2281   31.2627   16.7247 C   0  0  2  0  0  0  0  0  0  0  0  0
    3.6644   32.6189   16.7517 O   0  0  0  0  0  0  0  0  0  0  0  0
    5.4362   38.8937   17.5799 C   0  0  2  0  0  0  0  0  0  0  0  0
    4.4844   38.1044   18.3255 O   0  0  0  0  0  0  0  0  0  0  0  0
    5.7833   33.7267   17.9017 C   0  0  2  0  0  0  0  0  0  0  0  0
    5.8745   33.3776   16.4757 O   0  0  0  0  0  0  0  0  0  0  0  0
    3.9335   30.4337   17.8510 C   0  0  0  0  0  0  0  0  0  0  0  0
    3.1271   30.4186   19.0254 N   0  0  0  0  0  0  0  0  0  0  0  0
    5.9161   40.0275   18.4560 C   0  0  0  0  0  0  0  0  0  0  0  0
    6.0048   39.6436   19.7799 O   0  0  0  0  0  0  0  0  0  0  0  0
    5.5955   32.4153   18.7853 C   0  0  1  0  0  0  0  0  0  0  0  0
    6.8151   31.6630   18.8731 O   0  0  0  0  0  0  0  0  0  0  0  0
  1  2  1  6  0  0  0
  1  6  1  0  0  0  0
  1 23  1  0  0  0  0
  3  4  1  1  0  0  0
  3  8  1  0  0  0  0
  3 30  1  0  0  0  0
  5  9  1  0  0  0  0
  5 21  1  0  0  0  0
  5 25  1  1  0  0  0
  6  7  1  6  0  0  0
  6 11  1  0  0  0  0
  8 13  1  0  0  0  0
  9 10  1  6  0  0  0
  9 15  1  0  0  0  0
 11 12  1  6  0  0  0
 11 17  1  0  0  0  0
 13 14  1  6  0  0  0
 13 19  1  0  0  0  0
 15 16  1  6  0  0  0
 15 20  1  0  0  0  0
 17 18  1  6  0  0  0
 17 22  1  0  0  0  0
 19  2  1  1  0  0  0
 19 24  1  0  0  0  0
 20 21  1  0  0  0  0
 20 26  1  1  0  0  0
 22 23  1  0  0  0  0
 22 28  1  1  0  0  0
 24 25  1  6  0  0  0
 24 30  1  0  0  0  0
 26 27  1  0  0  0  0
 28 29  1  0  0  0  0
 30 31  1  1  0  0  0
M  END
>  <CHROM.1>
-120.45936420,-125.90485310,-44.94859562,-153.77665746,156.56959064,-50.60106344
4.53838201,34.76005306,17.30201152,-1.21580745,1.37939717,2.76196585

>  <Name>
2o3x_lig

>  <RI>
0

>  <Rbt.Current_Directory>
/home/itssahil/PROJECTS/Mol_Feturizer/New_Systems/rnas/2o3x

>  <Rbt.Executable>
rbdock ($Id: //depot/dev/client3/rdock/2013.1/src/exe/rbdock.cxx#4 $)

>  <Rbt.Library>
libRbt.so (2013.1, Build901 2013/11/27)

>  <Rbt.Parameter_File>
/export/apps/rDock/src/rDock_2013.1_src/data/scripts/dock_solv.prm

>  <Rbt.Receptor>
prm/blind_docking_80.prm

>  <SCORE>
25.8633

>  <SCORE.INTER>
-0.908801

>  <SCORE.INTER.CONST>
1

>  <SCORE.INTER.POLAR>
-0.493932

>  <SCORE.INTER.ROT>
6

>  <SCORE.INTER.SOLV>
20.4941

>  <SCORE.INTER.VDW>
-13.3908

>  <SCORE.INTER.norm>
-0.0293162

>  <SCORE.INTRA>
19.3518

>  <SCORE.INTRA.DIHEDRAL>
10.2038

>  <SCORE.INTRA.DIHEDRAL.0>
9.37739

>  <SCORE.INTRA.POLAR>
0

>  <SCORE.INTRA.POLAR.0>
0

>  <SCORE.INTRA.REPUL>
0

>  <SCORE.INTRA.REPUL.0>
0

>  <SCORE.INTRA.SOLV>
6.64554

>  <SCORE.INTRA.SOLV.lig_0>
-82.9274

>  <SCORE.INTRA.VDW>
10.9272

>  <SCORE.INTRA.VDW.0>
-3.84922

>  <SCORE.INTRA.norm>
0.624252

>  <SCORE.RESTR>
7.42024

>  <SCORE.RESTR.CAVITY>
7.42024

>  <SCORE.RESTR.norm>
0.239363

>  <SCORE.SYSTEM>
0

>  <SCORE.SYSTEM.CONST>
0

>  <SCORE.SYSTEM.DIHEDRAL>
0

>  <SCORE.SYSTEM.SOLV>
0

>  <SCORE.SYSTEM.norm>
0

>  <SCORE.heavy>
31

>  <SCORE.norm>
0.834299

>  <RMSD>
33.085

$$$$
2o3x_lig
 OpenBabel11021811463D
libRbt.so/2013.1/901 2013/11/27
 31 33  0  0  0  0  0  0  0  0999 V2000
    3.8932   36.7300   18.5580 C   0  0  2  0  0  0  0  0  0  0  0  0
    4.8171   35.6347   18.5104 O   0  0  0  0  0  0  0  0  0  0  0  0
    4.0208   31.7790   20.1829 C   0  0  2  0  0  0  0  0  0  0  0  0
    3.5475   30.3928   20.3923 N   0  0  0  0  0  0  0  0  0  0  0  0
    4.9796   33.1201   16.0808 C   0  0  1  0  0  0  0  0  0  0  0  0
    3.4150   37.0345   17.1029 C   0  0  2  0  0  0  0  0  0  0  0  0
    2.9976   35.8047   16.3823 N   0  0  0  0  0  0  0  0  0  0  0  0
    2.8372   32.8004   20.1118 C   0  0  0  0  0  0  0  0  0  0  0  0
    5.2509   31.7979   15.2906 C   0  0  2  0  0  0  0  0  0  0  0  0
    6.1697   31.9028   14.1685 O   0  0  0  0  0  0  0  0  0  0  0  0
    4.5176   37.7210   16.2747 C   0  0  1  0  0  0  0  0  0  0  0  0
    4.0487   38.0309   14.9869 O   0  0  0  0  0  0  0  0  0  0  0  0
    3.4406   34.2396   19.9193 C   0  0  2  0  0  0  0  0  0  0  0  0
    2.3711   35.2806   19.8607 N   0  0  0  0  0  0  0  0  0  0  0  0
    3.8125   31.4486   14.9474 C   0  0  2  0  0  0  0  0  0  0  0  0
    3.3343   32.2396   13.8058 O   0  0  0  0  0  0  0  0  0  0  0  0
    4.9866   38.9780   16.9879 C   0  0  2  0  0  0  0  0  0  0  0  0
    5.9663   39.6122   16.2305 O   0  0  0  0  0  0  0  0  0  0  0  0
    4.2712   34.3113   18.6062 C   0  0  2  0  0  0  0  0  0  0  0  0
    3.0275   31.7841   16.2101 C   0  0  2  0  0  0  0  0  0  0  0  0
    3.6427   33.0134   16.5851 O   0  0  0  0  0  0  0  0  0  0  0  0
    5.5452   38.6134   18.3924 C   0  0  2  0  0  0  0  0  0  0  0  0
    4.5243   37.9426   19.1622 O   0  0  0  0  0  0  0  0  0  0  0  0
    5.4071   33.2710   18.5459 C   0  0  2  0  0  0  0  0  0  0  0  0
    5.9030   33.3215   17.1619 O   0  0  0  0  0  0  0  0  0  0  0  0
    3.1508   30.7311   17.3631 C   0  0  0  0  0  0  0  0  0  0  0  0
    2.7064   29.4554   16.9103 N   0  0  0  0  0  0  0  0  0  0  0  0
    6.0119   39.8273   19.1619 C   0  0  0  0  0  0  0  0  0  0  0  0
    4.9841   40.7283   19.3609 O   0  0  0  0  0  0  0  0  0  0  0  0
    4.8450   31.8199   18.8835 C   0  0  1  0  0  0  0  0  0  0  0  0
    5.9093   30.8709   19.0505 O   0  0  0  0  0  0  0  0  0  0  0  0
  1  2  1  6  0  0  0
  1  6  1  0  0  0  0
  1 23  1  0  0  0  0
  3  4  1  6  0  0  0
  3  8  1  0  0  0  0
  3 30  1  0  0  0  0
  5  9  1  0  0  0  0
  5 21  1  0  0  0  0
  5 25  1  1  0  0  0
  6  7  1  6  0  0  0
  6 11  1  0  0  0  0
  8 13  1  0  0  0  0
  9 10  1  6  0  0  0
  9 15  1  0  0  0  0
 11 12  1  6  0  0  0
 11 17  1  0  0  0  0
 13 14  1  6  0  0  0
 13 19  1  0  0  0  0
 15 16  1  6  0  0  0
 15 20  1  0  0  0  0
 17 18  1  6  0  0  0
 17 22  1  0  0  0  0
 19  2  1  1  0  0  0
 19 24  1  0  0  0  0
 20 21  1  0  0  0  0
 20 26  1  1  0  0  0
 22 23  1  0  0  0  0
 22 28  1  1  0  0  0
 24 25  1  6  0  0  0
 24 30  1  0  0  0  0
 26 27  1  0  0  0  0
 28 29  1  0  0  0  0
 30 31  1  1  0  0  0
M  END
>  <CHROM.1>
-88.73695303,-113.11911786,-55.92237464,-58.54954762,59.91249866,-55.51745929
4.35866102,34.56178999,17.55642339,0.77705184,1.41210428,0.87365991

>  <Name>
2o3x_lig

>  <RI>
0

>  <Rbt.Current_Directory>
/home/itssahil/PROJECTS/Mol_Feturizer/New_Systems/rnas/2o3x

>  <Rbt.Executable>
rbdock ($Id: //depot/dev/client3/rdock/2013.1/src/exe/rbdock.cxx#4 $)

>  <Rbt.Library>
libRbt.so (2013.1, Build901 2013/11/27)

>  <Rbt.Parameter_File>
/export/apps/rDock/src/rDock_2013.1_src/data/scripts/dock_solv.prm

>  <Rbt.Receptor>
prm/blind_docking_80.prm

>  <SCORE>
31.8731

>  <SCORE.INTER>
3.60059

>  <SCORE.INTER.CONST>
1

>  <SCORE.INTER.POLAR>
0

>  <SCORE.INTER.ROT>
6

>  <SCORE.INTER.SOLV>
18.3612

>  <SCORE.INTER.VDW>
-11.32

>  <SCORE.INTER.norm>
0.116148

>  <SCORE.INTRA>
20.9289

>  <SCORE.INTRA.DIHEDRAL>
1.29825

>  <SCORE.INTRA.DIHEDRAL.0>
9.37739

>  <SCORE.INTRA.POLAR>
0

>  <SCORE.INTRA.POLAR.0>
0

>  <SCORE.INTRA.REPUL>
0.303382

>  <SCORE.INTRA.REPUL.0>
0

>  <SCORE.INTRA.SOLV>
7.7103

>  <SCORE.INTRA.SOLV.lig_0>
-82.9274

>  <SCORE.INTRA.VDW>
14.9078

>  <SCORE.INTRA.VDW.0>
-3.84922

>  <SCORE.INTRA.norm>
0.675127

>  <SCORE.RESTR>
7.34353

>  <SCORE.RESTR.CAVITY>
7.34353

>  <SCORE.RESTR.norm>
0.236888

>  <SCORE.SYSTEM>
0

>  <SCORE.SYSTEM.CONST>
0

>  <SCORE.SYSTEM.DIHEDRAL>
0

>  <SCORE.SYSTEM.SOLV>
0

>  <SCORE.SYSTEM.norm>
0

>  <SCORE.heavy>
31

>  <SCORE.norm>
1.02816

>  <RMSD>
33.139

$$$$
2o3x_lig
 OpenBabel11021811463D
libRbt.so/2013.1/901 2013/11/27
 31 33  0  0  0  0  0  0  0  0999 V2000
    5.1622   36.3714   17.3771 C   0  0  2  0  0  0  0  0  0  0  0  0
    3.9300   35.8808   17.9216 O   0  0  0  0  0  0  0  0  0  0  0  0
    4.8657   32.7630   20.6968 C   0  0  2  0  0  0  0  0  0  0  0  0
    4.9827   31.4515   21.3720 N   0  0  0  0  0  0  0  0  0  0  0  0
    4.6811   32.9848   16.2537 C   0  0  1  0  0  0  0  0  0  0  0  0
    5.8619   37.2539   18.4588 C   0  0  2  0  0  0  0  0  0  0  0  0
    5.9060   36.5847   19.7839 N   0  0  0  0  0  0  0  0  0  0  0  0
    3.3841   33.2636   20.6365 C   0  0  0  0  0  0  0  0  0  0  0  0
    5.2683   31.6513   15.6852 C   0  0  2  0  0  0  0  0  0  0  0  0
    5.8926   31.7370   14.3748 O   0  0  0  0  0  0  0  0  0  0  0  0
    5.1508   38.6092   18.6330 C   0  0  1  0  0  0  0  0  0  0  0  0
    5.8265   39.4055   19.5730 O   0  0  0  0  0  0  0  0  0  0  0  0
    3.3686   34.6695   19.9326 C   0  0  2  0  0  0  0  0  0  0  0  0
    1.9857   35.2284   19.8518 N   0  0  0  0  0  0  0  0  0  0  0  0
    4.0107   30.8030   15.7731 C   0  0  2  0  0  0  0  0  0  0  0  0
    3.1029   31.0858   14.6535 O   0  0  0  0  0  0  0  0  0  0  0  0
    5.0684   39.3207   17.2930 C   0  0  2  0  0  0  0  0  0  0  0  0
    4.4470   40.5553   17.4519 O   0  0  0  0  0  0  0  0  0  0  0  0
    3.9427   34.5639   18.4909 C   0  0  2  0  0  0  0  0  0  0  0  0
    3.3770   31.1981   17.1018 C   0  0  2  0  0  0  0  0  0  0  0  0
    3.5707   32.6096   17.0779 O   0  0  0  0  0  0  0  0  0  0  0  0
    4.2783   38.4481   16.2771 C   0  0  2  0  0  0  0  0  0  0  0  0
    4.9245   37.1650   16.1330 O   0  0  0  0  0  0  0  0  0  0  0  0
    5.3716   33.9875   18.4446 C   0  0  2  0  0  0  0  0  0  0  0  0
    5.6382   33.7316   17.0208 O   0  0  0  0  0  0  0  0  0  0  0  0
    4.0525   30.5699   18.3677 C   0  0  0  0  0  0  0  0  0  0  0  0
    3.0914   30.4118   19.4075 N   0  0  0  0  0  0  0  0  0  0  0  0
    4.1777   39.0947   14.9151 C   0  0  0  0  0  0  0  0  0  0  0  0
    3.2869   38.4246   14.0994 O   0  0  0  0  0  0  0  0  0  0  0  0
    5.4474   32.6325   19.2777 C   0  0  1  0  0  0  0  0  0  0  0  0
    6.8038   32.1896   19.4365 O   0  0  0  0  0  0  0  0  0  0  0  0
  1  2  1  1  0  0  0
  1  6  1  0  0  0  0
  1 23  1  0  0  0  0
  3  4  1  6  0  0  0
  3  8  1  0  0  0  0
  3 30  1  0  0  0  0
  5  9  1  0  0  0  0
  5 21  1  0  0  0  0
  5 25  1  1  0  0  0
  6  7  1  1  0  0  0
  6 11  1  0  0  0  0
  8 13  1  0  0  0  0
  9 10  1  6  0  0  0
  9 15  1  0  0  0  0
 11 12  1  1  0  0  0
 11 17  1  0  0  0  0
 13 14  1  6  0  0  0
 13 19  1  0  0  0  0
 15 16  1  6  0  0  0
 15 20  1  0  0  0  0
 17 18  1  1  0  0  0
 17 22  1  0  0  0  0
 19  2  1  1  0  0  0
 19 24  1  0  0  0  0
 20 21  1  0  0  0  0
 20 26  1  1  0  0  0
 22 23  1  0  0  0  0
 22 28  1  6  0  0  0
 24 25  1  6  0  0  0
 24 30  1  0  0  0  0
 26 27  1  0  0  0  0
 28 29  1  0  0  0  0
 30 31  1  1  0  0  0
M  END
>  <CHROM.1>
-96.51407579,-118.12150885,126.80387192,-150.75969575,-169.61442013,-50.62195973
4.54765684,34.69382799,17.75160701,1.08381967,-1.46617267,-0.57976120

>  <Name>
2o3x_lig

>  <RI>
0

>  <Rbt.Current_Directory>
/home/itssahil/PROJECTS/Mol_Feturizer/New_Systems/rnas/2o3x

>  <Rbt.Executable>
rbdock ($Id: //depot/dev/client3/rdock/2013.1/src/exe/rbdock.cxx#4 $)

>  <Rbt.Library>
libRbt.so (2013.1, Build901 2013/11/27)

>  <Rbt.Parameter_File>
/export/apps/rDock/src/rDock_2013.1_src/data/scripts/dock_solv.prm

>  <Rbt.Receptor>
prm/blind_docking_80.prm

>  <SCORE>
33.4756

>  <SCORE.INTER>
6.01879

>  <SCORE.INTER.CONST>
1

>  <SCORE.INTER.POLAR>
-0.0896408

>  <SCORE.INTER.ROT>
6

>  <SCORE.INTER.SOLV>
25.5388

>  <SCORE.INTER.VDW>
-11.8016

>  <SCORE.INTER.norm>
0.194154

>  <SCORE.INTRA>
21.5066

>  <SCORE.INTRA.DIHEDRAL>
12.8466

>  <SCORE.INTRA.DIHEDRAL.0>
9.37739

>  <SCORE.INTRA.POLAR>
0

>  <SCORE.INTRA.POLAR.0>
0

>  <SCORE.INTRA.REPUL>
0

>  <SCORE.INTRA.REPUL.0>
0

>  <SCORE.INTRA.SOLV>
6.98535

>  <SCORE.INTRA.SOLV.lig_0>
-82.9274

>  <SCORE.INTRA.VDW>
11.5907

>  <SCORE.INTRA.VDW.0>
-3.84922

>  <SCORE.INTRA.norm>
0.693763

>  <SCORE.RESTR>
5.95016

>  <SCORE.RESTR.CAVITY>
5.95016

>  <SCORE.RESTR.norm>
0.191941

>  <SCORE.SYSTEM>
0

>  <SCORE.SYSTEM.CONST>
0

>  <SCORE.SYSTEM.DIHEDRAL>
0

>  <SCORE.SYSTEM.SOLV>
0

>  <SCORE.SYSTEM.norm>
0

>  <SCORE.heavy>
31

>  <SCORE.norm>
1.07986

>  <RMSD>
33.211

$$$$
2o3x_lig
 OpenBabel11021811463D
libRbt.so/2013.1/901 2013/11/27
 31 33  0  0  0  0  0  0  0  0999 V2000
    3.6370   34.2998   19.1238 C   0  0  2  0  0  0  0  0  0  0  0  0
    4.3852   35.5084   19.3109 O   0  0  0  0  0  0  0  0  0  0  0  0
    3.5957   37.7474   15.7526 C   0  0  2  0  0  0  0  0  0  0  0  0
    3.7442   38.5366   14.5098 N   0  0  0  0  0  0  0  0  0  0  0  0
    5.0651   33.2988   15.9428 C   0  0  1  0  0  0  0  0  0  0  0  0
    2.7633   34.0596   20.3957 C   0  0  2  0  0  0  0  0  0  0  0  0
    2.0212   35.2798   20.8032 N   0  0  0  0  0  0  0  0  0  0  0  0
    4.0947   38.5325   17.0112 C   0  0  0  0  0  0  0  0  0  0  0  0
    5.3095   31.9315   16.6618 C   0  0  2  0  0  0  0  0  0  0  0  0
    6.6598   31.3987   16.5765 O   0  0  0  0  0  0  0  0  0  0  0  0
    3.6170   33.5993   21.5924 C   0  0  1  0  0  0  0  0  0  0  0  0
    2.8047   33.3407   22.7094 O   0  0  0  0  0  0  0  0  0  0  0  0
    3.8684   37.6273   18.2768 C   0  0  2  0  0  0  0  0  0  0  0  0
    4.3038   38.3151   19.5293 N   0  0  0  0  0  0  0  0  0  0  0  0
    4.2258   31.1226   15.9689 C   0  0  2  0  0  0  0  0  0  0  0  0
    4.6580   30.6965   14.6312 O   0  0  0  0  0  0  0  0  0  0  0  0
    4.4084   32.3597   21.2107 C   0  0  2  0  0  0  0  0  0  0  0  0
    5.1627   31.9286   22.2973 O   0  0  0  0  0  0  0  0  0  0  0  0
    4.6616   36.2961   18.1440 C   0  0  2  0  0  0  0  0  0  0  0  0
    3.0382   32.0739   15.8808 C   0  0  2  0  0  0  0  0  0  0  0  0
    3.6960   33.2854   15.5204 O   0  0  0  0  0  0  0  0  0  0  0  0
    5.3363   32.6742   20.0033 C   0  0  2  0  0  0  0  0  0  0  0  0
    4.5432   33.1349   18.8881 O   0  0  0  0  0  0  0  0  0  0  0  0
    4.3026   35.4965   16.8758 C   0  0  2  0  0  0  0  0  0  0  0  0
    5.3100   34.4276   16.7959 O   0  0  0  0  0  0  0  0  0  0  0  0
    2.2384   32.2562   17.2151 C   0  0  0  0  0  0  0  0  0  0  0  0
    2.3501   31.0836   18.0167 N   0  0  0  0  0  0  0  0  0  0  0  0
    6.1387   31.4721   19.5623 C   0  0  0  0  0  0  0  0  0  0  0  0
    7.1023   31.1356   20.4930 O   0  0  0  0  0  0  0  0  0  0  0  0
    4.3824   36.4342   15.5913 C   0  0  1  0  0  0  0  0  0  0  0  0
    3.8445   35.7814   14.4312 O   0  0  0  0  0  0  0  0  0  0  0  0
  1  2  1  1  0  0  0
  1  6  1  0  0  0  0
  1 23  1  0  0  0  0
  3  4  1  6  0  0  0
  3  8  1  0  0  0  0
  3 30  1  0  0  0  0
  5  9  1  0  0  0  0
  5 21  1  0  0  0  0
  5 25  1  1  0  0  0
  6  7  1  1  0  0  0
  6 11  1  0  0  0  0
  8 13  1  0  0  0  0
  9 10  1  6  0  0  0
  9 15  1  0  0  0  0
 11 12  1  1  0  0  0
 11 17  1  0  0  0  0
 13 14  1  1  0  0  0
 13 19  1  0  0  0  0
 15 16  1  6  0  0  0
 15 20  1  0  0  0  0
 17 18  1  1  0  0  0
 17 22  1  0  0  0  0
 19  2  1  1  0  0  0
 19 24  1  0  0  0  0
 20 21  1  0  0  0  0
 20 26  1  1  0  0  0
 22 23  1  0  0  0  0
 22 28  1  6  0  0  0
 24 25  1  6  0  0  0
 24 30  1  0  0  0  0
 26 27  1  0  0  0  0
 28 29  1  0  0  0  0
 30 31  1  6  0  0  0
M  END
>  <CHROM.1>
-147.33221668,-131.03930504,112.78693734,-28.01223181,-69.79339658,163.57524419
4.26321111,33.98695450,18.06355360,0.99661759,-1.37819280,1.83591509

>  <Name>
2o3x_lig

>  <RI>
0

>  <Rbt.Current_Directory>
/home/itssahil/PROJECTS/Mol_Feturizer/New_Systems/rnas/2o3x

>  <Rbt.Executable>
rbdock ($Id: //depot/dev/client3/rdock/2013.1/src/exe/rbdock.cxx#4 $)

>  <Rbt.Library>
libRbt.so (2013.1, Build901 2013/11/27)

>  <Rbt.Parameter_File>
/export/apps/rDock/src/rDock_2013.1_src/data/scripts/dock_solv.prm

>  <Rbt.Receptor>
prm/blind_docking_80.prm

>  <SCORE>
32.3151

>  <SCORE.INTER>
11.0348

>  <SCORE.INTER.CONST>
1

>  <SCORE.INTER.POLAR>
-1.01201

>  <SCORE.INTER.ROT>
6

>  <SCORE.INTER.SOLV>
24.3471

>  <SCORE.INTER.VDW>
-4.98579

>  <SCORE.INTER.norm>
0.355962

>  <SCORE.INTRA>
12.2506

>  <SCORE.INTRA.DIHEDRAL>
12.6884

>  <SCORE.INTRA.DIHEDRAL.0>
9.37739

>  <SCORE.INTRA.POLAR>
0

>  <SCORE.INTRA.POLAR.0>
0

>  <SCORE.INTRA.REPUL>
0

>  <SCORE.INTRA.REPUL.0>
0

>  <SCORE.INTRA.SOLV>
3.81612

>  <SCORE.INTRA.SOLV.lig_0>
-82.9274

>  <SCORE.INTRA.VDW>
3.99834

>  <SCORE.INTRA.VDW.0>
-3.84922

>  <SCORE.INTRA.norm>
0.395181

>  <SCORE.RESTR>
9.02971

>  <SCORE.RESTR.CAVITY>
9.02971

>  <SCORE.RESTR.norm>
0.291281

>  <SCORE.SYSTEM>
0

>  <SCORE.SYSTEM.CONST>
0

>  <SCORE.SYSTEM.DIHEDRAL>
0

>  <SCORE.SYSTEM.SOLV>
0

>  <SCORE.SYSTEM.norm>
0

>  <SCORE.heavy>
31

>  <SCORE.norm>
1.04242

>  <RMSD>
33.215

$$$$
2o3x_lig
 OpenBabel11021811463D
libRbt.so/2013.1/901 2013/11/27
 31 33  0  0  0  0  0  0  0  0999 V2000
    6.4493   34.0551   18.8745 C   0  0  2  0  0  0  0  0  0  0  0  0
    6.3962   33.7037   17.4855 O   0  0  0  0  0  0  0  0  0  0  0  0
    3.4693   33.1874   14.4090 C   0  0  2  0  0  0  0  0  0  0  0  0
    2.1934   33.0643   13.6698 N   0  0  0  0  0  0  0  0  0  0  0  0
    4.8932   37.2453   16.4510 C   0  0  1  0  0  0  0  0  0  0  0  0
    7.1919   32.9163   19.6426 C   0  0  2  0  0  0  0  0  0  0  0  0
    8.4605   32.5266   18.9758 N   0  0  0  0  0  0  0  0  0  0  0  0
    3.6809   32.0097   15.4178 C   0  0  0  0  0  0  0  0  0  0  0  0
    3.9763   38.3188   17.1241 C   0  0  2  0  0  0  0  0  0  0  0  0
    2.7180   38.5957   16.4500 O   0  0  0  0  0  0  0  0  0  0  0  0
    6.3164   31.6557   19.7746 C   0  0  1  0  0  0  0  0  0  0  0  0
    6.9848   30.6639   20.5122 O   0  0  0  0  0  0  0  0  0  0  0  0
    5.0692   32.2136   16.1273 C   0  0  2  0  0  0  0  0  0  0  0  0
    5.3569   31.1150   17.0976 N   0  0  0  0  0  0  0  0  0  0  0  0
    4.9760   39.4622   17.1716 C   0  0  2  0  0  0  0  0  0  0  0  0
    5.0869   40.1221   15.8640 O   0  0  0  0  0  0  0  0  0  0  0  0
    4.9975   32.0150   20.4378 C   0  0  2  0  0  0  0  0  0  0  0  0
    4.2143   30.8738   20.5791 O   0  0  0  0  0  0  0  0  0  0  0  0
    5.0968   33.5673   16.8927 C   0  0  2  0  0  0  0  0  0  0  0  0
    6.2926   38.8009   17.5619 C   0  0  2  0  0  0  0  0  0  0  0  0
    6.2396   37.6180   16.7692 O   0  0  0  0  0  0  0  0  0  0  0  0
    4.2484   33.0788   19.5864 C   0  0  2  0  0  0  0  0  0  0  0  0
    5.0775   34.2512   19.4346 O   0  0  0  0  0  0  0  0  0  0  0  0
    4.8025   34.7830   15.9916 C   0  0  2  0  0  0  0  0  0  0  0  0
    4.6241   35.9135   16.9157 O   0  0  0  0  0  0  0  0  0  0  0  0
    6.4258   38.4418   19.0807 C   0  0  0  0  0  0  0  0  0  0  0  0
    5.8229   37.1771   19.3392 N   0  0  0  0  0  0  0  0  0  0  0  0
    2.9336   33.4932   20.2051 C   0  0  0  0  0  0  0  0  0  0  0  0
    3.0692   33.7628   21.5530 O   0  0  0  0  0  0  0  0  0  0  0  0
    3.4736   34.5369   15.1495 C   0  0  1  0  0  0  0  0  0  0  0  0
    3.2934   35.5483   14.1466 O   0  0  0  0  0  0  0  0  0  0  0  0
  1  2  1  6  0  0  0
  1  6  1  0  0  0  0
  1 23  1  0  0  0  0
  3  4  1  1  0  0  0
  3  8  1  0  0  0  0
  3 30  1  0  0  0  0
  5  9  1  0  0  0  0
  5 21  1  0  0  0  0
  5 25  1  1  0  0  0
  6  7  1  6  0  0  0
  6 11  1  0  0  0  0
  8 13  1  0  0  0  0
  9 10  1  6  0  0  0
  9 15  1  0  0  0  0
 11 12  1  1  0  0  0
 11 17  1  0  0  0  0
 13 14  1  1  0  0  0
 13 19  1  0  0  0  0
 15 16  1  6  0  0  0
 15 20  1  0  0  0  0
 17 18  1  6  0  0  0
 17 22  1  0  0  0  0
 19  2  1  6  0  0  0
 19 24  1  0  0  0  0
 20 21  1  0  0  0  0
 20 26  1  1  0  0  0
 22 23  1  0  0  0  0
 22 28  1  1  0  0  0
 24 25  1  1  0  0  0
 24 30  1  0  0  0  0
 26 27  1  0  0  0  0
 28 29  1  0  0  0  0
 30 31  1  6  0  0  0
M  END
>  <CHROM.1>
119.87713673,147.66030041,-130.67716553,84.70312583,46.74872600,153.92626212
4.94952237,34.68698711,17.71788146,-1.30620672,-1.11556281,-0.20570508

>  <Name>
2o3x_lig

>  <RI>
0

>  <Rbt.Current_Directory>
/home/itssahil/PROJECTS/Mol_Feturizer/New_Systems/rnas/2o3x

>  <Rbt.Executable>
rbdock ($Id: //depot/dev/client3/rdock/2013.1/src/exe/rbdock.cxx#4 $)

>  <Rbt.Library>
libRbt.so (2013.1, Build901 2013/11/27)

>  <Rbt.Parameter_File>
/export/apps/rDock/src/rDock_2013.1_src/data/scripts/dock_solv.prm

>  <Rbt.Receptor>
prm/blind_docking_80.prm

>  <SCORE>
27.6929

>  <SCORE.INTER>
3.46755

>  <SCORE.INTER.CONST>
1

>  <SCORE.INTER.POLAR>
0

>  <SCORE.INTER.ROT>
6

>  <SCORE.INTER.SOLV>
25.3663

>  <SCORE.INTER.VDW>
-13.7437

>  <SCORE.INTER.norm>
0.111857

>  <SCORE.INTRA>
14.4675

>  <SCORE.INTRA.DIHEDRAL>
13.8502

>  <SCORE.INTRA.DIHEDRAL.0>
9.37739

>  <SCORE.INTRA.POLAR>
0

>  <SCORE.INTRA.POLAR.0>
0

>  <SCORE.INTRA.REPUL>
0.682955

>  <SCORE.INTRA.REPUL.0>
0

>  <SCORE.INTRA.SOLV>
7.24477

>  <SCORE.INTRA.SOLV.lig_0>
-82.9274

>  <SCORE.INTRA.VDW>
0.505302

>  <SCORE.INTRA.VDW.0>
-3.84922

>  <SCORE.INTRA.norm>
0.466695

>  <SCORE.RESTR>
9.75776

>  <SCORE.RESTR.CAVITY>
9.75776

>  <SCORE.RESTR.norm>
0.314767

>  <SCORE.SYSTEM>
0

>  <SCORE.SYSTEM.CONST>
0

>  <SCORE.SYSTEM.DIHEDRAL>
0

>  <SCORE.SYSTEM.SOLV>
0

>  <SCORE.SYSTEM.norm>
0

>  <SCORE.heavy>
31

>  <SCORE.norm>
0.893318

>  <RMSD>
33.267

$$$$
2o3x_lig
 OpenBabel11021811463D
libRbt.so/2013.1/901 2013/11/27
 31 33  0  0  0  0  0  0  0  0999 V2000
    5.4221   31.6446   18.4772 C   0  0  2  0  0  0  0  0  0  0  0  0
    5.4852   33.0767   18.4984 O   0  0  0  0  0  0  0  0  0  0  0  0
    2.2320   33.8803   21.1571 C   0  0  2  0  0  0  0  0  0  0  0  0
    1.3435   34.4956   22.1677 N   0  0  0  0  0  0  0  0  0  0  0  0
    4.1457   36.7692   18.6553 C   0  0  1  0  0  0  0  0  0  0  0  0
    6.1623   31.1378   17.1990 C   0  0  2  0  0  0  0  0  0  0  0  0
    7.4926   31.7769   17.0325 N   0  0  0  0  0  0  0  0  0  0  0  0
    3.5770   33.3808   21.7823 C   0  0  0  0  0  0  0  0  0  0  0  0
    5.6559   37.1703   18.7224 C   0  0  2  0  0  0  0  0  0  0  0  0
    6.3693   36.7694   19.9243 O   0  0  0  0  0  0  0  0  0  0  0  0
    5.3416   31.4066   15.9234 C   0  0  1  0  0  0  0  0  0  0  0  0
    6.0029   30.8975   14.7930 O   0  0  0  0  0  0  0  0  0  0  0  0
    4.4338   32.7198   20.6415 C   0  0  2  0  0  0  0  0  0  0  0  0
    5.7326   32.1973   21.1624 N   0  0  0  0  0  0  0  0  0  0  0  0
    5.4952   38.6659   18.5070 C   0  0  2  0  0  0  0  0  0  0  0  0
    5.0808   39.3369   19.7462 O   0  0  0  0  0  0  0  0  0  0  0  0
    3.9629   30.7829   16.0601 C   0  0  2  0  0  0  0  0  0  0  0  0
    3.2278   31.0046   14.8999 O   0  0  0  0  0  0  0  0  0  0  0  0
    4.7328   33.7515   19.5167 C   0  0  2  0  0  0  0  0  0  0  0  0
    4.4163   38.7826   17.4368 C   0  0  2  0  0  0  0  0  0  0  0  0
    3.5006   37.7823   17.8741 O   0  0  0  0  0  0  0  0  0  0  0  0
    3.2259   31.3897   17.2874 C   0  0  2  0  0  0  0  0  0  0  0  0
    4.0060   31.1665   18.4818 O   0  0  0  0  0  0  0  0  0  0  0  0
    3.4611   34.3709   18.9040 C   0  0  2  0  0  0  0  0  0  0  0  0
    3.9389   35.4781   18.0616 O   0  0  0  0  0  0  0  0  0  0  0  0
    4.9005   38.4872   15.9767 C   0  0  0  0  0  0  0  0  0  0  0  0
    3.7852   38.4408   15.0914 N   0  0  0  0  0  0  0  0  0  0  0  0
    1.8518   30.7943   17.4890 C   0  0  0  0  0  0  0  0  0  0  0  0
    1.9006   29.4155   17.5559 O   0  0  0  0  0  0  0  0  0  0  0  0
    2.5048   34.9183   20.0536 C   0  0  1  0  0  0  0  0  0  0  0  0
    1.2227   35.2994   19.5321 O   0  0  0  0  0  0  0  0  0  0  0  0
  1  2  1  6  0  0  0
  1  6  1  0  0  0  0
  1 23  1  0  0  0  0
  3  4  1  1  0  0  0
  3  8  1  0  0  0  0
  3 30  1  0  0  0  0
  5  9  1  0  0  0  0
  5 21  1  0  0  0  0
  5 25  1  6  0  0  0
  6  7  1  6  0  0  0
  6 11  1  0  0  0  0
  8 13  1  0  0  0  0
  9 10  1  1  0  0  0
  9 15  1  0  0  0  0
 11 12  1  6  0  0  0
 11 17  1  0  0  0  0
 13 14  1  1  0  0  0
 13 19  1  0  0  0  0
 15 16  1  1  0  0  0
 15 20  1  0  0  0  0
 17 18  1  6  0  0  0
 17 22  1  0  0  0  0
 19  2  1  6  0  0  0
 19 24  1  0  0  0  0
 20 21  1  0  0  0  0
 20 26  1  6  0  0  0
 22 23  1  0  0  0  0
 22 28  1  1  0  0  0
 24 25  1  6  0  0  0
 24 30  1  0  0  0  0
 26 27  1  0  0  0  0
 28 29  1  0  0  0  0
 30 31  1  6  0  0  0
M  END
>  <CHROM.1>
173.17270325,111.38157460,19.62116771,171.90855013,53.69802339,-86.63593901
4.20186499,34.09940179,18.32001426,1.65930985,-1.13427650,-2.87389242

>  <Name>
2o3x_lig

>  <RI>
0

>  <Rbt.Current_Directory>
/home/itssahil/PROJECTS/Mol_Feturizer/New_Systems/rnas/2o3x

>  <Rbt.Executable>
rbdock ($Id: //depot/dev/client3/rdock/2013.1/src/exe/rbdock.cxx#4 $)

>  <Rbt.Library>
libRbt.so (2013.1, Build901 2013/11/27)

>  <Rbt.Parameter_File>
/export/apps/rDock/src/rDock_2013.1_src/data/scripts/dock_solv.prm

>  <Rbt.Receptor>
prm/blind_docking_80.prm

>  <SCORE>
21.5119

>  <SCORE.INTER>
6.4116

>  <SCORE.INTER.CONST>
1

>  <SCORE.INTER.POLAR>
-0.454098

>  <SCORE.INTER.ROT>
6

>  <SCORE.INTER.SOLV>
27.8452

>  <SCORE.INTER.VDW>
-11.0937

>  <SCORE.INTER.norm>
0.206826

>  <SCORE.INTRA>
8.20909

>  <SCORE.INTRA.DIHEDRAL>
6.59533

>  <SCORE.INTRA.DIHEDRAL.0>
9.37739

>  <SCORE.INTRA.POLAR>
0

>  <SCORE.INTRA.POLAR.0>
0

>  <SCORE.INTRA.REPUL>
0

>  <SCORE.INTRA.REPUL.0>
0

>  <SCORE.INTRA.SOLV>
-0.695906

>  <SCORE.INTRA.SOLV.lig_0>
-82.9274

>  <SCORE.INTRA.VDW>
5.25938

>  <SCORE.INTRA.VDW.0>
-3.84922

>  <SCORE.INTRA.norm>
0.26481

>  <SCORE.RESTR>
6.89125

>  <SCORE.RESTR.CAVITY>
6.89125

>  <SCORE.RESTR.norm>
0.222298

>  <SCORE.SYSTEM>
0

>  <SCORE.SYSTEM.CONST>
0

>  <SCORE.SYSTEM.DIHEDRAL>
0

>  <SCORE.SYSTEM.SOLV>
0

>  <SCORE.SYSTEM.norm>
0

>  <SCORE.heavy>
31

>  <SCORE.norm>
0.693934

>  <RMSD>
33.305

$$$$
2o3x_lig
 OpenBabel11021811463D
libRbt.so/2013.1/901 2013/11/27
 31 33  0  0  0  0  0  0  0  0999 V2000
    4.4724   36.9926   18.8187 C   0  0  2  0  0  0  0  0  0  0  0  0
    4.1956   35.9241   17.9037 O   0  0  0  0  0  0  0  0  0  0  0  0
    4.9381   32.7033   20.6190 C   0  0  2  0  0  0  0  0  0  0  0  0
    4.9786   31.3736   21.2670 N   0  0  0  0  0  0  0  0  0  0  0  0
    4.8000   33.0380   16.1776 C   0  0  1  0  0  0  0  0  0  0  0  0
    3.3732   38.0879   18.6440 C   0  0  2  0  0  0  0  0  0  0  0  0
    2.0044   37.5116   18.6431 N   0  0  0  0  0  0  0  0  0  0  0  0
    3.4861   33.2840   20.5579 C   0  0  0  0  0  0  0  0  0  0  0  0
    5.3236   31.7074   15.5440 C   0  0  2  0  0  0  0  0  0  0  0  0
    5.9435   31.8257   14.2341 O   0  0  0  0  0  0  0  0  0  0  0  0
    3.5594   38.8755   17.3333 C   0  0  1  0  0  0  0  0  0  0  0  0
    2.5910   39.8875   17.2221 O   0  0  0  0  0  0  0  0  0  0  0  0
    3.5522   34.7031   19.8840 C   0  0  2  0  0  0  0  0  0  0  0  0
    2.2020   35.3371   19.8045 N   0  0  0  0  0  0  0  0  0  0  0  0
    4.0298   30.9127   15.6028 C   0  0  2  0  0  0  0  0  0  0  0  0
    3.1291   31.2869   14.5044 O   0  0  0  0  0  0  0  0  0  0  0  0
    4.9576   39.4684   17.2860 C   0  0  2  0  0  0  0  0  0  0  0  0
    5.1204   40.1995   16.1135 O   0  0  0  0  0  0  0  0  0  0  0  0
    4.1325   34.5969   18.4449 C   0  0  2  0  0  0  0  0  0  0  0  0
    3.4221   31.2739   16.9532 C   0  0  2  0  0  0  0  0  0  0  0  0
    3.6787   32.6750   16.9924 O   0  0  0  0  0  0  0  0  0  0  0  0
    6.0176   38.3335   17.3632 C   0  0  2  0  0  0  0  0  0  0  0  0
    5.8281   37.5734   18.5761 O   0  0  0  0  0  0  0  0  0  0  0  0
    5.5289   33.9455   18.3974 C   0  0  2  0  0  0  0  0  0  0  0  0
    5.7940   33.7055   16.9705 O   0  0  0  0  0  0  0  0  0  0  0  0
    4.0761   30.5586   18.1836 C   0  0  0  0  0  0  0  0  0  0  0  0
    3.1429   30.4809   19.2574 N   0  0  0  0  0  0  0  0  0  0  0  0
    7.4331   38.8619   17.3397 C   0  0  0  0  0  0  0  0  0  0  0  0
    7.6714   39.6256   16.2137 O   0  0  0  0  0  0  0  0  0  0  0  0
    5.5245   32.5713   19.2019 C   0  0  1  0  0  0  0  0  0  0  0  0
    6.8537   32.0529   19.3618 O   0  0  0  0  0  0  0  0  0  0  0  0
  1  2  1  6  0  0  0
  1  6  1  0  0  0  0
  1 23  1  0  0  0  0
  3  4  1  6  0  0  0
  3  8  1  0  0  0  0
  3 30  1  0  0  0  0
  5  9  1  0  0  0  0
  5 21  1  0  0  0  0
  5 25  1  1  0  0  0
  6  7  1  6  0  0  0
  6 11  1  0  0  0  0
  8 13  1  0  0  0  0
  9 10  1  6  0  0  0
  9 15  1  0  0  0  0
 11 12  1  1  0  0  0
 11 17  1  0  0  0  0
 13 14  1  6  0  0  0
 13 19  1  0  0  0  0
 15 16  1  6  0  0  0
 15 20  1  0  0  0  0
 17 18  1  6  0  0  0
 17 22  1  0  0  0  0
 19  2  1  1  0  0  0
 19 24  1  0  0  0  0
 20 21  1  0  0  0  0
 20 26  1  1  0  0  0
 22 23  1  0  0  0  0
 22 28  1  1  0  0  0
 24 25  1  6  0  0  0
 24 30  1  0  0  0  0
 26 27  1  0  0  0  0
 28 29  1  0  0  0  0
 30 31  1  1  0  0  0
M  END
>  <CHROM.1>
-127.68581809,-120.07144254,33.43269489,-154.88267357,-57.07193242,-50.06627237
4.59681949,34.84872704,17.80426454,1.36968213,1.21389214,0.14518820

>  <Name>
2o3x_lig

>  <RI>
0

>  <Rbt.Current_Directory>
/home/itssahil/PROJECTS/Mol_Feturizer/New_Systems/rnas/2o3x

>  <Rbt.Executable>
rbdock ($Id: //depot/dev/client3/rdock/2013.1/src/exe/rbdock.cxx#4 $)

>  <Rbt.Library>
libRbt.so (2013.1, Build901 2013/11/27)

>  <Rbt.Parameter_File>
/export/apps/rDock/src/rDock_2013.1_src/data/scripts/dock_solv.prm

>  <Rbt.Receptor>
prm/blind_docking_80.prm

>  <SCORE>
29.6476

>  <SCORE.INTER>
2.56308

>  <SCORE.INTER.CONST>
1

>  <SCORE.INTER.POLAR>
-0.0795926

>  <SCORE.INTER.ROT>
6

>  <SCORE.INTER.SOLV>
19.6561

>  <SCORE.INTER.VDW>
-12.178

>  <SCORE.INTER.norm>
0.0826799

>  <SCORE.INTRA>
19.9745

>  <SCORE.INTRA.DIHEDRAL>
10.1625

>  <SCORE.INTRA.DIHEDRAL.0>
9.37739

>  <SCORE.INTRA.POLAR>
0

>  <SCORE.INTRA.POLAR.0>
0

>  <SCORE.INTRA.REPUL>
0

>  <SCORE.INTRA.REPUL.0>
0

>  <SCORE.INTRA.SOLV>
8.56647

>  <SCORE.INTRA.SOLV.lig_0>
-82.9274

>  <SCORE.INTRA.VDW>
10.61

>  <SCORE.INTRA.VDW.0>
-3.84922

>  <SCORE.INTRA.norm>
0.644339

>  <SCORE.RESTR>
7.10999

>  <SCORE.RESTR.CAVITY>
7.10999

>  <SCORE.RESTR.norm>
0.229355

>  <SCORE.SYSTEM>
0

>  <SCORE.SYSTEM.CONST>
0

>  <SCORE.SYSTEM.DIHEDRAL>
0

>  <SCORE.SYSTEM.SOLV>
0

>  <SCORE.SYSTEM.norm>
0

>  <SCORE.heavy>
31

>  <SCORE.norm>
0.956374

>  <RMSD>
33.312

$$$$
2o3x_lig
 OpenBabel11021811463D
libRbt.so/2013.1/901 2013/11/27
 31 33  0  0  0  0  0  0  0  0999 V2000
    5.6590   31.8502   18.5801 C   0  0  2  0  0  0  0  0  0  0  0  0
    5.4169   33.2594   18.4760 O   0  0  0  0  0  0  0  0  0  0  0  0
    2.1811   33.8077   21.2196 C   0  0  2  0  0  0  0  0  0  0  0  0
    1.2760   34.3501   22.2569 N   0  0  0  0  0  0  0  0  0  0  0  0
    4.0117   36.7998   18.7230 C   0  0  1  0  0  0  0  0  0  0  0  0
    6.3195   31.3645   17.2510 C   0  0  2  0  0  0  0  0  0  0  0  0
    7.4498   32.2346   16.8374 N   0  0  0  0  0  0  0  0  0  0  0  0
    3.5735   33.4014   21.8076 C   0  0  0  0  0  0  0  0  0  0  0  0
    5.5382   37.1352   18.6626 C   0  0  2  0  0  0  0  0  0  0  0  0
    6.3418   36.6509   19.7734 O   0  0  0  0  0  0  0  0  0  0  0  0
    5.3031   31.3217   16.0943 C   0  0  1  0  0  0  0  0  0  0  0  0
    5.9068   30.8341   14.9229 O   0  0  0  0  0  0  0  0  0  0  0  0
    4.4470   32.8120   20.6405 C   0  0  2  0  0  0  0  0  0  0  0  0
    5.7923   32.3803   21.1252 N   0  0  0  0  0  0  0  0  0  0  0  0
    5.4257   38.6443   18.5258 C   0  0  2  0  0  0  0  0  0  0  0  0
    5.1595   39.2747   19.8256 O   0  0  0  0  0  0  0  0  0  0  0  0
    4.1188   30.4535   16.4846 C   0  0  2  0  0  0  0  0  0  0  0  0
    3.2102   30.3947   15.4326 O   0  0  0  0  0  0  0  0  0  0  0  0
    4.6435   33.8709   19.5183 C   0  0  2  0  0  0  0  0  0  0  0  0
    4.2580   38.8540   17.5689 C   0  0  2  0  0  0  0  0  0  0  0  0
    3.3430   37.8731   18.0495 O   0  0  0  0  0  0  0  0  0  0  0  0
    3.4335   31.0317   17.7549 C   0  0  2  0  0  0  0  0  0  0  0  0
    4.3904   31.1018   18.8339 O   0  0  0  0  0  0  0  0  0  0  0  0
    3.3160   34.4019   18.9421 C   0  0  2  0  0  0  0  0  0  0  0  0
    3.6923   35.5467   18.0986 O   0  0  0  0  0  0  0  0  0  0  0  0
    4.5900   38.6057   16.0584 C   0  0  0  0  0  0  0  0  0  0  0  0
    4.9908   37.2528   15.8614 N   0  0  0  0  0  0  0  0  0  0  0  0
    2.2559   30.1992   18.2061 C   0  0  0  0  0  0  0  0  0  0  0  0
    1.8873   30.5016   19.5025 O   0  0  0  0  0  0  0  0  0  0  0  0
    2.3516   34.8707   20.1194 C   0  0  1  0  0  0  0  0  0  0  0  0
    1.0330   35.1626   19.6323 O   0  0  0  0  0  0  0  0  0  0  0  0
  1  2  1  6  0  0  0
  1  6  1  0  0  0  0
  1 23  1  0  0  0  0
  3  4  1  1  0  0  0
  3  8  1  0  0  0  0
  3 30  1  0  0  0  0
  5  9  1  0  0  0  0
  5 21  1  0  0  0  0
  5 25  1  6  0  0  0
  6  7  1  6  0  0  0
  6 11  1  0  0  0  0
  8 13  1  0  0  0  0
  9 10  1  1  0  0  0
  9 15  1  0  0  0  0
 11 12  1  6  0  0  0
 11 17  1  0  0  0  0
 13 14  1  1  0  0  0
 13 19  1  0  0  0  0
 15 16  1  1  0  0  0
 15 20  1  0  0  0  0
 17 18  1  6  0  0  0
 17 22  1  0  0  0  0
 19  2  1  6  0  0  0
 19 24  1  0  0  0  0
 20 21  1  0  0  0  0
 20 26  1  6  0  0  0
 22 23  1  0  0  0  0
 22 28  1  1  0  0  0
 24 25  1  6  0  0  0
 24 30  1  0  0  0  0
 26 27  1  0  0  0  0
 28 29  1  0  0  0  0
 30 31  1  6  0  0  0
M  END
>  <CHROM.1>
171.48485330,108.10197994,8.55368318,61.68392532,163.81349205,-77.59639210
4.22312655,34.07129253,18.52736395,-1.62328232,0.97219583,0.18366555

>  <Name>
2o3x_lig

>  <RI>
0

>  <Rbt.Current_Directory>
/home/itssahil/PROJECTS/Mol_Feturizer/New_Systems/rnas/2o3x

>  <Rbt.Executable>
rbdock ($Id: //depot/dev/client3/rdock/2013.1/src/exe/rbdock.cxx#4 $)

>  <Rbt.Library>
libRbt.so (2013.1, Build901 2013/11/27)

>  <Rbt.Parameter_File>
/export/apps/rDock/src/rDock_2013.1_src/data/scripts/dock_solv.prm

>  <Rbt.Receptor>
prm/blind_docking_80.prm

>  <SCORE>
23.3469

>  <SCORE.INTER>
4.24448

>  <SCORE.INTER.CONST>
1

>  <SCORE.INTER.POLAR>
-0.312531

>  <SCORE.INTER.ROT>
6

>  <SCORE.INTER.SOLV>
27.0543

>  <SCORE.INTER.VDW>
-12.7467

>  <SCORE.INTER.norm>
0.136919

>  <SCORE.INTRA>
12.906

>  <SCORE.INTRA.DIHEDRAL>
6.735

>  <SCORE.INTRA.DIHEDRAL.0>
9.37739

>  <SCORE.INTRA.POLAR>
0

>  <SCORE.INTRA.POLAR.0>
0

>  <SCORE.INTRA.REPUL>
0

>  <SCORE.INTRA.REPUL.0>
0

>  <SCORE.INTRA.SOLV>
2.97204

>  <SCORE.INTRA.SOLV.lig_0>
-82.9274

>  <SCORE.INTRA.VDW>
8.05247

>  <SCORE.INTRA.VDW.0>
-3.84922

>  <SCORE.INTRA.norm>
0.416322

>  <SCORE.RESTR>
6.19647

>  <SCORE.RESTR.CAVITY>
6.19647

>  <SCORE.RESTR.norm>
0.199886

>  <SCORE.SYSTEM>
0

>  <SCORE.SYSTEM.CONST>
0

>  <SCORE.SYSTEM.DIHEDRAL>
0

>  <SCORE.SYSTEM.SOLV>
0

>  <SCORE.SYSTEM.norm>
0

>  <SCORE.heavy>
31

>  <SCORE.norm>
0.753127

>  <RMSD>
33.349

$$$$
2o3x_lig
 OpenBabel11021811463D
libRbt.so/2013.1/901 2013/11/27
 31 33  0  0  0  0  0  0  0  0999 V2000
    5.5772   31.7177   18.6094 C   0  0  2  0  0  0  0  0  0  0  0  0
    5.5865   33.1510   18.5771 O   0  0  0  0  0  0  0  0  0  0  0  0
    2.0860   33.9724   20.8944 C   0  0  2  0  0  0  0  0  0  0  0  0
    1.1014   34.5952   21.8066 N   0  0  0  0  0  0  0  0  0  0  0  0
    4.2295   36.8429   18.5648 C   0  0  1  0  0  0  0  0  0  0  0  0
    6.2763   31.1914   17.3160 C   0  0  2  0  0  0  0  0  0  0  0  0
    7.5721   31.8720   17.0641 N   0  0  0  0  0  0  0  0  0  0  0  0
    3.3634   33.4817   21.6539 C   0  0  0  0  0  0  0  0  0  0  0  0
    5.7014   37.3701   18.5268 C   0  0  2  0  0  0  0  0  0  0  0  0
    6.5339   37.0195   19.6663 O   0  0  0  0  0  0  0  0  0  0  0  0
    5.3880   31.3828   16.0722 C   0  0  1  0  0  0  0  0  0  0  0  0
    6.0153   30.8568   14.9302 O   0  0  0  0  0  0  0  0  0  0  0  0
    4.3293   32.8118   20.6095 C   0  0  2  0  0  0  0  0  0  0  0  0
    5.5710   32.2970   21.2609 N   0  0  0  0  0  0  0  0  0  0  0  0
    5.4001   38.8487   18.3479 C   0  0  2  0  0  0  0  0  0  0  0  0
    5.0247   39.4700   19.6249 O   0  0  0  0  0  0  0  0  0  0  0  0
    4.0418   30.7148   16.2962 C   0  0  2  0  0  0  0  0  0  0  0  0
    3.2459   30.8665   15.1651 O   0  0  0  0  0  0  0  0  0  0  0  0
    4.7365   33.8336   19.5099 C   0  0  2  0  0  0  0  0  0  0  0  0
    4.2382   38.8839   17.3621 C   0  0  2  0  0  0  0  0  0  0  0  0
    3.4450   37.8052   17.8495 O   0  0  0  0  0  0  0  0  0  0  0  0
    3.3397   31.3392   17.5350 C   0  0  2  0  0  0  0  0  0  0  0  0
    4.1820   31.1888   18.6981 O   0  0  0  0  0  0  0  0  0  0  0  0
    3.5307   34.4445   18.7689 C   0  0  2  0  0  0  0  0  0  0  0  0
    4.0879   35.5448   17.9672 O   0  0  0  0  0  0  0  0  0  0  0  0
    4.6349   38.6449   15.8658 C   0  0  0  0  0  0  0  0  0  0  0  0
    4.8519   39.8919   15.2119 N   0  0  0  0  0  0  0  0  0  0  0  0
    2.0000   30.7020   17.8225 C   0  0  0  0  0  0  0  0  0  0  0  0
    1.1329   30.8399   16.7562 O   0  0  0  0  0  0  0  0  0  0  0  0
    2.4650   35.0006   19.8134 C   0  0  1  0  0  0  0  0  0  0  0  0
    1.2401   35.3741   19.1643 O   0  0  0  0  0  0  0  0  0  0  0  0
  1  2  1  6  0  0  0
  1  6  1  0  0  0  0
  1 23  1  0  0  0  0
  3  4  1  1  0  0  0
  3  8  1  0  0  0  0
  3 30  1  0  0  0  0
  5  9  1  0  0  0  0
  5 21  1  0  0  0  0
  5 25  1  6  0  0  0
  6  7  1  6  0  0  0
  6 11  1  0  0  0  0
  8 13  1  0  0  0  0
  9 10  1  1  0  0  0
  9 15  1  0  0  0  0
 11 12  1  6  0  0  0
 11 17  1  0  0  0  0
 13 14  1  1  0  0  0
 13 19  1  0  0  0  0
 15 16  1  1  0  0  0
 15 20  1  0  0  0  0
 17 18  1  6  0  0  0
 17 22  1  0  0  0  0
 19  2  1  6  0  0  0
 19 24  1  0  0  0  0
 20 21  1  0  0  0  0
 20 26  1  6  0  0  0
 22 23  1  0  0  0  0
 22 28  1  1  0  0  0
 24 25  1  6  0  0  0
 24 30  1  0  0  0  0
 26 27  1  0  0  0  0
 28 29  1  0  0  0  0
 30 31  1  6  0  0  0
M  END
>  <CHROM.1>
166.26352817,122.55381862,16.58471417,-93.78882399,-59.80484197,-86.83979680
4.21053720,34.25738122,18.27499863,-1.67631442,1.01892223,0.20018149

>  <Name>
2o3x_lig

>  <RI>
0

>  <Rbt.Current_Directory>
/home/itssahil/PROJECTS/Mol_Feturizer/New_Systems/rnas/2o3x

>  <Rbt.Executable>
rbdock ($Id: //depot/dev/client3/rdock/2013.1/src/exe/rbdock.cxx#4 $)

>  <Rbt.Library>
libRbt.so (2013.1, Build901 2013/11/27)

>  <Rbt.Parameter_File>
/export/apps/rDock/src/rDock_2013.1_src/data/scripts/dock_solv.prm

>  <Rbt.Receptor>
prm/blind_docking_80.prm

>  <SCORE>
20.9507

>  <SCORE.INTER>
0.944076

>  <SCORE.INTER.CONST>
1

>  <SCORE.INTER.POLAR>
-0.903017

>  <SCORE.INTER.ROT>
6

>  <SCORE.INTER.SOLV>
27.9471

>  <SCORE.INTER.VDW>
-13.2763

>  <SCORE.INTER.norm>
0.0304541

>  <SCORE.INTRA>
12.0888

>  <SCORE.INTRA.DIHEDRAL>
10.7679

>  <SCORE.INTRA.DIHEDRAL.0>
9.37739

>  <SCORE.INTRA.POLAR>
0

>  <SCORE.INTRA.POLAR.0>
0

>  <SCORE.INTRA.REPUL>
0

>  <SCORE.INTRA.REPUL.0>
0

>  <SCORE.INTRA.SOLV>
-1.16934

>  <SCORE.INTRA.SOLV.lig_0>
-82.9274

>  <SCORE.INTRA.VDW>
7.28955

>  <SCORE.INTRA.VDW.0>
-3.84922

>  <SCORE.INTRA.norm>
0.389963

>  <SCORE.RESTR>
7.91783

>  <SCORE.RESTR.CAVITY>
7.91783

>  <SCORE.RESTR.norm>
0.255414

>  <SCORE.SYSTEM>
0

>  <SCORE.SYSTEM.CONST>
0

>  <SCORE.SYSTEM.DIHEDRAL>
0

>  <SCORE.SYSTEM.SOLV>
0

>  <SCORE.SYSTEM.norm>
0

>  <SCORE.heavy>
31

>  <SCORE.norm>
0.67583

>  <RMSD>
33.421

$$$$
2o3x_lig
 OpenBabel11021811463D
libRbt.so/2013.1/901 2013/11/27
 31 33  0  0  0  0  0  0  0  0999 V2000
    5.3615   31.6568   18.4595 C   0  0  2  0  0  0  0  0  0  0  0  0
    5.5843   33.0703   18.5486 O   0  0  0  0  0  0  0  0  0  0  0  0
    2.1516   34.1649   20.8545 C   0  0  2  0  0  0  0  0  0  0  0  0
    1.2236   34.8506   21.7808 N   0  0  0  0  0  0  0  0  0  0  0  0
    4.3889   36.9644   18.5740 C   0  0  1  0  0  0  0  0  0  0  0  0
    6.1234   31.1161   17.2083 C   0  0  2  0  0  0  0  0  0  0  0  0
    7.5255   31.6029   17.1535 N   0  0  0  0  0  0  0  0  0  0  0  0
    3.3550   33.5061   21.6077 C   0  0  0  0  0  0  0  0  0  0  0  0
    5.8012   37.6301   18.4825 C   0  0  2  0  0  0  0  0  0  0  0  0
    6.6861   37.4060   19.6144 O   0  0  0  0  0  0  0  0  0  0  0  0
    5.4254   31.5254   15.8975 C   0  0  1  0  0  0  0  0  0  0  0  0
    6.0990   30.9858   14.7887 O   0  0  0  0  0  0  0  0  0  0  0  0
    4.2617   32.7815   20.5470 C   0  0  2  0  0  0  0  0  0  0  0  0
    5.4289   32.1075   21.1907 N   0  0  0  0  0  0  0  0  0  0  0  0
    5.3533   39.0644   18.2569 C   0  0  2  0  0  0  0  0  0  0  0  0
    4.9440   39.6952   19.5188 O   0  0  0  0  0  0  0  0  0  0  0  0
    3.9790   31.0605   15.9204 C   0  0  2  0  0  0  0  0  0  0  0  0
    3.3528   31.4089   14.7278 O   0  0  0  0  0  0  0  0  0  0  0  0
    4.7962   33.7999   19.5000 C   0  0  2  0  0  0  0  0  0  0  0  0
    4.1744   38.9487   17.2978 C   0  0  2  0  0  0  0  0  0  0  0  0
    3.5002   37.8178   17.8426 O   0  0  0  0  0  0  0  0  0  0  0  0
    3.2349   31.7021   17.1255 C   0  0  2  0  0  0  0  0  0  0  0  0
    3.9033   31.3458   18.3548 O   0  0  0  0  0  0  0  0  0  0  0  0
    3.6766   34.5694   18.7715 C   0  0  2  0  0  0  0  0  0  0  0  0
    4.3633   35.6366   18.0276 O   0  0  0  0  0  0  0  0  0  0  0  0
    4.5631   38.6918   15.8023 C   0  0  0  0  0  0  0  0  0  0  0  0
    4.8586   39.9259   15.1546 N   0  0  0  0  0  0  0  0  0  0  0  0
    1.7920   31.2625   17.2145 C   0  0  0  0  0  0  0  0  0  0  0  0
    1.6750   29.8878   17.1477 O   0  0  0  0  0  0  0  0  0  0  0  0
    2.6585   35.1919   19.8259 C   0  0  1  0  0  0  0  0  0  0  0  0
    1.4927   35.7236   19.1783 O   0  0  0  0  0  0  0  0  0  0  0  0
  1  2  1  6  0  0  0
  1  6  1  0  0  0  0
  1 23  1  0  0  0  0
  3  4  1  1  0  0  0
  3  8  1  0  0  0  0
  3 30  1  0  0  0  0
  5  9  1  0  0  0  0
  5 21  1  0  0  0  0
  5 25  1  6  0  0  0
  6  7  1  6  0  0  0
  6 11  1  0  0  0  0
  8 13  1  0  0  0  0
  9 10  1  1  0  0  0
  9 15  1  0  0  0  0
 11 12  1  6  0  0  0
 11 17  1  0  0  0  0
 13 14  1  1  0  0  0
 13 19  1  0  0  0  0
 15 16  1  1  0  0  0
 15 20  1  0  0  0  0
 17 18  1  6  0  0  0
 17 22  1  0  0  0  0
 19  2  1  6  0  0  0
 19 24  1  0  0  0  0
 20 21  1  0  0  0  0
 20 26  1  6  0  0  0
 22 23  1  0  0  0  0
 22 28  1  1  0  0  0
 24 25  1  1  0  0  0
 24 30  1  0  0  0  0
 26 27  1  0  0  0  0
 28 29  1  0  0  0  0
 30 31  1  6  0  0  0
M  END
>  <CHROM.1>
170.02267599,135.18917548,20.27837730,-84.29412693,50.34909491,-99.64528560
4.24104932,34.35727021,18.18201306,1.68188103,-1.10031617,-2.90889184

>  <Name>
2o3x_lig

>  <RI>
0

>  <Rbt.Current_Directory>
/home/itssahil/PROJECTS/Mol_Feturizer/New_Systems/rnas/2o3x

>  <Rbt.Executable>
rbdock ($Id: //depot/dev/client3/rdock/2013.1/src/exe/rbdock.cxx#4 $)

>  <Rbt.Library>
libRbt.so (2013.1, Build901 2013/11/27)

>  <Rbt.Parameter_File>
/export/apps/rDock/src/rDock_2013.1_src/data/scripts/dock_solv.prm

>  <Rbt.Receptor>
prm/blind_docking_80.prm

>  <SCORE>
21.0056

>  <SCORE.INTER>
3.11381

>  <SCORE.INTER.CONST>
1

>  <SCORE.INTER.POLAR>
-1.12425

>  <SCORE.INTER.ROT>
6

>  <SCORE.INTER.SOLV>
28.5408

>  <SCORE.INTER.VDW>
-11.2902

>  <SCORE.INTER.norm>
0.100446

>  <SCORE.INTRA>
10.4575

>  <SCORE.INTRA.DIHEDRAL>
10.1621

>  <SCORE.INTRA.DIHEDRAL.0>
9.37739

>  <SCORE.INTRA.POLAR>
0

>  <SCORE.INTRA.POLAR.0>
0

>  <SCORE.INTRA.REPUL>
0

>  <SCORE.INTRA.REPUL.0>
0

>  <SCORE.INTRA.SOLV>
-1.3214

>  <SCORE.INTRA.SOLV.lig_0>
-82.9274

>  <SCORE.INTRA.VDW>
6.03712

>  <SCORE.INTRA.VDW.0>
-3.84922

>  <SCORE.INTRA.norm>
0.337338

>  <SCORE.RESTR>
7.43428

>  <SCORE.RESTR.CAVITY>
7.43428

>  <SCORE.RESTR.norm>
0.239816

>  <SCORE.SYSTEM>
0

>  <SCORE.SYSTEM.CONST>
0

>  <SCORE.SYSTEM.DIHEDRAL>
0

>  <SCORE.SYSTEM.SOLV>
0

>  <SCORE.SYSTEM.norm>
0

>  <SCORE.heavy>
31

>  <SCORE.norm>
0.677599

>  <RMSD>
33.450

$$$$
2o3x_lig
 OpenBabel11021811463D
libRbt.so/2013.1/901 2013/11/27
 31 33  0  0  0  0  0  0  0  0999 V2000
    5.5771   31.5563   18.5652 C   0  0  2  0  0  0  0  0  0  0  0  0
    5.9414   32.9178   18.8281 O   0  0  0  0  0  0  0  0  0  0  0  0
    2.1835   34.2228   20.4008 C   0  0  2  0  0  0  0  0  0  0  0  0
    1.1274   34.9738   21.1152 N   0  0  0  0  0  0  0  0  0  0  0  0
    4.3646   36.6521   17.3854 C   0  0  1  0  0  0  0  0  0  0  0  0
    6.1769   31.1440   17.1836 C   0  0  2  0  0  0  0  0  0  0  0  0
    7.6098   31.5152   17.0626 N   0  0  0  0  0  0  0  0  0  0  0  0
    3.1866   33.5363   21.3867 C   0  0  0  0  0  0  0  0  0  0  0  0
    4.2027   37.8759   18.3457 C   0  0  2  0  0  0  0  0  0  0  0  0
    2.9562   37.9403   19.0918 O   0  0  0  0  0  0  0  0  0  0  0  0
    5.4149   31.7982   16.0157 C   0  0  1  0  0  0  0  0  0  0  0  0
    5.9390   31.3735   14.7831 O   0  0  0  0  0  0  0  0  0  0  0  0
    4.2459   32.7435   20.5372 C   0  0  2  0  0  0  0  0  0  0  0  0
    5.2340   32.0400   21.4090 N   0  0  0  0  0  0  0  0  0  0  0  0
    4.4331   38.9829   17.3307 C   0  0  2  0  0  0  0  0  0  0  0  0
    3.2252   39.2269   16.5312 O   0  0  0  0  0  0  0  0  0  0  0  0
    3.9374   31.4569   16.1125 C   0  0  2  0  0  0  0  0  0  0  0  0
    3.2506   32.0278   15.0457 O   0  0  0  0  0  0  0  0  0  0  0  0
    5.0196   33.7074   19.5932 C   0  0  2  0  0  0  0  0  0  0  0  0
    5.5705   38.4674   16.4567 C   0  0  2  0  0  0  0  0  0  0  0  0
    5.1890   37.1031   16.3038 O   0  0  0  0  0  0  0  0  0  0  0  0
    3.3613   31.9740   17.4610 C   0  0  2  0  0  0  0  0  0  0  0  0
    4.0922   31.3864   18.5589 O   0  0  0  0  0  0  0  0  0  0  0  0
    4.0991   34.5018   18.6456 C   0  0  2  0  0  0  0  0  0  0  0  0
    4.9658   35.5169   18.0274 O   0  0  0  0  0  0  0  0  0  0  0  0
    6.9956   38.5733   17.0980 C   0  0  0  0  0  0  0  0  0  0  0  0
    7.0191   39.6161   18.0685 N   0  0  0  0  0  0  0  0  0  0  0  0
    1.8951   31.6475   17.6263 C   0  0  0  0  0  0  0  0  0  0  0  0
    1.5077   31.7079   18.9507 O   0  0  0  0  0  0  0  0  0  0  0  0
    2.9270   35.1971   19.4694 C   0  0  1  0  0  0  0  0  0  0  0  0
    1.9344   35.7583   18.5971 O   0  0  0  0  0  0  0  0  0  0  0  0
  1  2  1  6  0  0  0
  1  6  1  0  0  0  0
  1 23  1  0  0  0  0
  3  4  1  1  0  0  0
  3  8  1  0  0  0  0
  3 30  1  0  0  0  0
  5  9  1  0  0  0  0
  5 21  1  0  0  0  0
  5 25  1  1  0  0  0
  6  7  1  1  0  0  0
  6 11  1  0  0  0  0
  8 13  1  0  0  0  0
  9 10  1  6  0  0  0
  9 15  1  0  0  0  0
 11 12  1  6  0  0  0
 11 17  1  0  0  0  0
 13 14  1  1  0  0  0
 13 19  1  0  0  0  0
 15 16  1  6  0  0  0
 15 20  1  0  0  0  0
 17 18  1  6  0  0  0
 17 22  1  0  0  0  0
 19  2  1  6  0  0  0
 19 24  1  0  0  0  0
 20 21  1  0  0  0  0
 20 26  1  1  0  0  0
 22 23  1  0  0  0  0
 22 28  1  1  0  0  0
 24 25  1  1  0  0  0
 24 30  1  0  0  0  0
 26 27  1  0  0  0  0
 28 29  1  0  0  0  0
 30 31  1  6  0  0  0
M  END
>  <CHROM.1>
148.50719565,92.30729552,28.95547804,-25.23714252,160.39277229,-162.63323549
4.28790915,34.43090526,18.09962383,-1.64892963,0.84330125,0.01662184

>  <Name>
2o3x_lig

>  <RI>
0

>  <Rbt.Current_Directory>
/home/itssahil/PROJECTS/Mol_Feturizer/New_Systems/rnas/2o3x

>  <Rbt.Executable>
rbdock ($Id: //depot/dev/client3/rdock/2013.1/src/exe/rbdock.cxx#4 $)

>  <Rbt.Library>
libRbt.so (2013.1, Build901 2013/11/27)

>  <Rbt.Parameter_File>
/export/apps/rDock/src/rDock_2013.1_src/data/scripts/dock_solv.prm

>  <Rbt.Receptor>
prm/blind_docking_80.prm

>  <SCORE>
28.164

>  <SCORE.INTER>
6.13884

>  <SCORE.INTER.CONST>
1

>  <SCORE.INTER.POLAR>
-0.400565

>  <SCORE.INTER.ROT>
6

>  <SCORE.INTER.SOLV>
28.3531

>  <SCORE.INTER.VDW>
-11.6232

>  <SCORE.INTER.norm>
0.198027

>  <SCORE.INTRA>
14.1083

>  <SCORE.INTRA.DIHEDRAL>
8.21154

>  <SCORE.INTRA.DIHEDRAL.0>
9.37739

>  <SCORE.INTRA.POLAR>
0

>  <SCORE.INTRA.POLAR.0>
0

>  <SCORE.INTRA.REPUL>
0

>  <SCORE.INTRA.REPUL.0>
0

>  <SCORE.INTRA.SOLV>
2.37594

>  <SCORE.INTRA.SOLV.lig_0>
-82.9274

>  <SCORE.INTRA.VDW>
8.81459

>  <SCORE.INTRA.VDW.0>
-3.84922

>  <SCORE.INTRA.norm>
0.455108

>  <SCORE.RESTR>
7.91683

>  <SCORE.RESTR.CAVITY>
7.91683

>  <SCORE.RESTR.norm>
0.255382

>  <SCORE.SYSTEM>
0

>  <SCORE.SYSTEM.CONST>
0

>  <SCORE.SYSTEM.DIHEDRAL>
0

>  <SCORE.SYSTEM.SOLV>
0

>  <SCORE.SYSTEM.norm>
0

>  <SCORE.heavy>
31

>  <SCORE.norm>
0.908516

>  <RMSD>
33.456

$$$$
2o3x_lig
 OpenBabel11021811463D
libRbt.so/2013.1/901 2013/11/27
 31 33  0  0  0  0  0  0  0  0999 V2000
    5.2046   36.4476   18.0499 C   0  0  2  0  0  0  0  0  0  0  0  0
    4.1539   36.1157   18.9672 O   0  0  0  0  0  0  0  0  0  0  0  0
    2.1795   32.5325   20.2163 C   0  0  2  0  0  0  0  0  0  0  0  0
    1.5828   31.1789   20.2513 N   0  0  0  0  0  0  0  0  0  0  0  0
    5.6676   33.3295   17.5892 C   0  0  1  0  0  0  0  0  0  0  0  0
    6.1180   37.5247   18.7161 C   0  0  2  0  0  0  0  0  0  0  0  0
    6.4984   37.1551   20.1034 N   0  0  0  0  0  0  0  0  0  0  0  0
    1.4058   33.4917   19.2516 C   0  0  0  0  0  0  0  0  0  0  0  0
    6.4032   31.9842   17.2804 C   0  0  2  0  0  0  0  0  0  0  0  0
    7.8257   32.0858   16.9970 O   0  0  0  0  0  0  0  0  0  0  0  0
    5.4310   38.9027   18.7616 C   0  0  1  0  0  0  0  0  0  0  0  0
    6.2896   39.8657   19.3180 O   0  0  0  0  0  0  0  0  0  0  0  0
    2.0939   34.9045   19.3070 C   0  0  2  0  0  0  0  0  0  0  0  0
    1.3999   35.8887   18.4234 N   0  0  0  0  0  0  0  0  0  0  0  0
    5.5245   31.5121   16.1341 C   0  0  2  0  0  0  0  0  0  0  0  0
    5.8764   32.1953   14.8822 O   0  0  0  0  0  0  0  0  0  0  0  0
    5.0087   39.3112   17.3604 C   0  0  2  0  0  0  0  0  0  0  0  0
    4.4085   40.5659   17.3956 O   0  0  0  0  0  0  0  0  0  0  0  0
    3.5808   34.8046   18.8616 C   0  0  2  0  0  0  0  0  0  0  0  0
    4.1076   31.8672   16.5693 C   0  0  2  0  0  0  0  0  0  0  0  0
    4.3200   33.1582   17.1337 O   0  0  0  0  0  0  0  0  0  0  0  0
    4.0230   38.2602   16.7761 C   0  0  2  0  0  0  0  0  0  0  0  0
    4.6523   36.9607   16.7593 O   0  0  0  0  0  0  0  0  0  0  0  0
    4.4024   33.8053   19.6999 C   0  0  2  0  0  0  0  0  0  0  0  0
    5.6806   33.6626   18.9860 O   0  0  0  0  0  0  0  0  0  0  0  0
    3.4802   30.8985   17.6282 C   0  0  0  0  0  0  0  0  0  0  0  0
    3.1157   29.6677   17.0101 N   0  0  0  0  0  0  0  0  0  0  0  0
    3.5797   38.6011   15.3723 C   0  0  0  0  0  0  0  0  0  0  0  0
    4.5634   39.2797   14.6798 O   0  0  0  0  0  0  0  0  0  0  0  0
    3.6504   32.4040   19.7811 C   0  0  1  0  0  0  0  0  0  0  0  0
    4.2768   31.5269   20.7296 O   0  0  0  0  0  0  0  0  0  0  0  0
  1  2  1  1  0  0  0
  1  6  1  0  0  0  0
  1 23  1  0  0  0  0
  3  4  1  6  0  0  0
  3  8  1  0  0  0  0
  3 30  1  0  0  0  0
  5  9  1  0  0  0  0
  5 21  1  0  0  0  0
  5 25  1  1  0  0  0
  6  7  1  1  0  0  0
  6 11  1  0  0  0  0
  8 13  1  0  0  0  0
  9 10  1  6  0  0  0
  9 15  1  0  0  0  0
 11 12  1  6  0  0  0
 11 17  1  0  0  0  0
 13 14  1  6  0  0  0
 13 19  1  0  0  0  0
 15 16  1  6  0  0  0
 15 20  1  0  0  0  0
 17 18  1  1  0  0  0
 17 22  1  0  0  0  0
 19  2  1  1  0  0  0
 19 24  1  0  0  0  0
 20 21  1  0  0  0  0
 20 26  1  1  0  0  0
 22 23  1  0  0  0  0
 22 28  1  6  0  0  0
 24 25  1  6  0  0  0
 24 30  1  0  0  0  0
 26 27  1  0  0  0  0
 28 29  1  0  0  0  0
 30 31  1  1  0  0  0
M  END
>  <CHROM.1>
-152.87966806,-119.72668492,-149.53826001,-74.19522804,31.08126012,-52.69897503
4.43550694,34.86724693,18.00571085,-1.38625249,-0.84754462,-3.10245257

>  <Name>
2o3x_lig

>  <RI>
0

>  <Rbt.Current_Directory>
/home/itssahil/PROJECTS/Mol_Feturizer/New_Systems/rnas/2o3x

>  <Rbt.Executable>
rbdock ($Id: //depot/dev/client3/rdock/2013.1/src/exe/rbdock.cxx#4 $)

>  <Rbt.Library>
libRbt.so (2013.1, Build901 2013/11/27)

>  <Rbt.Parameter_File>
/export/apps/rDock/src/rDock_2013.1_src/data/scripts/dock_solv.prm

>  <Rbt.Receptor>
prm/blind_docking_80.prm

>  <SCORE>
20.7447

>  <SCORE.INTER>
-0.490099

>  <SCORE.INTER.CONST>
1

>  <SCORE.INTER.POLAR>
-0.427479

>  <SCORE.INTER.ROT>
6

>  <SCORE.INTER.SOLV>
23.5549

>  <SCORE.INTER.VDW>
-14.3534

>  <SCORE.INTER.norm>
-0.0158096

>  <SCORE.INTRA>
13.1097

>  <SCORE.INTRA.DIHEDRAL>
8.11154

>  <SCORE.INTRA.DIHEDRAL.0>
9.37739

>  <SCORE.INTRA.POLAR>
0

>  <SCORE.INTRA.POLAR.0>
0

>  <SCORE.INTRA.REPUL>
0

>  <SCORE.INTRA.REPUL.0>
0

>  <SCORE.INTRA.SOLV>
2.00084

>  <SCORE.INTRA.SOLV.lig_0>
-82.9274

>  <SCORE.INTRA.VDW>
8.05351

>  <SCORE.INTRA.VDW.0>
-3.84922

>  <SCORE.INTRA.norm>
0.422894

>  <SCORE.RESTR>
8.12507

>  <SCORE.RESTR.CAVITY>
8.12507

>  <SCORE.RESTR.norm>
0.262099

>  <SCORE.SYSTEM>
0

>  <SCORE.SYSTEM.CONST>
0

>  <SCORE.SYSTEM.DIHEDRAL>
0

>  <SCORE.SYSTEM.SOLV>
0

>  <SCORE.SYSTEM.norm>
0

>  <SCORE.heavy>
31

>  <SCORE.norm>
0.669183

>  <RMSD>
33.538

$$$$
2o3x_lig
 OpenBabel11021811463D
libRbt.so/2013.1/901 2013/11/27
 31 33  0  0  0  0  0  0  0  0999 V2000
    5.9193   37.5181   16.8832 C   0  0  2  0  0  0  0  0  0  0  0  0
    5.3405   37.3457   18.1835 O   0  0  0  0  0  0  0  0  0  0  0  0
    2.8219   34.4620   20.0910 C   0  0  2  0  0  0  0  0  0  0  0  0
    1.8086   33.4168   20.3563 N   0  0  0  0  0  0  0  0  0  0  0  0
    6.7021   33.6501   17.4759 C   0  0  1  0  0  0  0  0  0  0  0  0
    6.4662   38.9769   16.7770 C   0  0  2  0  0  0  0  0  0  0  0  0
    7.2849   39.3547   17.9572 N   0  0  0  0  0  0  0  0  0  0  0  0
    2.1709   35.8113   19.6384 C   0  0  0  0  0  0  0  0  0  0  0  0
    6.9397   33.1175   18.9271 C   0  0  2  0  0  0  0  0  0  0  0  0
    7.8539   33.8936   19.7495 O   0  0  0  0  0  0  0  0  0  0  0  0
    5.3252   40.0027   16.6406 C   0  0  1  0  0  0  0  0  0  0  0  0
    5.8418   41.3013   16.4956 O   0  0  0  0  0  0  0  0  0  0  0  0
    3.3203   36.8601   19.4119 C   0  0  2  0  0  0  0  0  0  0  0  0
    2.7781   38.1878   18.9940 N   0  0  0  0  0  0  0  0  0  0  0  0
    7.3888   31.7097   18.5731 C   0  0  2  0  0  0  0  0  0  0  0  0
    8.7950   31.6943   18.1488 O   0  0  0  0  0  0  0  0  0  0  0  0
    4.4506   39.6413   15.4518 C   0  0  2  0  0  0  0  0  0  0  0  0
    3.4327   40.5795   15.3127 O   0  0  0  0  0  0  0  0  0  0  0  0
    4.3044   36.3620   18.3153 C   0  0  2  0  0  0  0  0  0  0  0  0
    6.4700   31.2929   17.4306 C   0  0  2  0  0  0  0  0  0  0  0  0
    6.4314   32.4970   16.6696 O   0  0  0  0  0  0  0  0  0  0  0  0
    3.8493   38.2210   15.6484 C   0  0  2  0  0  0  0  0  0  0  0  0
    4.9150   37.2598   15.8068 O   0  0  0  0  0  0  0  0  0  0  0  0
    4.9254   34.9872   18.6324 C   0  0  2  0  0  0  0  0  0  0  0  0
    5.6098   34.5788   17.3961 O   0  0  0  0  0  0  0  0  0  0  0  0
    5.0264   30.8688   17.8659 C   0  0  0  0  0  0  0  0  0  0  0  0
    4.2331   30.5832   16.7174 N   0  0  0  0  0  0  0  0  0  0  0  0
    2.9820   37.7945   14.4868 C   0  0  0  0  0  0  0  0  0  0  0  0
    1.9684   38.7024   14.2497 O   0  0  0  0  0  0  0  0  0  0  0  0
    3.7859   33.9409   19.0100 C   0  0  1  0  0  0  0  0  0  0  0  0
    4.3430   32.7202   19.5204 O   0  0  0  0  0  0  0  0  0  0  0  0
  1  2  1  1  0  0  0
  1  6  1  0  0  0  0
  1 23  1  0  0  0  0
  3  4  1  6  0  0  0
  3  8  1  0  0  0  0
  3 30  1  0  0  0  0
  5  9  1  0  0  0  0
  5 21  1  0  0  0  0
  5 25  1  1  0  0  0
  6  7  1  1  0  0  0
  6 11  1  0  0  0  0
  8 13  1  0  0  0  0
  9 10  1  6  0  0  0
  9 15  1  0  0  0  0
 11 12  1  6  0  0  0
 11 17  1  0  0  0  0
 13 14  1  6  0  0  0
 13 19  1  0  0  0  0
 15 16  1  6  0  0  0
 15 20  1  0  0  0  0
 17 18  1  1  0  0  0
 17 22  1  0  0  0  0
 19  2  1  1  0  0  0
 19 24  1  0  0  0  0
 20 21  1  0  0  0  0
 20 26  1  1  0  0  0
 22 23  1  0  0  0  0
 22 28  1  6  0  0  0
 24 25  1  6  0  0  0
 24 30  1  0  0  0  0
 26 27  1  0  0  0  0
 28 29  1  0  0  0  0
 30 31  1  1  0  0  0
M  END
>  <CHROM.1>
153.52546171,4.16076309,-147.90820107,176.30936555,-56.12240598,155.49383947
4.96610300,35.73403610,17.61201646,-1.78012663,-0.22261043,2.79427129

>  <Name>
2o3x_lig

>  <RI>
0

>  <Rbt.Current_Directory>
/home/itssahil/PROJECTS/Mol_Feturizer/New_Systems/rnas/2o3x

>  <Rbt.Executable>
rbdock ($Id: //depot/dev/client3/rdock/2013.1/src/exe/rbdock.cxx#4 $)

>  <Rbt.Library>
libRbt.so (2013.1, Build901 2013/11/27)

>  <Rbt.Parameter_File>
/export/apps/rDock/src/rDock_2013.1_src/data/scripts/dock_solv.prm

>  <Rbt.Receptor>
prm/blind_docking_80.prm

>  <SCORE>
17.5703

>  <SCORE.INTER>
0.72775

>  <SCORE.INTER.CONST>
1

>  <SCORE.INTER.POLAR>
-0.622832

>  <SCORE.INTER.ROT>
6

>  <SCORE.INTER.SOLV>
22.9074

>  <SCORE.INTER.VDW>
-12.6745

>  <SCORE.INTER.norm>
0.0234758

>  <SCORE.INTRA>
8.48731

>  <SCORE.INTRA.DIHEDRAL>
7.46873

>  <SCORE.INTRA.DIHEDRAL.0>
9.37739

>  <SCORE.INTRA.POLAR>
0

>  <SCORE.INTRA.POLAR.0>
0

>  <SCORE.INTRA.REPUL>
0

>  <SCORE.INTRA.REPUL.0>
0

>  <SCORE.INTRA.SOLV>
1.14558

>  <SCORE.INTRA.SOLV.lig_0>
-82.9274

>  <SCORE.INTRA.VDW>
4.18016

>  <SCORE.INTRA.VDW.0>
-3.84922

>  <SCORE.INTRA.norm>
0.273784

>  <SCORE.RESTR>
8.35524

>  <SCORE.RESTR.CAVITY>
8.35524

>  <SCORE.RESTR.norm>
0.269524

>  <SCORE.SYSTEM>
0

>  <SCORE.SYSTEM.CONST>
0

>  <SCORE.SYSTEM.DIHEDRAL>
0

>  <SCORE.SYSTEM.SOLV>
0

>  <SCORE.SYSTEM.norm>
0

>  <SCORE.heavy>
31

>  <SCORE.norm>
0.566784

>  <RMSD>
33.815

$$$$
2o3x_lig
 OpenBabel11021811463D
libRbt.so/2013.1/901 2013/11/27
 31 33  0  0  0  0  0  0  0  0999 V2000
    5.6598   33.1818   16.6881 C   0  0  2  0  0  0  0  0  0  0  0  0
    4.5306   34.0649   16.6649 O   0  0  0  0  0  0  0  0  0  0  0  0
    2.3433   36.5583   19.3662 C   0  0  2  0  0  0  0  0  0  0  0  0
    1.9303   37.3614   20.5384 N   0  0  0  0  0  0  0  0  0  0  0  0
    5.9913   37.7934   16.5915 C   0  0  1  0  0  0  0  0  0  0  0  0
    5.2145   31.7980   16.1175 C   0  0  2  0  0  0  0  0  0  0  0  0
    4.4649   31.9336   14.8426 N   0  0  0  0  0  0  0  0  0  0  0  0
    2.4475   35.0338   19.7046 C   0  0  0  0  0  0  0  0  0  0  0  0
    4.7732   38.7565   16.4052 C   0  0  2  0  0  0  0  0  0  0  0  0
    3.9388   38.5110   15.2400 O   0  0  0  0  0  0  0  0  0  0  0  0
    4.3241   31.0325   17.1146 C   0  0  1  0  0  0  0  0  0  0  0  0
    3.9780   29.7710   16.6015 O   0  0  0  0  0  0  0  0  0  0  0  0
    2.8602   34.2668   18.3955 C   0  0  2  0  0  0  0  0  0  0  0  0
    2.9632   32.7952   18.6303 N   0  0  0  0  0  0  0  0  0  0  0  0
    5.5309   40.0736   16.4202 C   0  0  2  0  0  0  0  0  0  0  0  0
    6.1616   40.3355   15.1197 O   0  0  0  0  0  0  0  0  0  0  0  0
    5.0489   30.8873   18.4421 C   0  0  2  0  0  0  0  0  0  0  0  0
    4.2558   30.1761   19.3371 O   0  0  0  0  0  0  0  0  0  0  0  0
    4.2321   34.7799   17.8725 C   0  0  2  0  0  0  0  0  0  0  0  0
    6.5818   39.8958   17.5098 C   0  0  2  0  0  0  0  0  0  0  0  0
    7.0050   38.5596   17.2536 O   0  0  0  0  0  0  0  0  0  0  0  0
    5.3839   32.2916   19.0195 C   0  0  2  0  0  0  0  0  0  0  0  0
    6.1938   33.0246   18.0752 O   0  0  0  0  0  0  0  0  0  0  0  0
    4.2521   36.2972   17.6008 C   0  0  2  0  0  0  0  0  0  0  0  0
    5.6658   36.6281   17.3650 O   0  0  0  0  0  0  0  0  0  0  0  0
    6.0435   40.0329   18.9744 C   0  0  0  0  0  0  0  0  0  0  0  0
    5.8413   38.7428   19.5441 N   0  0  0  0  0  0  0  0  0  0  0  0
    6.1246   32.2144   20.3343 C   0  0  0  0  0  0  0  0  0  0  0  0
    7.3329   31.5589   20.1987 O   0  0  0  0  0  0  0  0  0  0  0  0
    3.6975   37.0914   18.8647 C   0  0  1  0  0  0  0  0  0  0  0  0
    3.4981   38.4811   18.5646 O   0  0  0  0  0  0  0  0  0  0  0  0
  1  2  1  1  0  0  0
  1  6  1  0  0  0  0
  1 23  1  0  0  0  0
  3  4  1  1  0  0  0
  3  8  1  0  0  0  0
  3 30  1  0  0  0  0
  5  9  1  0  0  0  0
  5 21  1  0  0  0  0
  5 25  1  1  0  0  0
  6  7  1  6  0  0  0
  6 11  1  0  0  0  0
  8 13  1  0  0  0  0
  9 10  1  6  0  0  0
  9 15  1  0  0  0  0
 11 12  1  6  0  0  0
 11 17  1  0  0  0  0
 13 14  1  1  0  0  0
 13 19  1  0  0  0  0
 15 16  1  6  0  0  0
 15 20  1  0  0  0  0
 17 18  1  1  0  0  0
 17 22  1  0  0  0  0
 19  2  1  6  0  0  0
 19 24  1  0  0  0  0
 20 21  1  0  0  0  0
 20 26  1  1  0  0  0
 22 23  1  0  0  0  0
 22 28  1  1  0  0  0
 24 25  1  1  0  0  0
 24 30  1  0  0  0  0
 26 27  1  0  0  0  0
 28 29  1  0  0  0  0
 30 31  1  6  0  0  0
M  END
>  <CHROM.1>
130.27227870,14.56928118,-114.22595561,100.06874660,60.95611494,155.81132202
4.80670831,35.27858456,17.84111919,-1.69708387,1.07170334,0.01237171

>  <Name>
2o3x_lig

>  <RI>
0

>  <Rbt.Current_Directory>
/home/itssahil/PROJECTS/Mol_Feturizer/New_Systems/rnas/2o3x

>  <Rbt.Executable>
rbdock ($Id: //depot/dev/client3/rdock/2013.1/src/exe/rbdock.cxx#4 $)

>  <Rbt.Library>
libRbt.so (2013.1, Build901 2013/11/27)

>  <Rbt.Parameter_File>
/export/apps/rDock/src/rDock_2013.1_src/data/scripts/dock_solv.prm

>  <Rbt.Receptor>
prm/blind_docking_80.prm

>  <SCORE>
20.6923

>  <SCORE.INTER>
-5.5493

>  <SCORE.INTER.CONST>
1

>  <SCORE.INTER.POLAR>
0

>  <SCORE.INTER.ROT>
6

>  <SCORE.INTER.SOLV>
18.572

>  <SCORE.INTER.VDW>
-17.4902

>  <SCORE.INTER.norm>
-0.17901

>  <SCORE.INTRA>
20.72

>  <SCORE.INTRA.DIHEDRAL>
16.9045

>  <SCORE.INTRA.DIHEDRAL.0>
9.37739

>  <SCORE.INTRA.POLAR>
0

>  <SCORE.INTRA.POLAR.0>
0

>  <SCORE.INTRA.REPUL>
0

>  <SCORE.INTRA.REPUL.0>
0

>  <SCORE.INTRA.SOLV>
10.5915

>  <SCORE.INTRA.SOLV.lig_0>
-82.9274

>  <SCORE.INTRA.VDW>
6.97199

>  <SCORE.INTRA.VDW.0>
-3.84922

>  <SCORE.INTRA.norm>
0.668387

>  <SCORE.RESTR>
5.52158

>  <SCORE.RESTR.CAVITY>
5.52158

>  <SCORE.RESTR.norm>
0.178115

>  <SCORE.SYSTEM>
0

>  <SCORE.SYSTEM.CONST>
0

>  <SCORE.SYSTEM.DIHEDRAL>
0

>  <SCORE.SYSTEM.SOLV>
0

>  <SCORE.SYSTEM.norm>
0

>  <SCORE.heavy>
31

>  <SCORE.norm>
0.667493

>  <RMSD>
33.909

$$$$
2o3x_lig
 OpenBabel11021811463D
libRbt.so/2013.1/901 2013/11/27
 31 33  0  0  0  0  0  0  0  0999 V2000
    5.1038   37.0132   17.8222 C   0  0  2  0  0  0  0  0  0  0  0  0
    4.1055   37.1383   18.8436 O   0  0  0  0  0  0  0  0  0  0  0  0
    1.7867   34.1517   20.8439 C   0  0  2  0  0  0  0  0  0  0  0  0
    0.8841   33.0169   21.1388 N   0  0  0  0  0  0  0  0  0  0  0  0
    4.6950   33.0001   17.9306 C   0  0  1  0  0  0  0  0  0  0  0  0
    6.2358   38.0494   18.1103 C   0  0  2  0  0  0  0  0  0  0  0  0
    6.6824   38.0108   19.5263 N   0  0  0  0  0  0  0  0  0  0  0  0
    1.0235   35.3603   20.2067 C   0  0  0  0  0  0  0  0  0  0  0  0
    5.3677   32.7752   16.5367 C   0  0  2  0  0  0  0  0  0  0  0  0
    4.5046   32.9402   15.3781 O   0  0  0  0  0  0  0  0  0  0  0  0
    5.7840   39.4873   17.7924 C   0  0  1  0  0  0  0  0  0  0  0  0
    6.8336   40.3956   18.0105 O   0  0  0  0  0  0  0  0  0  0  0  0
    2.0569   36.5194   19.9601 C   0  0  2  0  0  0  0  0  0  0  0  0
    1.4010   37.7236   19.3677 N   0  0  0  0  0  0  0  0  0  0  0  0
    5.9057   31.3745   16.7764 C   0  0  2  0  0  0  0  0  0  0  0  0
    4.8466   30.3681   16.6239 O   0  0  0  0  0  0  0  0  0  0  0  0
    5.3011   39.5665   16.3539 C   0  0  2  0  0  0  0  0  0  0  0  0
    4.9140   40.8695   16.0574 O   0  0  0  0  0  0  0  0  0  0  0  0
    3.1848   36.0488   18.9979 C   0  0  2  0  0  0  0  0  0  0  0  0
    6.4254   31.4062   18.2089 C   0  0  2  0  0  0  0  0  0  0  0  0
    5.3914   32.1489   18.8489 O   0  0  0  0  0  0  0  0  0  0  0  0
    4.1100   38.5902   16.1401 C   0  0  2  0  0  0  0  0  0  0  0  0
    4.5202   37.2446   16.4658 O   0  0  0  0  0  0  0  0  0  0  0  0
    3.9330   34.7986   19.5013 C   0  0  2  0  0  0  0  0  0  0  0  0
    4.7660   34.3658   18.3687 O   0  0  0  0  0  0  0  0  0  0  0  0
    7.8095   32.1160   18.3931 C   0  0  0  0  0  0  0  0  0  0  0  0
    8.1381   32.1957   19.7771 N   0  0  0  0  0  0  0  0  0  0  0  0
    3.5953   38.6085   14.7195 C   0  0  0  0  0  0  0  0  0  0  0  0
    2.6906   37.5894   14.4940 O   0  0  0  0  0  0  0  0  0  0  0  0
    2.8959   33.6572   19.8981 C   0  0  1  0  0  0  0  0  0  0  0  0
    3.5461   32.5692   20.5724 O   0  0  0  0  0  0  0  0  0  0  0  0
  1  2  1  1  0  0  0
  1  6  1  0  0  0  0
  1 23  1  0  0  0  0
  3  4  1  6  0  0  0
  3  8  1  0  0  0  0
  3 30  1  0  0  0  0
  5  9  1  0  0  0  0
  5 21  1  0  0  0  0
  5 25  1  1  0  0  0
  6  7  1  1  0  0  0
  6 11  1  0  0  0  0
  8 13  1  0  0  0  0
  9 10  1  6  0  0  0
  9 15  1  0  0  0  0
 11 12  1  6  0  0  0
 11 17  1  0  0  0  0
 13 14  1  6  0  0  0
 13 19  1  0  0  0  0
 15 16  1  1  0  0  0
 15 20  1  0  0  0  0
 17 18  1  1  0  0  0
 17 22  1  0  0  0  0
 19  2  1  1  0  0  0
 19 24  1  0  0  0  0
 20 21  1  0  0  0  0
 20 26  1  6  0  0  0
 22 23  1  0  0  0  0
 22 28  1  6  0  0  0
 24 25  1  6  0  0  0
 24 30  1  0  0  0  0
 26 27  1  0  0  0  0
 28 29  1  0  0  0  0
 30 31  1  1  0  0  0
M  END
>  <CHROM.1>
-162.54069019,166.62976123,-169.59928565,174.69181879,170.25194533,-128.09849444
4.47172946,35.45955528,18.08142505,-1.59806448,-0.63587546,2.88938964

>  <Name>
2o3x_lig

>  <RI>
0

>  <Rbt.Current_Directory>
/home/itssahil/PROJECTS/Mol_Feturizer/New_Systems/rnas/2o3x

>  <Rbt.Executable>
rbdock ($Id: //depot/dev/client3/rdock/2013.1/src/exe/rbdock.cxx#4 $)

>  <Rbt.Library>
libRbt.so (2013.1, Build901 2013/11/27)

>  <Rbt.Parameter_File>
/export/apps/rDock/src/rDock_2013.1_src/data/scripts/dock_solv.prm

>  <Rbt.Receptor>
prm/blind_docking_80.prm

>  <SCORE>
8.81315

>  <SCORE.INTER>
-3.5931

>  <SCORE.INTER.CONST>
1

>  <SCORE.INTER.POLAR>
0

>  <SCORE.INTER.ROT>
6

>  <SCORE.INTER.SOLV>
20.9611

>  <SCORE.INTER.VDW>
-16.9824

>  <SCORE.INTER.norm>
-0.115906

>  <SCORE.INTRA>
2.40667

>  <SCORE.INTRA.DIHEDRAL>
0.88042

>  <SCORE.INTRA.DIHEDRAL.0>
9.37739

>  <SCORE.INTRA.POLAR>
0

>  <SCORE.INTRA.POLAR.0>
0

>  <SCORE.INTRA.REPUL>
0

>  <SCORE.INTRA.REPUL.0>
0

>  <SCORE.INTRA.SOLV>
-2.54174

>  <SCORE.INTRA.SOLV.lig_0>
-82.9274

>  <SCORE.INTRA.VDW>
3.23732

>  <SCORE.INTRA.VDW.0>
-3.84922

>  <SCORE.INTRA.norm>
0.0776344

>  <SCORE.RESTR>
9.99958

>  <SCORE.RESTR.CAVITY>
9.99958

>  <SCORE.RESTR.norm>
0.322567

>  <SCORE.SYSTEM>
0

>  <SCORE.SYSTEM.CONST>
0

>  <SCORE.SYSTEM.DIHEDRAL>
0

>  <SCORE.SYSTEM.SOLV>
0

>  <SCORE.SYSTEM.norm>
0

>  <SCORE.heavy>
31

>  <SCORE.norm>
0.284295

>  <RMSD>
34.075

$$$$
2o3x_lig
 OpenBabel11021811463D
libRbt.so/2013.1/901 2013/11/27
 31 33  0  0  0  0  0  0  0  0999 V2000
    6.0094   37.2161   17.0321 C   0  0  2  0  0  0  0  0  0  0  0  0
    5.5103   37.0566   18.3666 O   0  0  0  0  0  0  0  0  0  0  0  0
    2.1136   35.3948   20.3664 C   0  0  2  0  0  0  0  0  0  0  0  0
    0.8301   34.7207   20.6626 N   0  0  0  0  0  0  0  0  0  0  0  0
    4.8480   32.7887   18.1705 C   0  0  1  0  0  0  0  0  0  0  0  0
    6.4935   38.6907   16.8603 C   0  0  2  0  0  0  0  0  0  0  0  0
    7.3611   39.1291   17.9832 N   0  0  0  0  0  0  0  0  0  0  0  0
    1.9092   36.7242   19.5664 C   0  0  0  0  0  0  0  0  0  0  0  0
    3.5140   32.4017   17.4516 C   0  0  2  0  0  0  0  0  0  0  0  0
    2.3277   32.3552   18.2910 O   0  0  0  0  0  0  0  0  0  0  0  0
    5.3084   39.6700   16.7636 C   0  0  1  0  0  0  0  0  0  0  0  0
    5.7664   40.9825   16.5587 O   0  0  0  0  0  0  0  0  0  0  0  0
    3.3198   37.3768   19.3286 C   0  0  2  0  0  0  0  0  0  0  0  0
    3.2099   38.6669   18.5837 N   0  0  0  0  0  0  0  0  0  0  0  0
    3.9631   31.0790   16.8536 C   0  0  2  0  0  0  0  0  0  0  0  0
    3.9370   30.0083   17.8589 O   0  0  0  0  0  0  0  0  0  0  0  0
    4.3840   39.2458   15.6348 C   0  0  2  0  0  0  0  0  0  0  0  0
    3.3248   40.1420   15.5306 O   0  0  0  0  0  0  0  0  0  0  0  0
    4.2356   36.4158   18.5181 C   0  0  2  0  0  0  0  0  0  0  0  0
    5.3857   31.3415   16.3736 C   0  0  2  0  0  0  0  0  0  0  0  0
    5.8924   32.1141   17.4583 O   0  0  0  0  0  0  0  0  0  0  0  0
    3.8490   37.8100   15.8990 C   0  0  2  0  0  0  0  0  0  0  0  0
    4.9578   36.8930   16.0203 O   0  0  0  0  0  0  0  0  0  0  0  0
    4.4181   35.0390   19.1871 C   0  0  2  0  0  0  0  0  0  0  0  0
    5.0862   34.2048   18.1764 O   0  0  0  0  0  0  0  0  0  0  0  0
    5.4920   32.1401   15.0303 C   0  0  0  0  0  0  0  0  0  0  0  0
    4.7245   31.4971   14.0168 N   0  0  0  0  0  0  0  0  0  0  0  0
    2.9358   37.3217   14.7985 C   0  0  0  0  0  0  0  0  0  0  0  0
    1.7766   38.0698   14.7312 O   0  0  0  0  0  0  0  0  0  0  0  0
    3.0021   34.4205   19.5722 C   0  0  1  0  0  0  0  0  0  0  0  0
    3.1464   33.2486   20.3888 O   0  0  0  0  0  0  0  0  0  0  0  0
  1  2  1  1  0  0  0
  1  6  1  0  0  0  0
  1 23  1  0  0  0  0
  3  4  1  6  0  0  0
  3  8  1  0  0  0  0
  3 30  1  0  0  0  0
  5  9  1  0  0  0  0
  5 21  1  0  0  0  0
  5 25  1  6  0  0  0
  6  7  1  1  0  0  0
  6 11  1  0  0  0  0
  8 13  1  0  0  0  0
  9 10  1  1  0  0  0
  9 15  1  0  0  0  0
 11 12  1  6  0  0  0
 11 17  1  0  0  0  0
 13 14  1  6  0  0  0
 13 19  1  0  0  0  0
 15 16  1  1  0  0  0
 15 20  1  0  0  0  0
 17 18  1  1  0  0  0
 17 22  1  0  0  0  0
 19  2  1  1  0  0  0
 19 24  1  0  0  0  0
 20 21  1  0  0  0  0
 20 26  1  6  0  0  0
 22 23  1  0  0  0  0
 22 28  1  6  0  0  0
 24 25  1  6  0  0  0
 24 30  1  0  0  0  0
 26 27  1  0  0  0  0
 28 29  1  0  0  0  0
 30 31  1  1  0  0  0
M  END
>  <CHROM.1>
131.99242822,81.44414142,-124.74203861,-53.95249204,-65.20521123,-150.22673316
4.15693576,35.61265988,17.47094373,-1.42110380,-1.01537787,3.13688129

>  <Name>
2o3x_lig

>  <RI>
0

>  <Rbt.Current_Directory>
/home/itssahil/PROJECTS/Mol_Feturizer/New_Systems/rnas/2o3x

>  <Rbt.Executable>
rbdock ($Id: //depot/dev/client3/rdock/2013.1/src/exe/rbdock.cxx#4 $)

>  <Rbt.Library>
libRbt.so (2013.1, Build901 2013/11/27)

>  <Rbt.Parameter_File>
/export/apps/rDock/src/rDock_2013.1_src/data/scripts/dock_solv.prm

>  <Rbt.Receptor>
prm/blind_docking_80.prm

>  <SCORE>
25.094

>  <SCORE.INTER>
2.5032

>  <SCORE.INTER.CONST>
1

>  <SCORE.INTER.POLAR>
-0.0633527

>  <SCORE.INTER.ROT>
6

>  <SCORE.INTER.SOLV>
18.1563

>  <SCORE.INTER.VDW>
-11.7721

>  <SCORE.INTER.norm>
0.0807483

>  <SCORE.INTRA>
12.1591

>  <SCORE.INTRA.DIHEDRAL>
10.1048

>  <SCORE.INTRA.DIHEDRAL.0>
9.37739

>  <SCORE.INTRA.POLAR>
0

>  <SCORE.INTRA.POLAR.0>
0

>  <SCORE.INTRA.REPUL>
0

>  <SCORE.INTRA.REPUL.0>
0

>  <SCORE.INTRA.SOLV>
4.33578

>  <SCORE.INTRA.SOLV.lig_0>
-82.9274

>  <SCORE.INTRA.VDW>
4.93876

>  <SCORE.INTRA.VDW.0>
-3.84922

>  <SCORE.INTRA.norm>
0.392228

>  <SCORE.RESTR>
10.4318

>  <SCORE.RESTR.CAVITY>
10.4318

>  <SCORE.RESTR.norm>
0.336509

>  <SCORE.SYSTEM>
0

>  <SCORE.SYSTEM.CONST>
0

>  <SCORE.SYSTEM.DIHEDRAL>
0

>  <SCORE.SYSTEM.SOLV>
0

>  <SCORE.SYSTEM.norm>
0

>  <SCORE.heavy>
31

>  <SCORE.norm>
0.809485

>  <RMSD>
34.091

$$$$
2o3x_lig
 OpenBabel11021811463D
libRbt.so/2013.1/901 2013/11/27
 31 33  0  0  0  0  0  0  0  0999 V2000
    4.9708   36.8318   18.0616 C   0  0  2  0  0  0  0  0  0  0  0  0
    3.9365   36.9759   19.0440 O   0  0  0  0  0  0  0  0  0  0  0  0
    1.4731   33.9951   20.8728 C   0  0  2  0  0  0  0  0  0  0  0  0
    0.5193   32.8874   21.1029 N   0  0  0  0  0  0  0  0  0  0  0  0
    5.7135   33.5109   18.6663 C   0  0  1  0  0  0  0  0  0  0  0  0
    6.1966   37.6902   18.5076 C   0  0  2  0  0  0  0  0  0  0  0  0
    6.5535   37.4591   19.9306 N   0  0  0  0  0  0  0  0  0  0  0  0
    0.7687   35.2675   20.2947 C   0  0  0  0  0  0  0  0  0  0  0  0
    5.5283   32.2253   19.5375 C   0  0  2  0  0  0  0  0  0  0  0  0
    5.6342   32.4093   20.9760 O   0  0  0  0  0  0  0  0  0  0  0  0
    5.9332   39.1965   18.3210 C   0  0  1  0  0  0  0  0  0  0  0  0
    7.0665   39.9453   18.6802 O   0  0  0  0  0  0  0  0  0  0  0  0
    1.8538   36.3911   20.1148 C   0  0  2  0  0  0  0  0  0  0  0  0
    1.2560   37.6520   19.5819 N   0  0  0  0  0  0  0  0  0  0  0  0
    6.6025   31.3663   18.8917 C   0  0  2  0  0  0  0  0  0  0  0  0
    7.9368   31.7248   19.3904 O   0  0  0  0  0  0  0  0  0  0  0  0
    5.5463   39.4742   16.8782 C   0  0  2  0  0  0  0  0  0  0  0  0
    5.3302   40.8372   16.7018 O   0  0  0  0  0  0  0  0  0  0  0  0
    2.9678   35.9215   19.1361 C   0  0  2  0  0  0  0  0  0  0  0  0
    6.4804   31.6606   17.4012 C   0  0  2  0  0  0  0  0  0  0  0  0
    6.2797   33.0711   17.4257 O   0  0  0  0  0  0  0  0  0  0  0  0
    4.2646   38.6748   16.5097 C   0  0  2  0  0  0  0  0  0  0  0  0
    4.4969   37.2641   16.7116 O   0  0  0  0  0  0  0  0  0  0  0  0
    3.6565   34.6152   19.5782 C   0  0  2  0  0  0  0  0  0  0  0  0
    4.4790   34.2052   18.4296 O   0  0  0  0  0  0  0  0  0  0  0  0
    5.2859   30.9457   16.6832 C   0  0  0  0  0  0  0  0  0  0  0  0
    5.3327   31.2022   15.2825 N   0  0  0  0  0  0  0  0  0  0  0  0
    3.8382   38.8945   15.0768 C   0  0  0  0  0  0  0  0  0  0  0  0
    4.5803   39.8909   14.4732 O   0  0  0  0  0  0  0  0  0  0  0  0
    2.5673   33.5017   19.9091 C   0  0  1  0  0  0  0  0  0  0  0  0
    3.1638   32.3527   20.5298 O   0  0  0  0  0  0  0  0  0  0  0  0
  1  2  1  1  0  0  0
  1  6  1  0  0  0  0
  1 23  1  0  0  0  0
  3  4  1  6  0  0  0
  3  8  1  0  0  0  0
  3 30  1  0  0  0  0
  5  9  1  0  0  0  0
  5 21  1  0  0  0  0
  5 25  1  6  0  0  0
  6  7  1  1  0  0  0
  6 11  1  0  0  0  0
  8 13  1  0  0  0  0
  9 10  1  1  0  0  0
  9 15  1  0  0  0  0
 11 12  1  6  0  0  0
 11 17  1  0  0  0  0
 13 14  1  6  0  0  0
 13 19  1  0  0  0  0
 15 16  1  1  0  0  0
 15 20  1  0  0  0  0
 17 18  1  1  0  0  0
 17 22  1  0  0  0  0
 19  2  1  1  0  0  0
 19 24  1  0  0  0  0
 20 21  1  0  0  0  0
 20 26  1  1  0  0  0
 22 23  1  0  0  0  0
 22 28  1  6  0  0  0
 24 25  1  6  0  0  0
 24 30  1  0  0  0  0
 26 27  1  0  0  0  0
 28 29  1  0  0  0  0
 30 31  1  1  0  0  0
M  END
>  <CHROM.1>
-156.07933087,55.11247853,-172.22280972,-175.24506791,-7.98918828,147.81919292
4.55658614,35.44269576,18.45489033,-1.53729299,-0.57842330,2.87298495

>  <Name>
2o3x_lig

>  <RI>
0

>  <Rbt.Current_Directory>
/home/itssahil/PROJECTS/Mol_Feturizer/New_Systems/rnas/2o3x

>  <Rbt.Executable>
rbdock ($Id: //depot/dev/client3/rdock/2013.1/src/exe/rbdock.cxx#4 $)

>  <Rbt.Library>
libRbt.so (2013.1, Build901 2013/11/27)

>  <Rbt.Parameter_File>
/export/apps/rDock/src/rDock_2013.1_src/data/scripts/dock_solv.prm

>  <Rbt.Receptor>
prm/blind_docking_80.prm

>  <SCORE>
12.4994

>  <SCORE.INTER>
-2.92229

>  <SCORE.INTER.CONST>
1

>  <SCORE.INTER.POLAR>
-0.628843

>  <SCORE.INTER.ROT>
6

>  <SCORE.INTER.SOLV>
23.3481

>  <SCORE.INTER.VDW>
-15.2347

>  <SCORE.INTER.norm>
-0.0942675

>  <SCORE.INTRA>
5.27061

>  <SCORE.INTRA.DIHEDRAL>
2.80234

>  <SCORE.INTRA.DIHEDRAL.0>
9.37739

>  <SCORE.INTRA.POLAR>
0

>  <SCORE.INTRA.POLAR.0>
0

>  <SCORE.INTRA.REPUL>
0

>  <SCORE.INTRA.REPUL.0>
0

>  <SCORE.INTRA.SOLV>
-1.39272

>  <SCORE.INTRA.SOLV.lig_0>
-82.9274

>  <SCORE.INTRA.VDW>
4.5658

>  <SCORE.INTRA.VDW.0>
-3.84922

>  <SCORE.INTRA.norm>
0.17002

>  <SCORE.RESTR>
10.151

>  <SCORE.RESTR.CAVITY>
10.151

>  <SCORE.RESTR.norm>
0.327453

>  <SCORE.SYSTEM>
0

>  <SCORE.SYSTEM.CONST>
0

>  <SCORE.SYSTEM.DIHEDRAL>
0

>  <SCORE.SYSTEM.SOLV>
0

>  <SCORE.SYSTEM.norm>
0

>  <SCORE.heavy>
31

>  <SCORE.norm>
0.403205

>  <RMSD>
34.110

$$$$
2o3x_lig
 OpenBabel11021811463D
libRbt.so/2013.1/901 2013/11/27
 31 33  0  0  0  0  0  0  0  0999 V2000
    6.0429   37.6162   17.0396 C   0  0  2  0  0  0  0  0  0  0  0  0
    5.4884   37.4415   18.3501 O   0  0  0  0  0  0  0  0  0  0  0  0
    2.1433   35.4991   20.1765 C   0  0  2  0  0  0  0  0  0  0  0  0
    0.8640   34.7919   20.4058 N   0  0  0  0  0  0  0  0  0  0  0  0
    4.8052   33.2536   17.5253 C   0  0  1  0  0  0  0  0  0  0  0  0
    6.5010   39.1018   16.8926 C   0  0  2  0  0  0  0  0  0  0  0  0
    7.3075   39.5561   18.0540 N   0  0  0  0  0  0  0  0  0  0  0  0
    1.9251   36.9386   19.6023 C   0  0  0  0  0  0  0  0  0  0  0  0
    5.5396   32.6979   16.2612 C   0  0  2  0  0  0  0  0  0  0  0  0
    4.7939   32.7548   15.0142 O   0  0  0  0  0  0  0  0  0  0  0  0
    5.2996   40.0546   16.7449 C   0  0  1  0  0  0  0  0  0  0  0  0
    5.7366   41.3776   16.5633 O   0  0  0  0  0  0  0  0  0  0  0  0
    3.3332   37.6150   19.4230 C   0  0  2  0  0  0  0  0  0  0  0  0
    3.2110   39.0066   18.8939 N   0  0  0  0  0  0  0  0  0  0  0  0
    5.8597   31.3086   16.7868 C   0  0  2  0  0  0  0  0  0  0  0  0
    4.6853   30.4297   16.7073 O   0  0  0  0  0  0  0  0  0  0  0  0
    4.4363   39.6132   15.5751 C   0  0  2  0  0  0  0  0  0  0  0  0
    3.3630   40.4857   15.4254 O   0  0  0  0  0  0  0  0  0  0  0  0
    4.2135   36.7898   18.4416 C   0  0  2  0  0  0  0  0  0  0  0  0
    6.2735   31.5357   18.2360 C   0  0  2  0  0  0  0  0  0  0  0  0
    5.3086   32.5042   18.6379 O   0  0  0  0  0  0  0  0  0  0  0  0
    3.9225   38.1649   15.8122 C   0  0  2  0  0  0  0  0  0  0  0  0
    5.0451   37.2727   15.9811 O   0  0  0  0  0  0  0  0  0  0  0  0
    4.4051   35.3244   18.8797 C   0  0  2  0  0  0  0  0  0  0  0  0
    5.0327   34.6568   17.7288 O   0  0  0  0  0  0  0  0  0  0  0  0
    7.7255   32.0908   18.4283 C   0  0  0  0  0  0  0  0  0  0  0  0
    8.0323   32.1883   19.8162 N   0  0  0  0  0  0  0  0  0  0  0  0
    3.0706   37.6597   14.6710 C   0  0  0  0  0  0  0  0  0  0  0  0
    1.9794   38.4776   14.4511 O   0  0  0  0  0  0  0  0  0  0  0  0
    2.9968   34.6584   19.2099 C   0  0  1  0  0  0  0  0  0  0  0  0
    3.1568   33.3721   19.8271 O   0  0  0  0  0  0  0  0  0  0  0  0
  1  2  1  1  0  0  0
  1  6  1  0  0  0  0
  1 23  1  0  0  0  0
  3  4  1  6  0  0  0
  3  8  1  0  0  0  0
  3 30  1  0  0  0  0
  5  9  1  0  0  0  0
  5 21  1  0  0  0  0
  5 25  1  1  0  0  0
  6  7  1  1  0  0  0
  6 11  1  0  0  0  0
  8 13  1  0  0  0  0
  9 10  1  6  0  0  0
  9 15  1  0  0  0  0
 11 12  1  6  0  0  0
 11 17  1  0  0  0  0
 13 14  1  6  0  0  0
 13 19  1  0  0  0  0
 15 16  1  1  0  0  0
 15 20  1  0  0  0  0
 17 18  1  1  0  0  0
 17 22  1  0  0  0  0
 19  2  1  1  0  0  0
 19 24  1  0  0  0  0
 20 21  1  0  0  0  0
 20 26  1  6  0  0  0
 22 23  1  0  0  0  0
 22 28  1  6  0  0  0
 24 25  1  6  0  0  0
 24 30  1  0  0  0  0
 26 27  1  0  0  0  0
 28 29  1  0  0  0  0
 30 31  1  1  0  0  0
M  END
>  <CHROM.1>
131.08157426,179.94784167,-134.37823334,-176.53865265,-57.99591508,-151.58059213
4.58724758,35.94006195,17.56433114,-1.73729348,-0.65067782,2.83414566

>  <Name>
2o3x_lig

>  <RI>
0

>  <Rbt.Current_Directory>
/home/itssahil/PROJECTS/Mol_Feturizer/New_Systems/rnas/2o3x

>  <Rbt.Executable>
rbdock ($Id: //depot/dev/client3/rdock/2013.1/src/exe/rbdock.cxx#4 $)

>  <Rbt.Library>
libRbt.so (2013.1, Build901 2013/11/27)

>  <Rbt.Parameter_File>
/export/apps/rDock/src/rDock_2013.1_src/data/scripts/dock_solv.prm

>  <Rbt.Receptor>
prm/blind_docking_80.prm

>  <SCORE>
10.4874

>  <SCORE.INTER>
-5.27134

>  <SCORE.INTER.CONST>
1

>  <SCORE.INTER.POLAR>
0

>  <SCORE.INTER.ROT>
6

>  <SCORE.INTER.SOLV>
19.726

>  <SCORE.INTER.VDW>
-17.6896

>  <SCORE.INTER.norm>
-0.170043

>  <SCORE.INTRA>
6.24452

>  <SCORE.INTRA.DIHEDRAL>
6.90289

>  <SCORE.INTRA.DIHEDRAL.0>
9.37739

>  <SCORE.INTRA.POLAR>
0

>  <SCORE.INTRA.POLAR.0>
0

>  <SCORE.INTRA.REPUL>
0

>  <SCORE.INTRA.REPUL.0>
0

>  <SCORE.INTRA.SOLV>
1.27621

>  <SCORE.INTRA.SOLV.lig_0>
-82.9274

>  <SCORE.INTRA.VDW>
2.15497

>  <SCORE.INTRA.VDW.0>
-3.84922

>  <SCORE.INTRA.norm>
0.201436

>  <SCORE.RESTR>
9.51422

>  <SCORE.RESTR.CAVITY>
9.51422

>  <SCORE.RESTR.norm>
0.30691

>  <SCORE.SYSTEM>
0

>  <SCORE.SYSTEM.CONST>
0

>  <SCORE.SYSTEM.DIHEDRAL>
0

>  <SCORE.SYSTEM.SOLV>
0

>  <SCORE.SYSTEM.norm>
0

>  <SCORE.heavy>
31

>  <SCORE.norm>
0.338303

>  <RMSD>
34.210

$$$$
2o3x_lig
 OpenBabel11021811463D
libRbt.so/2013.1/901 2013/11/27
 31 33  0  0  0  0  0  0  0  0999 V2000
    3.5524   38.4694   17.9090 C   0  0  2  0  0  0  0  0  0  0  0  0
    4.0584   37.1346   18.0420 O   0  0  0  0  0  0  0  0  0  0  0  0
    2.2974   34.2861   20.7034 C   0  0  2  0  0  0  0  0  0  0  0  0
    1.4445   33.2273   21.2873 N   0  0  0  0  0  0  0  0  0  0  0  0
    5.4007   33.5460   17.1313 C   0  0  1  0  0  0  0  0  0  0  0  0
    3.4065   38.7916   16.3880 C   0  0  2  0  0  0  0  0  0  0  0  0
    2.7082   37.7076   15.6511 N   0  0  0  0  0  0  0  0  0  0  0  0
    1.4876   35.5885   20.3911 C   0  0  0  0  0  0  0  0  0  0  0  0
    5.6668   32.5437   18.3020 C   0  0  2  0  0  0  0  0  0  0  0  0
    6.4820   33.0443   19.3971 O   0  0  0  0  0  0  0  0  0  0  0  0
    4.7768   39.0152   15.7208 C   0  0  1  0  0  0  0  0  0  0  0  0
    4.6185   39.3531   14.3662 O   0  0  0  0  0  0  0  0  0  0  0  0
    2.4817   36.6571   19.8061 C   0  0  2  0  0  0  0  0  0  0  0  0
    1.7870   37.9430   19.4977 N   0  0  0  0  0  0  0  0  0  0  0  0
    6.2644   31.4088   17.4873 C   0  0  2  0  0  0  0  0  0  0  0  0
    7.6718   31.6755   17.1621 O   0  0  0  0  0  0  0  0  0  0  0  0
    5.5334   40.1075   16.4577 C   0  0  2  0  0  0  0  0  0  0  0  0
    6.7620   40.3273   15.8429 O   0  0  0  0  0  0  0  0  0  0  0  0
    3.1439   36.1291   18.5015 C   0  0  2  0  0  0  0  0  0  0  0  0
    5.4132   31.3577   16.2240 C   0  0  2  0  0  0  0  0  0  0  0  0
    5.2639   32.7479   15.9493 O   0  0  0  0  0  0  0  0  0  0  0  0
    5.7414   39.6987   17.9433 C   0  0  2  0  0  0  0  0  0  0  0  0
    4.4605   39.4588   18.5652 O   0  0  0  0  0  0  0  0  0  0  0  0
    3.8883   34.7930   18.6934 C   0  0  2  0  0  0  0  0  0  0  0  0
    4.2201   34.3379   17.3345 O   0  0  0  0  0  0  0  0  0  0  0  0
    4.0136   30.6764   16.3984 C   0  0  0  0  0  0  0  0  0  0  0  0
    3.1922   31.4594   17.2598 N   0  0  0  0  0  0  0  0  0  0  0  0
    6.4738   40.7558   18.7367 C   0  0  0  0  0  0  0  0  0  0  0  0
    6.1962   40.6609   20.0865 O   0  0  0  0  0  0  0  0  0  0  0  0
    2.9455   33.7354   19.4203 C   0  0  1  0  0  0  0  0  0  0  0  0
    3.6756   32.5618   19.8086 O   0  0  0  0  0  0  0  0  0  0  0  0
  1  2  1  6  0  0  0
  1  6  1  0  0  0  0
  1 23  1  0  0  0  0
  3  4  1  6  0  0  0
  3  8  1  0  0  0  0
  3 30  1  0  0  0  0
  5  9  1  0  0  0  0
  5 21  1  0  0  0  0
  5 25  1  1  0  0  0
  6  7  1  6  0  0  0
  6 11  1  0  0  0  0
  8 13  1  0  0  0  0
  9 10  1  1  0  0  0
  9 15  1  0  0  0  0
 11 12  1  6  0  0  0
 11 17  1  0  0  0  0
 13 14  1  6  0  0  0
 13 19  1  0  0  0  0
 15 16  1  6  0  0  0
 15 20  1  0  0  0  0
 17 18  1  6  0  0  0
 17 22  1  0  0  0  0
 19  2  1  1  0  0  0
 19 24  1  0  0  0  0
 20 21  1  0  0  0  0
 20 26  1  1  0  0  0
 22 23  1  0  0  0  0
 22 28  1  1  0  0  0
 24 25  1  6  0  0  0
 24 30  1  0  0  0  0
 26 27  1  0  0  0  0
 28 29  1  0  0  0  0
 30 31  1  1  0  0  0
M  END
>  <CHROM.1>
-107.42701845,36.97506490,-51.59783600,66.30857980,155.88644480,149.96431332
4.40133600,35.79731141,17.93859252,1.49520979,0.83215074,-0.02885738

>  <Name>
2o3x_lig

>  <RI>
0

>  <Rbt.Current_Directory>
/home/itssahil/PROJECTS/Mol_Feturizer/New_Systems/rnas/2o3x

>  <Rbt.Executable>
rbdock ($Id: //depot/dev/client3/rdock/2013.1/src/exe/rbdock.cxx#4 $)

>  <Rbt.Library>
libRbt.so (2013.1, Build901 2013/11/27)

>  <Rbt.Parameter_File>
/export/apps/rDock/src/rDock_2013.1_src/data/scripts/dock_solv.prm

>  <Rbt.Receptor>
prm/blind_docking_80.prm

>  <SCORE>
20.37

>  <SCORE.INTER>
-3.2626

>  <SCORE.INTER.CONST>
1

>  <SCORE.INTER.POLAR>
-0.599114

>  <SCORE.INTER.ROT>
6

>  <SCORE.INTER.SOLV>
13.7035

>  <SCORE.INTER.VDW>
-12.3458

>  <SCORE.INTER.norm>
-0.105245

>  <SCORE.INTRA>
13.4185

>  <SCORE.INTRA.DIHEDRAL>
5.44145

>  <SCORE.INTRA.DIHEDRAL.0>
9.37739

>  <SCORE.INTRA.POLAR>
0

>  <SCORE.INTRA.POLAR.0>
0

>  <SCORE.INTRA.REPUL>
0

>  <SCORE.INTRA.REPUL.0>
0

>  <SCORE.INTRA.SOLV>
6.5303

>  <SCORE.INTRA.SOLV.lig_0>
-82.9274

>  <SCORE.INTRA.VDW>
7.4326

>  <SCORE.INTRA.VDW.0>
-3.84922

>  <SCORE.INTRA.norm>
0.432854

>  <SCORE.RESTR>
10.2141

>  <SCORE.RESTR.CAVITY>
10.2141

>  <SCORE.RESTR.norm>
0.329487

>  <SCORE.SYSTEM>
0

>  <SCORE.SYSTEM.CONST>
0

>  <SCORE.SYSTEM.DIHEDRAL>
0

>  <SCORE.SYSTEM.SOLV>
0

>  <SCORE.SYSTEM.norm>
0

>  <SCORE.heavy>
31

>  <SCORE.norm>
0.657096

>  <RMSD>
34.263

$$$$
2o3x_lig
 OpenBabel11021811463D
libRbt.so/2013.1/901 2013/11/27
 31 33  0  0  0  0  0  0  0  0999 V2000
    4.7657   34.3579   17.0845 C   0  0  2  0  0  0  0  0  0  0  0  0
    3.4288   34.3122   17.6004 O   0  0  0  0  0  0  0  0  0  0  0  0
    1.1435   36.5741   20.4215 C   0  0  2  0  0  0  0  0  0  0  0  0
    0.7323   37.4019   21.5770 N   0  0  0  0  0  0  0  0  0  0  0  0
    4.5763   38.2624   18.5649 C   0  0  1  0  0  0  0  0  0  0  0  0
    4.7391   33.8654   15.6029 C   0  0  2  0  0  0  0  0  0  0  0  0
    3.6673   34.5242   14.8136 N   0  0  0  0  0  0  0  0  0  0  0  0
    1.6496   35.1599   20.8613 C   0  0  0  0  0  0  0  0  0  0  0  0
    6.1397   38.2461   18.6034 C   0  0  2  0  0  0  0  0  0  0  0  0
    6.7424   37.5728   19.7427 O   0  0  0  0  0  0  0  0  0  0  0  0
    4.5281   32.3421   15.5145 C   0  0  1  0  0  0  0  0  0  0  0  0
    4.5584   31.9151   14.1762 O   0  0  0  0  0  0  0  0  0  0  0  0
    2.0319   34.3507   19.5685 C   0  0  2  0  0  0  0  0  0  0  0  0
    2.5092   32.9752   19.9023 N   0  0  0  0  0  0  0  0  0  0  0  0
    6.3769   39.7440   18.5090 C   0  0  2  0  0  0  0  0  0  0  0  0
    6.1766   40.3941   19.8109 O   0  0  0  0  0  0  0  0  0  0  0  0
    5.5965   31.6288   16.3258 C   0  0  2  0  0  0  0  0  0  0  0  0
    5.4217   30.2519   16.2287 O   0  0  0  0  0  0  0  0  0  0  0  0
    3.1534   35.0836   18.7783 C   0  0  2  0  0  0  0  0  0  0  0  0
    5.3488   40.2290   17.4936 C   0  0  2  0  0  0  0  0  0  0  0  0
    4.2088   39.4710   17.8888 O   0  0  0  0  0  0  0  0  0  0  0  0
    5.5202   32.0767   17.8128 C   0  0  2  0  0  0  0  0  0  0  0  0
    5.6876   33.5083   17.8983 O   0  0  0  0  0  0  0  0  0  0  0  0
    2.7781   36.5257   18.3835 C   0  0  2  0  0  0  0  0  0  0  0  0
    4.0247   37.1252   17.8831 O   0  0  0  0  0  0  0  0  0  0  0  0
    5.7119   39.9401   15.9975 C   0  0  0  0  0  0  0  0  0  0  0  0
    4.8786   40.7087   15.1346 N   0  0  0  0  0  0  0  0  0  0  0  0
    6.5733   31.4145   18.6708 C   0  0  0  0  0  0  0  0  0  0  0  0
    7.8483   31.7560   18.2637 O   0  0  0  0  0  0  0  0  0  0  0  0
    2.2464   37.3251   19.6539 C   0  0  1  0  0  0  0  0  0  0  0  0
    1.6859   38.5926   19.2792 O   0  0  0  0  0  0  0  0  0  0  0  0
  1  2  1  1  0  0  0
  1  6  1  0  0  0  0
  1 23  1  0  0  0  0
  3  4  1  1  0  0  0
  3  8  1  0  0  0  0
  3 30  1  0  0  0  0
  5  9  1  0  0  0  0
  5 21  1  0  0  0  0
  5 25  1  6  0  0  0
  6  7  1  6  0  0  0
  6 11  1  0  0  0  0
  8 13  1  0  0  0  0
  9 10  1  1  0  0  0
  9 15  1  0  0  0  0
 11 12  1  6  0  0  0
 11 17  1  0  0  0  0
 13 14  1  1  0  0  0
 13 19  1  0  0  0  0
 15 16  1  1  0  0  0
 15 20  1  0  0  0  0
 17 18  1  1  0  0  0
 17 22  1  0  0  0  0
 19  2  1  6  0  0  0
 19 24  1  0  0  0  0
 20 21  1  0  0  0  0
 20 26  1  6  0  0  0
 22 23  1  0  0  0  0
 22 28  1  1  0  0  0
 24 25  1  1  0  0  0
 24 30  1  0  0  0  0
 26 27  1  0  0  0  0
 28 29  1  0  0  0  0
 30 31  1  6  0  0  0
M  END
>  <CHROM.1>
-161.65616633,143.33390435,-149.70433452,-165.59534091,62.51148417,-118.18154541
4.37014300,35.71840647,17.99526590,-1.40456953,0.74385117,0.12550528

>  <Name>
2o3x_lig

>  <RI>
0

>  <Rbt.Current_Directory>
/home/itssahil/PROJECTS/Mol_Feturizer/New_Systems/rnas/2o3x

>  <Rbt.Executable>
rbdock ($Id: //depot/dev/client3/rdock/2013.1/src/exe/rbdock.cxx#4 $)

>  <Rbt.Library>
libRbt.so (2013.1, Build901 2013/11/27)

>  <Rbt.Parameter_File>
/export/apps/rDock/src/rDock_2013.1_src/data/scripts/dock_solv.prm

>  <Rbt.Receptor>
prm/blind_docking_80.prm

>  <SCORE>
15.1653

>  <SCORE.INTER>
-6.29341

>  <SCORE.INTER.CONST>
1

>  <SCORE.INTER.POLAR>
-1.1379

>  <SCORE.INTER.ROT>
6

>  <SCORE.INTER.SOLV>
19.0597

>  <SCORE.INTER.VDW>
-14.3558

>  <SCORE.INTER.norm>
-0.203013

>  <SCORE.INTRA>
5.46636

>  <SCORE.INTRA.DIHEDRAL>
8.62748

>  <SCORE.INTRA.DIHEDRAL.0>
9.37739

>  <SCORE.INTRA.POLAR>
0

>  <SCORE.INTRA.POLAR.0>
0

>  <SCORE.INTRA.REPUL>
0

>  <SCORE.INTRA.REPUL.0>
0

>  <SCORE.INTRA.SOLV>
-1.81901

>  <SCORE.INTRA.SOLV.lig_0>
-82.9274

>  <SCORE.INTRA.VDW>
2.06213

>  <SCORE.INTRA.VDW.0>
-3.84922

>  <SCORE.INTRA.norm>
0.176334

>  <SCORE.RESTR>
15.9923

>  <SCORE.RESTR.CAVITY>
15.9923

>  <SCORE.RESTR.norm>
0.515882

>  <SCORE.SYSTEM>
0

>  <SCORE.SYSTEM.CONST>
0

>  <SCORE.SYSTEM.DIHEDRAL>
0

>  <SCORE.SYSTEM.SOLV>
0

>  <SCORE.SYSTEM.norm>
0

>  <SCORE.heavy>
31

>  <SCORE.norm>
0.489203

>  <RMSD>
34.460

$$$$
2o3x_lig
 OpenBabel11021811463D
libRbt.so/2013.1/901 2013/11/27
 31 33  0  0  0  0  0  0  0  0999 V2000
    0.1859   35.0935   23.7360 C   0  0  2  0  0  0  0  0  0  0  0  0
    0.8887   36.3001   24.0611 O   0  0  0  0  0  0  0  0  0  0  0  0
   -2.5907   38.4931   25.2371 C   0  0  2  0  0  0  0  0  0  0  0  0
   -3.5069   39.5527   25.7139 N   0  0  0  0  0  0  0  0  0  0  0  0
    1.0501   39.6886   23.0620 C   0  0  1  0  0  0  0  0  0  0  0  0
    1.2196   34.0481   23.2097 C   0  0  2  0  0  0  0  0  0  0  0  0
    2.4083   33.9427   24.0938 N   0  0  0  0  0  0  0  0  0  0  0  0
   -1.6267   37.9970   26.3658 C   0  0  0  0  0  0  0  0  0  0  0  0
    1.7205   40.5439   21.9372 C   0  0  2  0  0  0  0  0  0  0  0  0
    3.0016   40.0612   21.4472 O   0  0  0  0  0  0  0  0  0  0  0  0
    1.7099   34.3982   21.7920 C   0  0  1  0  0  0  0  0  0  0  0  0
    2.5990   33.4181   21.3196 O   0  0  0  0  0  0  0  0  0  0  0  0
   -0.7198   36.8579   25.7722 C   0  0  2  0  0  0  0  0  0  0  0  0
    0.2212   36.3145   26.7972 N   0  0  0  0  0  0  0  0  0  0  0  0
    1.7410   41.8800   22.6607 C   0  0  2  0  0  0  0  0  0  0  0  0
    2.8537   41.9462   23.6174 O   0  0  0  0  0  0  0  0  0  0  0  0
    0.5199   34.5333   20.8570 C   0  0  2  0  0  0  0  0  0  0  0  0
    0.9616   34.8269   19.5707 O   0  0  0  0  0  0  0  0  0  0  0  0
    0.1132   37.3934   24.5728 C   0  0  2  0  0  0  0  0  0  0  0  0
    0.3988   41.9440   23.3801 C   0  0  2  0  0  0  0  0  0  0  0  0
    0.2914   40.6063   23.8590 O   0  0  0  0  0  0  0  0  0  0  0  0
   -0.4309   35.6528   21.3673 C   0  0  2  0  0  0  0  0  0  0  0  0
   -0.8696   35.3439   22.7078 O   0  0  0  0  0  0  0  0  0  0  0  0
   -0.7539   37.9918   23.4474 C   0  0  2  0  0  0  0  0  0  0  0  0
    0.1951   38.6584   22.5426 O   0  0  0  0  0  0  0  0  0  0  0  0
   -0.8226   42.3031   22.4677 C   0  0  0  0  0  0  0  0  0  0  0  0
   -1.1979   41.1731   21.6854 N   0  0  0  0  0  0  0  0  0  0  0  0
   -1.6475   35.8235   20.4875 C   0  0  0  0  0  0  0  0  0  0  0  0
   -1.8052   37.1364   20.0883 O   0  0  0  0  0  0  0  0  0  0  0  0
   -1.7858   39.0460   24.0471 C   0  0  1  0  0  0  0  0  0  0  0  0
   -2.7486   39.4550   23.0638 O   0  0  0  0  0  0  0  0  0  0  0  0
  1  2  1  6  0  0  0
  1  6  1  0  0  0  0
  1 23  1  0  0  0  0
  3  4  1  1  0  0  0
  3  8  1  0  0  0  0
  3 30  1  0  0  0  0
  5  9  1  0  0  0  0
  5 21  1  0  0  0  0
  5 25  1  6  0  0  0
  6  7  1  1  0  0  0
  6 11  1  0  0  0  0
  8 13  1  0  0  0  0
  9 10  1  1  0  0  0
  9 15  1  0  0  0  0
 11 12  1  6  0  0  0
 11 17  1  0  0  0  0
 13 14  1  1  0  0  0
 13 19  1  0  0  0  0
 15 16  1  1  0  0  0
 15 20  1  0  0  0  0
 17 18  1  6  0  0  0
 17 22  1  0  0  0  0
 19  2  1  6  0  0  0
 19 24  1  0  0  0  0
 20 21  1  0  0  0  0
 20 26  1  6  0  0  0
 22 23  1  0  0  0  0
 22 28  1  6  0  0  0
 24 25  1  6  0  0  0
 24 30  1  0  0  0  0
 26 27  1  0  0  0  0
 28 29  1  0  0  0  0
 30 31  1  6  0  0  0
M  END
>  <CHROM.1>
-179.71564470,-165.08195772,52.54904210,76.05851457,-127.13213639,-57.89607359
0.06882121,37.82251637,23.02072462,1.33434774,-0.88469708,-3.11835753

>  <Name>
2o3x_lig

>  <RI>
0

>  <Rbt.Current_Directory>
/home/itssahil/PROJECTS/Mol_Feturizer/New_Systems/rnas/2o3x

>  <Rbt.Executable>
rbdock ($Id: //depot/dev/client3/rdock/2013.1/src/exe/rbdock.cxx#4 $)

>  <Rbt.Library>
libRbt.so (2013.1, Build901 2013/11/27)

>  <Rbt.Parameter_File>
/export/apps/rDock/src/rDock_2013.1_src/data/scripts/dock_solv.prm

>  <Rbt.Receptor>
prm/blind_docking_60.prm

>  <SCORE>
11.1503

>  <SCORE.INTER>
0.393261

>  <SCORE.INTER.CONST>
1

>  <SCORE.INTER.POLAR>
-0.484404

>  <SCORE.INTER.ROT>
6

>  <SCORE.INTER.SOLV>
19.908

>  <SCORE.INTER.VDW>
-12.3592

>  <SCORE.INTER.norm>
0.0126858

>  <SCORE.INTRA>
3.63636

>  <SCORE.INTRA.DIHEDRAL>
-1.96225

>  <SCORE.INTRA.DIHEDRAL.0>
9.37739

>  <SCORE.INTRA.POLAR>
0

>  <SCORE.INTRA.POLAR.0>
0

>  <SCORE.INTRA.REPUL>
0.0494921

>  <SCORE.INTRA.REPUL.0>
0

>  <SCORE.INTRA.SOLV>
3.93583

>  <SCORE.INTRA.SOLV.lig_0>
-82.9274

>  <SCORE.INTRA.VDW>
2.40211

>  <SCORE.INTRA.VDW.0>
-3.84922

>  <SCORE.INTRA.norm>
0.117302

>  <SCORE.RESTR>
7.12066

>  <SCORE.RESTR.CAVITY>
7.12066

>  <SCORE.RESTR.norm>
0.229699

>  <SCORE.SYSTEM>
0

>  <SCORE.SYSTEM.CONST>
0

>  <SCORE.SYSTEM.DIHEDRAL>
0

>  <SCORE.SYSTEM.SOLV>
0

>  <SCORE.SYSTEM.norm>
0

>  <SCORE.heavy>
31

>  <SCORE.norm>
0.359686

>  <RMSD>
40.028

$$$$
