ligand
 OpenBabel11021811493D
libRbt.so/2013.1/901 2013/11/27
 11 12  0  0  0  0  0  0  0  0999 V2000
   12.0742   11.6370    8.6533 N   0  0  0  0  0  0  0  0  0  0  0  0
   11.6078   12.8748    8.8844 C   0  0  0  0  0  0  0  0  0  0  0  0
   11.6202   13.3692   10.1778 N   0  0  0  0  0  0  0  0  0  0  0  0
   11.1307   13.6414    7.8902 N   0  0  0  0  0  0  0  0  0  0  0  0
   11.1049   13.1884    6.6151 C   0  0  0  0  0  0  0  0  0  0  0  0
   11.5879   11.8875    6.3245 C   0  0  0  0  0  0  0  0  0  0  0  0
   12.0842   11.1082    7.4116 C   0  0  0  0  0  0  0  0  0  0  0  0
   12.5710    9.8314    7.2053 N   0  0  0  0  0  0  0  0  0  0  0  0
   11.4427   11.6951    4.9902 N   0  0  0  0  0  0  0  0  0  0  0  0
   10.9180   12.7608    4.4545 C   0  0  0  0  0  0  0  0  0  0  0  0
   10.6926   13.7081    5.4150 N   0  0  0  0  0  0  0  0  0  0  0  0
  1  7  2  0  0  0  0
  1  2  1  0  0  0  0
  2  3  1  0  0  0  0
  2  4  2  0  0  0  0
  4  5  1  0  0  0  0
  5  6  2  0  0  0  0
  5 11  1  0  0  0  0
  6  7  1  0  0  0  0
  6  9  1  0  0  0  0
  7  8  1  0  0  0  0
  9 10  1  0  0  0  0
 10 11  2  0  0  0  0
M  END
>  <CHROM.1>
11.53522409,12.33464088,7.11748981,-1.18811440,1.15597782,-1.95706415

>  <Name>
ligand

>  <RI>
0

>  <Rbt.Current_Directory>
/home/itssahil/PROJECTS/Mol_Feturizer/New_Systems/rnas/4FEP

>  <Rbt.Executable>
rbdock ($Id: //depot/dev/client3/rdock/2013.1/src/exe/rbdock.cxx#4 $)

>  <Rbt.Library>
libRbt.so (2013.1, Build901 2013/11/27)

>  <Rbt.Parameter_File>
/export/apps/rDock/src/rDock_2013.1_src/data/scripts/dock_solv.prm

>  <Rbt.Receptor>
prm/pocket_docking_7.prm

>  <SCORE>
-11.1998

>  <SCORE.INTER>
-11.1998

>  <SCORE.INTER.CONST>
1

>  <SCORE.INTER.POLAR>
0

>  <SCORE.INTER.ROT>
0

>  <SCORE.INTER.SOLV>
20.2966

>  <SCORE.INTER.VDW>
-17.832

>  <SCORE.INTER.norm>
-1.01816

>  <SCORE.INTRA>
0

>  <SCORE.INTRA.DIHEDRAL>
0

>  <SCORE.INTRA.DIHEDRAL.0>
0

>  <SCORE.INTRA.POLAR>
0

>  <SCORE.INTRA.POLAR.0>
0

>  <SCORE.INTRA.REPUL>
0

>  <SCORE.INTRA.REPUL.0>
0

>  <SCORE.INTRA.SOLV>
0

>  <SCORE.INTRA.SOLV.lig_0>
-48.9558

>  <SCORE.INTRA.VDW>
0

>  <SCORE.INTRA.VDW.0>
0

>  <SCORE.INTRA.norm>
0

>  <SCORE.RESTR>
0

>  <SCORE.RESTR.CAVITY>
0

>  <SCORE.RESTR.norm>
0

>  <SCORE.SYSTEM>
0

>  <SCORE.SYSTEM.CONST>
0

>  <SCORE.SYSTEM.DIHEDRAL>
0

>  <SCORE.SYSTEM.SOLV>
0

>  <SCORE.SYSTEM.norm>
0

>  <SCORE.heavy>
11

>  <SCORE.norm>
-1.01816

>  <RMSD>
0.480

$$$$
ligand
 OpenBabel11021811493D
libRbt.so/2013.1/901 2013/11/27
 11 12  0  0  0  0  0  0  0  0999 V2000
   12.0725   11.6347    8.6527 N   0  0  0  0  0  0  0  0  0  0  0  0
   11.6084   12.8733    8.8836 C   0  0  0  0  0  0  0  0  0  0  0  0
   11.6199   13.3671   10.1773 N   0  0  0  0  0  0  0  0  0  0  0  0
   11.1345   13.6415    7.8891 N   0  0  0  0  0  0  0  0  0  0  0  0
   11.1097   13.1892    6.6137 C   0  0  0  0  0  0  0  0  0  0  0  0
   11.5904   11.8874    6.3233 C   0  0  0  0  0  0  0  0  0  0  0  0
   12.0833   11.1065    7.4108 C   0  0  0  0  0  0  0  0  0  0  0  0
   12.5677    9.8287    7.2046 N   0  0  0  0  0  0  0  0  0  0  0  0
   11.4468   11.6959    4.9887 N   0  0  0  0  0  0  0  0  0  0  0  0
   10.9252   12.7630    4.4527 C   0  0  0  0  0  0  0  0  0  0  0  0
   10.7003   13.7103    5.4133 N   0  0  0  0  0  0  0  0  0  0  0  0
  1  7  2  0  0  0  0
  1  2  1  0  0  0  0
  2  3  1  0  0  0  0
  2  4  2  0  0  0  0
  4  5  1  0  0  0  0
  5  6  2  0  0  0  0
  5 11  1  0  0  0  0
  6  7  1  0  0  0  0
  6  9  1  0  0  0  0
  7  8  1  0  0  0  0
  9 10  1  0  0  0  0
 10 11  2  0  0  0  0
M  END
>  <CHROM.1>
11.53740799,12.33422167,7.11636832,-1.18966018,1.15854504,-1.95516094

>  <Name>
ligand

>  <RI>
0

>  <Rbt.Current_Directory>
/home/itssahil/PROJECTS/Mol_Feturizer/New_Systems/rnas/4FEP

>  <Rbt.Executable>
rbdock ($Id: //depot/dev/client3/rdock/2013.1/src/exe/rbdock.cxx#4 $)

>  <Rbt.Library>
libRbt.so (2013.1, Build901 2013/11/27)

>  <Rbt.Parameter_File>
/export/apps/rDock/src/rDock_2013.1_src/data/scripts/dock_solv.prm

>  <Rbt.Receptor>
prm/pocket_docking_6.prm

>  <SCORE>
-11.202

>  <SCORE.INTER>
-11.202

>  <SCORE.INTER.CONST>
1

>  <SCORE.INTER.POLAR>
0

>  <SCORE.INTER.ROT>
0

>  <SCORE.INTER.SOLV>
20.3096

>  <SCORE.INTER.VDW>
-17.8378

>  <SCORE.INTER.norm>
-1.01836

>  <SCORE.INTRA>
0

>  <SCORE.INTRA.DIHEDRAL>
0

>  <SCORE.INTRA.DIHEDRAL.0>
0

>  <SCORE.INTRA.POLAR>
0

>  <SCORE.INTRA.POLAR.0>
0

>  <SCORE.INTRA.REPUL>
0

>  <SCORE.INTRA.REPUL.0>
0

>  <SCORE.INTRA.SOLV>
0

>  <SCORE.INTRA.SOLV.lig_0>
-48.9558

>  <SCORE.INTRA.VDW>
0

>  <SCORE.INTRA.VDW.0>
0

>  <SCORE.INTRA.norm>
0

>  <SCORE.RESTR>
0

>  <SCORE.RESTR.CAVITY>
0

>  <SCORE.RESTR.norm>
0

>  <SCORE.SYSTEM>
0

>  <SCORE.SYSTEM.CONST>
0

>  <SCORE.SYSTEM.DIHEDRAL>
0

>  <SCORE.SYSTEM.SOLV>
0

>  <SCORE.SYSTEM.norm>
0

>  <SCORE.heavy>
11

>  <SCORE.norm>
-1.01836

>  <RMSD>
0.482

$$$$
ligand
 OpenBabel11021811493D
libRbt.so/2013.1/901 2013/11/27
 11 12  0  0  0  0  0  0  0  0999 V2000
   12.0774   11.6400    8.6525 N   0  0  0  0  0  0  0  0  0  0  0  0
   11.6080   12.8768    8.8826 C   0  0  0  0  0  0  0  0  0  0  0  0
   11.6180   13.3717   10.1758 N   0  0  0  0  0  0  0  0  0  0  0  0
   11.1302   13.6420    7.8876 N   0  0  0  0  0  0  0  0  0  0  0  0
   11.1067   13.1885    6.6127 C   0  0  0  0  0  0  0  0  0  0  0  0
   11.5930   11.8885    6.3231 C   0  0  0  0  0  0  0  0  0  0  0  0
   12.0899   11.1108    7.4110 C   0  0  0  0  0  0  0  0  0  0  0  0
   12.5798    9.8350    7.2057 N   0  0  0  0  0  0  0  0  0  0  0  0
   11.4496   11.6952    4.9887 N   0  0  0  0  0  0  0  0  0  0  0  0
   10.9230   12.7596    4.4521 C   0  0  0  0  0  0  0  0  0  0  0  0
   10.6945   13.7068    5.4120 N   0  0  0  0  0  0  0  0  0  0  0  0
  1  7  2  0  0  0  0
  1  2  1  0  0  0  0
  2  3  1  0  0  0  0
  2  4  2  0  0  0  0
  4  5  1  0  0  0  0
  5  6  2  0  0  0  0
  5 11  1  0  0  0  0
  6  7  1  0  0  0  0
  6  9  1  0  0  0  0
  7  8  1  0  0  0  0
  9 10  1  0  0  0  0
 10 11  2  0  0  0  0
M  END
>  <CHROM.1>
11.53847597,12.33582382,7.11582877,-1.19258657,1.15427267,-1.95336073

>  <Name>
ligand

>  <RI>
0

>  <Rbt.Current_Directory>
/home/itssahil/PROJECTS/Mol_Feturizer/New_Systems/rnas/4FEP

>  <Rbt.Executable>
rbdock ($Id: //depot/dev/client3/rdock/2013.1/src/exe/rbdock.cxx#4 $)

>  <Rbt.Library>
libRbt.so (2013.1, Build901 2013/11/27)

>  <Rbt.Parameter_File>
/export/apps/rDock/src/rDock_2013.1_src/data/scripts/dock_solv.prm

>  <Rbt.Receptor>
prm/pocket_docking_6.prm

>  <SCORE>
-11.2001

>  <SCORE.INTER>
-11.2001

>  <SCORE.INTER.CONST>
1

>  <SCORE.INTER.POLAR>
0

>  <SCORE.INTER.ROT>
0

>  <SCORE.INTER.SOLV>
20.2735

>  <SCORE.INTER.VDW>
-17.8246

>  <SCORE.INTER.norm>
-1.0182

>  <SCORE.INTRA>
0

>  <SCORE.INTRA.DIHEDRAL>
0

>  <SCORE.INTRA.DIHEDRAL.0>
0

>  <SCORE.INTRA.POLAR>
0

>  <SCORE.INTRA.POLAR.0>
0

>  <SCORE.INTRA.REPUL>
0

>  <SCORE.INTRA.REPUL.0>
0

>  <SCORE.INTRA.SOLV>
0

>  <SCORE.INTRA.SOLV.lig_0>
-48.9558

>  <SCORE.INTRA.VDW>
0

>  <SCORE.INTRA.VDW.0>
0

>  <SCORE.INTRA.norm>
0

>  <SCORE.RESTR>
0

>  <SCORE.RESTR.CAVITY>
0

>  <SCORE.RESTR.norm>
0

>  <SCORE.SYSTEM>
0

>  <SCORE.SYSTEM.CONST>
0

>  <SCORE.SYSTEM.DIHEDRAL>
0

>  <SCORE.SYSTEM.SOLV>
0

>  <SCORE.SYSTEM.norm>
0

>  <SCORE.heavy>
11

>  <SCORE.norm>
-1.0182

>  <RMSD>
0.482

$$$$
ligand
 OpenBabel11021811493D
libRbt.so/2013.1/901 2013/11/27
 11 12  0  0  0  0  0  0  0  0999 V2000
   12.0691   11.6246    8.6525 N   0  0  0  0  0  0  0  0  0  0  0  0
   11.6163   12.8668    8.8865 C   0  0  0  0  0  0  0  0  0  0  0  0
   11.6291   13.3561   10.1819 N   0  0  0  0  0  0  0  0  0  0  0  0
   11.1523   13.6428    7.8934 N   0  0  0  0  0  0  0  0  0  0  0  0
   11.1265   13.1951    6.6164 C   0  0  0  0  0  0  0  0  0  0  0  0
   11.5955   11.8897    6.3228 C   0  0  0  0  0  0  0  0  0  0  0  0
   12.0781   11.1005    7.4089 C   0  0  0  0  0  0  0  0  0  0  0  0
   12.5507    9.8188    7.1996 N   0  0  0  0  0  0  0  0  0  0  0  0
   11.4535   11.7041    4.9872 N   0  0  0  0  0  0  0  0  0  0  0  0
   10.9436   12.7780    4.4535 C   0  0  0  0  0  0  0  0  0  0  0  0
   10.7253   13.7242    5.4167 N   0  0  0  0  0  0  0  0  0  0  0  0
  1  7  2  0  0  0  0
  1  2  1  0  0  0  0
  2  3  1  0  0  0  0
  2  4  2  0  0  0  0
  4  5  1  0  0  0  0
  5  6  2  0  0  0  0
  5 11  1  0  0  0  0
  6  7  1  0  0  0  0
  6  9  1  0  0  0  0
  7  8  1  0  0  0  0
  9 10  1  0  0  0  0
 10 11  2  0  0  0  0
M  END
>  <CHROM.1>
11.54471823,12.33436046,7.11726149,-1.18667121,1.16839023,-1.95453172

>  <Name>
ligand

>  <RI>
0

>  <Rbt.Current_Directory>
/home/itssahil/PROJECTS/Mol_Feturizer/New_Systems/rnas/4FEP

>  <Rbt.Executable>
rbdock ($Id: //depot/dev/client3/rdock/2013.1/src/exe/rbdock.cxx#4 $)

>  <Rbt.Library>
libRbt.so (2013.1, Build901 2013/11/27)

>  <Rbt.Parameter_File>
/export/apps/rDock/src/rDock_2013.1_src/data/scripts/dock_solv.prm

>  <Rbt.Receptor>
prm/blind_docking_100.prm

>  <SCORE>
-11.1653

>  <SCORE.INTER>
-11.1653

>  <SCORE.INTER.CONST>
1

>  <SCORE.INTER.POLAR>
0

>  <SCORE.INTER.ROT>
0

>  <SCORE.INTER.SOLV>
20.3655

>  <SCORE.INTER.VDW>
-17.832

>  <SCORE.INTER.norm>
-1.01503

>  <SCORE.INTRA>
0

>  <SCORE.INTRA.DIHEDRAL>
0

>  <SCORE.INTRA.DIHEDRAL.0>
0

>  <SCORE.INTRA.POLAR>
0

>  <SCORE.INTRA.POLAR.0>
0

>  <SCORE.INTRA.REPUL>
0

>  <SCORE.INTRA.REPUL.0>
0

>  <SCORE.INTRA.SOLV>
0

>  <SCORE.INTRA.SOLV.lig_0>
-48.9558

>  <SCORE.INTRA.VDW>
0

>  <SCORE.INTRA.VDW.0>
0

>  <SCORE.INTRA.norm>
0

>  <SCORE.RESTR>
0

>  <SCORE.RESTR.CAVITY>
0

>  <SCORE.RESTR.norm>
0

>  <SCORE.SYSTEM>
0

>  <SCORE.SYSTEM.CONST>
0

>  <SCORE.SYSTEM.DIHEDRAL>
0

>  <SCORE.SYSTEM.SOLV>
0

>  <SCORE.SYSTEM.norm>
0

>  <SCORE.heavy>
11

>  <SCORE.norm>
-1.01503

>  <RMSD>
0.483

$$$$
ligand
 OpenBabel11021811493D
libRbt.so/2013.1/901 2013/11/27
 11 12  0  0  0  0  0  0  0  0999 V2000
   12.0697   11.6379    8.6521 N   0  0  0  0  0  0  0  0  0  0  0  0
   11.6049   12.8766    8.8809 C   0  0  0  0  0  0  0  0  0  0  0  0
   11.6142   13.3718   10.1741 N   0  0  0  0  0  0  0  0  0  0  0  0
   11.1323   13.6435    7.8848 N   0  0  0  0  0  0  0  0  0  0  0  0
   11.1097   13.1897    6.6099 C   0  0  0  0  0  0  0  0  0  0  0  0
   11.5913   11.8877    6.3217 C   0  0  0  0  0  0  0  0  0  0  0  0
   12.0827   11.1082    7.4109 C   0  0  0  0  0  0  0  0  0  0  0  0
   12.5677    9.8304    7.2069 N   0  0  0  0  0  0  0  0  0  0  0  0
   11.4499   11.6947    4.9871 N   0  0  0  0  0  0  0  0  0  0  0  0
   10.9288   12.7610    4.4490 C   0  0  0  0  0  0  0  0  0  0  0  0
   10.7021   13.7094    5.4082 N   0  0  0  0  0  0  0  0  0  0  0  0
  1  7  2  0  0  0  0
  1  2  1  0  0  0  0
  2  3  1  0  0  0  0
  2  4  2  0  0  0  0
  4  5  1  0  0  0  0
  5  6  2  0  0  0  0
  5 11  1  0  0  0  0
  6  7  1  0  0  0  0
  6  9  1  0  0  0  0
  7  8  1  0  0  0  0
  9 10  1  0  0  0  0
 10 11  2  0  0  0  0
M  END
>  <CHROM.1>
11.53686368,12.33548029,7.11418560,-1.19366991,1.15885933,-1.95263156

>  <Name>
ligand

>  <RI>
0

>  <Rbt.Current_Directory>
/home/itssahil/PROJECTS/Mol_Feturizer/New_Systems/rnas/4FEP

>  <Rbt.Executable>
rbdock ($Id: //depot/dev/client3/rdock/2013.1/src/exe/rbdock.cxx#4 $)

>  <Rbt.Library>
libRbt.so (2013.1, Build901 2013/11/27)

>  <Rbt.Parameter_File>
/export/apps/rDock/src/rDock_2013.1_src/data/scripts/dock_solv.prm

>  <Rbt.Receptor>
prm/pocket_docking_5.prm

>  <SCORE>
-11.2016

>  <SCORE.INTER>
-11.2016

>  <SCORE.INTER.CONST>
1

>  <SCORE.INTER.POLAR>
0

>  <SCORE.INTER.ROT>
0

>  <SCORE.INTER.SOLV>
20.3179

>  <SCORE.INTER.VDW>
-17.8404

>  <SCORE.INTER.norm>
-1.01833

>  <SCORE.INTRA>
0

>  <SCORE.INTRA.DIHEDRAL>
0

>  <SCORE.INTRA.DIHEDRAL.0>
0

>  <SCORE.INTRA.POLAR>
0

>  <SCORE.INTRA.POLAR.0>
0

>  <SCORE.INTRA.REPUL>
0

>  <SCORE.INTRA.REPUL.0>
0

>  <SCORE.INTRA.SOLV>
0

>  <SCORE.INTRA.SOLV.lig_0>
-48.9558

>  <SCORE.INTRA.VDW>
0

>  <SCORE.INTRA.VDW.0>
0

>  <SCORE.INTRA.norm>
0

>  <SCORE.RESTR>
0

>  <SCORE.RESTR.CAVITY>
0

>  <SCORE.RESTR.norm>
0

>  <SCORE.SYSTEM>
0

>  <SCORE.SYSTEM.CONST>
0

>  <SCORE.SYSTEM.DIHEDRAL>
0

>  <SCORE.SYSTEM.SOLV>
0

>  <SCORE.SYSTEM.norm>
0

>  <SCORE.heavy>
11

>  <SCORE.norm>
-1.01833

>  <RMSD>
0.484

$$$$
ligand
 OpenBabel11021811493D
libRbt.so/2013.1/901 2013/11/27
 11 12  0  0  0  0  0  0  0  0999 V2000
   12.0624   11.6313    8.6496 N   0  0  0  0  0  0  0  0  0  0  0  0
   11.5971   12.8695    8.8807 C   0  0  0  0  0  0  0  0  0  0  0  0
   11.6048   13.3618   10.1750 N   0  0  0  0  0  0  0  0  0  0  0  0
   11.1257   13.6386    7.8857 N   0  0  0  0  0  0  0  0  0  0  0  0
   11.1046   13.1877    6.6098 C   0  0  0  0  0  0  0  0  0  0  0  0
   11.5867   11.8864    6.3192 C   0  0  0  0  0  0  0  0  0  0  0  0
   12.0769   11.1045    7.4072 C   0  0  0  0  0  0  0  0  0  0  0  0
   12.5624    9.8272    7.2009 N   0  0  0  0  0  0  0  0  0  0  0  0
   11.4470   11.6964    4.9840 N   0  0  0  0  0  0  0  0  0  0  0  0
   10.9264   12.7639    4.4477 C   0  0  0  0  0  0  0  0  0  0  0  0
   10.6985   13.7101    5.4087 N   0  0  0  0  0  0  0  0  0  0  0  0
  1  7  2  0  0  0  0
  1  2  1  0  0  0  0
  2  3  1  0  0  0  0
  2  4  2  0  0  0  0
  4  5  1  0  0  0  0
  5  6  2  0  0  0  0
  5 11  1  0  0  0  0
  6  7  1  0  0  0  0
  6  9  1  0  0  0  0
  7  8  1  0  0  0  0
  9 10  1  0  0  0  0
 10 11  2  0  0  0  0
M  END
>  <CHROM.1>
11.53132288,12.33238260,7.11264442,-1.19660703,1.15919200,-1.94766481

>  <Name>
ligand

>  <RI>
0

>  <Rbt.Current_Directory>
/home/itssahil/PROJECTS/Mol_Feturizer/New_Systems/rnas/4FEP

>  <Rbt.Executable>
rbdock ($Id: //depot/dev/client3/rdock/2013.1/src/exe/rbdock.cxx#4 $)

>  <Rbt.Library>
libRbt.so (2013.1, Build901 2013/11/27)

>  <Rbt.Parameter_File>
/export/apps/rDock/src/rDock_2013.1_src/data/scripts/dock_solv.prm

>  <Rbt.Receptor>
prm/pocket_docking_6.prm

>  <SCORE>
-11.2011

>  <SCORE.INTER>
-11.2012

>  <SCORE.INTER.CONST>
1

>  <SCORE.INTER.POLAR>
0

>  <SCORE.INTER.ROT>
0

>  <SCORE.INTER.SOLV>
20.3222

>  <SCORE.INTER.VDW>
-17.8415

>  <SCORE.INTER.norm>
-1.01829

>  <SCORE.INTRA>
0

>  <SCORE.INTRA.DIHEDRAL>
0

>  <SCORE.INTRA.DIHEDRAL.0>
0

>  <SCORE.INTRA.POLAR>
0

>  <SCORE.INTRA.POLAR.0>
0

>  <SCORE.INTRA.REPUL>
0

>  <SCORE.INTRA.REPUL.0>
0

>  <SCORE.INTRA.SOLV>
0

>  <SCORE.INTRA.SOLV.lig_0>
-48.9558

>  <SCORE.INTRA.VDW>
0

>  <SCORE.INTRA.VDW.0>
0

>  <SCORE.INTRA.norm>
0

>  <SCORE.RESTR>
8.25038e-05

>  <SCORE.RESTR.CAVITY>
8.25038e-05

>  <SCORE.RESTR.norm>
7.50035e-06

>  <SCORE.SYSTEM>
0

>  <SCORE.SYSTEM.CONST>
0

>  <SCORE.SYSTEM.DIHEDRAL>
0

>  <SCORE.SYSTEM.SOLV>
0

>  <SCORE.SYSTEM.norm>
0

>  <SCORE.heavy>
11

>  <SCORE.norm>
-1.01828

>  <RMSD>
0.484

$$$$
ligand
 OpenBabel11021811493D
libRbt.so/2013.1/901 2013/11/27
 11 12  0  0  0  0  0  0  0  0999 V2000
   12.0644   11.6328    8.6483 N   0  0  0  0  0  0  0  0  0  0  0  0
   11.6047   12.8732    8.8781 C   0  0  0  0  0  0  0  0  0  0  0  0
   11.6174   13.3680   10.1714 N   0  0  0  0  0  0  0  0  0  0  0  0
   11.1339   13.6423    7.8827 N   0  0  0  0  0  0  0  0  0  0  0  0
   11.1080   13.1890    6.6077 C   0  0  0  0  0  0  0  0  0  0  0  0
   11.5841   11.8852    6.3186 C   0  0  0  0  0  0  0  0  0  0  0  0
   12.0738   11.1035    7.4069 C   0  0  0  0  0  0  0  0  0  0  0  0
   12.5537    9.8238    7.2020 N   0  0  0  0  0  0  0  0  0  0  0  0
   11.4404   11.6931    4.9840 N   0  0  0  0  0  0  0  0  0  0  0  0
   10.9229   12.7617    4.4469 C   0  0  0  0  0  0  0  0  0  0  0  0
   10.7010   13.7106    5.4067 N   0  0  0  0  0  0  0  0  0  0  0  0
  1  7  2  0  0  0  0
  1  2  1  0  0  0  0
  2  3  1  0  0  0  0
  2  4  2  0  0  0  0
  4  5  1  0  0  0  0
  5  6  2  0  0  0  0
  5 11  1  0  0  0  0
  6  7  1  0  0  0  0
  6  9  1  0  0  0  0
  7  8  1  0  0  0  0
  9 10  1  0  0  0  0
 10 11  2  0  0  0  0
M  END
>  <CHROM.1>
11.53244359,12.33292015,7.11125250,-1.18723327,1.16202177,-1.95822603

>  <Name>
ligand

>  <RI>
0

>  <Rbt.Current_Directory>
/home/itssahil/PROJECTS/Mol_Feturizer/New_Systems/rnas/4FEP

>  <Rbt.Executable>
rbdock ($Id: //depot/dev/client3/rdock/2013.1/src/exe/rbdock.cxx#4 $)

>  <Rbt.Library>
libRbt.so (2013.1, Build901 2013/11/27)

>  <Rbt.Parameter_File>
/export/apps/rDock/src/rDock_2013.1_src/data/scripts/dock_solv.prm

>  <Rbt.Receptor>
prm/pocket_docking_3.prm

>  <SCORE>
-11.2009

>  <SCORE.INTER>
-11.2009

>  <SCORE.INTER.CONST>
1

>  <SCORE.INTER.POLAR>
0

>  <SCORE.INTER.ROT>
0

>  <SCORE.INTER.SOLV>
20.3589

>  <SCORE.INTER.VDW>
-17.8536

>  <SCORE.INTER.norm>
-1.01826

>  <SCORE.INTRA>
0

>  <SCORE.INTRA.DIHEDRAL>
0

>  <SCORE.INTRA.DIHEDRAL.0>
0

>  <SCORE.INTRA.POLAR>
0

>  <SCORE.INTRA.POLAR.0>
0

>  <SCORE.INTRA.REPUL>
0

>  <SCORE.INTRA.REPUL.0>
0

>  <SCORE.INTRA.SOLV>
0

>  <SCORE.INTRA.SOLV.lig_0>
-48.9558

>  <SCORE.INTRA.VDW>
0

>  <SCORE.INTRA.VDW.0>
0

>  <SCORE.INTRA.norm>
0

>  <SCORE.RESTR>
0

>  <SCORE.RESTR.CAVITY>
0

>  <SCORE.RESTR.norm>
0

>  <SCORE.SYSTEM>
0

>  <SCORE.SYSTEM.CONST>
0

>  <SCORE.SYSTEM.DIHEDRAL>
0

>  <SCORE.SYSTEM.SOLV>
0

>  <SCORE.SYSTEM.norm>
0

>  <SCORE.heavy>
11

>  <SCORE.norm>
-1.01826

>  <RMSD>
0.486

$$$$
ligand
 OpenBabel11021811493D
libRbt.so/2013.1/901 2013/11/27
 11 12  0  0  0  0  0  0  0  0999 V2000
   12.0715   11.6416    8.6496 N   0  0  0  0  0  0  0  0  0  0  0  0
   11.6020   12.8788    8.8776 C   0  0  0  0  0  0  0  0  0  0  0  0
   11.6087   13.3746   10.1706 N   0  0  0  0  0  0  0  0  0  0  0  0
   11.1272   13.6435    7.8809 N   0  0  0  0  0  0  0  0  0  0  0  0
   11.1070   13.1891    6.6061 C   0  0  0  0  0  0  0  0  0  0  0  0
   11.5935   11.8888    6.3188 C   0  0  0  0  0  0  0  0  0  0  0  0
   12.0871   11.1115    7.4086 C   0  0  0  0  0  0  0  0  0  0  0  0
   12.5769    9.8354    7.2054 N   0  0  0  0  0  0  0  0  0  0  0  0
   11.4536   11.6947    4.9841 N   0  0  0  0  0  0  0  0  0  0  0  0
   10.9289   12.7589    4.4454 C   0  0  0  0  0  0  0  0  0  0  0  0
   10.6982   13.7068    5.4040 N   0  0  0  0  0  0  0  0  0  0  0  0
  1  7  2  0  0  0  0
  1  2  1  0  0  0  0
  2  3  1  0  0  0  0
  2  4  2  0  0  0  0
  4  5  1  0  0  0  0
  5  6  2  0  0  0  0
  5 11  1  0  0  0  0
  6  7  1  0  0  0  0
  6  9  1  0  0  0  0
  7  8  1  0  0  0  0
  9 10  1  0  0  0  0
 10 11  2  0  0  0  0
M  END
>  <CHROM.1>
11.53698313,12.33666061,7.11104844,-1.19838260,1.15569444,-1.94872988

>  <Name>
ligand

>  <RI>
0

>  <Rbt.Current_Directory>
/home/itssahil/PROJECTS/Mol_Feturizer/New_Systems/rnas/4FEP

>  <Rbt.Executable>
rbdock ($Id: //depot/dev/client3/rdock/2013.1/src/exe/rbdock.cxx#4 $)

>  <Rbt.Library>
libRbt.so (2013.1, Build901 2013/11/27)

>  <Rbt.Parameter_File>
/export/apps/rDock/src/rDock_2013.1_src/data/scripts/dock_solv.prm

>  <Rbt.Receptor>
prm/blind_docking_60.prm

>  <SCORE>
-11.2

>  <SCORE.INTER>
-11.2

>  <SCORE.INTER.CONST>
1

>  <SCORE.INTER.POLAR>
0

>  <SCORE.INTER.ROT>
0

>  <SCORE.INTER.SOLV>
20.2897

>  <SCORE.INTER.VDW>
-17.8299

>  <SCORE.INTER.norm>
-1.01818

>  <SCORE.INTRA>
0

>  <SCORE.INTRA.DIHEDRAL>
0

>  <SCORE.INTRA.DIHEDRAL.0>
0

>  <SCORE.INTRA.POLAR>
0

>  <SCORE.INTRA.POLAR.0>
0

>  <SCORE.INTRA.REPUL>
0

>  <SCORE.INTRA.REPUL.0>
0

>  <SCORE.INTRA.SOLV>
0

>  <SCORE.INTRA.SOLV.lig_0>
-48.9558

>  <SCORE.INTRA.VDW>
0

>  <SCORE.INTRA.VDW.0>
0

>  <SCORE.INTRA.norm>
0

>  <SCORE.RESTR>
0

>  <SCORE.RESTR.CAVITY>
0

>  <SCORE.RESTR.norm>
0

>  <SCORE.SYSTEM>
0

>  <SCORE.SYSTEM.CONST>
0

>  <SCORE.SYSTEM.DIHEDRAL>
0

>  <SCORE.SYSTEM.SOLV>
0

>  <SCORE.SYSTEM.norm>
0

>  <SCORE.heavy>
11

>  <SCORE.norm>
-1.01818

>  <RMSD>
0.487

$$$$
ligand
 OpenBabel11021811493D
libRbt.so/2013.1/901 2013/11/27
 11 12  0  0  0  0  0  0  0  0999 V2000
   12.0667   11.6394    8.6489 N   0  0  0  0  0  0  0  0  0  0  0  0
   11.6014   12.8782    8.8764 C   0  0  0  0  0  0  0  0  0  0  0  0
   11.6085   13.3740   10.1693 N   0  0  0  0  0  0  0  0  0  0  0  0
   11.1303   13.6446    7.8791 N   0  0  0  0  0  0  0  0  0  0  0  0
   11.1097   13.1902    6.6044 C   0  0  0  0  0  0  0  0  0  0  0  0
   11.5920   11.8882    6.3175 C   0  0  0  0  0  0  0  0  0  0  0  0
   12.0818   11.1092    7.4078 C   0  0  0  0  0  0  0  0  0  0  0  0
   12.5673    9.8314    7.2052 N   0  0  0  0  0  0  0  0  0  0  0  0
   11.4528   11.6945    4.9828 N   0  0  0  0  0  0  0  0  0  0  0  0
   10.9324   12.7606    4.4434 C   0  0  0  0  0  0  0  0  0  0  0  0
   10.7040   13.7093    5.4018 N   0  0  0  0  0  0  0  0  0  0  0  0
  1  7  2  0  0  0  0
  1  2  1  0  0  0  0
  2  3  1  0  0  0  0
  2  4  2  0  0  0  0
  4  5  1  0  0  0  0
  5  6  2  0  0  0  0
  5 11  1  0  0  0  0
  6  7  1  0  0  0  0
  6  9  1  0  0  0  0
  7  8  1  0  0  0  0
  9 10  1  0  0  0  0
 10 11  2  0  0  0  0
M  END
>  <CHROM.1>
11.53624945,12.33626236,7.10974370,-1.19753933,1.15931958,-1.94952695

>  <Name>
ligand

>  <RI>
0

>  <Rbt.Current_Directory>
/home/itssahil/PROJECTS/Mol_Feturizer/New_Systems/rnas/4FEP

>  <Rbt.Executable>
rbdock ($Id: //depot/dev/client3/rdock/2013.1/src/exe/rbdock.cxx#4 $)

>  <Rbt.Library>
libRbt.so (2013.1, Build901 2013/11/27)

>  <Rbt.Parameter_File>
/export/apps/rDock/src/rDock_2013.1_src/data/scripts/dock_solv.prm

>  <Rbt.Receptor>
prm/pocket_docking_3.prm

>  <SCORE>
-11.201

>  <SCORE.INTER>
-11.201

>  <SCORE.INTER.CONST>
1

>  <SCORE.INTER.POLAR>
0

>  <SCORE.INTER.ROT>
0

>  <SCORE.INTER.SOLV>
20.3233

>  <SCORE.INTER.VDW>
-17.8417

>  <SCORE.INTER.norm>
-1.01827

>  <SCORE.INTRA>
0

>  <SCORE.INTRA.DIHEDRAL>
0

>  <SCORE.INTRA.DIHEDRAL.0>
0

>  <SCORE.INTRA.POLAR>
0

>  <SCORE.INTRA.POLAR.0>
0

>  <SCORE.INTRA.REPUL>
0

>  <SCORE.INTRA.REPUL.0>
0

>  <SCORE.INTRA.SOLV>
0

>  <SCORE.INTRA.SOLV.lig_0>
-48.9558

>  <SCORE.INTRA.VDW>
0

>  <SCORE.INTRA.VDW.0>
0

>  <SCORE.INTRA.norm>
0

>  <SCORE.RESTR>
0

>  <SCORE.RESTR.CAVITY>
0

>  <SCORE.RESTR.norm>
0

>  <SCORE.SYSTEM>
0

>  <SCORE.SYSTEM.CONST>
0

>  <SCORE.SYSTEM.DIHEDRAL>
0

>  <SCORE.SYSTEM.SOLV>
0

>  <SCORE.SYSTEM.norm>
0

>  <SCORE.heavy>
11

>  <SCORE.norm>
-1.01827

>  <RMSD>
0.488

$$$$
ligand
 OpenBabel11021811493D
libRbt.so/2013.1/901 2013/11/27
 11 12  0  0  0  0  0  0  0  0999 V2000
   12.0648   11.6330    8.6454 N   0  0  0  0  0  0  0  0  0  0  0  0
   11.6044   12.8733    8.8750 C   0  0  0  0  0  0  0  0  0  0  0  0
   11.6178   13.3686   10.1681 N   0  0  0  0  0  0  0  0  0  0  0  0
   11.1323   13.6416    7.8797 N   0  0  0  0  0  0  0  0  0  0  0  0
   11.1057   13.1878    6.6049 C   0  0  0  0  0  0  0  0  0  0  0  0
   11.5826   11.8842    6.3159 C   0  0  0  0  0  0  0  0  0  0  0  0
   12.0736   11.1033    7.4042 C   0  0  0  0  0  0  0  0  0  0  0  0
   12.5541    9.8238    7.1994 N   0  0  0  0  0  0  0  0  0  0  0  0
   11.4379   11.6915    4.9816 N   0  0  0  0  0  0  0  0  0  0  0  0
   10.9193   12.7595    4.4444 C   0  0  0  0  0  0  0  0  0  0  0  0
   10.6975   13.7087    5.4040 N   0  0  0  0  0  0  0  0  0  0  0  0
  1  7  2  0  0  0  0
  1  2  1  0  0  0  0
  2  3  1  0  0  0  0
  2  4  2  0  0  0  0
  4  5  1  0  0  0  0
  5  6  2  0  0  0  0
  5 11  1  0  0  0  0
  6  7  1  0  0  0  0
  6  9  1  0  0  0  0
  7  8  1  0  0  0  0
  9 10  1  0  0  0  0
 10 11  2  0  0  0  0
M  END
>  <CHROM.1>
11.53115805,12.33222711,7.10845543,-1.18610618,1.16111708,-1.95964660

>  <Name>
ligand

>  <RI>
0

>  <Rbt.Current_Directory>
/home/itssahil/PROJECTS/Mol_Feturizer/New_Systems/rnas/4FEP

>  <Rbt.Executable>
rbdock ($Id: //depot/dev/client3/rdock/2013.1/src/exe/rbdock.cxx#4 $)

>  <Rbt.Library>
libRbt.so (2013.1, Build901 2013/11/27)

>  <Rbt.Parameter_File>
/export/apps/rDock/src/rDock_2013.1_src/data/scripts/dock_solv.prm

>  <Rbt.Receptor>
prm/pocket_docking_3.prm

>  <SCORE>
-11.2005

>  <SCORE.INTER>
-11.2005

>  <SCORE.INTER.CONST>
1

>  <SCORE.INTER.POLAR>
0

>  <SCORE.INTER.ROT>
0

>  <SCORE.INTER.SOLV>
20.3548

>  <SCORE.INTER.VDW>
-17.8519

>  <SCORE.INTER.norm>
-1.01823

>  <SCORE.INTRA>
0

>  <SCORE.INTRA.DIHEDRAL>
0

>  <SCORE.INTRA.DIHEDRAL.0>
0

>  <SCORE.INTRA.POLAR>
0

>  <SCORE.INTRA.POLAR.0>
0

>  <SCORE.INTRA.REPUL>
0

>  <SCORE.INTRA.REPUL.0>
0

>  <SCORE.INTRA.SOLV>
0

>  <SCORE.INTRA.SOLV.lig_0>
-48.9558

>  <SCORE.INTRA.VDW>
0

>  <SCORE.INTRA.VDW.0>
0

>  <SCORE.INTRA.norm>
0

>  <SCORE.RESTR>
0

>  <SCORE.RESTR.CAVITY>
0

>  <SCORE.RESTR.norm>
0

>  <SCORE.SYSTEM>
0

>  <SCORE.SYSTEM.CONST>
0

>  <SCORE.SYSTEM.DIHEDRAL>
0

>  <SCORE.SYSTEM.SOLV>
0

>  <SCORE.SYSTEM.norm>
0

>  <SCORE.heavy>
11

>  <SCORE.norm>
-1.01823

>  <RMSD>
0.488

$$$$
ligand
 OpenBabel11021811493D
libRbt.so/2013.1/901 2013/11/27
 11 12  0  0  0  0  0  0  0  0999 V2000
   12.0709   11.6347    8.6450 N   0  0  0  0  0  0  0  0  0  0  0  0
   11.6106   12.8748    8.8758 C   0  0  0  0  0  0  0  0  0  0  0  0
   11.6259   13.3695   10.1691 N   0  0  0  0  0  0  0  0  0  0  0  0
   11.1368   13.6434    7.8816 N   0  0  0  0  0  0  0  0  0  0  0  0
   11.1082   13.1901    6.6066 C   0  0  0  0  0  0  0  0  0  0  0  0
   11.5849   11.8868    6.3163 C   0  0  0  0  0  0  0  0  0  0  0  0
   12.0779   11.1055    7.4035 C   0  0  0  0  0  0  0  0  0  0  0  0
   12.5584    9.8262    7.1974 N   0  0  0  0  0  0  0  0  0  0  0  0
   11.4382   11.6946    4.9821 N   0  0  0  0  0  0  0  0  0  0  0  0
   10.9184   12.7627    4.4463 C   0  0  0  0  0  0  0  0  0  0  0  0
   10.6979   13.7114    5.4066 N   0  0  0  0  0  0  0  0  0  0  0  0
  1  7  2  0  0  0  0
  1  2  1  0  0  0  0
  2  3  1  0  0  0  0
  2  4  2  0  0  0  0
  4  5  1  0  0  0  0
  5  6  2  0  0  0  0
  5 11  1  0  0  0  0
  6  7  1  0  0  0  0
  6  9  1  0  0  0  0
  7  8  1  0  0  0  0
  9 10  1  0  0  0  0
 10 11  2  0  0  0  0
M  END
>  <CHROM.1>
11.53466495,12.33440979,7.10914014,-1.18260035,1.16027214,-1.96245018

>  <Name>
ligand

>  <RI>
0

>  <Rbt.Current_Directory>
/home/itssahil/PROJECTS/Mol_Feturizer/New_Systems/rnas/4FEP

>  <Rbt.Executable>
rbdock ($Id: //depot/dev/client3/rdock/2013.1/src/exe/rbdock.cxx#4 $)

>  <Rbt.Library>
libRbt.so (2013.1, Build901 2013/11/27)

>  <Rbt.Parameter_File>
/export/apps/rDock/src/rDock_2013.1_src/data/scripts/dock_solv.prm

>  <Rbt.Receptor>
prm/pocket_docking_5.prm

>  <SCORE>
-11.1983

>  <SCORE.INTER>
-11.1983

>  <SCORE.INTER.CONST>
1

>  <SCORE.INTER.POLAR>
0

>  <SCORE.INTER.ROT>
0

>  <SCORE.INTER.SOLV>
20.3415

>  <SCORE.INTER.VDW>
-17.8461

>  <SCORE.INTER.norm>
-1.01803

>  <SCORE.INTRA>
0

>  <SCORE.INTRA.DIHEDRAL>
0

>  <SCORE.INTRA.DIHEDRAL.0>
0

>  <SCORE.INTRA.POLAR>
0

>  <SCORE.INTRA.POLAR.0>
0

>  <SCORE.INTRA.REPUL>
0

>  <SCORE.INTRA.REPUL.0>
0

>  <SCORE.INTRA.SOLV>
0

>  <SCORE.INTRA.SOLV.lig_0>
-48.9558

>  <SCORE.INTRA.VDW>
0

>  <SCORE.INTRA.VDW.0>
0

>  <SCORE.INTRA.norm>
0

>  <SCORE.RESTR>
0

>  <SCORE.RESTR.CAVITY>
0

>  <SCORE.RESTR.norm>
0

>  <SCORE.SYSTEM>
0

>  <SCORE.SYSTEM.CONST>
0

>  <SCORE.SYSTEM.DIHEDRAL>
0

>  <SCORE.SYSTEM.SOLV>
0

>  <SCORE.SYSTEM.norm>
0

>  <SCORE.heavy>
11

>  <SCORE.norm>
-1.01803

>  <RMSD>
0.488

$$$$
ligand
 OpenBabel11021811493D
libRbt.so/2013.1/901 2013/11/27
 11 12  0  0  0  0  0  0  0  0999 V2000
   12.0675   11.6249    8.6457 N   0  0  0  0  0  0  0  0  0  0  0  0
   11.6010   12.8638    8.8702 C   0  0  0  0  0  0  0  0  0  0  0  0
   11.6023   13.3606   10.1628 N   0  0  0  0  0  0  0  0  0  0  0  0
   11.1343   13.6294    7.8703 N   0  0  0  0  0  0  0  0  0  0  0  0
   11.1195   13.1741    6.5958 C   0  0  0  0  0  0  0  0  0  0  0  0
   11.6032   11.8719    6.3121 C   0  0  0  0  0  0  0  0  0  0  0  0
   12.0881   11.0938    7.4052 C   0  0  0  0  0  0  0  0  0  0  0  0
   12.5747    9.8159    7.2057 N   0  0  0  0  0  0  0  0  0  0  0  0
   11.4699   11.6772    4.9769 N   0  0  0  0  0  0  0  0  0  0  0  0
   10.9519   12.7428    4.4344 C   0  0  0  0  0  0  0  0  0  0  0  0
   10.7192   13.6923    5.3910 N   0  0  0  0  0  0  0  0  0  0  0  0
  1  7  2  0  0  0  0
  1  2  1  0  0  0  0
  2  3  1  0  0  0  0
  2  4  2  0  0  0  0
  4  5  1  0  0  0  0
  5  6  2  0  0  0  0
  5 11  1  0  0  0  0
  6  7  1  0  0  0  0
  6  9  1  0  0  0  0
  7  8  1  0  0  0  0
  9 10  1  0  0  0  0
 10 11  2  0  0  0  0
M  END
>  <CHROM.1>
11.54383617,12.32058512,7.10370899,-1.20806615,1.16086993,-1.94061903

>  <Name>
ligand

>  <RI>
0

>  <Rbt.Current_Directory>
/home/itssahil/PROJECTS/Mol_Feturizer/New_Systems/rnas/4FEP

>  <Rbt.Executable>
rbdock ($Id: //depot/dev/client3/rdock/2013.1/src/exe/rbdock.cxx#4 $)

>  <Rbt.Library>
libRbt.so (2013.1, Build901 2013/11/27)

>  <Rbt.Parameter_File>
/export/apps/rDock/src/rDock_2013.1_src/data/scripts/dock_solv.prm

>  <Rbt.Receptor>
prm/pocket_docking_6.prm

>  <SCORE>
-11.1813

>  <SCORE.INTER>
-11.1813

>  <SCORE.INTER.CONST>
1

>  <SCORE.INTER.POLAR>
0

>  <SCORE.INTER.ROT>
0

>  <SCORE.INTER.SOLV>
20.2892

>  <SCORE.INTER.VDW>
-17.8173

>  <SCORE.INTER.norm>
-1.01648

>  <SCORE.INTRA>
0

>  <SCORE.INTRA.DIHEDRAL>
0

>  <SCORE.INTRA.DIHEDRAL.0>
0

>  <SCORE.INTRA.POLAR>
0

>  <SCORE.INTRA.POLAR.0>
0

>  <SCORE.INTRA.REPUL>
0

>  <SCORE.INTRA.REPUL.0>
0

>  <SCORE.INTRA.SOLV>
0

>  <SCORE.INTRA.SOLV.lig_0>
-48.9558

>  <SCORE.INTRA.VDW>
0

>  <SCORE.INTRA.VDW.0>
0

>  <SCORE.INTRA.norm>
0

>  <SCORE.RESTR>
0

>  <SCORE.RESTR.CAVITY>
0

>  <SCORE.RESTR.norm>
0

>  <SCORE.SYSTEM>
0

>  <SCORE.SYSTEM.CONST>
0

>  <SCORE.SYSTEM.DIHEDRAL>
0

>  <SCORE.SYSTEM.SOLV>
0

>  <SCORE.SYSTEM.norm>
0

>  <SCORE.heavy>
11

>  <SCORE.norm>
-1.01648

>  <RMSD>
0.489

$$$$
ligand
 OpenBabel11021811493D
libRbt.so/2013.1/901 2013/11/27
 11 12  0  0  0  0  0  0  0  0999 V2000
   12.0598   11.6396    8.6475 N   0  0  0  0  0  0  0  0  0  0  0  0
   11.5941   12.8786    8.8736 C   0  0  0  0  0  0  0  0  0  0  0  0
   11.5997   13.3753   10.1661 N   0  0  0  0  0  0  0  0  0  0  0  0
   11.1243   13.6442    7.8752 N   0  0  0  0  0  0  0  0  0  0  0  0
   11.1053   13.1890    6.6008 C   0  0  0  0  0  0  0  0  0  0  0  0
   11.5879   11.8867    6.3154 C   0  0  0  0  0  0  0  0  0  0  0  0
   12.0764   11.1086    7.4069 C   0  0  0  0  0  0  0  0  0  0  0  0
   12.5622    9.8306    7.2058 N   0  0  0  0  0  0  0  0  0  0  0  0
   11.4503   11.6921    4.9806 N   0  0  0  0  0  0  0  0  0  0  0  0
   10.9306   12.7578    4.4399 C   0  0  0  0  0  0  0  0  0  0  0  0
   10.7010   13.7072    5.3973 N   0  0  0  0  0  0  0  0  0  0  0  0
  1  7  2  0  0  0  0
  1  2  1  0  0  0  0
  2  3  1  0  0  0  0
  2  4  2  0  0  0  0
  4  5  1  0  0  0  0
  5  6  2  0  0  0  0
  5 11  1  0  0  0  0
  6  7  1  0  0  0  0
  6  9  1  0  0  0  0
  7  8  1  0  0  0  0
  9 10  1  0  0  0  0
 10 11  2  0  0  0  0
M  END
>  <CHROM.1>
11.53118682,12.33537690,7.10725443,-1.20036703,1.15974650,-1.94764981

>  <Name>
ligand

>  <RI>
0

>  <Rbt.Current_Directory>
/home/itssahil/PROJECTS/Mol_Feturizer/New_Systems/rnas/4FEP

>  <Rbt.Executable>
rbdock ($Id: //depot/dev/client3/rdock/2013.1/src/exe/rbdock.cxx#4 $)

>  <Rbt.Library>
libRbt.so (2013.1, Build901 2013/11/27)

>  <Rbt.Parameter_File>
/export/apps/rDock/src/rDock_2013.1_src/data/scripts/dock_solv.prm

>  <Rbt.Receptor>
prm/blind_docking_60.prm

>  <SCORE>
-11.1996

>  <SCORE.INTER>
-11.1996

>  <SCORE.INTER.CONST>
1

>  <SCORE.INTER.POLAR>
0

>  <SCORE.INTER.ROT>
0

>  <SCORE.INTER.SOLV>
20.3422

>  <SCORE.INTER.VDW>
-17.8472

>  <SCORE.INTER.norm>
-1.01815

>  <SCORE.INTRA>
0

>  <SCORE.INTRA.DIHEDRAL>
0

>  <SCORE.INTRA.DIHEDRAL.0>
0

>  <SCORE.INTRA.POLAR>
0

>  <SCORE.INTRA.POLAR.0>
0

>  <SCORE.INTRA.REPUL>
0

>  <SCORE.INTRA.REPUL.0>
0

>  <SCORE.INTRA.SOLV>
0

>  <SCORE.INTRA.SOLV.lig_0>
-48.9558

>  <SCORE.INTRA.VDW>
0

>  <SCORE.INTRA.VDW.0>
0

>  <SCORE.INTRA.norm>
0

>  <SCORE.RESTR>
0

>  <SCORE.RESTR.CAVITY>
0

>  <SCORE.RESTR.norm>
0

>  <SCORE.SYSTEM>
0

>  <SCORE.SYSTEM.CONST>
0

>  <SCORE.SYSTEM.DIHEDRAL>
0

>  <SCORE.SYSTEM.SOLV>
0

>  <SCORE.SYSTEM.norm>
0

>  <SCORE.heavy>
11

>  <SCORE.norm>
-1.01815

>  <RMSD>
0.490

$$$$
ligand
 OpenBabel11021811493D
libRbt.so/2013.1/901 2013/11/27
 11 12  0  0  0  0  0  0  0  0999 V2000
   12.0656   11.6365    8.6461 N   0  0  0  0  0  0  0  0  0  0  0  0
   11.6039   12.8765    8.8747 C   0  0  0  0  0  0  0  0  0  0  0  0
   11.6145   13.3719   10.1677 N   0  0  0  0  0  0  0  0  0  0  0  0
   11.1331   13.6443    7.8784 N   0  0  0  0  0  0  0  0  0  0  0  0
   11.1091   13.1904    6.6036 C   0  0  0  0  0  0  0  0  0  0  0  0
   11.5875   11.8871    6.3156 C   0  0  0  0  0  0  0  0  0  0  0  0
   12.0771   11.1066    7.4049 C   0  0  0  0  0  0  0  0  0  0  0  0
   12.5590    9.8276    7.2011 N   0  0  0  0  0  0  0  0  0  0  0  0
   11.4455   11.6941    4.9810 N   0  0  0  0  0  0  0  0  0  0  0  0
   10.9270   12.7617    4.4429 C   0  0  0  0  0  0  0  0  0  0  0  0
   10.7027   13.7108    5.4018 N   0  0  0  0  0  0  0  0  0  0  0  0
  1  7  2  0  0  0  0
  1  2  1  0  0  0  0
  2  3  1  0  0  0  0
  2  4  2  0  0  0  0
  4  5  1  0  0  0  0
  5  6  2  0  0  0  0
  5 11  1  0  0  0  0
  6  7  1  0  0  0  0
  6  9  1  0  0  0  0
  7  8  1  0  0  0  0
  9 10  1  0  0  0  0
 10 11  2  0  0  0  0
M  END
>  <CHROM.1>
11.53430370,12.33515552,7.10802661,-1.19109283,1.16109632,-1.95519321

>  <Name>
ligand

>  <RI>
0

>  <Rbt.Current_Directory>
/home/itssahil/PROJECTS/Mol_Feturizer/New_Systems/rnas/4FEP

>  <Rbt.Executable>
rbdock ($Id: //depot/dev/client3/rdock/2013.1/src/exe/rbdock.cxx#4 $)

>  <Rbt.Library>
libRbt.so (2013.1, Build901 2013/11/27)

>  <Rbt.Parameter_File>
/export/apps/rDock/src/rDock_2013.1_src/data/scripts/dock_solv.prm

>  <Rbt.Receptor>
prm/pocket_docking_3.prm

>  <SCORE>
-11.2006

>  <SCORE.INTER>
-11.2006

>  <SCORE.INTER.CONST>
1

>  <SCORE.INTER.POLAR>
0

>  <SCORE.INTER.ROT>
0

>  <SCORE.INTER.SOLV>
20.3464

>  <SCORE.INTER.VDW>
-17.8492

>  <SCORE.INTER.norm>
-1.01823

>  <SCORE.INTRA>
0

>  <SCORE.INTRA.DIHEDRAL>
0

>  <SCORE.INTRA.DIHEDRAL.0>
0

>  <SCORE.INTRA.POLAR>
0

>  <SCORE.INTRA.POLAR.0>
0

>  <SCORE.INTRA.REPUL>
0

>  <SCORE.INTRA.REPUL.0>
0

>  <SCORE.INTRA.SOLV>
0

>  <SCORE.INTRA.SOLV.lig_0>
-48.9558

>  <SCORE.INTRA.VDW>
0

>  <SCORE.INTRA.VDW.0>
0

>  <SCORE.INTRA.norm>
0

>  <SCORE.RESTR>
0

>  <SCORE.RESTR.CAVITY>
0

>  <SCORE.RESTR.norm>
0

>  <SCORE.SYSTEM>
0

>  <SCORE.SYSTEM.CONST>
0

>  <SCORE.SYSTEM.DIHEDRAL>
0

>  <SCORE.SYSTEM.SOLV>
0

>  <SCORE.SYSTEM.norm>
0

>  <SCORE.heavy>
11

>  <SCORE.norm>
-1.01823

>  <RMSD>
0.490

$$$$
ligand
 OpenBabel11021811493D
libRbt.so/2013.1/901 2013/11/27
 11 12  0  0  0  0  0  0  0  0999 V2000
   12.0614   11.6302    8.6443 N   0  0  0  0  0  0  0  0  0  0  0  0
   11.6003   12.8701    8.8748 C   0  0  0  0  0  0  0  0  0  0  0  0
   11.6103   13.3631   10.1688 N   0  0  0  0  0  0  0  0  0  0  0  0
   11.1308   13.6401    7.8797 N   0  0  0  0  0  0  0  0  0  0  0  0
   11.1075   13.1885    6.6040 C   0  0  0  0  0  0  0  0  0  0  0  0
   11.5851   11.8854    6.3140 C   0  0  0  0  0  0  0  0  0  0  0  0
   12.0735   11.1026    7.4022 C   0  0  0  0  0  0  0  0  0  0  0  0
   12.5546    9.8236    7.1964 N   0  0  0  0  0  0  0  0  0  0  0  0
   11.4440   11.6950    4.9789 N   0  0  0  0  0  0  0  0  0  0  0  0
   10.9266   12.7639    4.4423 C   0  0  0  0  0  0  0  0  0  0  0  0
   10.7023   13.7114    5.4029 N   0  0  0  0  0  0  0  0  0  0  0  0
  1  7  2  0  0  0  0
  1  2  1  0  0  0  0
  2  3  1  0  0  0  0
  2  4  2  0  0  0  0
  4  5  1  0  0  0  0
  5  6  2  0  0  0  0
  5 11  1  0  0  0  0
  6  7  1  0  0  0  0
  6  9  1  0  0  0  0
  7  8  1  0  0  0  0
  9 10  1  0  0  0  0
 10 11  2  0  0  0  0
M  END
>  <CHROM.1>
11.53167079,12.33203293,7.10717122,-1.19218270,1.16200817,-1.95235404

>  <Name>
ligand

>  <RI>
0

>  <Rbt.Current_Directory>
/home/itssahil/PROJECTS/Mol_Feturizer/New_Systems/rnas/4FEP

>  <Rbt.Executable>
rbdock ($Id: //depot/dev/client3/rdock/2013.1/src/exe/rbdock.cxx#4 $)

>  <Rbt.Library>
libRbt.so (2013.1, Build901 2013/11/27)

>  <Rbt.Parameter_File>
/export/apps/rDock/src/rDock_2013.1_src/data/scripts/dock_solv.prm

>  <Rbt.Receptor>
prm/pocket_docking_7.prm

>  <SCORE>
-11.2011

>  <SCORE.INTER>
-11.2011

>  <SCORE.INTER.CONST>
1

>  <SCORE.INTER.POLAR>
0

>  <SCORE.INTER.ROT>
0

>  <SCORE.INTER.SOLV>
20.3509

>  <SCORE.INTER.VDW>
-17.8511

>  <SCORE.INTER.norm>
-1.01828

>  <SCORE.INTRA>
0

>  <SCORE.INTRA.DIHEDRAL>
0

>  <SCORE.INTRA.DIHEDRAL.0>
0

>  <SCORE.INTRA.POLAR>
0

>  <SCORE.INTRA.POLAR.0>
0

>  <SCORE.INTRA.REPUL>
0

>  <SCORE.INTRA.REPUL.0>
0

>  <SCORE.INTRA.SOLV>
0

>  <SCORE.INTRA.SOLV.lig_0>
-48.9558

>  <SCORE.INTRA.VDW>
0

>  <SCORE.INTRA.VDW.0>
0

>  <SCORE.INTRA.norm>
0

>  <SCORE.RESTR>
0

>  <SCORE.RESTR.CAVITY>
0

>  <SCORE.RESTR.norm>
0

>  <SCORE.SYSTEM>
0

>  <SCORE.SYSTEM.CONST>
0

>  <SCORE.SYSTEM.DIHEDRAL>
0

>  <SCORE.SYSTEM.SOLV>
0

>  <SCORE.SYSTEM.norm>
0

>  <SCORE.heavy>
11

>  <SCORE.norm>
-1.01828

>  <RMSD>
0.490

$$$$
ligand
 OpenBabel11021811493D
libRbt.so/2013.1/901 2013/11/27
 11 12  0  0  0  0  0  0  0  0999 V2000
   12.0590   11.6312    8.6433 N   0  0  0  0  0  0  0  0  0  0  0  0
   11.5971   12.8708    8.8731 C   0  0  0  0  0  0  0  0  0  0  0  0
   11.6059   13.3644   10.1669 N   0  0  0  0  0  0  0  0  0  0  0  0
   11.1279   13.6402    7.8773 N   0  0  0  0  0  0  0  0  0  0  0  0
   11.1058   13.1881    6.6018 C   0  0  0  0  0  0  0  0  0  0  0  0
   11.5844   11.8852    6.3126 C   0  0  0  0  0  0  0  0  0  0  0  0
   12.0723   11.1031    7.4014 C   0  0  0  0  0  0  0  0  0  0  0  0
   12.5543    9.8243    7.1965 N   0  0  0  0  0  0  0  0  0  0  0  0
   11.4443   11.6943    4.9775 N   0  0  0  0  0  0  0  0  0  0  0  0
   10.9268   12.7627    4.4401 C   0  0  0  0  0  0  0  0  0  0  0  0
   10.7012   13.7104    5.4002 N   0  0  0  0  0  0  0  0  0  0  0  0
  1  7  2  0  0  0  0
  1  2  1  0  0  0  0
  2  3  1  0  0  0  0
  2  4  2  0  0  0  0
  4  5  1  0  0  0  0
  5  6  2  0  0  0  0
  5 11  1  0  0  0  0
  6  7  1  0  0  0  0
  6  9  1  0  0  0  0
  7  8  1  0  0  0  0
  9 10  1  0  0  0  0
 10 11  2  0  0  0  0
M  END
>  <CHROM.1>
11.53008237,12.33212179,7.10555950,-1.19442297,1.16177923,-1.95065671

>  <Name>
ligand

>  <RI>
0

>  <Rbt.Current_Directory>
/home/itssahil/PROJECTS/Mol_Feturizer/New_Systems/rnas/4FEP

>  <Rbt.Executable>
rbdock ($Id: //depot/dev/client3/rdock/2013.1/src/exe/rbdock.cxx#4 $)

>  <Rbt.Library>
libRbt.so (2013.1, Build901 2013/11/27)

>  <Rbt.Parameter_File>
/export/apps/rDock/src/rDock_2013.1_src/data/scripts/dock_solv.prm

>  <Rbt.Receptor>
prm/blind_docking_40.prm

>  <SCORE>
-11.2006

>  <SCORE.INTER>
-11.2006

>  <SCORE.INTER.CONST>
1

>  <SCORE.INTER.POLAR>
0

>  <SCORE.INTER.ROT>
0

>  <SCORE.INTER.SOLV>
20.3534

>  <SCORE.INTER.VDW>
-17.8515

>  <SCORE.INTER.norm>
-1.01824

>  <SCORE.INTRA>
0

>  <SCORE.INTRA.DIHEDRAL>
0

>  <SCORE.INTRA.DIHEDRAL.0>
0

>  <SCORE.INTRA.POLAR>
0

>  <SCORE.INTRA.POLAR.0>
0

>  <SCORE.INTRA.REPUL>
0

>  <SCORE.INTRA.REPUL.0>
0

>  <SCORE.INTRA.SOLV>
0

>  <SCORE.INTRA.SOLV.lig_0>
-48.9558

>  <SCORE.INTRA.VDW>
0

>  <SCORE.INTRA.VDW.0>
0

>  <SCORE.INTRA.norm>
0

>  <SCORE.RESTR>
0

>  <SCORE.RESTR.CAVITY>
0

>  <SCORE.RESTR.norm>
0

>  <SCORE.SYSTEM>
0

>  <SCORE.SYSTEM.CONST>
0

>  <SCORE.SYSTEM.DIHEDRAL>
0

>  <SCORE.SYSTEM.SOLV>
0

>  <SCORE.SYSTEM.norm>
0

>  <SCORE.heavy>
11

>  <SCORE.norm>
-1.01824

>  <RMSD>
0.491

$$$$
ligand
 OpenBabel11021811493D
libRbt.so/2013.1/901 2013/11/27
 11 12  0  0  0  0  0  0  0  0999 V2000
   12.0484   11.6315    8.6447 N   0  0  0  0  0  0  0  0  0  0  0  0
   11.5889   12.8725    8.8716 C   0  0  0  0  0  0  0  0  0  0  0  0
   11.5961   13.3681   10.1646 N   0  0  0  0  0  0  0  0  0  0  0  0
   11.1235   13.6415    7.8736 N   0  0  0  0  0  0  0  0  0  0  0  0
   11.1030   13.1874    6.5988 C   0  0  0  0  0  0  0  0  0  0  0  0
   11.5792   11.8830    6.3126 C   0  0  0  0  0  0  0  0  0  0  0  0
   12.0630   11.1014    7.4036 C   0  0  0  0  0  0  0  0  0  0  0  0
   12.5425    9.8212    7.2017 N   0  0  0  0  0  0  0  0  0  0  0  0
   11.4414   11.6903    4.9775 N   0  0  0  0  0  0  0  0  0  0  0  0
   10.9274   12.7590    4.4374 C   0  0  0  0  0  0  0  0  0  0  0  0
   10.7021   13.7088    5.3955 N   0  0  0  0  0  0  0  0  0  0  0  0
  1  7  2  0  0  0  0
  1  2  1  0  0  0  0
  2  3  1  0  0  0  0
  2  4  2  0  0  0  0
  4  5  1  0  0  0  0
  5  6  2  0  0  0  0
  5 11  1  0  0  0  0
  6  7  1  0  0  0  0
  6  9  1  0  0  0  0
  7  8  1  0  0  0  0
  9 10  1  0  0  0  0
 10 11  2  0  0  0  0
M  END
>  <CHROM.1>
11.52425134,12.33123536,7.10476713,-1.19709463,1.16468458,-1.94976050

>  <Name>
ligand

>  <RI>
0

>  <Rbt.Current_Directory>
/home/itssahil/PROJECTS/Mol_Feturizer/New_Systems/rnas/4FEP

>  <Rbt.Executable>
rbdock ($Id: //depot/dev/client3/rdock/2013.1/src/exe/rbdock.cxx#4 $)

>  <Rbt.Library>
libRbt.so (2013.1, Build901 2013/11/27)

>  <Rbt.Parameter_File>
/export/apps/rDock/src/rDock_2013.1_src/data/scripts/dock_solv.prm

>  <Rbt.Receptor>
prm/pocket_docking_8.prm

>  <SCORE>
-11.1999

>  <SCORE.INTER>
-11.1999

>  <SCORE.INTER.CONST>
1

>  <SCORE.INTER.POLAR>
0

>  <SCORE.INTER.ROT>
0

>  <SCORE.INTER.SOLV>
20.4008

>  <SCORE.INTER.VDW>
-17.8668

>  <SCORE.INTER.norm>
-1.01817

>  <SCORE.INTRA>
0

>  <SCORE.INTRA.DIHEDRAL>
0

>  <SCORE.INTRA.DIHEDRAL.0>
0

>  <SCORE.INTRA.POLAR>
0

>  <SCORE.INTRA.POLAR.0>
0

>  <SCORE.INTRA.REPUL>
0

>  <SCORE.INTRA.REPUL.0>
0

>  <SCORE.INTRA.SOLV>
0

>  <SCORE.INTRA.SOLV.lig_0>
-48.9558

>  <SCORE.INTRA.VDW>
0

>  <SCORE.INTRA.VDW.0>
0

>  <SCORE.INTRA.norm>
0

>  <SCORE.RESTR>
0

>  <SCORE.RESTR.CAVITY>
0

>  <SCORE.RESTR.norm>
0

>  <SCORE.SYSTEM>
0

>  <SCORE.SYSTEM.CONST>
0

>  <SCORE.SYSTEM.DIHEDRAL>
0

>  <SCORE.SYSTEM.SOLV>
0

>  <SCORE.SYSTEM.norm>
0

>  <SCORE.heavy>
11

>  <SCORE.norm>
-1.01817

>  <RMSD>
0.491

$$$$
ligand
 OpenBabel11021811493D
libRbt.so/2013.1/901 2013/11/27
 11 12  0  0  0  0  0  0  0  0999 V2000
   12.0723   11.6445    8.6429 N   0  0  0  0  0  0  0  0  0  0  0  0
   11.5935   12.8779    8.8718 C   0  0  0  0  0  0  0  0  0  0  0  0
   11.5944   13.3719   10.1654 N   0  0  0  0  0  0  0  0  0  0  0  0
   11.1150   13.6407    7.8753 N   0  0  0  0  0  0  0  0  0  0  0  0
   11.1003   13.1879    6.5999 C   0  0  0  0  0  0  0  0  0  0  0  0
   11.5966   11.8915    6.3115 C   0  0  0  0  0  0  0  0  0  0  0  0
   12.0939   11.1163    7.4011 C   0  0  0  0  0  0  0  0  0  0  0  0
   12.5932    9.8440    7.1971 N   0  0  0  0  0  0  0  0  0  0  0  0
   11.4605   11.6983    4.9764 N   0  0  0  0  0  0  0  0  0  0  0  0
   10.9292   12.7595    4.4382 C   0  0  0  0  0  0  0  0  0  0  0  0
   10.6900   13.7044    5.3977 N   0  0  0  0  0  0  0  0  0  0  0  0
  1  7  2  0  0  0  0
  1  2  1  0  0  0  0
  2  3  1  0  0  0  0
  2  4  2  0  0  0  0
  4  5  1  0  0  0  0
  5  6  2  0  0  0  0
  5 11  1  0  0  0  0
  6  7  1  0  0  0  0
  6  9  1  0  0  0  0
  7  8  1  0  0  0  0
  9 10  1  0  0  0  0
 10 11  2  0  0  0  0
M  END
>  <CHROM.1>
11.53552057,12.33784010,7.10435379,-1.20889455,1.14966605,-1.93771909

>  <Name>
ligand

>  <RI>
0

>  <Rbt.Current_Directory>
/home/itssahil/PROJECTS/Mol_Feturizer/New_Systems/rnas/4FEP

>  <Rbt.Executable>
rbdock ($Id: //depot/dev/client3/rdock/2013.1/src/exe/rbdock.cxx#4 $)

>  <Rbt.Library>
libRbt.so (2013.1, Build901 2013/11/27)

>  <Rbt.Parameter_File>
/export/apps/rDock/src/rDock_2013.1_src/data/scripts/dock_solv.prm

>  <Rbt.Receptor>
prm/pocket_docking_8.prm

>  <SCORE>
-11.1924

>  <SCORE.INTER>
-11.1924

>  <SCORE.INTER.CONST>
1

>  <SCORE.INTER.POLAR>
0

>  <SCORE.INTER.ROT>
0

>  <SCORE.INTER.SOLV>
20.2357

>  <SCORE.INTER.VDW>
-17.8068

>  <SCORE.INTER.norm>
-1.01749

>  <SCORE.INTRA>
0

>  <SCORE.INTRA.DIHEDRAL>
0

>  <SCORE.INTRA.DIHEDRAL.0>
0

>  <SCORE.INTRA.POLAR>
0

>  <SCORE.INTRA.POLAR.0>
0

>  <SCORE.INTRA.REPUL>
0

>  <SCORE.INTRA.REPUL.0>
0

>  <SCORE.INTRA.SOLV>
0

>  <SCORE.INTRA.SOLV.lig_0>
-48.9558

>  <SCORE.INTRA.VDW>
0

>  <SCORE.INTRA.VDW.0>
0

>  <SCORE.INTRA.norm>
0

>  <SCORE.RESTR>
0

>  <SCORE.RESTR.CAVITY>
0

>  <SCORE.RESTR.norm>
0

>  <SCORE.SYSTEM>
0

>  <SCORE.SYSTEM.CONST>
0

>  <SCORE.SYSTEM.DIHEDRAL>
0

>  <SCORE.SYSTEM.SOLV>
0

>  <SCORE.SYSTEM.norm>
0

>  <SCORE.heavy>
11

>  <SCORE.norm>
-1.01749

>  <RMSD>
0.493

$$$$
ligand
 OpenBabel11021811493D
libRbt.so/2013.1/901 2013/11/27
 11 12  0  0  0  0  0  0  0  0999 V2000
   12.0561   11.6400    8.6330 N   0  0  0  0  0  0  0  0  0  0  0  0
   11.6147   12.8860    8.8688 C   0  0  0  0  0  0  0  0  0  0  0  0
   11.6330   13.3735   10.1648 N   0  0  0  0  0  0  0  0  0  0  0  0
   11.1570   13.6675    7.8771 N   0  0  0  0  0  0  0  0  0  0  0  0
   11.1261   13.2216    6.5996 C   0  0  0  0  0  0  0  0  0  0  0  0
   11.5830   11.9124    6.3039 C   0  0  0  0  0  0  0  0  0  0  0  0
   12.0593   11.1175    7.3886 C   0  0  0  0  0  0  0  0  0  0  0  0
   12.5202    9.8319    7.1773 N   0  0  0  0  0  0  0  0  0  0  0  0
   11.4384   11.7298    4.9682 N   0  0  0  0  0  0  0  0  0  0  0  0
   10.9378   12.8089    4.4362 C   0  0  0  0  0  0  0  0  0  0  0  0
   10.7288   13.7558    5.4008 N   0  0  0  0  0  0  0  0  0  0  0  0
  1  7  2  0  0  0  0
  1  2  1  0  0  0  0
  2  3  1  0  0  0  0
  2  4  2  0  0  0  0
  4  5  1  0  0  0  0
  5  6  2  0  0  0  0
  5 11  1  0  0  0  0
  6  7  1  0  0  0  0
  6  9  1  0  0  0  0
  7  8  1  0  0  0  0
  9 10  1  0  0  0  0
 10 11  2  0  0  0  0
M  END
>  <CHROM.1>
11.53692378,12.35650873,7.09898617,-1.17597996,1.17646931,-1.96310850

>  <Name>
ligand

>  <RI>
0

>  <Rbt.Current_Directory>
/home/itssahil/PROJECTS/Mol_Feturizer/New_Systems/rnas/4FEP

>  <Rbt.Executable>
rbdock ($Id: //depot/dev/client3/rdock/2013.1/src/exe/rbdock.cxx#4 $)

>  <Rbt.Library>
libRbt.so (2013.1, Build901 2013/11/27)

>  <Rbt.Parameter_File>
/export/apps/rDock/src/rDock_2013.1_src/data/scripts/dock_solv.prm

>  <Rbt.Receptor>
prm/pocket_docking_7.prm

>  <SCORE>
-11.1651

>  <SCORE.INTER>
-11.1651

>  <SCORE.INTER.CONST>
1

>  <SCORE.INTER.POLAR>
0

>  <SCORE.INTER.ROT>
0

>  <SCORE.INTER.SOLV>
20.5014

>  <SCORE.INTER.VDW>
-17.8772

>  <SCORE.INTER.norm>
-1.01501

>  <SCORE.INTRA>
0

>  <SCORE.INTRA.DIHEDRAL>
0

>  <SCORE.INTRA.DIHEDRAL.0>
0

>  <SCORE.INTRA.POLAR>
0

>  <SCORE.INTRA.POLAR.0>
0

>  <SCORE.INTRA.REPUL>
0

>  <SCORE.INTRA.REPUL.0>
0

>  <SCORE.INTRA.SOLV>
0

>  <SCORE.INTRA.SOLV.lig_0>
-48.9558

>  <SCORE.INTRA.VDW>
0

>  <SCORE.INTRA.VDW.0>
0

>  <SCORE.INTRA.norm>
0

>  <SCORE.RESTR>
0

>  <SCORE.RESTR.CAVITY>
0

>  <SCORE.RESTR.norm>
0

>  <SCORE.SYSTEM>
0

>  <SCORE.SYSTEM.CONST>
0

>  <SCORE.SYSTEM.DIHEDRAL>
0

>  <SCORE.SYSTEM.SOLV>
0

>  <SCORE.SYSTEM.norm>
0

>  <SCORE.heavy>
11

>  <SCORE.norm>
-1.01501

>  <RMSD>
0.510

$$$$
ligand
 OpenBabel11021811493D
libRbt.so/2013.1/901 2013/11/27
 11 12  0  0  0  0  0  0  0  0999 V2000
   12.3097   11.7188    8.6241 N   0  0  0  0  0  0  0  0  0  0  0  0
   11.6502   12.8624    8.8691 C   0  0  0  0  0  0  0  0  0  0  0  0
   11.6319   13.3670   10.1585 N   0  0  0  0  0  0  0  0  0  0  0  0
   11.0094   13.5255    7.8927 N   0  0  0  0  0  0  0  0  0  0  0  0
   11.0082   13.0596    6.6219 C   0  0  0  0  0  0  0  0  0  0  0  0
   11.6924   11.8559    6.3171 C   0  0  0  0  0  0  0  0  0  0  0  0
   12.3581   11.1847    7.3857 C   0  0  0  0  0  0  0  0  0  0  0  0
   13.0453   10.0063    7.1647 N   0  0  0  0  0  0  0  0  0  0  0  0
   11.5270   11.6259    4.9911 N   0  0  0  0  0  0  0  0  0  0  0  0
   10.8076   12.5811    4.4733 C   0  0  0  0  0  0  0  0  0  0  0  0
   10.4646   13.4879    5.4381 N   0  0  0  0  0  0  0  0  0  0  0  0
  1  7  2  0  0  0  0
  1  2  1  0  0  0  0
  2  3  1  0  0  0  0
  2  4  2  0  0  0  0
  4  5  1  0  0  0  0
  5  6  2  0  0  0  0
  5 11  1  0  0  0  0
  6  7  1  0  0  0  0
  6  9  1  0  0  0  0
  7  8  1  0  0  0  0
  9 10  1  0  0  0  0
 10 11  2  0  0  0  0
M  END
>  <CHROM.1>
11.59741476,12.29696789,7.10949077,-1.23437130,0.98197016,-1.92465306

>  <Name>
ligand

>  <RI>
0

>  <Rbt.Current_Directory>
/home/itssahil/PROJECTS/Mol_Feturizer/New_Systems/rnas/4FEP

>  <Rbt.Executable>
rbdock ($Id: //depot/dev/client3/rdock/2013.1/src/exe/rbdock.cxx#4 $)

>  <Rbt.Library>
libRbt.so (2013.1, Build901 2013/11/27)

>  <Rbt.Parameter_File>
/export/apps/rDock/src/rDock_2013.1_src/data/scripts/dock_solv.prm

>  <Rbt.Receptor>
prm/pocket_docking_8.prm

>  <SCORE>
-11.0017

>  <SCORE.INTER>
-11.0017

>  <SCORE.INTER.CONST>
1

>  <SCORE.INTER.POLAR>
0

>  <SCORE.INTER.ROT>
0

>  <SCORE.INTER.SOLV>
18.7593

>  <SCORE.INTER.VDW>
-17.1876

>  <SCORE.INTER.norm>
-1.00016

>  <SCORE.INTRA>
0

>  <SCORE.INTRA.DIHEDRAL>
0

>  <SCORE.INTRA.DIHEDRAL.0>
0

>  <SCORE.INTRA.POLAR>
0

>  <SCORE.INTRA.POLAR.0>
0

>  <SCORE.INTRA.REPUL>
0

>  <SCORE.INTRA.REPUL.0>
0

>  <SCORE.INTRA.SOLV>
0

>  <SCORE.INTRA.SOLV.lig_0>
-48.9558

>  <SCORE.INTRA.VDW>
0

>  <SCORE.INTRA.VDW.0>
0

>  <SCORE.INTRA.norm>
0

>  <SCORE.RESTR>
0

>  <SCORE.RESTR.CAVITY>
0

>  <SCORE.RESTR.norm>
0

>  <SCORE.SYSTEM>
0

>  <SCORE.SYSTEM.CONST>
0

>  <SCORE.SYSTEM.DIHEDRAL>
0

>  <SCORE.SYSTEM.SOLV>
0

>  <SCORE.SYSTEM.norm>
0

>  <SCORE.heavy>
11

>  <SCORE.norm>
-1.00016

>  <RMSD>
0.510

$$$$
ligand
 OpenBabel11021811493D
libRbt.so/2013.1/901 2013/11/27
 11 12  0  0  0  0  0  0  0  0999 V2000
   12.0408   11.5900    8.6157 N   0  0  0  0  0  0  0  0  0  0  0  0
   11.6224   12.8471    8.8340 C   0  0  0  0  0  0  0  0  0  0  0  0
   11.6603   13.3561   10.1213 N   0  0  0  0  0  0  0  0  0  0  0  0
   11.1691   13.6192    7.8330 N   0  0  0  0  0  0  0  0  0  0  0  0
   11.1194   13.1523    6.5636 C   0  0  0  0  0  0  0  0  0  0  0  0
   11.5518   11.8308    6.2865 C   0  0  0  0  0  0  0  0  0  0  0  0
   12.0244   11.0464    7.3805 C   0  0  0  0  0  0  0  0  0  0  0  0
   12.4618    9.7499    7.1873 N   0  0  0  0  0  0  0  0  0  0  0  0
   11.3923   11.6280    4.9554 N   0  0  0  0  0  0  0  0  0  0  0  0
   10.9051   12.7062    4.4094 C   0  0  0  0  0  0  0  0  0  0  0  0
   10.7205   13.6727    5.3594 N   0  0  0  0  0  0  0  0  0  0  0  0
  1  7  2  0  0  0  0
  1  2  1  0  0  0  0
  2  3  1  0  0  0  0
  2  4  2  0  0  0  0
  4  5  1  0  0  0  0
  5  6  2  0  0  0  0
  5 11  1  0  0  0  0
  6  7  1  0  0  0  0
  6  9  1  0  0  0  0
  7  8  1  0  0  0  0
  9 10  1  0  0  0  0
 10 11  2  0  0  0  0
M  END
>  <CHROM.1>
11.52017414,12.28900793,7.07422991,-1.13698253,1.18824389,-2.01623260

>  <Name>
ligand

>  <RI>
0

>  <Rbt.Current_Directory>
/home/itssahil/PROJECTS/Mol_Feturizer/New_Systems/rnas/4FEP

>  <Rbt.Executable>
rbdock ($Id: //depot/dev/client3/rdock/2013.1/src/exe/rbdock.cxx#4 $)

>  <Rbt.Library>
libRbt.so (2013.1, Build901 2013/11/27)

>  <Rbt.Parameter_File>
/export/apps/rDock/src/rDock_2013.1_src/data/scripts/dock_solv.prm

>  <Rbt.Receptor>
prm/pocket_docking_3.prm

>  <SCORE>
-11.1687

>  <SCORE.INTER>
-11.1687

>  <SCORE.INTER.CONST>
1

>  <SCORE.INTER.POLAR>
0

>  <SCORE.INTER.ROT>
0

>  <SCORE.INTER.SOLV>
20.6348

>  <SCORE.INTER.VDW>
-17.9241

>  <SCORE.INTER.norm>
-1.01534

>  <SCORE.INTRA>
0

>  <SCORE.INTRA.DIHEDRAL>
0

>  <SCORE.INTRA.DIHEDRAL.0>
0

>  <SCORE.INTRA.POLAR>
0

>  <SCORE.INTRA.POLAR.0>
0

>  <SCORE.INTRA.REPUL>
0

>  <SCORE.INTRA.REPUL.0>
0

>  <SCORE.INTRA.SOLV>
0

>  <SCORE.INTRA.SOLV.lig_0>
-48.9558

>  <SCORE.INTRA.VDW>
0

>  <SCORE.INTRA.VDW.0>
0

>  <SCORE.INTRA.norm>
0

>  <SCORE.RESTR>
0

>  <SCORE.RESTR.CAVITY>
0

>  <SCORE.RESTR.norm>
0

>  <SCORE.SYSTEM>
0

>  <SCORE.SYSTEM.CONST>
0

>  <SCORE.SYSTEM.DIHEDRAL>
0

>  <SCORE.SYSTEM.SOLV>
0

>  <SCORE.SYSTEM.norm>
0

>  <SCORE.heavy>
11

>  <SCORE.norm>
-1.01534

>  <RMSD>
0.513

$$$$
ligand
 OpenBabel11021811493D
libRbt.so/2013.1/901 2013/11/27
 11 12  0  0  0  0  0  0  0  0999 V2000
   12.3086   11.7390    8.6341 N   0  0  0  0  0  0  0  0  0  0  0  0
   11.6298   12.8723    8.8741 C   0  0  0  0  0  0  0  0  0  0  0  0
   11.5945   13.3767   10.1632 N   0  0  0  0  0  0  0  0  0  0  0  0
   10.9860   13.5254    7.8929 N   0  0  0  0  0  0  0  0  0  0  0  0
   11.0012   13.0595    6.6222 C   0  0  0  0  0  0  0  0  0  0  0  0
   11.7060   11.8663    6.3226 C   0  0  0  0  0  0  0  0  0  0  0  0
   12.3741   11.2055    7.3961 C   0  0  0  0  0  0  0  0  0  0  0  0
   13.0810   10.0378    7.1804 N   0  0  0  0  0  0  0  0  0  0  0  0
   11.5538   11.6337    4.9955 N   0  0  0  0  0  0  0  0  0  0  0  0
   10.8235   12.5777    4.4723 C   0  0  0  0  0  0  0  0  0  0  0  0
   10.4597   13.4792    5.4344 N   0  0  0  0  0  0  0  0  0  0  0  0
  1  7  2  0  0  0  0
  1  2  1  0  0  0  0
  2  3  1  0  0  0  0
  2  4  2  0  0  0  0
  4  5  1  0  0  0  0
  5  6  2  0  0  0  0
  5 11  1  0  0  0  0
  6  7  1  0  0  0  0
  6  9  1  0  0  0  0
  7  8  1  0  0  0  0
  9 10  1  0  0  0  0
 10 11  2  0  0  0  0
M  END
>  <CHROM.1>
11.59850346,12.30598320,7.11421260,-1.25580814,0.96994763,-1.90704464

>  <Name>
ligand

>  <RI>
0

>  <Rbt.Current_Directory>
/home/itssahil/PROJECTS/Mol_Feturizer/New_Systems/rnas/4FEP

>  <Rbt.Executable>
rbdock ($Id: //depot/dev/client3/rdock/2013.1/src/exe/rbdock.cxx#4 $)

>  <Rbt.Library>
libRbt.so (2013.1, Build901 2013/11/27)

>  <Rbt.Parameter_File>
/export/apps/rDock/src/rDock_2013.1_src/data/scripts/dock_solv.prm

>  <Rbt.Receptor>
prm/blind_docking_80.prm

>  <SCORE>
-10.9833

>  <SCORE.INTER>
-10.9833

>  <SCORE.INTER.CONST>
1

>  <SCORE.INTER.POLAR>
0

>  <SCORE.INTER.ROT>
0

>  <SCORE.INTER.SOLV>
18.6547

>  <SCORE.INTER.VDW>
-17.1404

>  <SCORE.INTER.norm>
-0.998482

>  <SCORE.INTRA>
0

>  <SCORE.INTRA.DIHEDRAL>
0

>  <SCORE.INTRA.DIHEDRAL.0>
0

>  <SCORE.INTRA.POLAR>
0

>  <SCORE.INTRA.POLAR.0>
0

>  <SCORE.INTRA.REPUL>
0

>  <SCORE.INTRA.REPUL.0>
0

>  <SCORE.INTRA.SOLV>
0

>  <SCORE.INTRA.SOLV.lig_0>
-48.9558

>  <SCORE.INTRA.VDW>
0

>  <SCORE.INTRA.VDW.0>
0

>  <SCORE.INTRA.norm>
0

>  <SCORE.RESTR>
0

>  <SCORE.RESTR.CAVITY>
0

>  <SCORE.RESTR.norm>
0

>  <SCORE.SYSTEM>
0

>  <SCORE.SYSTEM.CONST>
0

>  <SCORE.SYSTEM.DIHEDRAL>
0

>  <SCORE.SYSTEM.SOLV>
0

>  <SCORE.SYSTEM.norm>
0

>  <SCORE.heavy>
11

>  <SCORE.norm>
-0.998482

>  <RMSD>
0.514

$$$$
ligand
 OpenBabel11021811493D
libRbt.so/2013.1/901 2013/11/27
 11 12  0  0  0  0  0  0  0  0999 V2000
   12.0467   11.5935    8.6153 N   0  0  0  0  0  0  0  0  0  0  0  0
   11.6307   12.8516    8.8324 C   0  0  0  0  0  0  0  0  0  0  0  0
   11.6722   13.3627   10.1187 N   0  0  0  0  0  0  0  0  0  0  0  0
   11.1765   13.6228    7.8310 N   0  0  0  0  0  0  0  0  0  0  0  0
   11.1235   13.1538    6.5625 C   0  0  0  0  0  0  0  0  0  0  0  0
   11.5531   11.8312    6.2867 C   0  0  0  0  0  0  0  0  0  0  0  0
   12.0267   11.0479    7.3810 C   0  0  0  0  0  0  0  0  0  0  0  0
   12.4616    9.7503    7.1891 N   0  0  0  0  0  0  0  0  0  0  0  0
   11.3905   11.6264    4.9562 N   0  0  0  0  0  0  0  0  0  0  0  0
   10.9039   12.7045    4.4094 C   0  0  0  0  0  0  0  0  0  0  0  0
   10.7229   13.6729    5.3582 N   0  0  0  0  0  0  0  0  0  0  0  0
  1  7  2  0  0  0  0
  1  2  1  0  0  0  0
  2  3  1  0  0  0  0
  2  4  2  0  0  0  0
  4  5  1  0  0  0  0
  5  6  2  0  0  0  0
  5 11  1  0  0  0  0
  6  7  1  0  0  0  0
  6  9  1  0  0  0  0
  7  8  1  0  0  0  0
  9 10  1  0  0  0  0
 10 11  2  0  0  0  0
M  END
>  <CHROM.1>
11.52387990,12.29076079,7.07370681,-1.12999468,1.18879110,-2.02439388

>  <Name>
ligand

>  <RI>
0

>  <Rbt.Current_Directory>
/home/itssahil/PROJECTS/Mol_Feturizer/New_Systems/rnas/4FEP

>  <Rbt.Executable>
rbdock ($Id: //depot/dev/client3/rdock/2013.1/src/exe/rbdock.cxx#4 $)

>  <Rbt.Library>
libRbt.so (2013.1, Build901 2013/11/27)

>  <Rbt.Parameter_File>
/export/apps/rDock/src/rDock_2013.1_src/data/scripts/dock_solv.prm

>  <Rbt.Receptor>
prm/pocket_docking_4.prm

>  <SCORE>
-11.1992

>  <SCORE.INTER>
-11.1992

>  <SCORE.INTER.CONST>
1

>  <SCORE.INTER.POLAR>
0

>  <SCORE.INTER.ROT>
0

>  <SCORE.INTER.SOLV>
20.6432

>  <SCORE.INTER.VDW>
-17.9472

>  <SCORE.INTER.norm>
-1.01811

>  <SCORE.INTRA>
0

>  <SCORE.INTRA.DIHEDRAL>
0

>  <SCORE.INTRA.DIHEDRAL.0>
0

>  <SCORE.INTRA.POLAR>
0

>  <SCORE.INTRA.POLAR.0>
0

>  <SCORE.INTRA.REPUL>
0

>  <SCORE.INTRA.REPUL.0>
0

>  <SCORE.INTRA.SOLV>
0

>  <SCORE.INTRA.SOLV.lig_0>
-48.9558

>  <SCORE.INTRA.VDW>
0

>  <SCORE.INTRA.VDW.0>
0

>  <SCORE.INTRA.norm>
0

>  <SCORE.RESTR>
0

>  <SCORE.RESTR.CAVITY>
0

>  <SCORE.RESTR.norm>
0

>  <SCORE.SYSTEM>
0

>  <SCORE.SYSTEM.CONST>
0

>  <SCORE.SYSTEM.DIHEDRAL>
0

>  <SCORE.SYSTEM.SOLV>
0

>  <SCORE.SYSTEM.norm>
0

>  <SCORE.heavy>
11

>  <SCORE.norm>
-1.01811

>  <RMSD>
0.514

$$$$
ligand
 OpenBabel11021811493D
libRbt.so/2013.1/901 2013/11/27
 11 12  0  0  0  0  0  0  0  0999 V2000
   12.0316   11.5961    8.6157 N   0  0  0  0  0  0  0  0  0  0  0  0
   11.6138   12.8535    8.8335 C   0  0  0  0  0  0  0  0  0  0  0  0
   11.6482   13.3617   10.1211 N   0  0  0  0  0  0  0  0  0  0  0  0
   11.1642   13.6266    7.8315 N   0  0  0  0  0  0  0  0  0  0  0  0
   11.1180   13.1605    6.5617 C   0  0  0  0  0  0  0  0  0  0  0  0
   11.5499   11.8386    6.2852 C   0  0  0  0  0  0  0  0  0  0  0  0
   12.0183   11.0532    7.3802 C   0  0  0  0  0  0  0  0  0  0  0  0
   12.4550    9.7563    7.1876 N   0  0  0  0  0  0  0  0  0  0  0  0
   11.3942   11.6367    4.9534 N   0  0  0  0  0  0  0  0  0  0  0  0
   10.9097   12.7158    4.4065 C   0  0  0  0  0  0  0  0  0  0  0  0
   10.7232   13.6819    5.3565 N   0  0  0  0  0  0  0  0  0  0  0  0
  1  7  2  0  0  0  0
  1  2  1  0  0  0  0
  2  3  1  0  0  0  0
  2  4  2  0  0  0  0
  4  5  1  0  0  0  0
  5  6  2  0  0  0  0
  5 11  1  0  0  0  0
  6  7  1  0  0  0  0
  6  9  1  0  0  0  0
  7  8  1  0  0  0  0
  9 10  1  0  0  0  0
 10 11  2  0  0  0  0
M  END
>  <CHROM.1>
11.51629572,12.29647653,7.07304386,-1.14320234,1.19045446,-2.00991816

>  <Name>
ligand

>  <RI>
0

>  <Rbt.Current_Directory>
/home/itssahil/PROJECTS/Mol_Feturizer/New_Systems/rnas/4FEP

>  <Rbt.Executable>
rbdock ($Id: //depot/dev/client3/rdock/2013.1/src/exe/rbdock.cxx#4 $)

>  <Rbt.Library>
libRbt.so (2013.1, Build901 2013/11/27)

>  <Rbt.Parameter_File>
/export/apps/rDock/src/rDock_2013.1_src/data/scripts/dock_solv.prm

>  <Rbt.Receptor>
prm/pocket_docking_3.prm

>  <SCORE>
-11.2063

>  <SCORE.INTER>
-11.2063

>  <SCORE.INTER.CONST>
1

>  <SCORE.INTER.POLAR>
0

>  <SCORE.INTER.ROT>
0

>  <SCORE.INTER.SOLV>
20.6687

>  <SCORE.INTER.VDW>
-17.9604

>  <SCORE.INTER.norm>
-1.01875

>  <SCORE.INTRA>
0

>  <SCORE.INTRA.DIHEDRAL>
0

>  <SCORE.INTRA.DIHEDRAL.0>
0

>  <SCORE.INTRA.POLAR>
0

>  <SCORE.INTRA.POLAR.0>
0

>  <SCORE.INTRA.REPUL>
0

>  <SCORE.INTRA.REPUL.0>
0

>  <SCORE.INTRA.SOLV>
0

>  <SCORE.INTRA.SOLV.lig_0>
-48.9558

>  <SCORE.INTRA.VDW>
0

>  <SCORE.INTRA.VDW.0>
0

>  <SCORE.INTRA.norm>
0

>  <SCORE.RESTR>
0

>  <SCORE.RESTR.CAVITY>
0

>  <SCORE.RESTR.norm>
0

>  <SCORE.SYSTEM>
0

>  <SCORE.SYSTEM.CONST>
0

>  <SCORE.SYSTEM.DIHEDRAL>
0

>  <SCORE.SYSTEM.SOLV>
0

>  <SCORE.SYSTEM.norm>
0

>  <SCORE.heavy>
11

>  <SCORE.norm>
-1.01875

>  <RMSD>
0.516

$$$$
ligand
 OpenBabel11021811493D
libRbt.so/2013.1/901 2013/11/27
 11 12  0  0  0  0  0  0  0  0999 V2000
   12.0248   11.5967    8.6151 N   0  0  0  0  0  0  0  0  0  0  0  0
   11.6063   12.8538    8.8330 C   0  0  0  0  0  0  0  0  0  0  0  0
   11.6384   13.3611   10.1211 N   0  0  0  0  0  0  0  0  0  0  0  0
   11.1583   13.6275    7.8308 N   0  0  0  0  0  0  0  0  0  0  0  0
   11.1144   13.1623    6.5606 C   0  0  0  0  0  0  0  0  0  0  0  0
   11.5472   11.8408    6.2839 C   0  0  0  0  0  0  0  0  0  0  0  0
   12.0139   11.0547    7.3792 C   0  0  0  0  0  0  0  0  0  0  0  0
   12.4513    9.7581    7.1864 N   0  0  0  0  0  0  0  0  0  0  0  0
   11.3939   11.6398    4.9517 N   0  0  0  0  0  0  0  0  0  0  0  0
   10.9101   12.7191    4.4048 C   0  0  0  0  0  0  0  0  0  0  0  0
   10.7217   13.6845    5.3552 N   0  0  0  0  0  0  0  0  0  0  0  0
  1  7  2  0  0  0  0
  1  2  1  0  0  0  0
  2  3  1  0  0  0  0
  2  4  2  0  0  0  0
  4  5  1  0  0  0  0
  5  6  2  0  0  0  0
  5 11  1  0  0  0  0
  6  7  1  0  0  0  0
  6  9  1  0  0  0  0
  7  8  1  0  0  0  0
  9 10  1  0  0  0  0
 10 11  2  0  0  0  0
M  END
>  <CHROM.1>
11.51207458,12.29802562,7.07204804,-1.14777338,1.19094807,-2.00494014

>  <Name>
ligand

>  <RI>
0

>  <Rbt.Current_Directory>
/home/itssahil/PROJECTS/Mol_Feturizer/New_Systems/rnas/4FEP

>  <Rbt.Executable>
rbdock ($Id: //depot/dev/client3/rdock/2013.1/src/exe/rbdock.cxx#4 $)

>  <Rbt.Library>
libRbt.so (2013.1, Build901 2013/11/27)

>  <Rbt.Parameter_File>
/export/apps/rDock/src/rDock_2013.1_src/data/scripts/dock_solv.prm

>  <Rbt.Receptor>
prm/pocket_docking_3.prm

>  <SCORE>
-11.2065

>  <SCORE.INTER>
-11.2065

>  <SCORE.INTER.CONST>
1

>  <SCORE.INTER.POLAR>
0

>  <SCORE.INTER.ROT>
0

>  <SCORE.INTER.SOLV>
20.6822

>  <SCORE.INTER.VDW>
-17.9651

>  <SCORE.INTER.norm>
-1.01877

>  <SCORE.INTRA>
0

>  <SCORE.INTRA.DIHEDRAL>
0

>  <SCORE.INTRA.DIHEDRAL.0>
0

>  <SCORE.INTRA.POLAR>
0

>  <SCORE.INTRA.POLAR.0>
0

>  <SCORE.INTRA.REPUL>
0

>  <SCORE.INTRA.REPUL.0>
0

>  <SCORE.INTRA.SOLV>
0

>  <SCORE.INTRA.SOLV.lig_0>
-48.9558

>  <SCORE.INTRA.VDW>
0

>  <SCORE.INTRA.VDW.0>
0

>  <SCORE.INTRA.norm>
0

>  <SCORE.RESTR>
0

>  <SCORE.RESTR.CAVITY>
0

>  <SCORE.RESTR.norm>
0

>  <SCORE.SYSTEM>
0

>  <SCORE.SYSTEM.CONST>
0

>  <SCORE.SYSTEM.DIHEDRAL>
0

>  <SCORE.SYSTEM.SOLV>
0

>  <SCORE.SYSTEM.norm>
0

>  <SCORE.heavy>
11

>  <SCORE.norm>
-1.01877

>  <RMSD>
0.517

$$$$
ligand
 OpenBabel11021811493D
libRbt.so/2013.1/901 2013/11/27
 11 12  0  0  0  0  0  0  0  0999 V2000
   12.0418   11.5881    8.6106 N   0  0  0  0  0  0  0  0  0  0  0  0
   11.6315   12.8473    8.8316 C   0  0  0  0  0  0  0  0  0  0  0  0
   11.6764   13.3547   10.1193 N   0  0  0  0  0  0  0  0  0  0  0  0
   11.1795   13.6232    7.8328 N   0  0  0  0  0  0  0  0  0  0  0  0
   11.1232   13.1580    6.5631 C   0  0  0  0  0  0  0  0  0  0  0  0
   11.5470   11.8342    6.2832 C   0  0  0  0  0  0  0  0  0  0  0  0
   12.0183   11.0459    7.3749 C   0  0  0  0  0  0  0  0  0  0  0  0
   12.4475    9.7470    7.1790 N   0  0  0  0  0  0  0  0  0  0  0  0
   11.3821   11.6338    4.9523 N   0  0  0  0  0  0  0  0  0  0  0  0
   10.8995   12.7155    4.4090 C   0  0  0  0  0  0  0  0  0  0  0  0
   10.7236   13.6820    5.3606 N   0  0  0  0  0  0  0  0  0  0  0  0
  1  7  2  0  0  0  0
  1  2  1  0  0  0  0
  2  3  1  0  0  0  0
  2  4  2  0  0  0  0
  4  5  1  0  0  0  0
  5  6  2  0  0  0  0
  5 11  1  0  0  0  0
  6  7  1  0  0  0  0
  6  9  1  0  0  0  0
  7  8  1  0  0  0  0
  9 10  1  0  0  0  0
 10 11  2  0  0  0  0
M  END
>  <CHROM.1>
11.52045584,12.29177181,7.07150217,-1.12249552,1.19215730,-2.02861768

>  <Name>
ligand

>  <RI>
0

>  <Rbt.Current_Directory>
/home/itssahil/PROJECTS/Mol_Feturizer/New_Systems/rnas/4FEP

>  <Rbt.Executable>
rbdock ($Id: //depot/dev/client3/rdock/2013.1/src/exe/rbdock.cxx#4 $)

>  <Rbt.Library>
libRbt.so (2013.1, Build901 2013/11/27)

>  <Rbt.Parameter_File>
/export/apps/rDock/src/rDock_2013.1_src/data/scripts/dock_solv.prm

>  <Rbt.Receptor>
prm/pocket_docking_6.prm

>  <SCORE>
-11.1968

>  <SCORE.INTER>
-11.1968

>  <SCORE.INTER.CONST>
1

>  <SCORE.INTER.POLAR>
0

>  <SCORE.INTER.ROT>
0

>  <SCORE.INTER.SOLV>
20.6792

>  <SCORE.INTER.VDW>
-17.9576

>  <SCORE.INTER.norm>
-1.01789

>  <SCORE.INTRA>
0

>  <SCORE.INTRA.DIHEDRAL>
0

>  <SCORE.INTRA.DIHEDRAL.0>
0

>  <SCORE.INTRA.POLAR>
0

>  <SCORE.INTRA.POLAR.0>
0

>  <SCORE.INTRA.REPUL>
0

>  <SCORE.INTRA.REPUL.0>
0

>  <SCORE.INTRA.SOLV>
0

>  <SCORE.INTRA.SOLV.lig_0>
-48.9558

>  <SCORE.INTRA.VDW>
0

>  <SCORE.INTRA.VDW.0>
0

>  <SCORE.INTRA.norm>
0

>  <SCORE.RESTR>
0

>  <SCORE.RESTR.CAVITY>
0

>  <SCORE.RESTR.norm>
0

>  <SCORE.SYSTEM>
0

>  <SCORE.SYSTEM.CONST>
0

>  <SCORE.SYSTEM.DIHEDRAL>
0

>  <SCORE.SYSTEM.SOLV>
0

>  <SCORE.SYSTEM.norm>
0

>  <SCORE.heavy>
11

>  <SCORE.norm>
-1.01789

>  <RMSD>
0.518

$$$$
ligand
 OpenBabel11021811493D
libRbt.so/2013.1/901 2013/11/27
 11 12  0  0  0  0  0  0  0  0999 V2000
   12.0269   11.5973    8.6132 N   0  0  0  0  0  0  0  0  0  0  0  0
   11.6087   12.8545    8.8307 C   0  0  0  0  0  0  0  0  0  0  0  0
   11.6423   13.3629   10.1183 N   0  0  0  0  0  0  0  0  0  0  0  0
   11.1594   13.6274    7.8284 N   0  0  0  0  0  0  0  0  0  0  0  0
   11.1140   13.1612    6.5586 C   0  0  0  0  0  0  0  0  0  0  0  0
   11.5464   11.8394    6.2824 C   0  0  0  0  0  0  0  0  0  0  0  0
   12.0145   11.0543    7.3778 C   0  0  0  0  0  0  0  0  0  0  0  0
   12.4517    9.7575    7.1855 N   0  0  0  0  0  0  0  0  0  0  0  0
   11.3915   11.6374    4.9506 N   0  0  0  0  0  0  0  0  0  0  0  0
   10.9070   12.7162    4.4034 C   0  0  0  0  0  0  0  0  0  0  0  0
   10.7197   13.6824    5.3532 N   0  0  0  0  0  0  0  0  0  0  0  0
  1  7  2  0  0  0  0
  1  2  1  0  0  0  0
  2  3  1  0  0  0  0
  2  4  2  0  0  0  0
  4  5  1  0  0  0  0
  5  6  2  0  0  0  0
  5 11  1  0  0  0  0
  6  7  1  0  0  0  0
  6  9  1  0  0  0  0
  7  8  1  0  0  0  0
  9 10  1  0  0  0  0
 10 11  2  0  0  0  0
M  END
>  <CHROM.1>
11.51225632,12.29733405,7.07022970,-1.14477813,1.19041304,-2.00853256

>  <Name>
ligand

>  <RI>
0

>  <Rbt.Current_Directory>
/home/itssahil/PROJECTS/Mol_Feturizer/New_Systems/rnas/4FEP

>  <Rbt.Executable>
rbdock ($Id: //depot/dev/client3/rdock/2013.1/src/exe/rbdock.cxx#4 $)

>  <Rbt.Library>
libRbt.so (2013.1, Build901 2013/11/27)

>  <Rbt.Parameter_File>
/export/apps/rDock/src/rDock_2013.1_src/data/scripts/dock_solv.prm

>  <Rbt.Receptor>
prm/pocket_docking_3.prm

>  <SCORE>
-11.2042

>  <SCORE.INTER>
-11.2042

>  <SCORE.INTER.CONST>
1

>  <SCORE.INTER.POLAR>
0

>  <SCORE.INTER.ROT>
0

>  <SCORE.INTER.SOLV>
20.6815

>  <SCORE.INTER.VDW>
-17.9633

>  <SCORE.INTER.norm>
-1.01857

>  <SCORE.INTRA>
0

>  <SCORE.INTRA.DIHEDRAL>
0

>  <SCORE.INTRA.DIHEDRAL.0>
0

>  <SCORE.INTRA.POLAR>
0

>  <SCORE.INTRA.POLAR.0>
0

>  <SCORE.INTRA.REPUL>
0

>  <SCORE.INTRA.REPUL.0>
0

>  <SCORE.INTRA.SOLV>
0

>  <SCORE.INTRA.SOLV.lig_0>
-48.9558

>  <SCORE.INTRA.VDW>
0

>  <SCORE.INTRA.VDW.0>
0

>  <SCORE.INTRA.norm>
0

>  <SCORE.RESTR>
0

>  <SCORE.RESTR.CAVITY>
0

>  <SCORE.RESTR.norm>
0

>  <SCORE.SYSTEM>
0

>  <SCORE.SYSTEM.CONST>
0

>  <SCORE.SYSTEM.DIHEDRAL>
0

>  <SCORE.SYSTEM.SOLV>
0

>  <SCORE.SYSTEM.norm>
0

>  <SCORE.heavy>
11

>  <SCORE.norm>
-1.01857

>  <RMSD>
0.519

$$$$
ligand
 OpenBabel11021811493D
libRbt.so/2013.1/901 2013/11/27
 11 12  0  0  0  0  0  0  0  0999 V2000
   12.3041   11.7260    8.6219 N   0  0  0  0  0  0  0  0  0  0  0  0
   11.6386   12.8673    8.8613 C   0  0  0  0  0  0  0  0  0  0  0  0
   11.6097   13.3731   10.1501 N   0  0  0  0  0  0  0  0  0  0  0  0
   11.0019   13.5271    7.8799 N   0  0  0  0  0  0  0  0  0  0  0  0
   11.0111   13.0601    6.6096 C   0  0  0  0  0  0  0  0  0  0  0  0
   11.7019   11.8586    6.3106 C   0  0  0  0  0  0  0  0  0  0  0  0
   12.3628   11.1909    7.3843 C   0  0  0  0  0  0  0  0  0  0  0  0
   13.0560   10.0149    7.1691 N   0  0  0  0  0  0  0  0  0  0  0  0
   11.5464   11.6268    4.9837 N   0  0  0  0  0  0  0  0  0  0  0  0
   10.8269   12.5788    4.4602 C   0  0  0  0  0  0  0  0  0  0  0  0
   10.4740   13.4851    5.4218 N   0  0  0  0  0  0  0  0  0  0  0  0
  1  7  2  0  0  0  0
  1  2  1  0  0  0  0
  2  3  1  0  0  0  0
  2  4  2  0  0  0  0
  4  5  1  0  0  0  0
  5  6  2  0  0  0  0
  5 11  1  0  0  0  0
  6  7  1  0  0  0  0
  6  9  1  0  0  0  0
  7  8  1  0  0  0  0
  9 10  1  0  0  0  0
 10 11  2  0  0  0  0
M  END
>  <CHROM.1>
11.59986897,12.30006600,7.10188834,-1.24814737,0.98072645,-1.91413651

>  <Name>
ligand

>  <RI>
0

>  <Rbt.Current_Directory>
/home/itssahil/PROJECTS/Mol_Feturizer/New_Systems/rnas/4FEP

>  <Rbt.Executable>
rbdock ($Id: //depot/dev/client3/rdock/2013.1/src/exe/rbdock.cxx#4 $)

>  <Rbt.Library>
libRbt.so (2013.1, Build901 2013/11/27)

>  <Rbt.Parameter_File>
/export/apps/rDock/src/rDock_2013.1_src/data/scripts/dock_solv.prm

>  <Rbt.Receptor>
prm/pocket_docking_8.prm

>  <SCORE>
-11.0033

>  <SCORE.INTER>
-11.0033

>  <SCORE.INTER.CONST>
1

>  <SCORE.INTER.POLAR>
0

>  <SCORE.INTER.ROT>
0

>  <SCORE.INTER.SOLV>
18.737

>  <SCORE.INTER.VDW>
-17.1812

>  <SCORE.INTER.norm>
-1.0003

>  <SCORE.INTRA>
0

>  <SCORE.INTRA.DIHEDRAL>
0

>  <SCORE.INTRA.DIHEDRAL.0>
0

>  <SCORE.INTRA.POLAR>
0

>  <SCORE.INTRA.POLAR.0>
0

>  <SCORE.INTRA.REPUL>
0

>  <SCORE.INTRA.REPUL.0>
0

>  <SCORE.INTRA.SOLV>
0

>  <SCORE.INTRA.SOLV.lig_0>
-48.9558

>  <SCORE.INTRA.VDW>
0

>  <SCORE.INTRA.VDW.0>
0

>  <SCORE.INTRA.norm>
0

>  <SCORE.RESTR>
0

>  <SCORE.RESTR.CAVITY>
0

>  <SCORE.RESTR.norm>
0

>  <SCORE.SYSTEM>
0

>  <SCORE.SYSTEM.CONST>
0

>  <SCORE.SYSTEM.DIHEDRAL>
0

>  <SCORE.SYSTEM.SOLV>
0

>  <SCORE.SYSTEM.norm>
0

>  <SCORE.heavy>
11

>  <SCORE.norm>
-1.0003

>  <RMSD>
0.519

$$$$
ligand
 OpenBabel11021811493D
libRbt.so/2013.1/901 2013/11/27
 11 12  0  0  0  0  0  0  0  0999 V2000
   12.0281   11.5957    8.6122 N   0  0  0  0  0  0  0  0  0  0  0  0
   11.6182   12.8553    8.8318 C   0  0  0  0  0  0  0  0  0  0  0  0
   11.6588   13.3625   10.1197 N   0  0  0  0  0  0  0  0  0  0  0  0
   11.1708   13.6318    7.8314 N   0  0  0  0  0  0  0  0  0  0  0  0
   11.1187   13.1668    6.5614 C   0  0  0  0  0  0  0  0  0  0  0  0
   11.5422   11.8427    6.2830 C   0  0  0  0  0  0  0  0  0  0  0  0
   12.0086   11.0538    7.3763 C   0  0  0  0  0  0  0  0  0  0  0  0
   12.4372    9.7545    7.1818 N   0  0  0  0  0  0  0  0  0  0  0  0
   11.3821   11.6427    4.9515 N   0  0  0  0  0  0  0  0  0  0  0  0
   10.9026   12.7249    4.4065 C   0  0  0  0  0  0  0  0  0  0  0  0
   10.7241   13.6915    5.3576 N   0  0  0  0  0  0  0  0  0  0  0  0
  1  7  2  0  0  0  0
  1  2  1  0  0  0  0
  2  3  1  0  0  0  0
  2  4  2  0  0  0  0
  4  5  1  0  0  0  0
  5  6  2  0  0  0  0
  5 11  1  0  0  0  0
  6  7  1  0  0  0  0
  6  9  1  0  0  0  0
  7  8  1  0  0  0  0
  9 10  1  0  0  0  0
 10 11  2  0  0  0  0
M  END
>  <CHROM.1>
11.51317447,12.30016600,7.07122661,-1.13038104,1.19472154,-2.02113201

>  <Name>
ligand

>  <RI>
0

>  <Rbt.Current_Directory>
/home/itssahil/PROJECTS/Mol_Feturizer/New_Systems/rnas/4FEP

>  <Rbt.Executable>
rbdock ($Id: //depot/dev/client3/rdock/2013.1/src/exe/rbdock.cxx#4 $)

>  <Rbt.Library>
libRbt.so (2013.1, Build901 2013/11/27)

>  <Rbt.Parameter_File>
/export/apps/rDock/src/rDock_2013.1_src/data/scripts/dock_solv.prm

>  <Rbt.Receptor>
prm/pocket_docking_6.prm

>  <SCORE>
-11.1995

>  <SCORE.INTER>
-11.1995

>  <SCORE.INTER.CONST>
1

>  <SCORE.INTER.POLAR>
0

>  <SCORE.INTER.ROT>
0

>  <SCORE.INTER.SOLV>
20.7284

>  <SCORE.INTER.VDW>
-17.9758

>  <SCORE.INTER.norm>
-1.01814

>  <SCORE.INTRA>
0

>  <SCORE.INTRA.DIHEDRAL>
0

>  <SCORE.INTRA.DIHEDRAL.0>
0

>  <SCORE.INTRA.POLAR>
0

>  <SCORE.INTRA.POLAR.0>
0

>  <SCORE.INTRA.REPUL>
0

>  <SCORE.INTRA.REPUL.0>
0

>  <SCORE.INTRA.SOLV>
0

>  <SCORE.INTRA.SOLV.lig_0>
-48.9558

>  <SCORE.INTRA.VDW>
0

>  <SCORE.INTRA.VDW.0>
0

>  <SCORE.INTRA.norm>
0

>  <SCORE.RESTR>
0

>  <SCORE.RESTR.CAVITY>
0

>  <SCORE.RESTR.norm>
0

>  <SCORE.SYSTEM>
0

>  <SCORE.SYSTEM.CONST>
0

>  <SCORE.SYSTEM.DIHEDRAL>
0

>  <SCORE.SYSTEM.SOLV>
0

>  <SCORE.SYSTEM.norm>
0

>  <SCORE.heavy>
11

>  <SCORE.norm>
-1.01814

>  <RMSD>
0.520

$$$$
ligand
 OpenBabel11021811493D
libRbt.so/2013.1/901 2013/11/27
 11 12  0  0  0  0  0  0  0  0999 V2000
   12.0130   11.6072    8.6146 N   0  0  0  0  0  0  0  0  0  0  0  0
   11.5899   12.8630    8.8308 C   0  0  0  0  0  0  0  0  0  0  0  0
   11.6144   13.3700   10.1192 N   0  0  0  0  0  0  0  0  0  0  0  0
   11.1445   13.6358    7.8267 N   0  0  0  0  0  0  0  0  0  0  0  0
   11.1081   13.1708    6.5562 C   0  0  0  0  0  0  0  0  0  0  0  0
   11.5458   11.8506    6.2811 C   0  0  0  0  0  0  0  0  0  0  0  0
   12.0095   11.0655    7.3784 C   0  0  0  0  0  0  0  0  0  0  0  0
   12.4515    9.7701    7.1874 N   0  0  0  0  0  0  0  0  0  0  0  0
   11.3995   11.6496    4.9482 N   0  0  0  0  0  0  0  0  0  0  0  0
   10.9153   12.7277    4.3993 C   0  0  0  0  0  0  0  0  0  0  0  0
   10.7196   13.6923    5.3490 N   0  0  0  0  0  0  0  0  0  0  0  0
  1  7  2  0  0  0  0
  1  2  1  0  0  0  0
  2  3  1  0  0  0  0
  2  4  2  0  0  0  0
  4  5  1  0  0  0  0
  5  6  2  0  0  0  0
  5 11  1  0  0  0  0
  6  7  1  0  0  0  0
  6  9  1  0  0  0  0
  7  8  1  0  0  0  0
  9 10  1  0  0  0  0
 10 11  2  0  0  0  0
M  END
>  <CHROM.1>
11.50567821,12.30750352,7.06924006,-1.16268209,1.19037467,-1.99080890

>  <Name>
ligand

>  <RI>
0

>  <Rbt.Current_Directory>
/home/itssahil/PROJECTS/Mol_Feturizer/New_Systems/rnas/4FEP

>  <Rbt.Executable>
rbdock ($Id: //depot/dev/client3/rdock/2013.1/src/exe/rbdock.cxx#4 $)

>  <Rbt.Library>
libRbt.so (2013.1, Build901 2013/11/27)

>  <Rbt.Parameter_File>
/export/apps/rDock/src/rDock_2013.1_src/data/scripts/dock_solv.prm

>  <Rbt.Receptor>
prm/blind_docking_100.prm

>  <SCORE>
-11.2033

>  <SCORE.INTER>
-11.2033

>  <SCORE.INTER.CONST>
1

>  <SCORE.INTER.POLAR>
0

>  <SCORE.INTER.ROT>
0

>  <SCORE.INTER.SOLV>
20.6973

>  <SCORE.INTER.VDW>
-17.968

>  <SCORE.INTER.norm>
-1.01848

>  <SCORE.INTRA>
0

>  <SCORE.INTRA.DIHEDRAL>
0

>  <SCORE.INTRA.DIHEDRAL.0>
0

>  <SCORE.INTRA.POLAR>
0

>  <SCORE.INTRA.POLAR.0>
0

>  <SCORE.INTRA.REPUL>
0

>  <SCORE.INTRA.REPUL.0>
0

>  <SCORE.INTRA.SOLV>
0

>  <SCORE.INTRA.SOLV.lig_0>
-48.9558

>  <SCORE.INTRA.VDW>
0

>  <SCORE.INTRA.VDW.0>
0

>  <SCORE.INTRA.norm>
0

>  <SCORE.RESTR>
0

>  <SCORE.RESTR.CAVITY>
0

>  <SCORE.RESTR.norm>
0

>  <SCORE.SYSTEM>
0

>  <SCORE.SYSTEM.CONST>
0

>  <SCORE.SYSTEM.DIHEDRAL>
0

>  <SCORE.SYSTEM.SOLV>
0

>  <SCORE.SYSTEM.norm>
0

>  <SCORE.heavy>
11

>  <SCORE.norm>
-1.01848

>  <RMSD>
0.522

$$$$
ligand
 OpenBabel11021811493D
libRbt.so/2013.1/901 2013/11/27
 11 12  0  0  0  0  0  0  0  0999 V2000
   12.0682   11.6431    8.6176 N   0  0  0  0  0  0  0  0  0  0  0  0
   11.6132   12.8876    8.8350 C   0  0  0  0  0  0  0  0  0  0  0  0
   11.6253   13.3942   10.1237 N   0  0  0  0  0  0  0  0  0  0  0  0
   11.1478   13.6494    7.8316 N   0  0  0  0  0  0  0  0  0  0  0  0
   11.1227   13.1846    6.5608 C   0  0  0  0  0  0  0  0  0  0  0  0
   11.5939   11.8762    6.2846 C   0  0  0  0  0  0  0  0  0  0  0  0
   12.0780   11.1024    7.3811 C   0  0  0  0  0  0  0  0  0  0  0  0
   12.5528    9.8190    7.1890 N   0  0  0  0  0  0  0  0  0  0  0  0
   11.4522   11.6725    4.9516 N   0  0  0  0  0  0  0  0  0  0  0  0
   10.9404   12.7383    4.4036 C   0  0  0  0  0  0  0  0  0  0  0  0
   10.7205   13.6969    5.3541 N   0  0  0  0  0  0  0  0  0  0  0  0
  1  7  2  0  0  0  0
  1  2  1  0  0  0  0
  2  3  1  0  0  0  0
  2  4  2  0  0  0  0
  4  5  1  0  0  0  0
  5  6  2  0  0  0  0
  5 11  1  0  0  0  0
  6  7  1  0  0  0  0
  6  9  1  0  0  0  0
  7  8  1  0  0  0  0
  9 10  1  0  0  0  0
 10 11  2  0  0  0  0
M  END
>  <CHROM.1>
11.54243204,12.33139400,7.07303795,-1.18818967,1.16674802,-1.96651798

>  <Name>
ligand

>  <RI>
0

>  <Rbt.Current_Directory>
/home/itssahil/PROJECTS/Mol_Feturizer/New_Systems/rnas/4FEP

>  <Rbt.Executable>
rbdock ($Id: //depot/dev/client3/rdock/2013.1/src/exe/rbdock.cxx#4 $)

>  <Rbt.Library>
libRbt.so (2013.1, Build901 2013/11/27)

>  <Rbt.Parameter_File>
/export/apps/rDock/src/rDock_2013.1_src/data/scripts/dock_solv.prm

>  <Rbt.Receptor>
prm/pocket_docking_3.prm

>  <SCORE>
-11.198

>  <SCORE.INTER>
-11.198

>  <SCORE.INTER.CONST>
1

>  <SCORE.INTER.POLAR>
0

>  <SCORE.INTER.ROT>
0

>  <SCORE.INTER.SOLV>
20.4149

>  <SCORE.INTER.VDW>
-17.8703

>  <SCORE.INTER.norm>
-1.018

>  <SCORE.INTRA>
0

>  <SCORE.INTRA.DIHEDRAL>
0

>  <SCORE.INTRA.DIHEDRAL.0>
0

>  <SCORE.INTRA.POLAR>
0

>  <SCORE.INTRA.POLAR.0>
0

>  <SCORE.INTRA.REPUL>
0

>  <SCORE.INTRA.REPUL.0>
0

>  <SCORE.INTRA.SOLV>
0

>  <SCORE.INTRA.SOLV.lig_0>
-48.9558

>  <SCORE.INTRA.VDW>
0

>  <SCORE.INTRA.VDW.0>
0

>  <SCORE.INTRA.norm>
0

>  <SCORE.RESTR>
0

>  <SCORE.RESTR.CAVITY>
0

>  <SCORE.RESTR.norm>
0

>  <SCORE.SYSTEM>
0

>  <SCORE.SYSTEM.CONST>
0

>  <SCORE.SYSTEM.DIHEDRAL>
0

>  <SCORE.SYSTEM.SOLV>
0

>  <SCORE.SYSTEM.norm>
0

>  <SCORE.heavy>
11

>  <SCORE.norm>
-1.018

>  <RMSD>
0.522

$$$$
ligand
 OpenBabel11021811493D
libRbt.so/2013.1/901 2013/11/27
 11 12  0  0  0  0  0  0  0  0999 V2000
   12.0755   11.6419    8.6161 N   0  0  0  0  0  0  0  0  0  0  0  0
   11.6202   12.8861    8.8341 C   0  0  0  0  0  0  0  0  0  0  0  0
   11.6347   13.3929   10.1227 N   0  0  0  0  0  0  0  0  0  0  0  0
   11.1522   13.6474    7.8316 N   0  0  0  0  0  0  0  0  0  0  0  0
   11.1247   13.1823    6.5609 C   0  0  0  0  0  0  0  0  0  0  0  0
   11.5962   11.8742    6.2840 C   0  0  0  0  0  0  0  0  0  0  0  0
   12.0831   11.1009    7.3796 C   0  0  0  0  0  0  0  0  0  0  0  0
   12.5584    9.8177    7.1867 N   0  0  0  0  0  0  0  0  0  0  0  0
   11.4518   11.6701    4.9513 N   0  0  0  0  0  0  0  0  0  0  0  0
   10.9381   12.7354    4.4042 C   0  0  0  0  0  0  0  0  0  0  0  0
   10.7196   13.6941    5.3550 N   0  0  0  0  0  0  0  0  0  0  0  0
  1  7  2  0  0  0  0
  1  2  1  0  0  0  0
  2  3  1  0  0  0  0
  2  4  2  0  0  0  0
  4  5  1  0  0  0  0
  5  6  2  0  0  0  0
  5 11  1  0  0  0  0
  6  7  1  0  0  0  0
  6  9  1  0  0  0  0
  7  8  1  0  0  0  0
  9 10  1  0  0  0  0
 10 11  2  0  0  0  0
M  END
>  <CHROM.1>
11.54609785,12.32946276,7.07242946,-1.18387923,1.16531973,-1.97067849

>  <Name>
ligand

>  <RI>
0

>  <Rbt.Current_Directory>
/home/itssahil/PROJECTS/Mol_Feturizer/New_Systems/rnas/4FEP

>  <Rbt.Executable>
rbdock ($Id: //depot/dev/client3/rdock/2013.1/src/exe/rbdock.cxx#4 $)

>  <Rbt.Library>
libRbt.so (2013.1, Build901 2013/11/27)

>  <Rbt.Parameter_File>
/export/apps/rDock/src/rDock_2013.1_src/data/scripts/dock_solv.prm

>  <Rbt.Receptor>
prm/pocket_docking_7.prm

>  <SCORE>
-11.1961

>  <SCORE.INTER>
-11.1961

>  <SCORE.INTER.CONST>
1

>  <SCORE.INTER.POLAR>
0

>  <SCORE.INTER.ROT>
0

>  <SCORE.INTER.SOLV>
20.3967

>  <SCORE.INTER.VDW>
-17.863

>  <SCORE.INTER.norm>
-1.01783

>  <SCORE.INTRA>
0

>  <SCORE.INTRA.DIHEDRAL>
0

>  <SCORE.INTRA.DIHEDRAL.0>
0

>  <SCORE.INTRA.POLAR>
0

>  <SCORE.INTRA.POLAR.0>
0

>  <SCORE.INTRA.REPUL>
0

>  <SCORE.INTRA.REPUL.0>
0

>  <SCORE.INTRA.SOLV>
0

>  <SCORE.INTRA.SOLV.lig_0>
-48.9558

>  <SCORE.INTRA.VDW>
0

>  <SCORE.INTRA.VDW.0>
0

>  <SCORE.INTRA.norm>
0

>  <SCORE.RESTR>
0

>  <SCORE.RESTR.CAVITY>
0

>  <SCORE.RESTR.norm>
0

>  <SCORE.SYSTEM>
0

>  <SCORE.SYSTEM.CONST>
0

>  <SCORE.SYSTEM.DIHEDRAL>
0

>  <SCORE.SYSTEM.SOLV>
0

>  <SCORE.SYSTEM.norm>
0

>  <SCORE.heavy>
11

>  <SCORE.norm>
-1.01783

>  <RMSD>
0.522

$$$$
ligand
 OpenBabel11021811493D
libRbt.so/2013.1/901 2013/11/27
 11 12  0  0  0  0  0  0  0  0999 V2000
   12.0178   11.6176    8.6219 N   0  0  0  0  0  0  0  0  0  0  0  0
   11.6095   12.8776    8.8424 C   0  0  0  0  0  0  0  0  0  0  0  0
   11.6335   13.3777   10.1334 N   0  0  0  0  0  0  0  0  0  0  0  0
   11.1793   13.6610    7.8399 N   0  0  0  0  0  0  0  0  0  0  0  0
   11.1437   13.2029    6.5668 C   0  0  0  0  0  0  0  0  0  0  0  0
   11.5662   11.8786    6.2873 C   0  0  0  0  0  0  0  0  0  0  0  0
   12.0140   11.0822    7.3831 C   0  0  0  0  0  0  0  0  0  0  0  0
   12.4405    9.7823    7.1877 N   0  0  0  0  0  0  0  0  0  0  0  0
   11.4245   11.6862    4.9527 N   0  0  0  0  0  0  0  0  0  0  0  0
   10.9569   12.7731    4.4067 C   0  0  0  0  0  0  0  0  0  0  0  0
   10.7684   13.7354    5.3602 N   0  0  0  0  0  0  0  0  0  0  0  0
  1  7  2  0  0  0  0
  1  2  1  0  0  0  0
  2  3  1  0  0  0  0
  2  4  2  0  0  0  0
  4  5  1  0  0  0  0
  5  6  2  0  0  0  0
  5 11  1  0  0  0  0
  6  7  1  0  0  0  0
  6  9  1  0  0  0  0
  7  8  1  0  0  0  0
  9 10  1  0  0  0  0
 10 11  2  0  0  0  0
M  END
>  <CHROM.1>
11.52761009,12.33206255,7.07755012,-1.16187331,1.20412795,-1.98649180

>  <Name>
ligand

>  <RI>
0

>  <Rbt.Current_Directory>
/home/itssahil/PROJECTS/Mol_Feturizer/New_Systems/rnas/4FEP

>  <Rbt.Executable>
rbdock ($Id: //depot/dev/client3/rdock/2013.1/src/exe/rbdock.cxx#4 $)

>  <Rbt.Library>
libRbt.so (2013.1, Build901 2013/11/27)

>  <Rbt.Parameter_File>
/export/apps/rDock/src/rDock_2013.1_src/data/scripts/dock_solv.prm

>  <Rbt.Receptor>
prm/pocket_docking_7.prm

>  <SCORE>
-11.1696

>  <SCORE.INTER>
-11.1696

>  <SCORE.INTER.CONST>
1

>  <SCORE.INTER.POLAR>
0

>  <SCORE.INTER.ROT>
0

>  <SCORE.INTER.SOLV>
20.7758

>  <SCORE.INTER.VDW>
-17.9717

>  <SCORE.INTER.norm>
-1.01542

>  <SCORE.INTRA>
0

>  <SCORE.INTRA.DIHEDRAL>
0

>  <SCORE.INTRA.DIHEDRAL.0>
0

>  <SCORE.INTRA.POLAR>
0

>  <SCORE.INTRA.POLAR.0>
0

>  <SCORE.INTRA.REPUL>
0

>  <SCORE.INTRA.REPUL.0>
0

>  <SCORE.INTRA.SOLV>
0

>  <SCORE.INTRA.SOLV.lig_0>
-48.9558

>  <SCORE.INTRA.VDW>
0

>  <SCORE.INTRA.VDW.0>
0

>  <SCORE.INTRA.norm>
0

>  <SCORE.RESTR>
0

>  <SCORE.RESTR.CAVITY>
0

>  <SCORE.RESTR.norm>
0

>  <SCORE.SYSTEM>
0

>  <SCORE.SYSTEM.CONST>
0

>  <SCORE.SYSTEM.DIHEDRAL>
0

>  <SCORE.SYSTEM.SOLV>
0

>  <SCORE.SYSTEM.norm>
0

>  <SCORE.heavy>
11

>  <SCORE.norm>
-1.01542

>  <RMSD>
0.526

$$$$
ligand
 OpenBabel11021811493D
libRbt.so/2013.1/901 2013/11/27
 11 12  0  0  0  0  0  0  0  0999 V2000
   12.0130   11.6039    8.6182 N   0  0  0  0  0  0  0  0  0  0  0  0
   11.6136   12.8659    8.8435 C   0  0  0  0  0  0  0  0  0  0  0  0
   11.6427   13.3614   10.1363 N   0  0  0  0  0  0  0  0  0  0  0  0
   11.1876   13.6557    7.8443 N   0  0  0  0  0  0  0  0  0  0  0  0
   11.1472   13.2023    6.5697 C   0  0  0  0  0  0  0  0  0  0  0  0
   11.5603   11.8762    6.2851 C   0  0  0  0  0  0  0  0  0  0  0  0
   12.0040   11.0729    7.3775 C   0  0  0  0  0  0  0  0  0  0  0  0
   12.4213    9.7708    7.1771 N   0  0  0  0  0  0  0  0  0  0  0  0
   11.4155   11.6894    4.9500 N   0  0  0  0  0  0  0  0  0  0  0  0
   10.9547   12.7814    4.4083 C   0  0  0  0  0  0  0  0  0  0  0  0
   10.7740   13.7416    5.3655 N   0  0  0  0  0  0  0  0  0  0  0  0
  1  7  2  0  0  0  0
  1  2  1  0  0  0  0
  2  3  1  0  0  0  0
  2  4  2  0  0  0  0
  4  5  1  0  0  0  0
  5  6  2  0  0  0  0
  5 11  1  0  0  0  0
  6  7  1  0  0  0  0
  6  9  1  0  0  0  0
  7  8  1  0  0  0  0
  9 10  1  0  0  0  0
 10 11  2  0  0  0  0
M  END
>  <CHROM.1>
11.52578884,12.32713317,7.07693064,-1.15072333,1.20986998,-1.99343562

>  <Name>
ligand

>  <RI>
0

>  <Rbt.Current_Directory>
/home/itssahil/PROJECTS/Mol_Feturizer/New_Systems/rnas/4FEP

>  <Rbt.Executable>
rbdock ($Id: //depot/dev/client3/rdock/2013.1/src/exe/rbdock.cxx#4 $)

>  <Rbt.Library>
libRbt.so (2013.1, Build901 2013/11/27)

>  <Rbt.Parameter_File>
/export/apps/rDock/src/rDock_2013.1_src/data/scripts/dock_solv.prm

>  <Rbt.Receptor>
prm/pocket_docking_3.prm

>  <SCORE>
-11.1726

>  <SCORE.INTER>
-11.1726

>  <SCORE.INTER.CONST>
1

>  <SCORE.INTER.POLAR>
0

>  <SCORE.INTER.ROT>
0

>  <SCORE.INTER.SOLV>
20.815

>  <SCORE.INTER.VDW>
-17.9867

>  <SCORE.INTER.norm>
-1.01569

>  <SCORE.INTRA>
0

>  <SCORE.INTRA.DIHEDRAL>
0

>  <SCORE.INTRA.DIHEDRAL.0>
0

>  <SCORE.INTRA.POLAR>
0

>  <SCORE.INTRA.POLAR.0>
0

>  <SCORE.INTRA.REPUL>
0

>  <SCORE.INTRA.REPUL.0>
0

>  <SCORE.INTRA.SOLV>
0

>  <SCORE.INTRA.SOLV.lig_0>
-48.9558

>  <SCORE.INTRA.VDW>
0

>  <SCORE.INTRA.VDW.0>
0

>  <SCORE.INTRA.norm>
0

>  <SCORE.RESTR>
0

>  <SCORE.RESTR.CAVITY>
0

>  <SCORE.RESTR.norm>
0

>  <SCORE.SYSTEM>
0

>  <SCORE.SYSTEM.CONST>
0

>  <SCORE.SYSTEM.DIHEDRAL>
0

>  <SCORE.SYSTEM.SOLV>
0

>  <SCORE.SYSTEM.norm>
0

>  <SCORE.heavy>
11

>  <SCORE.norm>
-1.01569

>  <RMSD>
0.527

$$$$
ligand
 OpenBabel11021811493D
libRbt.so/2013.1/901 2013/11/27
 11 12  0  0  0  0  0  0  0  0999 V2000
   12.0018   11.5852    8.6055 N   0  0  0  0  0  0  0  0  0  0  0  0
   11.6108   12.8480    8.8409 C   0  0  0  0  0  0  0  0  0  0  0  0
   11.6527   13.3362   10.1361 N   0  0  0  0  0  0  0  0  0  0  0  0
   11.1809   13.6455    7.8495 N   0  0  0  0  0  0  0  0  0  0  0  0
   11.1281   13.1994    6.5728 C   0  0  0  0  0  0  0  0  0  0  0  0
   11.5320   11.8728    6.2776 C   0  0  0  0  0  0  0  0  0  0  0  0
   11.9802   11.0612    7.3620 C   0  0  0  0  0  0  0  0  0  0  0  0
   12.3891    9.7581    7.1512 N   0  0  0  0  0  0  0  0  0  0  0  0
   11.3757   11.6941    4.9427 N   0  0  0  0  0  0  0  0  0  0  0  0
   10.9163   12.7914    4.4107 C   0  0  0  0  0  0  0  0  0  0  0  0
   10.7482   13.7472    5.3745 N   0  0  0  0  0  0  0  0  0  0  0  0
  1  7  2  0  0  0  0
  1  2  1  0  0  0  0
  2  3  1  0  0  0  0
  2  4  2  0  0  0  0
  4  5  1  0  0  0  0
  5  6  2  0  0  0  0
  5 11  1  0  0  0  0
  6  7  1  0  0  0  0
  6  9  1  0  0  0  0
  7  8  1  0  0  0  0
  9 10  1  0  0  0  0
 10 11  2  0  0  0  0
M  END
>  <CHROM.1>
11.50612877,12.31947461,7.07216429,-1.12409947,1.21124701,-2.01284053

>  <Name>
ligand

>  <RI>
0

>  <Rbt.Current_Directory>
/home/itssahil/PROJECTS/Mol_Feturizer/New_Systems/rnas/4FEP

>  <Rbt.Executable>
rbdock ($Id: //depot/dev/client3/rdock/2013.1/src/exe/rbdock.cxx#4 $)

>  <Rbt.Library>
libRbt.so (2013.1, Build901 2013/11/27)

>  <Rbt.Parameter_File>
/export/apps/rDock/src/rDock_2013.1_src/data/scripts/dock_solv.prm

>  <Rbt.Receptor>
prm/pocket_docking_3.prm

>  <SCORE>
-11.2279

>  <SCORE.INTER>
-11.2279

>  <SCORE.INTER.CONST>
1

>  <SCORE.INTER.POLAR>
0

>  <SCORE.INTER.ROT>
0

>  <SCORE.INTER.SOLV>
20.8745

>  <SCORE.INTER.VDW>
-18.0434

>  <SCORE.INTER.norm>
-1.02072

>  <SCORE.INTRA>
0

>  <SCORE.INTRA.DIHEDRAL>
0

>  <SCORE.INTRA.DIHEDRAL.0>
0

>  <SCORE.INTRA.POLAR>
0

>  <SCORE.INTRA.POLAR.0>
0

>  <SCORE.INTRA.REPUL>
0

>  <SCORE.INTRA.REPUL.0>
0

>  <SCORE.INTRA.SOLV>
0

>  <SCORE.INTRA.SOLV.lig_0>
-48.9558

>  <SCORE.INTRA.VDW>
0

>  <SCORE.INTRA.VDW.0>
0

>  <SCORE.INTRA.norm>
0

>  <SCORE.RESTR>
0

>  <SCORE.RESTR.CAVITY>
0

>  <SCORE.RESTR.norm>
0

>  <SCORE.SYSTEM>
0

>  <SCORE.SYSTEM.CONST>
0

>  <SCORE.SYSTEM.DIHEDRAL>
0

>  <SCORE.SYSTEM.SOLV>
0

>  <SCORE.SYSTEM.norm>
0

>  <SCORE.heavy>
11

>  <SCORE.norm>
-1.02072

>  <RMSD>
0.531

$$$$
ligand
 OpenBabel11021811493D
libRbt.so/2013.1/901 2013/11/27
 11 12  0  0  0  0  0  0  0  0999 V2000
   11.9998   11.5828    8.6041 N   0  0  0  0  0  0  0  0  0  0  0  0
   11.6130   12.8474    8.8367 C   0  0  0  0  0  0  0  0  0  0  0  0
   11.6517   13.3368   10.1315 N   0  0  0  0  0  0  0  0  0  0  0  0
   11.1905   13.6457    7.8427 N   0  0  0  0  0  0  0  0  0  0  0  0
   11.1410   13.1985    6.5662 C   0  0  0  0  0  0  0  0  0  0  0  0
   11.5406   11.8699    6.2741 C   0  0  0  0  0  0  0  0  0  0  0  0
   11.9811   11.0576    7.3610 C   0  0  0  0  0  0  0  0  0  0  0  0
   12.3856    9.7526    7.1532 N   0  0  0  0  0  0  0  0  0  0  0  0
   11.3890   11.6905    4.9386 N   0  0  0  0  0  0  0  0  0  0  0  0
   10.9362   12.7891    4.4037 C   0  0  0  0  0  0  0  0  0  0  0  0
   10.7681   13.7466    5.3659 N   0  0  0  0  0  0  0  0  0  0  0  0
  1  7  2  0  0  0  0
  1  2  1  0  0  0  0
  2  3  1  0  0  0  0
  2  4  2  0  0  0  0
  4  5  1  0  0  0  0
  5  6  2  0  0  0  0
  5 11  1  0  0  0  0
  6  7  1  0  0  0  0
  6  9  1  0  0  0  0
  7  8  1  0  0  0  0
  9 10  1  0  0  0  0
 10 11  2  0  0  0  0
M  END
>  <CHROM.1>
11.51338091,12.31750403,7.06802640,-1.12962599,1.21666263,-2.00867914

>  <Name>
ligand

>  <RI>
0

>  <Rbt.Current_Directory>
/home/itssahil/PROJECTS/Mol_Feturizer/New_Systems/rnas/4FEP

>  <Rbt.Executable>
rbdock ($Id: //depot/dev/client3/rdock/2013.1/src/exe/rbdock.cxx#4 $)

>  <Rbt.Library>
libRbt.so (2013.1, Build901 2013/11/27)

>  <Rbt.Parameter_File>
/export/apps/rDock/src/rDock_2013.1_src/data/scripts/dock_solv.prm

>  <Rbt.Receptor>
prm/pocket_docking_6.prm

>  <SCORE>
-11.2428

>  <SCORE.INTER>
-11.2428

>  <SCORE.INTER.CONST>
1

>  <SCORE.INTER.POLAR>
0

>  <SCORE.INTER.ROT>
0

>  <SCORE.INTER.SOLV>
20.899

>  <SCORE.INTER.VDW>
-18.0615

>  <SCORE.INTER.norm>
-1.02207

>  <SCORE.INTRA>
0

>  <SCORE.INTRA.DIHEDRAL>
0

>  <SCORE.INTRA.DIHEDRAL.0>
0

>  <SCORE.INTRA.POLAR>
0

>  <SCORE.INTRA.POLAR.0>
0

>  <SCORE.INTRA.REPUL>
0

>  <SCORE.INTRA.REPUL.0>
0

>  <SCORE.INTRA.SOLV>
0

>  <SCORE.INTRA.SOLV.lig_0>
-48.9558

>  <SCORE.INTRA.VDW>
0

>  <SCORE.INTRA.VDW.0>
0

>  <SCORE.INTRA.norm>
0

>  <SCORE.RESTR>
0

>  <SCORE.RESTR.CAVITY>
0

>  <SCORE.RESTR.norm>
0

>  <SCORE.SYSTEM>
0

>  <SCORE.SYSTEM.CONST>
0

>  <SCORE.SYSTEM.DIHEDRAL>
0

>  <SCORE.SYSTEM.SOLV>
0

>  <SCORE.SYSTEM.norm>
0

>  <SCORE.heavy>
11

>  <SCORE.norm>
-1.02207

>  <RMSD>
0.535

$$$$
ligand
 OpenBabel11021811493D
libRbt.so/2013.1/901 2013/11/27
 11 12  0  0  0  0  0  0  0  0999 V2000
   12.0002   11.5866    8.6037 N   0  0  0  0  0  0  0  0  0  0  0  0
   11.6146   12.8519    8.8344 C   0  0  0  0  0  0  0  0  0  0  0  0
   11.6544   13.3433   10.1284 N   0  0  0  0  0  0  0  0  0  0  0  0
   11.1921   13.6488    7.8394 N   0  0  0  0  0  0  0  0  0  0  0  0
   11.1415   13.1996    6.5637 C   0  0  0  0  0  0  0  0  0  0  0  0
   11.5399   11.8702    6.2734 C   0  0  0  0  0  0  0  0  0  0  0  0
   11.9804   11.0593    7.3615 C   0  0  0  0  0  0  0  0  0  0  0  0
   12.3837    9.7537    7.1555 N   0  0  0  0  0  0  0  0  0  0  0  0
   11.3874   11.6888    4.9384 N   0  0  0  0  0  0  0  0  0  0  0  0
   10.9352   12.7869    4.4020 C   0  0  0  0  0  0  0  0  0  0  0  0
   10.7684   13.7460    5.3627 N   0  0  0  0  0  0  0  0  0  0  0  0
  1  7  2  0  0  0  0
  1  2  1  0  0  0  0
  2  3  1  0  0  0  0
  2  4  2  0  0  0  0
  4  5  1  0  0  0  0
  5  6  2  0  0  0  0
  5 11  1  0  0  0  0
  6  7  1  0  0  0  0
  6  9  1  0  0  0  0
  7  8  1  0  0  0  0
  9 10  1  0  0  0  0
 10 11  2  0  0  0  0
M  END
>  <CHROM.1>
11.51350488,12.31914325,7.06668310,-1.12713927,1.21713293,-2.01264789

>  <Name>
ligand

>  <RI>
0

>  <Rbt.Current_Directory>
/home/itssahil/PROJECTS/Mol_Feturizer/New_Systems/rnas/4FEP

>  <Rbt.Executable>
rbdock ($Id: //depot/dev/client3/rdock/2013.1/src/exe/rbdock.cxx#4 $)

>  <Rbt.Library>
libRbt.so (2013.1, Build901 2013/11/27)

>  <Rbt.Parameter_File>
/export/apps/rDock/src/rDock_2013.1_src/data/scripts/dock_solv.prm

>  <Rbt.Receptor>
prm/blind_docking_40.prm

>  <SCORE>
-11.2423

>  <SCORE.INTER>
-11.2423

>  <SCORE.INTER.CONST>
1

>  <SCORE.INTER.POLAR>
0

>  <SCORE.INTER.ROT>
0

>  <SCORE.INTER.SOLV>
20.9126

>  <SCORE.INTER.VDW>
-18.0657

>  <SCORE.INTER.norm>
-1.02202

>  <SCORE.INTRA>
0

>  <SCORE.INTRA.DIHEDRAL>
0

>  <SCORE.INTRA.DIHEDRAL.0>
0

>  <SCORE.INTRA.POLAR>
0

>  <SCORE.INTRA.POLAR.0>
0

>  <SCORE.INTRA.REPUL>
0

>  <SCORE.INTRA.REPUL.0>
0

>  <SCORE.INTRA.SOLV>
0

>  <SCORE.INTRA.SOLV.lig_0>
-48.9558

>  <SCORE.INTRA.VDW>
0

>  <SCORE.INTRA.VDW.0>
0

>  <SCORE.INTRA.norm>
0

>  <SCORE.RESTR>
0

>  <SCORE.RESTR.CAVITY>
0

>  <SCORE.RESTR.norm>
0

>  <SCORE.SYSTEM>
0

>  <SCORE.SYSTEM.CONST>
0

>  <SCORE.SYSTEM.DIHEDRAL>
0

>  <SCORE.SYSTEM.SOLV>
0

>  <SCORE.SYSTEM.norm>
0

>  <SCORE.heavy>
11

>  <SCORE.norm>
-1.02202

>  <RMSD>
0.537

$$$$
ligand
 OpenBabel11021811493D
libRbt.so/2013.1/901 2013/11/27
 11 12  0  0  0  0  0  0  0  0999 V2000
   12.0329   11.6088    8.5952 N   0  0  0  0  0  0  0  0  0  0  0  0
   11.6145   12.8674    8.8049 C   0  0  0  0  0  0  0  0  0  0  0  0
   11.6576   13.3871   10.0877 N   0  0  0  0  0  0  0  0  0  0  0  0
   11.1563   13.6308    7.7994 N   0  0  0  0  0  0  0  0  0  0  0  0
   11.1015   13.1533    6.5342 C   0  0  0  0  0  0  0  0  0  0  0  0
   11.5337   11.8298    6.2662 C   0  0  0  0  0  0  0  0  0  0  0  0
   12.0115   11.0550    7.3647 C   0  0  0  0  0  0  0  0  0  0  0  0
   12.4491    9.7571    7.1804 N   0  0  0  0  0  0  0  0  0  0  0  0
   11.3686   11.6159    4.9375 N   0  0  0  0  0  0  0  0  0  0  0  0
   10.8782   12.6892    4.3847 C   0  0  0  0  0  0  0  0  0  0  0  0
   10.6970   13.6635    5.3274 N   0  0  0  0  0  0  0  0  0  0  0  0
  1  7  2  0  0  0  0
  1  2  1  0  0  0  0
  2  3  1  0  0  0  0
  2  4  2  0  0  0  0
  4  5  1  0  0  0  0
  5  6  2  0  0  0  0
  5 11  1  0  0  0  0
  6  7  1  0  0  0  0
  6  9  1  0  0  0  0
  7  8  1  0  0  0  0
  9 10  1  0  0  0  0
 10 11  2  0  0  0  0
M  END
>  <CHROM.1>
11.50508443,12.29460247,7.05022815,-1.12745854,1.18571574,-2.03339039

>  <Name>
ligand

>  <RI>
0

>  <Rbt.Current_Directory>
/home/itssahil/PROJECTS/Mol_Feturizer/New_Systems/rnas/4FEP

>  <Rbt.Executable>
rbdock ($Id: //depot/dev/client3/rdock/2013.1/src/exe/rbdock.cxx#4 $)

>  <Rbt.Library>
libRbt.so (2013.1, Build901 2013/11/27)

>  <Rbt.Parameter_File>
/export/apps/rDock/src/rDock_2013.1_src/data/scripts/dock_solv.prm

>  <Rbt.Receptor>
prm/blind_docking_40.prm

>  <SCORE>
-11.1998

>  <SCORE.INTER>
-11.1998

>  <SCORE.INTER.CONST>
1

>  <SCORE.INTER.POLAR>
0

>  <SCORE.INTER.ROT>
0

>  <SCORE.INTER.SOLV>
20.7196

>  <SCORE.INTER.VDW>
-17.9731

>  <SCORE.INTER.norm>
-1.01816

>  <SCORE.INTRA>
0

>  <SCORE.INTRA.DIHEDRAL>
0

>  <SCORE.INTRA.DIHEDRAL.0>
0

>  <SCORE.INTRA.POLAR>
0

>  <SCORE.INTRA.POLAR.0>
0

>  <SCORE.INTRA.REPUL>
0

>  <SCORE.INTRA.REPUL.0>
0

>  <SCORE.INTRA.SOLV>
0

>  <SCORE.INTRA.SOLV.lig_0>
-48.9558

>  <SCORE.INTRA.VDW>
0

>  <SCORE.INTRA.VDW.0>
0

>  <SCORE.INTRA.norm>
0

>  <SCORE.RESTR>
0

>  <SCORE.RESTR.CAVITY>
0

>  <SCORE.RESTR.norm>
0

>  <SCORE.SYSTEM>
0

>  <SCORE.SYSTEM.CONST>
0

>  <SCORE.SYSTEM.DIHEDRAL>
0

>  <SCORE.SYSTEM.SOLV>
0

>  <SCORE.SYSTEM.norm>
0

>  <SCORE.heavy>
11

>  <SCORE.norm>
-1.01816

>  <RMSD>
0.537

$$$$
ligand
 OpenBabel11021811493D
libRbt.so/2013.1/901 2013/11/27
 11 12  0  0  0  0  0  0  0  0999 V2000
   12.0239   11.5959    8.5950 N   0  0  0  0  0  0  0  0  0  0  0  0
   11.6148   12.8533    8.8284 C   0  0  0  0  0  0  0  0  0  0  0  0
   11.6512   13.3448   10.1225 N   0  0  0  0  0  0  0  0  0  0  0  0
   11.1720   13.6425    7.8359 N   0  0  0  0  0  0  0  0  0  0  0  0
   11.1241   13.1930    6.5601 C   0  0  0  0  0  0  0  0  0  0  0  0
   11.5469   11.8718    6.2672 C   0  0  0  0  0  0  0  0  0  0  0  0
   12.0083   11.0691    7.3526 C   0  0  0  0  0  0  0  0  0  0  0  0
   12.4360    9.7717    7.1439 N   0  0  0  0  0  0  0  0  0  0  0  0
   11.3915   11.6881    4.9328 N   0  0  0  0  0  0  0  0  0  0  0  0
   10.9154   12.7775    4.3992 C   0  0  0  0  0  0  0  0  0  0  0  0
   10.7346   13.7328    5.3613 N   0  0  0  0  0  0  0  0  0  0  0  0
  1  7  2  0  0  0  0
  1  2  1  0  0  0  0
  2  3  1  0  0  0  0
  2  4  2  0  0  0  0
  4  5  1  0  0  0  0
  5  6  2  0  0  0  0
  5 11  1  0  0  0  0
  6  7  1  0  0  0  0
  6  9  1  0  0  0  0
  7  8  1  0  0  0  0
  9 10  1  0  0  0  0
 10 11  2  0  0  0  0
M  END
>  <CHROM.1>
11.51557687,12.31971215,7.06082170,-1.13804212,1.19744606,-2.00186708

>  <Name>
ligand

>  <RI>
0

>  <Rbt.Current_Directory>
/home/itssahil/PROJECTS/Mol_Feturizer/New_Systems/rnas/4FEP

>  <Rbt.Executable>
rbdock ($Id: //depot/dev/client3/rdock/2013.1/src/exe/rbdock.cxx#4 $)

>  <Rbt.Library>
libRbt.so (2013.1, Build901 2013/11/27)

>  <Rbt.Parameter_File>
/export/apps/rDock/src/rDock_2013.1_src/data/scripts/dock_solv.prm

>  <Rbt.Receptor>
prm/blind_docking_60.prm

>  <SCORE>
-11.261

>  <SCORE.INTER>
-11.261

>  <SCORE.INTER.CONST>
1

>  <SCORE.INTER.POLAR>
0

>  <SCORE.INTER.ROT>
0

>  <SCORE.INTER.SOLV>
20.735

>  <SCORE.INTER.VDW>
-18.019

>  <SCORE.INTER.norm>
-1.02372

>  <SCORE.INTRA>
0

>  <SCORE.INTRA.DIHEDRAL>
0

>  <SCORE.INTRA.DIHEDRAL.0>
0

>  <SCORE.INTRA.POLAR>
0

>  <SCORE.INTRA.POLAR.0>
0

>  <SCORE.INTRA.REPUL>
0

>  <SCORE.INTRA.REPUL.0>
0

>  <SCORE.INTRA.SOLV>
0

>  <SCORE.INTRA.SOLV.lig_0>
-48.9558

>  <SCORE.INTRA.VDW>
0

>  <SCORE.INTRA.VDW.0>
0

>  <SCORE.INTRA.norm>
0

>  <SCORE.RESTR>
0

>  <SCORE.RESTR.CAVITY>
0

>  <SCORE.RESTR.norm>
0

>  <SCORE.SYSTEM>
0

>  <SCORE.SYSTEM.CONST>
0

>  <SCORE.SYSTEM.DIHEDRAL>
0

>  <SCORE.SYSTEM.SOLV>
0

>  <SCORE.SYSTEM.norm>
0

>  <SCORE.heavy>
11

>  <SCORE.norm>
-1.02372

>  <RMSD>
0.537

$$$$
ligand
 OpenBabel11021811493D
libRbt.so/2013.1/901 2013/11/27
 11 12  0  0  0  0  0  0  0  0999 V2000
   12.0214   11.5969    8.5953 N   0  0  0  0  0  0  0  0  0  0  0  0
   11.6129   12.8547    8.8278 C   0  0  0  0  0  0  0  0  0  0  0  0
   11.6491   13.3468   10.1217 N   0  0  0  0  0  0  0  0  0  0  0  0
   11.1709   13.6435    7.8348 N   0  0  0  0  0  0  0  0  0  0  0  0
   11.1232   13.1933    6.5593 C   0  0  0  0  0  0  0  0  0  0  0  0
   11.5454   11.8717    6.2672 C   0  0  0  0  0  0  0  0  0  0  0  0
   12.0060   11.0693    7.3532 C   0  0  0  0  0  0  0  0  0  0  0  0
   12.4330    9.7716    7.1453 N   0  0  0  0  0  0  0  0  0  0  0  0
   11.3903   11.6874    4.9328 N   0  0  0  0  0  0  0  0  0  0  0  0
   10.9150   12.7768    4.3985 C   0  0  0  0  0  0  0  0  0  0  0  0
   10.7344   13.7326    5.3600 N   0  0  0  0  0  0  0  0  0  0  0  0
  1  7  2  0  0  0  0
  1  2  1  0  0  0  0
  2  3  1  0  0  0  0
  2  4  2  0  0  0  0
  4  5  1  0  0  0  0
  5  6  2  0  0  0  0
  5 11  1  0  0  0  0
  6  7  1  0  0  0  0
  6  9  1  0  0  0  0
  7  8  1  0  0  0  0
  9 10  1  0  0  0  0
 10 11  2  0  0  0  0
M  END
>  <CHROM.1>
11.51399129,12.32010165,7.06055148,-1.13828284,1.19809523,-2.00219704

>  <Name>
ligand

>  <RI>
0

>  <Rbt.Current_Directory>
/home/itssahil/PROJECTS/Mol_Feturizer/New_Systems/rnas/4FEP

>  <Rbt.Executable>
rbdock ($Id: //depot/dev/client3/rdock/2013.1/src/exe/rbdock.cxx#4 $)

>  <Rbt.Library>
libRbt.so (2013.1, Build901 2013/11/27)

>  <Rbt.Parameter_File>
/export/apps/rDock/src/rDock_2013.1_src/data/scripts/dock_solv.prm

>  <Rbt.Receptor>
prm/pocket_docking_3.prm

>  <SCORE>
-11.2618

>  <SCORE.INTER>
-11.2618

>  <SCORE.INTER.CONST>
1

>  <SCORE.INTER.POLAR>
0

>  <SCORE.INTER.ROT>
0

>  <SCORE.INTER.SOLV>
20.7469

>  <SCORE.INTER.VDW>
-18.0235

>  <SCORE.INTER.norm>
-1.0238

>  <SCORE.INTRA>
0

>  <SCORE.INTRA.DIHEDRAL>
0

>  <SCORE.INTRA.DIHEDRAL.0>
0

>  <SCORE.INTRA.POLAR>
0

>  <SCORE.INTRA.POLAR.0>
0

>  <SCORE.INTRA.REPUL>
0

>  <SCORE.INTRA.REPUL.0>
0

>  <SCORE.INTRA.SOLV>
0

>  <SCORE.INTRA.SOLV.lig_0>
-48.9558

>  <SCORE.INTRA.VDW>
0

>  <SCORE.INTRA.VDW.0>
0

>  <SCORE.INTRA.norm>
0

>  <SCORE.RESTR>
0

>  <SCORE.RESTR.CAVITY>
0

>  <SCORE.RESTR.norm>
0

>  <SCORE.SYSTEM>
0

>  <SCORE.SYSTEM.CONST>
0

>  <SCORE.SYSTEM.DIHEDRAL>
0

>  <SCORE.SYSTEM.SOLV>
0

>  <SCORE.SYSTEM.norm>
0

>  <SCORE.heavy>
11

>  <SCORE.norm>
-1.0238

>  <RMSD>
0.537

$$$$
ligand
 OpenBabel11021811493D
libRbt.so/2013.1/901 2013/11/27
 11 12  0  0  0  0  0  0  0  0999 V2000
   12.0199   11.5982    8.5967 N   0  0  0  0  0  0  0  0  0  0  0  0
   11.6140   12.8569    8.8284 C   0  0  0  0  0  0  0  0  0  0  0  0
   11.6523   13.3502   10.1217 N   0  0  0  0  0  0  0  0  0  0  0  0
   11.1728   13.6457    7.8349 N   0  0  0  0  0  0  0  0  0  0  0  0
   11.1232   13.1944    6.5599 C   0  0  0  0  0  0  0  0  0  0  0  0
   11.5425   11.8717    6.2686 C   0  0  0  0  0  0  0  0  0  0  0  0
   12.0025   11.0695    7.3550 C   0  0  0  0  0  0  0  0  0  0  0  0
   12.4268    9.7707    7.1481 N   0  0  0  0  0  0  0  0  0  0  0  0
   11.3861   11.6865    4.9346 N   0  0  0  0  0  0  0  0  0  0  0  0
   10.9124   12.7763    4.3996 C   0  0  0  0  0  0  0  0  0  0  0  0
   10.7345   13.7334    5.3604 N   0  0  0  0  0  0  0  0  0  0  0  0
  1  7  2  0  0  0  0
  1  2  1  0  0  0  0
  2  3  1  0  0  0  0
  2  4  2  0  0  0  0
  4  5  1  0  0  0  0
  5  6  2  0  0  0  0
  5 11  1  0  0  0  0
  6  7  1  0  0  0  0
  6  9  1  0  0  0  0
  7  8  1  0  0  0  0
  9 10  1  0  0  0  0
 10 11  2  0  0  0  0
M  END
>  <CHROM.1>
11.51269599,12.32090291,7.06165265,-1.13399884,1.19951567,-2.00712375

>  <Name>
ligand

>  <RI>
0

>  <Rbt.Current_Directory>
/home/itssahil/PROJECTS/Mol_Feturizer/New_Systems/rnas/4FEP

>  <Rbt.Executable>
rbdock ($Id: //depot/dev/client3/rdock/2013.1/src/exe/rbdock.cxx#4 $)

>  <Rbt.Library>
libRbt.so (2013.1, Build901 2013/11/27)

>  <Rbt.Parameter_File>
/export/apps/rDock/src/rDock_2013.1_src/data/scripts/dock_solv.prm

>  <Rbt.Receptor>
prm/pocket_docking_5.prm

>  <SCORE>
-11.262

>  <SCORE.INTER>
-11.262

>  <SCORE.INTER.CONST>
1

>  <SCORE.INTER.POLAR>
0

>  <SCORE.INTER.ROT>
0

>  <SCORE.INTER.SOLV>
20.7687

>  <SCORE.INTER.VDW>
-18.0309

>  <SCORE.INTER.norm>
-1.02382

>  <SCORE.INTRA>
0

>  <SCORE.INTRA.DIHEDRAL>
0

>  <SCORE.INTRA.DIHEDRAL.0>
0

>  <SCORE.INTRA.POLAR>
0

>  <SCORE.INTRA.POLAR.0>
0

>  <SCORE.INTRA.REPUL>
0

>  <SCORE.INTRA.REPUL.0>
0

>  <SCORE.INTRA.SOLV>
0

>  <SCORE.INTRA.SOLV.lig_0>
-48.9558

>  <SCORE.INTRA.VDW>
0

>  <SCORE.INTRA.VDW.0>
0

>  <SCORE.INTRA.norm>
0

>  <SCORE.RESTR>
0

>  <SCORE.RESTR.CAVITY>
0

>  <SCORE.RESTR.norm>
0

>  <SCORE.SYSTEM>
0

>  <SCORE.SYSTEM.CONST>
0

>  <SCORE.SYSTEM.DIHEDRAL>
0

>  <SCORE.SYSTEM.SOLV>
0

>  <SCORE.SYSTEM.norm>
0

>  <SCORE.heavy>
11

>  <SCORE.norm>
-1.02382

>  <RMSD>
0.537

$$$$
ligand
 OpenBabel11021811493D
libRbt.so/2013.1/901 2013/11/27
 11 12  0  0  0  0  0  0  0  0999 V2000
   12.0021   11.5877    8.6004 N   0  0  0  0  0  0  0  0  0  0  0  0
   11.6069   12.8498    8.8320 C   0  0  0  0  0  0  0  0  0  0  0  0
   11.6419   13.3402   10.1266 N   0  0  0  0  0  0  0  0  0  0  0  0
   11.1794   13.6447    7.8374 N   0  0  0  0  0  0  0  0  0  0  0  0
   11.1333   13.1964    6.5612 C   0  0  0  0  0  0  0  0  0  0  0  0
   11.5418   11.8703    6.2700 C   0  0  0  0  0  0  0  0  0  0  0  0
   11.9873   11.0616    7.3576 C   0  0  0  0  0  0  0  0  0  0  0  0
   12.4005    9.7592    7.1507 N   0  0  0  0  0  0  0  0  0  0  0  0
   11.3918   11.6891    4.9346 N   0  0  0  0  0  0  0  0  0  0  0  0
   10.9320   12.7844    4.3989 C   0  0  0  0  0  0  0  0  0  0  0  0
   10.7572   13.7413    5.3605 N   0  0  0  0  0  0  0  0  0  0  0  0
  1  7  2  0  0  0  0
  1  2  1  0  0  0  0
  2  3  1  0  0  0  0
  2  4  2  0  0  0  0
  4  5  1  0  0  0  0
  5  6  2  0  0  0  0
  5 11  1  0  0  0  0
  6  7  1  0  0  0  0
  6  9  1  0  0  0  0
  7  8  1  0  0  0  0
  9 10  1  0  0  0  0
 10 11  2  0  0  0  0
M  END
>  <CHROM.1>
11.51135966,12.31821531,7.06369028,-1.13842688,1.21081203,-2.00103638

>  <Name>
ligand

>  <RI>
0

>  <Rbt.Current_Directory>
/home/itssahil/PROJECTS/Mol_Feturizer/New_Systems/rnas/4FEP

>  <Rbt.Executable>
rbdock ($Id: //depot/dev/client3/rdock/2013.1/src/exe/rbdock.cxx#4 $)

>  <Rbt.Library>
libRbt.so (2013.1, Build901 2013/11/27)

>  <Rbt.Parameter_File>
/export/apps/rDock/src/rDock_2013.1_src/data/scripts/dock_solv.prm

>  <Rbt.Receptor>
prm/pocket_docking_6.prm

>  <SCORE>
-11.2418

>  <SCORE.INTER>
-11.2418

>  <SCORE.INTER.CONST>
1

>  <SCORE.INTER.POLAR>
0

>  <SCORE.INTER.ROT>
0

>  <SCORE.INTER.SOLV>
20.8519

>  <SCORE.INTER.VDW>
-18.0452

>  <SCORE.INTER.norm>
-1.02198

>  <SCORE.INTRA>
0

>  <SCORE.INTRA.DIHEDRAL>
0

>  <SCORE.INTRA.DIHEDRAL.0>
0

>  <SCORE.INTRA.POLAR>
0

>  <SCORE.INTRA.POLAR.0>
0

>  <SCORE.INTRA.REPUL>
0

>  <SCORE.INTRA.REPUL.0>
0

>  <SCORE.INTRA.SOLV>
0

>  <SCORE.INTRA.SOLV.lig_0>
-48.9558

>  <SCORE.INTRA.VDW>
0

>  <SCORE.INTRA.VDW.0>
0

>  <SCORE.INTRA.norm>
0

>  <SCORE.RESTR>
0

>  <SCORE.RESTR.CAVITY>
0

>  <SCORE.RESTR.norm>
0

>  <SCORE.SYSTEM>
0

>  <SCORE.SYSTEM.CONST>
0

>  <SCORE.SYSTEM.DIHEDRAL>
0

>  <SCORE.SYSTEM.SOLV>
0

>  <SCORE.SYSTEM.norm>
0

>  <SCORE.heavy>
11

>  <SCORE.norm>
-1.02198

>  <RMSD>
0.537

$$$$
ligand
 OpenBabel11021811493D
libRbt.so/2013.1/901 2013/11/27
 11 12  0  0  0  0  0  0  0  0999 V2000
   11.9981   11.5840    8.6032 N   0  0  0  0  0  0  0  0  0  0  0  0
   11.6127   12.8492    8.8345 C   0  0  0  0  0  0  0  0  0  0  0  0
   11.6518   13.3398   10.1288 N   0  0  0  0  0  0  0  0  0  0  0  0
   11.1910   13.6469    7.8397 N   0  0  0  0  0  0  0  0  0  0  0  0
   11.1411   13.1985    6.5637 C   0  0  0  0  0  0  0  0  0  0  0  0
   11.5393   11.8692    6.2729 C   0  0  0  0  0  0  0  0  0  0  0  0
   11.9788   11.0575    7.3607 C   0  0  0  0  0  0  0  0  0  0  0  0
   12.3819    9.7518    7.1542 N   0  0  0  0  0  0  0  0  0  0  0  0
   11.3875   11.6886    4.9376 N   0  0  0  0  0  0  0  0  0  0  0  0
   10.9360   12.7872    4.4016 C   0  0  0  0  0  0  0  0  0  0  0  0
   10.7689   13.7458    5.3628 N   0  0  0  0  0  0  0  0  0  0  0  0
  1  7  2  0  0  0  0
  1  2  1  0  0  0  0
  2  3  1  0  0  0  0
  2  4  2  0  0  0  0
  4  5  1  0  0  0  0
  5  6  2  0  0  0  0
  5 11  1  0  0  0  0
  6  7  1  0  0  0  0
  6  9  1  0  0  0  0
  7  8  1  0  0  0  0
  9 10  1  0  0  0  0
 10 11  2  0  0  0  0
M  END
>  <CHROM.1>
11.51250769,12.31761267,7.06636805,-1.12836405,1.21767928,-2.01088199

>  <Name>
ligand

>  <RI>
0

>  <Rbt.Current_Directory>
/home/itssahil/PROJECTS/Mol_Feturizer/New_Systems/rnas/4FEP

>  <Rbt.Executable>
rbdock ($Id: //depot/dev/client3/rdock/2013.1/src/exe/rbdock.cxx#4 $)

>  <Rbt.Library>
libRbt.so (2013.1, Build901 2013/11/27)

>  <Rbt.Parameter_File>
/export/apps/rDock/src/rDock_2013.1_src/data/scripts/dock_solv.prm

>  <Rbt.Receptor>
prm/pocket_docking_8.prm

>  <SCORE>
-11.243

>  <SCORE.INTER>
-11.243

>  <SCORE.INTER.CONST>
1

>  <SCORE.INTER.POLAR>
0

>  <SCORE.INTER.ROT>
0

>  <SCORE.INTER.SOLV>
20.9159

>  <SCORE.INTER.VDW>
-18.0673

>  <SCORE.INTER.norm>
-1.02209

>  <SCORE.INTRA>
0

>  <SCORE.INTRA.DIHEDRAL>
0

>  <SCORE.INTRA.DIHEDRAL.0>
0

>  <SCORE.INTRA.POLAR>
0

>  <SCORE.INTRA.POLAR.0>
0

>  <SCORE.INTRA.REPUL>
0

>  <SCORE.INTRA.REPUL.0>
0

>  <SCORE.INTRA.SOLV>
0

>  <SCORE.INTRA.SOLV.lig_0>
-48.9558

>  <SCORE.INTRA.VDW>
0

>  <SCORE.INTRA.VDW.0>
0

>  <SCORE.INTRA.norm>
0

>  <SCORE.RESTR>
0

>  <SCORE.RESTR.CAVITY>
0

>  <SCORE.RESTR.norm>
0

>  <SCORE.SYSTEM>
0

>  <SCORE.SYSTEM.CONST>
0

>  <SCORE.SYSTEM.DIHEDRAL>
0

>  <SCORE.SYSTEM.SOLV>
0

>  <SCORE.SYSTEM.norm>
0

>  <SCORE.heavy>
11

>  <SCORE.norm>
-1.02209

>  <RMSD>
0.537

$$$$
ligand
 OpenBabel11021811493D
libRbt.so/2013.1/901 2013/11/27
 11 12  0  0  0  0  0  0  0  0999 V2000
   12.0163   11.5947    8.5943 N   0  0  0  0  0  0  0  0  0  0  0  0
   11.6063   12.8520    8.8271 C   0  0  0  0  0  0  0  0  0  0  0  0
   11.6402   13.3432   10.1214 N   0  0  0  0  0  0  0  0  0  0  0  0
   11.1653   13.6411    7.8339 N   0  0  0  0  0  0  0  0  0  0  0  0
   11.1200   13.1919    6.5580 C   0  0  0  0  0  0  0  0  0  0  0  0
   11.5437   11.8708    6.2656 C   0  0  0  0  0  0  0  0  0  0  0  0
   12.0033   11.0681    7.3518 C   0  0  0  0  0  0  0  0  0  0  0  0
   12.4318    9.7708    7.1437 N   0  0  0  0  0  0  0  0  0  0  0  0
   11.3910   11.6874    4.9309 N   0  0  0  0  0  0  0  0  0  0  0  0
   10.9156   12.7767    4.3966 C   0  0  0  0  0  0  0  0  0  0  0  0
   10.7327   13.7317    5.3585 N   0  0  0  0  0  0  0  0  0  0  0  0
  1  7  2  0  0  0  0
  1  2  1  0  0  0  0
  2  3  1  0  0  0  0
  2  4  2  0  0  0  0
  4  5  1  0  0  0  0
  5  6  2  0  0  0  0
  5 11  1  0  0  0  0
  6  7  1  0  0  0  0
  6  9  1  0  0  0  0
  7  8  1  0  0  0  0
  9 10  1  0  0  0  0
 10 11  2  0  0  0  0
M  END
>  <CHROM.1>
11.51073173,12.31861807,7.05929214,-1.14320950,1.19798563,-1.99688611

>  <Name>
ligand

>  <RI>
0

>  <Rbt.Current_Directory>
/home/itssahil/PROJECTS/Mol_Feturizer/New_Systems/rnas/4FEP

>  <Rbt.Executable>
rbdock ($Id: //depot/dev/client3/rdock/2013.1/src/exe/rbdock.cxx#4 $)

>  <Rbt.Library>
libRbt.so (2013.1, Build901 2013/11/27)

>  <Rbt.Parameter_File>
/export/apps/rDock/src/rDock_2013.1_src/data/scripts/dock_solv.prm

>  <Rbt.Receptor>
prm/blind_docking_40.prm

>  <SCORE>
-11.2626

>  <SCORE.INTER>
-11.2626

>  <SCORE.INTER.CONST>
1

>  <SCORE.INTER.POLAR>
0

>  <SCORE.INTER.ROT>
0

>  <SCORE.INTER.SOLV>
20.7481

>  <SCORE.INTER.VDW>
-18.0244

>  <SCORE.INTER.norm>
-1.02387

>  <SCORE.INTRA>
0

>  <SCORE.INTRA.DIHEDRAL>
0

>  <SCORE.INTRA.DIHEDRAL.0>
0

>  <SCORE.INTRA.POLAR>
0

>  <SCORE.INTRA.POLAR.0>
0

>  <SCORE.INTRA.REPUL>
0

>  <SCORE.INTRA.REPUL.0>
0

>  <SCORE.INTRA.SOLV>
0

>  <SCORE.INTRA.SOLV.lig_0>
-48.9558

>  <SCORE.INTRA.VDW>
0

>  <SCORE.INTRA.VDW.0>
0

>  <SCORE.INTRA.norm>
0

>  <SCORE.RESTR>
0

>  <SCORE.RESTR.CAVITY>
0

>  <SCORE.RESTR.norm>
0

>  <SCORE.SYSTEM>
0

>  <SCORE.SYSTEM.CONST>
0

>  <SCORE.SYSTEM.DIHEDRAL>
0

>  <SCORE.SYSTEM.SOLV>
0

>  <SCORE.SYSTEM.norm>
0

>  <SCORE.heavy>
11

>  <SCORE.norm>
-1.02387

>  <RMSD>
0.538

$$$$
ligand
 OpenBabel11021811493D
libRbt.so/2013.1/901 2013/11/27
 11 12  0  0  0  0  0  0  0  0999 V2000
   12.0202   11.5963    8.5954 N   0  0  0  0  0  0  0  0  0  0  0  0
   11.6138   12.8548    8.8276 C   0  0  0  0  0  0  0  0  0  0  0  0
   11.6519   13.3475   10.1211 N   0  0  0  0  0  0  0  0  0  0  0  0
   11.1724   13.6439    7.8344 N   0  0  0  0  0  0  0  0  0  0  0  0
   11.1230   13.1932    6.5592 C   0  0  0  0  0  0  0  0  0  0  0  0
   11.5429   11.8707    6.2674 C   0  0  0  0  0  0  0  0  0  0  0  0
   12.0030   11.0681    7.3535 C   0  0  0  0  0  0  0  0  0  0  0  0
   12.4278    9.7696    7.1460 N   0  0  0  0  0  0  0  0  0  0  0  0
   11.3865   11.6860    4.9333 N   0  0  0  0  0  0  0  0  0  0  0  0
   10.9126   12.7759    4.3988 C   0  0  0  0  0  0  0  0  0  0  0  0
   10.7342   13.7325    5.3599 N   0  0  0  0  0  0  0  0  0  0  0  0
  1  7  2  0  0  0  0
  1  2  1  0  0  0  0
  2  3  1  0  0  0  0
  2  4  2  0  0  0  0
  4  5  1  0  0  0  0
  5  6  2  0  0  0  0
  5 11  1  0  0  0  0
  6  7  1  0  0  0  0
  6  9  1  0  0  0  0
  7  8  1  0  0  0  0
  9 10  1  0  0  0  0
 10 11  2  0  0  0  0
M  END
>  <CHROM.1>
11.51280043,12.31954525,7.06062245,-1.13456163,1.19923347,-2.00616860

>  <Name>
ligand

>  <RI>
0

>  <Rbt.Current_Directory>
/home/itssahil/PROJECTS/Mol_Feturizer/New_Systems/rnas/4FEP

>  <Rbt.Executable>
rbdock ($Id: //depot/dev/client3/rdock/2013.1/src/exe/rbdock.cxx#4 $)

>  <Rbt.Library>
libRbt.so (2013.1, Build901 2013/11/27)

>  <Rbt.Parameter_File>
/export/apps/rDock/src/rDock_2013.1_src/data/scripts/dock_solv.prm

>  <Rbt.Receptor>
prm/blind_docking_60.prm

>  <SCORE>
-11.2619

>  <SCORE.INTER>
-11.2619

>  <SCORE.INTER.CONST>
1

>  <SCORE.INTER.POLAR>
0

>  <SCORE.INTER.ROT>
0

>  <SCORE.INTER.SOLV>
20.7628

>  <SCORE.INTER.VDW>
-18.0289

>  <SCORE.INTER.norm>
-1.02381

>  <SCORE.INTRA>
0

>  <SCORE.INTRA.DIHEDRAL>
0

>  <SCORE.INTRA.DIHEDRAL.0>
0

>  <SCORE.INTRA.POLAR>
0

>  <SCORE.INTRA.POLAR.0>
0

>  <SCORE.INTRA.REPUL>
0

>  <SCORE.INTRA.REPUL.0>
0

>  <SCORE.INTRA.SOLV>
0

>  <SCORE.INTRA.SOLV.lig_0>
-48.9558

>  <SCORE.INTRA.VDW>
0

>  <SCORE.INTRA.VDW.0>
0

>  <SCORE.INTRA.norm>
0

>  <SCORE.RESTR>
0

>  <SCORE.RESTR.CAVITY>
0

>  <SCORE.RESTR.norm>
0

>  <SCORE.SYSTEM>
0

>  <SCORE.SYSTEM.CONST>
0

>  <SCORE.SYSTEM.DIHEDRAL>
0

>  <SCORE.SYSTEM.SOLV>
0

>  <SCORE.SYSTEM.norm>
0

>  <SCORE.heavy>
11

>  <SCORE.norm>
-1.02381

>  <RMSD>
0.538

$$$$
ligand
 OpenBabel11021811493D
libRbt.so/2013.1/901 2013/11/27
 11 12  0  0  0  0  0  0  0  0999 V2000
   12.0357   11.5978    8.5911 N   0  0  0  0  0  0  0  0  0  0  0  0
   11.6228   12.8535    8.8264 C   0  0  0  0  0  0  0  0  0  0  0  0
   11.6614   13.3444   10.1207 N   0  0  0  0  0  0  0  0  0  0  0  0
   11.1741   13.6416    7.8357 N   0  0  0  0  0  0  0  0  0  0  0  0
   11.1239   13.1926    6.5599 C   0  0  0  0  0  0  0  0  0  0  0  0
   11.5506   11.8731    6.2649 C   0  0  0  0  0  0  0  0  0  0  0  0
   12.0183   11.0715    7.3484 C   0  0  0  0  0  0  0  0  0  0  0  0
   12.4501    9.7758    7.1377 N   0  0  0  0  0  0  0  0  0  0  0  0
   11.3918   11.6897    4.9309 N   0  0  0  0  0  0  0  0  0  0  0  0
   10.9101   12.7776    4.3994 C   0  0  0  0  0  0  0  0  0  0  0  0
   10.7288   13.7316    5.3626 N   0  0  0  0  0  0  0  0  0  0  0  0
  1  7  2  0  0  0  0
  1  2  1  0  0  0  0
  2  3  1  0  0  0  0
  2  4  2  0  0  0  0
  4  5  1  0  0  0  0
  5  6  2  0  0  0  0
  5 11  1  0  0  0  0
  6  7  1  0  0  0  0
  6  9  1  0  0  0  0
  7  8  1  0  0  0  0
  9 10  1  0  0  0  0
 10 11  2  0  0  0  0
M  END
>  <CHROM.1>
11.52009165,12.32050141,7.05887408,-1.13463044,1.19284572,-2.00448638

>  <Name>
ligand

>  <RI>
0

>  <Rbt.Current_Directory>
/home/itssahil/PROJECTS/Mol_Feturizer/New_Systems/rnas/4FEP

>  <Rbt.Executable>
rbdock ($Id: //depot/dev/client3/rdock/2013.1/src/exe/rbdock.cxx#4 $)

>  <Rbt.Library>
libRbt.so (2013.1, Build901 2013/11/27)

>  <Rbt.Parameter_File>
/export/apps/rDock/src/rDock_2013.1_src/data/scripts/dock_solv.prm

>  <Rbt.Receptor>
prm/blind_docking_80.prm

>  <SCORE>
-11.2488

>  <SCORE.INTER>
-11.2488

>  <SCORE.INTER.CONST>
1

>  <SCORE.INTER.POLAR>
0

>  <SCORE.INTER.ROT>
0

>  <SCORE.INTER.SOLV>
20.6931

>  <SCORE.INTER.VDW>
-17.9969

>  <SCORE.INTER.norm>
-1.02262

>  <SCORE.INTRA>
0

>  <SCORE.INTRA.DIHEDRAL>
0

>  <SCORE.INTRA.DIHEDRAL.0>
0

>  <SCORE.INTRA.POLAR>
0

>  <SCORE.INTRA.POLAR.0>
0

>  <SCORE.INTRA.REPUL>
0

>  <SCORE.INTRA.REPUL.0>
0

>  <SCORE.INTRA.SOLV>
0

>  <SCORE.INTRA.SOLV.lig_0>
-48.9558

>  <SCORE.INTRA.VDW>
0

>  <SCORE.INTRA.VDW.0>
0

>  <SCORE.INTRA.norm>
0

>  <SCORE.RESTR>
0

>  <SCORE.RESTR.CAVITY>
0

>  <SCORE.RESTR.norm>
0

>  <SCORE.SYSTEM>
0

>  <SCORE.SYSTEM.CONST>
0

>  <SCORE.SYSTEM.DIHEDRAL>
0

>  <SCORE.SYSTEM.SOLV>
0

>  <SCORE.SYSTEM.norm>
0

>  <SCORE.heavy>
11

>  <SCORE.norm>
-1.02262

>  <RMSD>
0.538

$$$$
ligand
 OpenBabel11021811493D
libRbt.so/2013.1/901 2013/11/27
 11 12  0  0  0  0  0  0  0  0999 V2000
   12.0165   11.5949    8.5941 N   0  0  0  0  0  0  0  0  0  0  0  0
   11.6073   12.8525    8.8265 C   0  0  0  0  0  0  0  0  0  0  0  0
   11.6422   13.3443   10.1205 N   0  0  0  0  0  0  0  0  0  0  0  0
   11.1661   13.6413    7.8332 N   0  0  0  0  0  0  0  0  0  0  0  0
   11.1197   13.1914    6.5575 C   0  0  0  0  0  0  0  0  0  0  0  0
   11.5426   11.8700    6.2656 C   0  0  0  0  0  0  0  0  0  0  0  0
   12.0024   11.0675    7.3519 C   0  0  0  0  0  0  0  0  0  0  0  0
   12.4301    9.7699    7.1442 N   0  0  0  0  0  0  0  0  0  0  0  0
   11.3890   11.6859    4.9311 N   0  0  0  0  0  0  0  0  0  0  0  0
   10.9138   12.7752    4.3965 C   0  0  0  0  0  0  0  0  0  0  0  0
   10.7320   13.7308    5.3580 N   0  0  0  0  0  0  0  0  0  0  0  0
  1  7  2  0  0  0  0
  1  2  1  0  0  0  0
  2  3  1  0  0  0  0
  2  4  2  0  0  0  0
  4  5  1  0  0  0  0
  5  6  2  0  0  0  0
  5 11  1  0  0  0  0
  6  7  1  0  0  0  0
  6  9  1  0  0  0  0
  7  8  1  0  0  0  0
  9 10  1  0  0  0  0
 10 11  2  0  0  0  0
M  END
>  <CHROM.1>
11.51035481,12.31818186,7.05903957,-1.14106140,1.19821426,-1.99942745

>  <Name>
ligand

>  <RI>
0

>  <Rbt.Current_Directory>
/home/itssahil/PROJECTS/Mol_Feturizer/New_Systems/rnas/4FEP

>  <Rbt.Executable>
rbdock ($Id: //depot/dev/client3/rdock/2013.1/src/exe/rbdock.cxx#4 $)

>  <Rbt.Library>
libRbt.so (2013.1, Build901 2013/11/27)

>  <Rbt.Parameter_File>
/export/apps/rDock/src/rDock_2013.1_src/data/scripts/dock_solv.prm

>  <Rbt.Receptor>
prm/pocket_docking_4.prm

>  <SCORE>
-11.2628

>  <SCORE.INTER>
-11.2628

>  <SCORE.INTER.CONST>
1

>  <SCORE.INTER.POLAR>
0

>  <SCORE.INTER.ROT>
0

>  <SCORE.INTER.SOLV>
20.7535

>  <SCORE.INTER.VDW>
-18.0263

>  <SCORE.INTER.norm>
-1.02389

>  <SCORE.INTRA>
0

>  <SCORE.INTRA.DIHEDRAL>
0

>  <SCORE.INTRA.DIHEDRAL.0>
0

>  <SCORE.INTRA.POLAR>
0

>  <SCORE.INTRA.POLAR.0>
0

>  <SCORE.INTRA.REPUL>
0

>  <SCORE.INTRA.REPUL.0>
0

>  <SCORE.INTRA.SOLV>
0

>  <SCORE.INTRA.SOLV.lig_0>
-48.9558

>  <SCORE.INTRA.VDW>
0

>  <SCORE.INTRA.VDW.0>
0

>  <SCORE.INTRA.norm>
0

>  <SCORE.RESTR>
0

>  <SCORE.RESTR.CAVITY>
0

>  <SCORE.RESTR.norm>
0

>  <SCORE.SYSTEM>
0

>  <SCORE.SYSTEM.CONST>
0

>  <SCORE.SYSTEM.DIHEDRAL>
0

>  <SCORE.SYSTEM.SOLV>
0

>  <SCORE.SYSTEM.norm>
0

>  <SCORE.heavy>
11

>  <SCORE.norm>
-1.02389

>  <RMSD>
0.538

$$$$
ligand
 OpenBabel11021811493D
libRbt.so/2013.1/901 2013/11/27
 11 12  0  0  0  0  0  0  0  0999 V2000
   12.0212   11.6005    8.5953 N   0  0  0  0  0  0  0  0  0  0  0  0
   11.6129   12.8586    8.8266 C   0  0  0  0  0  0  0  0  0  0  0  0
   11.6499   13.3522   10.1198 N   0  0  0  0  0  0  0  0  0  0  0  0
   11.1704   13.6462    7.8328 N   0  0  0  0  0  0  0  0  0  0  0  0
   11.1218   13.1946    6.5579 C   0  0  0  0  0  0  0  0  0  0  0  0
   11.5438   11.8726    6.2671 C   0  0  0  0  0  0  0  0  0  0  0  0
   12.0050   11.0715    7.3538 C   0  0  0  0  0  0  0  0  0  0  0  0
   12.4319    9.7735    7.1472 N   0  0  0  0  0  0  0  0  0  0  0  0
   11.3880   11.6867    4.9331 N   0  0  0  0  0  0  0  0  0  0  0  0
   10.9124   12.7754    4.3977 C   0  0  0  0  0  0  0  0  0  0  0  0
   10.7324   13.7324    5.3582 N   0  0  0  0  0  0  0  0  0  0  0  0
  1  7  2  0  0  0  0
  1  2  1  0  0  0  0
  2  3  1  0  0  0  0
  2  4  2  0  0  0  0
  4  5  1  0  0  0  0
  5  6  2  0  0  0  0
  5 11  1  0  0  0  0
  6  7  1  0  0  0  0
  6  9  1  0  0  0  0
  7  8  1  0  0  0  0
  9 10  1  0  0  0  0
 10 11  2  0  0  0  0
M  END
>  <CHROM.1>
11.51292623,12.32191571,7.05997098,-1.13675195,1.19787670,-2.00481713

>  <Name>
ligand

>  <RI>
0

>  <Rbt.Current_Directory>
/home/itssahil/PROJECTS/Mol_Feturizer/New_Systems/rnas/4FEP

>  <Rbt.Executable>
rbdock ($Id: //depot/dev/client3/rdock/2013.1/src/exe/rbdock.cxx#4 $)

>  <Rbt.Library>
libRbt.so (2013.1, Build901 2013/11/27)

>  <Rbt.Parameter_File>
/export/apps/rDock/src/rDock_2013.1_src/data/scripts/dock_solv.prm

>  <Rbt.Receptor>
prm/pocket_docking_4.prm

>  <SCORE>
-11.2603

>  <SCORE.INTER>
-11.2603

>  <SCORE.INTER.CONST>
1

>  <SCORE.INTER.POLAR>
0

>  <SCORE.INTER.ROT>
0

>  <SCORE.INTER.SOLV>
20.7553

>  <SCORE.INTER.VDW>
-18.0253

>  <SCORE.INTER.norm>
-1.02366

>  <SCORE.INTRA>
0

>  <SCORE.INTRA.DIHEDRAL>
0

>  <SCORE.INTRA.DIHEDRAL.0>
0

>  <SCORE.INTRA.POLAR>
0

>  <SCORE.INTRA.POLAR.0>
0

>  <SCORE.INTRA.REPUL>
0

>  <SCORE.INTRA.REPUL.0>
0

>  <SCORE.INTRA.SOLV>
0

>  <SCORE.INTRA.SOLV.lig_0>
-48.9558

>  <SCORE.INTRA.VDW>
0

>  <SCORE.INTRA.VDW.0>
0

>  <SCORE.INTRA.norm>
0

>  <SCORE.RESTR>
0

>  <SCORE.RESTR.CAVITY>
0

>  <SCORE.RESTR.norm>
0

>  <SCORE.SYSTEM>
0

>  <SCORE.SYSTEM.CONST>
0

>  <SCORE.SYSTEM.DIHEDRAL>
0

>  <SCORE.SYSTEM.SOLV>
0

>  <SCORE.SYSTEM.norm>
0

>  <SCORE.heavy>
11

>  <SCORE.norm>
-1.02366

>  <RMSD>
0.538

$$$$
ligand
 OpenBabel11021811493D
libRbt.so/2013.1/901 2013/11/27
 11 12  0  0  0  0  0  0  0  0999 V2000
   12.0021   11.5755    8.5986 N   0  0  0  0  0  0  0  0  0  0  0  0
   11.6221   12.8416    8.8346 C   0  0  0  0  0  0  0  0  0  0  0  0
   11.6687   13.3290   10.1299 N   0  0  0  0  0  0  0  0  0  0  0  0
   11.1987   13.6431    7.8436 N   0  0  0  0  0  0  0  0  0  0  0  0
   11.1415   13.1978    6.5667 C   0  0  0  0  0  0  0  0  0  0  0  0
   11.5338   11.8678    6.2710 C   0  0  0  0  0  0  0  0  0  0  0  0
   11.9755   11.0520    7.3549 C   0  0  0  0  0  0  0  0  0  0  0  0
   12.3731    9.7456    7.1436 N   0  0  0  0  0  0  0  0  0  0  0  0
   11.3754   11.6909    4.9361 N   0  0  0  0  0  0  0  0  0  0  0  0
   10.9253   12.7923    4.4046 C   0  0  0  0  0  0  0  0  0  0  0  0
   10.7658   13.7492    5.3688 N   0  0  0  0  0  0  0  0  0  0  0  0
  1  7  2  0  0  0  0
  1  2  1  0  0  0  0
  2  3  1  0  0  0  0
  2  4  2  0  0  0  0
  4  5  1  0  0  0  0
  5  6  2  0  0  0  0
  5 11  1  0  0  0  0
  6  7  1  0  0  0  0
  6  9  1  0  0  0  0
  7  8  1  0  0  0  0
  9 10  1  0  0  0  0
 10 11  2  0  0  0  0
M  END
>  <CHROM.1>
11.51214446,12.31447845,7.06569280,-1.11234186,1.21882757,-2.02356192

>  <Name>
ligand

>  <RI>
0

>  <Rbt.Current_Directory>
/home/itssahil/PROJECTS/Mol_Feturizer/New_Systems/rnas/4FEP

>  <Rbt.Executable>
rbdock ($Id: //depot/dev/client3/rdock/2013.1/src/exe/rbdock.cxx#4 $)

>  <Rbt.Library>
libRbt.so (2013.1, Build901 2013/11/27)

>  <Rbt.Parameter_File>
/export/apps/rDock/src/rDock_2013.1_src/data/scripts/dock_solv.prm

>  <Rbt.Receptor>
prm/pocket_docking_4.prm

>  <SCORE>
-11.2344

>  <SCORE.INTER>
-11.2344

>  <SCORE.INTER.CONST>
1

>  <SCORE.INTER.POLAR>
0

>  <SCORE.INTER.ROT>
0

>  <SCORE.INTER.SOLV>
20.9245

>  <SCORE.INTER.VDW>
-18.0644

>  <SCORE.INTER.norm>
-1.02131

>  <SCORE.INTRA>
0

>  <SCORE.INTRA.DIHEDRAL>
0

>  <SCORE.INTRA.DIHEDRAL.0>
0

>  <SCORE.INTRA.POLAR>
0

>  <SCORE.INTRA.POLAR.0>
0

>  <SCORE.INTRA.REPUL>
0

>  <SCORE.INTRA.REPUL.0>
0

>  <SCORE.INTRA.SOLV>
0

>  <SCORE.INTRA.SOLV.lig_0>
-48.9558

>  <SCORE.INTRA.VDW>
0

>  <SCORE.INTRA.VDW.0>
0

>  <SCORE.INTRA.norm>
0

>  <SCORE.RESTR>
0

>  <SCORE.RESTR.CAVITY>
0

>  <SCORE.RESTR.norm>
0

>  <SCORE.SYSTEM>
0

>  <SCORE.SYSTEM.CONST>
0

>  <SCORE.SYSTEM.DIHEDRAL>
0

>  <SCORE.SYSTEM.SOLV>
0

>  <SCORE.SYSTEM.norm>
0

>  <SCORE.heavy>
11

>  <SCORE.norm>
-1.02131

>  <RMSD>
0.538

$$$$
ligand
 OpenBabel11021811493D
libRbt.so/2013.1/901 2013/11/27
 11 12  0  0  0  0  0  0  0  0999 V2000
   12.0354   11.6196    8.5992 N   0  0  0  0  0  0  0  0  0  0  0  0
   11.6147   12.8738    8.8289 C   0  0  0  0  0  0  0  0  0  0  0  0
   11.6443   13.3686   10.1219 N   0  0  0  0  0  0  0  0  0  0  0  0
   11.1668   13.6567    7.8337 N   0  0  0  0  0  0  0  0  0  0  0  0
   11.1253   13.2038    6.5589 C   0  0  0  0  0  0  0  0  0  0  0  0
   11.5604   11.8857    6.2698 C   0  0  0  0  0  0  0  0  0  0  0  0
   12.0269   11.0897    7.3580 C   0  0  0  0  0  0  0  0  0  0  0  0
   12.4665    9.7956    7.1531 N   0  0  0  0  0  0  0  0  0  0  0  0
   11.4092   11.6976    4.9356 N   0  0  0  0  0  0  0  0  0  0  0  0
   10.9244   12.7815    4.3986 C   0  0  0  0  0  0  0  0  0  0  0  0
   10.7333   13.7373    5.3581 N   0  0  0  0  0  0  0  0  0  0  0  0
  1  7  2  0  0  0  0
  1  2  1  0  0  0  0
  2  3  1  0  0  0  0
  2  4  2  0  0  0  0
  4  5  1  0  0  0  0
  5  6  2  0  0  0  0
  5 11  1  0  0  0  0
  6  7  1  0  0  0  0
  6  9  1  0  0  0  0
  7  8  1  0  0  0  0
  9 10  1  0  0  0  0
 10 11  2  0  0  0  0
M  END
>  <CHROM.1>
11.52357423,12.33519694,7.06238951,-1.15267769,1.19011935,-1.99060013

>  <Name>
ligand

>  <RI>
0

>  <Rbt.Current_Directory>
/home/itssahil/PROJECTS/Mol_Feturizer/New_Systems/rnas/4FEP

>  <Rbt.Executable>
rbdock ($Id: //depot/dev/client3/rdock/2013.1/src/exe/rbdock.cxx#4 $)

>  <Rbt.Library>
libRbt.so (2013.1, Build901 2013/11/27)

>  <Rbt.Parameter_File>
/export/apps/rDock/src/rDock_2013.1_src/data/scripts/dock_solv.prm

>  <Rbt.Receptor>
prm/pocket_docking_5.prm

>  <SCORE>
-11.212

>  <SCORE.INTER>
-11.212

>  <SCORE.INTER.CONST>
1

>  <SCORE.INTER.POLAR>
0

>  <SCORE.INTER.ROT>
0

>  <SCORE.INTER.SOLV>
20.6733

>  <SCORE.INTER.VDW>
-17.9657

>  <SCORE.INTER.norm>
-1.01927

>  <SCORE.INTRA>
0

>  <SCORE.INTRA.DIHEDRAL>
0

>  <SCORE.INTRA.DIHEDRAL.0>
0

>  <SCORE.INTRA.POLAR>
0

>  <SCORE.INTRA.POLAR.0>
0

>  <SCORE.INTRA.REPUL>
0

>  <SCORE.INTRA.REPUL.0>
0

>  <SCORE.INTRA.SOLV>
0

>  <SCORE.INTRA.SOLV.lig_0>
-48.9558

>  <SCORE.INTRA.VDW>
0

>  <SCORE.INTRA.VDW.0>
0

>  <SCORE.INTRA.norm>
0

>  <SCORE.RESTR>
0

>  <SCORE.RESTR.CAVITY>
0

>  <SCORE.RESTR.norm>
0

>  <SCORE.SYSTEM>
0

>  <SCORE.SYSTEM.CONST>
0

>  <SCORE.SYSTEM.DIHEDRAL>
0

>  <SCORE.SYSTEM.SOLV>
0

>  <SCORE.SYSTEM.norm>
0

>  <SCORE.heavy>
11

>  <SCORE.norm>
-1.01927

>  <RMSD>
0.538

$$$$
ligand
 OpenBabel11021811493D
libRbt.so/2013.1/901 2013/11/27
 11 12  0  0  0  0  0  0  0  0999 V2000
   12.0246   11.5916    8.5939 N   0  0  0  0  0  0  0  0  0  0  0  0
   11.6200   12.8502    8.8289 C   0  0  0  0  0  0  0  0  0  0  0  0
   11.6599   13.3404   10.1234 N   0  0  0  0  0  0  0  0  0  0  0  0
   11.1786   13.6416    7.8377 N   0  0  0  0  0  0  0  0  0  0  0  0
   11.1274   13.1934    6.5616 C   0  0  0  0  0  0  0  0  0  0  0  0
   11.5454   11.8710    6.2669 C   0  0  0  0  0  0  0  0  0  0  0  0
   12.0056   11.0658    7.3510 C   0  0  0  0  0  0  0  0  0  0  0  0
   12.4287    9.7672    7.1406 N   0  0  0  0  0  0  0  0  0  0  0  0
   11.3876   11.6890    4.9326 N   0  0  0  0  0  0  0  0  0  0  0  0
   10.9144   12.7804    4.4006 C   0  0  0  0  0  0  0  0  0  0  0  0
   10.7380   13.7354    5.3638 N   0  0  0  0  0  0  0  0  0  0  0  0
  1  7  2  0  0  0  0
  1  2  1  0  0  0  0
  2  3  1  0  0  0  0
  2  4  2  0  0  0  0
  4  5  1  0  0  0  0
  5  6  2  0  0  0  0
  5 11  1  0  0  0  0
  6  7  1  0  0  0  0
  6  9  1  0  0  0  0
  7  8  1  0  0  0  0
  9 10  1  0  0  0  0
 10 11  2  0  0  0  0
M  END
>  <CHROM.1>
11.51663182,12.31835693,7.06102569,-1.13077336,1.19988384,-2.00779013

>  <Name>
ligand

>  <RI>
0

>  <Rbt.Current_Directory>
/home/itssahil/PROJECTS/Mol_Feturizer/New_Systems/rnas/4FEP

>  <Rbt.Executable>
rbdock ($Id: //depot/dev/client3/rdock/2013.1/src/exe/rbdock.cxx#4 $)

>  <Rbt.Library>
libRbt.so (2013.1, Build901 2013/11/27)

>  <Rbt.Parameter_File>
/export/apps/rDock/src/rDock_2013.1_src/data/scripts/dock_solv.prm

>  <Rbt.Receptor>
prm/pocket_docking_6.prm

>  <SCORE>
-11.2594

>  <SCORE.INTER>
-11.2594

>  <SCORE.INTER.CONST>
1

>  <SCORE.INTER.POLAR>
0

>  <SCORE.INTER.ROT>
0

>  <SCORE.INTER.SOLV>
20.7526

>  <SCORE.INTER.VDW>
-18.0238

>  <SCORE.INTER.norm>
-1.02358

>  <SCORE.INTRA>
0

>  <SCORE.INTRA.DIHEDRAL>
0

>  <SCORE.INTRA.DIHEDRAL.0>
0

>  <SCORE.INTRA.POLAR>
0

>  <SCORE.INTRA.POLAR.0>
0

>  <SCORE.INTRA.REPUL>
0

>  <SCORE.INTRA.REPUL.0>
0

>  <SCORE.INTRA.SOLV>
0

>  <SCORE.INTRA.SOLV.lig_0>
-48.9558

>  <SCORE.INTRA.VDW>
0

>  <SCORE.INTRA.VDW.0>
0

>  <SCORE.INTRA.norm>
0

>  <SCORE.RESTR>
0

>  <SCORE.RESTR.CAVITY>
0

>  <SCORE.RESTR.norm>
0

>  <SCORE.SYSTEM>
0

>  <SCORE.SYSTEM.CONST>
0

>  <SCORE.SYSTEM.DIHEDRAL>
0

>  <SCORE.SYSTEM.SOLV>
0

>  <SCORE.SYSTEM.norm>
0

>  <SCORE.heavy>
11

>  <SCORE.norm>
-1.02358

>  <RMSD>
0.538

$$$$
ligand
 OpenBabel11021811493D
libRbt.so/2013.1/901 2013/11/27
 11 12  0  0  0  0  0  0  0  0999 V2000
   12.0245   11.5940    8.5947 N   0  0  0  0  0  0  0  0  0  0  0  0
   11.6212   12.8532    8.8284 C   0  0  0  0  0  0  0  0  0  0  0  0
   11.6625   13.3450   10.1222 N   0  0  0  0  0  0  0  0  0  0  0  0
   11.1797   13.6438    7.8365 N   0  0  0  0  0  0  0  0  0  0  0  0
   11.1271   13.1940    6.5611 C   0  0  0  0  0  0  0  0  0  0  0  0
   11.5437   11.8709    6.2678 C   0  0  0  0  0  0  0  0  0  0  0  0
   12.0041   11.0667    7.3525 C   0  0  0  0  0  0  0  0  0  0  0  0
   12.4258    9.7674    7.1434 N   0  0  0  0  0  0  0  0  0  0  0  0
   11.3847   11.6873    4.9338 N   0  0  0  0  0  0  0  0  0  0  0  0
   10.9120   12.7785    4.4008 C   0  0  0  0  0  0  0  0  0  0  0  0
   10.7373   13.7349    5.3629 N   0  0  0  0  0  0  0  0  0  0  0  0
  1  7  2  0  0  0  0
  1  2  1  0  0  0  0
  2  3  1  0  0  0  0
  2  4  2  0  0  0  0
  4  5  1  0  0  0  0
  5  6  2  0  0  0  0
  5 11  1  0  0  0  0
  6  7  1  0  0  0  0
  6  9  1  0  0  0  0
  7  8  1  0  0  0  0
  9 10  1  0  0  0  0
 10 11  2  0  0  0  0
M  END
>  <CHROM.1>
11.51597139,12.31926081,7.06130566,-1.12777906,1.20036431,-2.01184571

>  <Name>
ligand

>  <RI>
0

>  <Rbt.Current_Directory>
/home/itssahil/PROJECTS/Mol_Feturizer/New_Systems/rnas/4FEP

>  <Rbt.Executable>
rbdock ($Id: //depot/dev/client3/rdock/2013.1/src/exe/rbdock.cxx#4 $)

>  <Rbt.Library>
libRbt.so (2013.1, Build901 2013/11/27)

>  <Rbt.Parameter_File>
/export/apps/rDock/src/rDock_2013.1_src/data/scripts/dock_solv.prm

>  <Rbt.Receptor>
prm/pocket_docking_7.prm

>  <SCORE>
-11.2594

>  <SCORE.INTER>
-11.2594

>  <SCORE.INTER.CONST>
1

>  <SCORE.INTER.POLAR>
0

>  <SCORE.INTER.ROT>
0

>  <SCORE.INTER.SOLV>
20.7652

>  <SCORE.INTER.VDW>
-18.028

>  <SCORE.INTER.norm>
-1.02358

>  <SCORE.INTRA>
0

>  <SCORE.INTRA.DIHEDRAL>
0

>  <SCORE.INTRA.DIHEDRAL.0>
0

>  <SCORE.INTRA.POLAR>
0

>  <SCORE.INTRA.POLAR.0>
0

>  <SCORE.INTRA.REPUL>
0

>  <SCORE.INTRA.REPUL.0>
0

>  <SCORE.INTRA.SOLV>
0

>  <SCORE.INTRA.SOLV.lig_0>
-48.9558

>  <SCORE.INTRA.VDW>
0

>  <SCORE.INTRA.VDW.0>
0

>  <SCORE.INTRA.norm>
0

>  <SCORE.RESTR>
0

>  <SCORE.RESTR.CAVITY>
0

>  <SCORE.RESTR.norm>
0

>  <SCORE.SYSTEM>
0

>  <SCORE.SYSTEM.CONST>
0

>  <SCORE.SYSTEM.DIHEDRAL>
0

>  <SCORE.SYSTEM.SOLV>
0

>  <SCORE.SYSTEM.norm>
0

>  <SCORE.heavy>
11

>  <SCORE.norm>
-1.02358

>  <RMSD>
0.538

$$$$
ligand
 OpenBabel11021811493D
libRbt.so/2013.1/901 2013/11/27
 11 12  0  0  0  0  0  0  0  0999 V2000
   12.0144   11.5942    8.5942 N   0  0  0  0  0  0  0  0  0  0  0  0
   11.6030   12.8510    8.8269 C   0  0  0  0  0  0  0  0  0  0  0  0
   11.6352   13.3420   10.1212 N   0  0  0  0  0  0  0  0  0  0  0  0
   11.1619   13.6399    7.8334 N   0  0  0  0  0  0  0  0  0  0  0  0
   11.1181   13.1908    6.5574 C   0  0  0  0  0  0  0  0  0  0  0  0
   11.5434   11.8703    6.2651 C   0  0  0  0  0  0  0  0  0  0  0  0
   12.0029   11.0678    7.3515 C   0  0  0  0  0  0  0  0  0  0  0  0
   12.4329    9.7710    7.1435 N   0  0  0  0  0  0  0  0  0  0  0  0
   11.3919   11.6869    4.9303 N   0  0  0  0  0  0  0  0  0  0  0  0
   10.9159   12.7758    4.3958 C   0  0  0  0  0  0  0  0  0  0  0  0
   10.7312   13.7305    5.3577 N   0  0  0  0  0  0  0  0  0  0  0  0
  1  7  2  0  0  0  0
  1  2  1  0  0  0  0
  2  3  1  0  0  0  0
  2  4  2  0  0  0  0
  4  5  1  0  0  0  0
  5  6  2  0  0  0  0
  5 11  1  0  0  0  0
  6  7  1  0  0  0  0
  6  9  1  0  0  0  0
  7  8  1  0  0  0  0
  9 10  1  0  0  0  0
 10 11  2  0  0  0  0
M  END
>  <CHROM.1>
11.50931927,12.31787207,7.05885276,-1.14638034,1.19738691,-1.99375790

>  <Name>
ligand

>  <RI>
0

>  <Rbt.Current_Directory>
/home/itssahil/PROJECTS/Mol_Feturizer/New_Systems/rnas/4FEP

>  <Rbt.Executable>
rbdock ($Id: //depot/dev/client3/rdock/2013.1/src/exe/rbdock.cxx#4 $)

>  <Rbt.Library>
libRbt.so (2013.1, Build901 2013/11/27)

>  <Rbt.Parameter_File>
/export/apps/rDock/src/rDock_2013.1_src/data/scripts/dock_solv.prm

>  <Rbt.Receptor>
prm/pocket_docking_7.prm

>  <SCORE>
-11.2631

>  <SCORE.INTER>
-11.2631

>  <SCORE.INTER.CONST>
1

>  <SCORE.INTER.POLAR>
0

>  <SCORE.INTER.ROT>
0

>  <SCORE.INTER.SOLV>
20.7435

>  <SCORE.INTER.VDW>
-18.0233

>  <SCORE.INTER.norm>
-1.02392

>  <SCORE.INTRA>
0

>  <SCORE.INTRA.DIHEDRAL>
0

>  <SCORE.INTRA.DIHEDRAL.0>
0

>  <SCORE.INTRA.POLAR>
0

>  <SCORE.INTRA.POLAR.0>
0

>  <SCORE.INTRA.REPUL>
0

>  <SCORE.INTRA.REPUL.0>
0

>  <SCORE.INTRA.SOLV>
0

>  <SCORE.INTRA.SOLV.lig_0>
-48.9558

>  <SCORE.INTRA.VDW>
0

>  <SCORE.INTRA.VDW.0>
0

>  <SCORE.INTRA.norm>
0

>  <SCORE.RESTR>
0

>  <SCORE.RESTR.CAVITY>
0

>  <SCORE.RESTR.norm>
0

>  <SCORE.SYSTEM>
0

>  <SCORE.SYSTEM.CONST>
0

>  <SCORE.SYSTEM.DIHEDRAL>
0

>  <SCORE.SYSTEM.SOLV>
0

>  <SCORE.SYSTEM.norm>
0

>  <SCORE.heavy>
11

>  <SCORE.norm>
-1.02392

>  <RMSD>
0.538

$$$$
ligand
 OpenBabel11021811493D
libRbt.so/2013.1/901 2013/11/27
 11 12  0  0  0  0  0  0  0  0999 V2000
   12.0239   11.6029    8.5966 N   0  0  0  0  0  0  0  0  0  0  0  0
   11.6208   12.8626    8.8279 C   0  0  0  0  0  0  0  0  0  0  0  0
   11.6627   13.3570   10.1207 N   0  0  0  0  0  0  0  0  0  0  0  0
   11.1790   13.6512    7.8346 N   0  0  0  0  0  0  0  0  0  0  0  0
   11.1258   13.1988    6.5601 C   0  0  0  0  0  0  0  0  0  0  0  0
   11.5422   11.8751    6.2693 C   0  0  0  0  0  0  0  0  0  0  0  0
   12.0029   11.0730    7.3555 C   0  0  0  0  0  0  0  0  0  0  0  0
   12.4245    9.7733    7.1489 N   0  0  0  0  0  0  0  0  0  0  0  0
   11.3826   11.6888    4.9358 N   0  0  0  0  0  0  0  0  0  0  0  0
   10.9098   12.7790    4.4008 C   0  0  0  0  0  0  0  0  0  0  0  0
   10.7356   13.7373    5.3610 N   0  0  0  0  0  0  0  0  0  0  0  0
  1  7  2  0  0  0  0
  1  2  1  0  0  0  0
  2  3  1  0  0  0  0
  2  4  2  0  0  0  0
  4  5  1  0  0  0  0
  5  6  2  0  0  0  0
  5 11  1  0  0  0  0
  6  7  1  0  0  0  0
  6  9  1  0  0  0  0
  7  8  1  0  0  0  0
  9 10  1  0  0  0  0
 10 11  2  0  0  0  0
M  END
>  <CHROM.1>
11.51480825,12.32506528,7.06193804,-1.12663717,1.20026974,-2.01494018

>  <Name>
ligand

>  <RI>
0

>  <Rbt.Current_Directory>
/home/itssahil/PROJECTS/Mol_Feturizer/New_Systems/rnas/4FEP

>  <Rbt.Executable>
rbdock ($Id: //depot/dev/client3/rdock/2013.1/src/exe/rbdock.cxx#4 $)

>  <Rbt.Library>
libRbt.so (2013.1, Build901 2013/11/27)

>  <Rbt.Parameter_File>
/export/apps/rDock/src/rDock_2013.1_src/data/scripts/dock_solv.prm

>  <Rbt.Receptor>
prm/pocket_docking_7.prm

>  <SCORE>
-11.2564

>  <SCORE.INTER>
-11.2564

>  <SCORE.INTER.CONST>
1

>  <SCORE.INTER.POLAR>
0

>  <SCORE.INTER.ROT>
0

>  <SCORE.INTER.SOLV>
20.7823

>  <SCORE.INTER.VDW>
-18.0317

>  <SCORE.INTER.norm>
-1.02331

>  <SCORE.INTRA>
0

>  <SCORE.INTRA.DIHEDRAL>
0

>  <SCORE.INTRA.DIHEDRAL.0>
0

>  <SCORE.INTRA.POLAR>
0

>  <SCORE.INTRA.POLAR.0>
0

>  <SCORE.INTRA.REPUL>
0

>  <SCORE.INTRA.REPUL.0>
0

>  <SCORE.INTRA.SOLV>
0

>  <SCORE.INTRA.SOLV.lig_0>
-48.9558

>  <SCORE.INTRA.VDW>
0

>  <SCORE.INTRA.VDW.0>
0

>  <SCORE.INTRA.norm>
0

>  <SCORE.RESTR>
0

>  <SCORE.RESTR.CAVITY>
0

>  <SCORE.RESTR.norm>
0

>  <SCORE.SYSTEM>
0

>  <SCORE.SYSTEM.CONST>
0

>  <SCORE.SYSTEM.DIHEDRAL>
0

>  <SCORE.SYSTEM.SOLV>
0

>  <SCORE.SYSTEM.norm>
0

>  <SCORE.heavy>
11

>  <SCORE.norm>
-1.02331

>  <RMSD>
0.538

$$$$
ligand
 OpenBabel11021811493D
libRbt.so/2013.1/901 2013/11/27
 11 12  0  0  0  0  0  0  0  0999 V2000
   12.0027   11.5899    8.6016 N   0  0  0  0  0  0  0  0  0  0  0  0
   11.6141   12.8544    8.8316 C   0  0  0  0  0  0  0  0  0  0  0  0
   11.6540   13.3471   10.1251 N   0  0  0  0  0  0  0  0  0  0  0  0
   11.1886   13.6495    7.8363 N   0  0  0  0  0  0  0  0  0  0  0  0
   11.1379   13.1990    6.5610 C   0  0  0  0  0  0  0  0  0  0  0  0
   11.5393   11.8703    6.2716 C   0  0  0  0  0  0  0  0  0  0  0  0
   11.9830   11.0615    7.3599 C   0  0  0  0  0  0  0  0  0  0  0  0
   12.3894    9.7568    7.1546 N   0  0  0  0  0  0  0  0  0  0  0  0
   11.3859   11.6873    4.9368 N   0  0  0  0  0  0  0  0  0  0  0  0
   10.9304   12.7839    4.3999 C   0  0  0  0  0  0  0  0  0  0  0  0
   10.7621   13.7434    5.3599 N   0  0  0  0  0  0  0  0  0  0  0  0
  1  7  2  0  0  0  0
  1  2  1  0  0  0  0
  2  3  1  0  0  0  0
  2  4  2  0  0  0  0
  4  5  1  0  0  0  0
  5  6  2  0  0  0  0
  5 11  1  0  0  0  0
  6  7  1  0  0  0  0
  6  9  1  0  0  0  0
  7  8  1  0  0  0  0
  9 10  1  0  0  0  0
 10 11  2  0  0  0  0
M  END
>  <CHROM.1>
11.51257574,12.31991039,7.06443884,-1.12759690,1.21441456,-2.01309301

>  <Name>
ligand

>  <RI>
0

>  <Rbt.Current_Directory>
/home/itssahil/PROJECTS/Mol_Feturizer/New_Systems/rnas/4FEP

>  <Rbt.Executable>
rbdock ($Id: //depot/dev/client3/rdock/2013.1/src/exe/rbdock.cxx#4 $)

>  <Rbt.Library>
libRbt.so (2013.1, Build901 2013/11/27)

>  <Rbt.Parameter_File>
/export/apps/rDock/src/rDock_2013.1_src/data/scripts/dock_solv.prm

>  <Rbt.Receptor>
prm/pocket_docking_8.prm

>  <SCORE>
-11.2418

>  <SCORE.INTER>
-11.2418

>  <SCORE.INTER.CONST>
1

>  <SCORE.INTER.POLAR>
0

>  <SCORE.INTER.ROT>
0

>  <SCORE.INTER.SOLV>
20.8938

>  <SCORE.INTER.VDW>
-18.0591

>  <SCORE.INTER.norm>
-1.02198

>  <SCORE.INTRA>
0

>  <SCORE.INTRA.DIHEDRAL>
0

>  <SCORE.INTRA.DIHEDRAL.0>
0

>  <SCORE.INTRA.POLAR>
0

>  <SCORE.INTRA.POLAR.0>
0

>  <SCORE.INTRA.REPUL>
0

>  <SCORE.INTRA.REPUL.0>
0

>  <SCORE.INTRA.SOLV>
0

>  <SCORE.INTRA.SOLV.lig_0>
-48.9558

>  <SCORE.INTRA.VDW>
0

>  <SCORE.INTRA.VDW.0>
0

>  <SCORE.INTRA.norm>
0

>  <SCORE.RESTR>
0

>  <SCORE.RESTR.CAVITY>
0

>  <SCORE.RESTR.norm>
0

>  <SCORE.SYSTEM>
0

>  <SCORE.SYSTEM.CONST>
0

>  <SCORE.SYSTEM.DIHEDRAL>
0

>  <SCORE.SYSTEM.SOLV>
0

>  <SCORE.SYSTEM.norm>
0

>  <SCORE.heavy>
11

>  <SCORE.norm>
-1.02198

>  <RMSD>
0.538

$$$$
ligand
 OpenBabel11021811493D
libRbt.so/2013.1/901 2013/11/27
 11 12  0  0  0  0  0  0  0  0999 V2000
   12.0283   11.6002    8.5944 N   0  0  0  0  0  0  0  0  0  0  0  0
   11.5972   12.8544    8.8043 C   0  0  0  0  0  0  0  0  0  0  0  0
   11.6198   13.3687   10.0898 N   0  0  0  0  0  0  0  0  0  0  0  0
   11.1457   13.6187    7.7964 N   0  0  0  0  0  0  0  0  0  0  0  0
   11.1108   13.1465    6.5285 C   0  0  0  0  0  0  0  0  0  0  0  0
   11.5570   11.8277    6.2602 C   0  0  0  0  0  0  0  0  0  0  0  0
   12.0271   11.0517    7.3613 C   0  0  0  0  0  0  0  0  0  0  0  0
   12.4773    9.7583    7.1769 N   0  0  0  0  0  0  0  0  0  0  0  0
   11.4105   11.6184    4.9286 N   0  0  0  0  0  0  0  0  0  0  0  0
   10.9186   12.6903    4.3743 C   0  0  0  0  0  0  0  0  0  0  0  0
   10.7176   13.6588    5.3189 N   0  0  0  0  0  0  0  0  0  0  0  0
  1  7  2  0  0  0  0
  1  2  1  0  0  0  0
  2  3  1  0  0  0  0
  2  4  2  0  0  0  0
  4  5  1  0  0  0  0
  5  6  2  0  0  0  0
  5 11  1  0  0  0  0
  6  7  1  0  0  0  0
  6  9  1  0  0  0  0
  7  8  1  0  0  0  0
  9 10  1  0  0  0  0
 10 11  2  0  0  0  0
M  END
>  <CHROM.1>
11.51470025,12.28869528,7.04587650,-1.16712909,1.18390576,-1.99218186

>  <Name>
ligand

>  <RI>
0

>  <Rbt.Current_Directory>
/home/itssahil/PROJECTS/Mol_Feturizer/New_Systems/rnas/4FEP

>  <Rbt.Executable>
rbdock ($Id: //depot/dev/client3/rdock/2013.1/src/exe/rbdock.cxx#4 $)

>  <Rbt.Library>
libRbt.so (2013.1, Build901 2013/11/27)

>  <Rbt.Parameter_File>
/export/apps/rDock/src/rDock_2013.1_src/data/scripts/dock_solv.prm

>  <Rbt.Receptor>
prm/pocket_docking_8.prm

>  <SCORE>
-11.1581

>  <SCORE.INTER>
-11.1581

>  <SCORE.INTER.CONST>
1

>  <SCORE.INTER.POLAR>
0

>  <SCORE.INTER.ROT>
0

>  <SCORE.INTER.SOLV>
20.6103

>  <SCORE.INTER.VDW>
-17.9088

>  <SCORE.INTER.norm>
-1.01437

>  <SCORE.INTRA>
0

>  <SCORE.INTRA.DIHEDRAL>
0

>  <SCORE.INTRA.DIHEDRAL.0>
0

>  <SCORE.INTRA.POLAR>
0

>  <SCORE.INTRA.POLAR.0>
0

>  <SCORE.INTRA.REPUL>
0

>  <SCORE.INTRA.REPUL.0>
0

>  <SCORE.INTRA.SOLV>
0

>  <SCORE.INTRA.SOLV.lig_0>
-48.9558

>  <SCORE.INTRA.VDW>
0

>  <SCORE.INTRA.VDW.0>
0

>  <SCORE.INTRA.norm>
0

>  <SCORE.RESTR>
0

>  <SCORE.RESTR.CAVITY>
0

>  <SCORE.RESTR.norm>
0

>  <SCORE.SYSTEM>
0

>  <SCORE.SYSTEM.CONST>
0

>  <SCORE.SYSTEM.DIHEDRAL>
0

>  <SCORE.SYSTEM.SOLV>
0

>  <SCORE.SYSTEM.norm>
0

>  <SCORE.heavy>
11

>  <SCORE.norm>
-1.01437

>  <RMSD>
0.538

$$$$
ligand
 OpenBabel11021811493D
libRbt.so/2013.1/901 2013/11/27
 11 12  0  0  0  0  0  0  0  0999 V2000
   12.0184   11.5969    8.5951 N   0  0  0  0  0  0  0  0  0  0  0  0
   11.6072   12.8538    8.8277 C   0  0  0  0  0  0  0  0  0  0  0  0
   11.6403   13.3452   10.1220 N   0  0  0  0  0  0  0  0  0  0  0  0
   11.1657   13.6425    7.8344 N   0  0  0  0  0  0  0  0  0  0  0  0
   11.1210   13.1931    6.5585 C   0  0  0  0  0  0  0  0  0  0  0  0
   11.5461   11.8724    6.2663 C   0  0  0  0  0  0  0  0  0  0  0  0
   12.0062   11.0701    7.3527 C   0  0  0  0  0  0  0  0  0  0  0  0
   12.4359    9.7733    7.1448 N   0  0  0  0  0  0  0  0  0  0  0  0
   11.3938   11.6887    4.9316 N   0  0  0  0  0  0  0  0  0  0  0  0
   10.9175   12.7775    4.3971 C   0  0  0  0  0  0  0  0  0  0  0  0
   10.7335   13.7324    5.3589 N   0  0  0  0  0  0  0  0  0  0  0  0
  1  7  2  0  0  0  0
  1  2  1  0  0  0  0
  2  3  1  0  0  0  0
  2  4  2  0  0  0  0
  4  5  1  0  0  0  0
  5  6  2  0  0  0  0
  5 11  1  0  0  0  0
  6  7  1  0  0  0  0
  6  9  1  0  0  0  0
  7  8  1  0  0  0  0
  9 10  1  0  0  0  0
 10 11  2  0  0  0  0
M  END
>  <CHROM.1>
11.51250313,12.32019879,7.05993870,-1.14478463,1.19723781,-1.99551057

>  <Name>
ligand

>  <RI>
0

>  <Rbt.Current_Directory>
/home/itssahil/PROJECTS/Mol_Feturizer/New_Systems/rnas/4FEP

>  <Rbt.Executable>
rbdock ($Id: //depot/dev/client3/rdock/2013.1/src/exe/rbdock.cxx#4 $)

>  <Rbt.Library>
libRbt.so (2013.1, Build901 2013/11/27)

>  <Rbt.Parameter_File>
/export/apps/rDock/src/rDock_2013.1_src/data/scripts/dock_solv.prm

>  <Rbt.Receptor>
prm/pocket_docking_8.prm

>  <SCORE>
-11.2623

>  <SCORE.INTER>
-11.2623

>  <SCORE.INTER.CONST>
1

>  <SCORE.INTER.POLAR>
0

>  <SCORE.INTER.ROT>
0

>  <SCORE.INTER.SOLV>
20.7381

>  <SCORE.INTER.VDW>
-18.0209

>  <SCORE.INTER.norm>
-1.02384

>  <SCORE.INTRA>
0

>  <SCORE.INTRA.DIHEDRAL>
0

>  <SCORE.INTRA.DIHEDRAL.0>
0

>  <SCORE.INTRA.POLAR>
0

>  <SCORE.INTRA.POLAR.0>
0

>  <SCORE.INTRA.REPUL>
0

>  <SCORE.INTRA.REPUL.0>
0

>  <SCORE.INTRA.SOLV>
0

>  <SCORE.INTRA.SOLV.lig_0>
-48.9558

>  <SCORE.INTRA.VDW>
0

>  <SCORE.INTRA.VDW.0>
0

>  <SCORE.INTRA.norm>
0

>  <SCORE.RESTR>
0

>  <SCORE.RESTR.CAVITY>
0

>  <SCORE.RESTR.norm>
0

>  <SCORE.SYSTEM>
0

>  <SCORE.SYSTEM.CONST>
0

>  <SCORE.SYSTEM.DIHEDRAL>
0

>  <SCORE.SYSTEM.SOLV>
0

>  <SCORE.SYSTEM.norm>
0

>  <SCORE.heavy>
11

>  <SCORE.norm>
-1.02384

>  <RMSD>
0.538

$$$$
ligand
 OpenBabel11021811493D
libRbt.so/2013.1/901 2013/11/27
 11 12  0  0  0  0  0  0  0  0999 V2000
   12.0101   11.5926    8.5935 N   0  0  0  0  0  0  0  0  0  0  0  0
   11.5983   12.8492    8.8262 C   0  0  0  0  0  0  0  0  0  0  0  0
   11.6293   13.3397   10.1208 N   0  0  0  0  0  0  0  0  0  0  0  0
   11.1582   13.6384    7.8327 N   0  0  0  0  0  0  0  0  0  0  0  0
   11.1156   13.1899    6.5565 C   0  0  0  0  0  0  0  0  0  0  0  0
   11.5414   11.8695    6.2641 C   0  0  0  0  0  0  0  0  0  0  0  0
   11.9999   11.0666    7.3506 C   0  0  0  0  0  0  0  0  0  0  0  0
   12.4302    9.7699    7.1425 N   0  0  0  0  0  0  0  0  0  0  0  0
   11.3912   11.6866    4.9290 N   0  0  0  0  0  0  0  0  0  0  0  0
   10.9156   12.7757    4.3945 C   0  0  0  0  0  0  0  0  0  0  0  0
   10.7298   13.7299    5.3566 N   0  0  0  0  0  0  0  0  0  0  0  0
  1  7  2  0  0  0  0
  1  2  1  0  0  0  0
  2  3  1  0  0  0  0
  2  4  2  0  0  0  0
  4  5  1  0  0  0  0
  5  6  2  0  0  0  0
  5 11  1  0  0  0  0
  6  7  1  0  0  0  0
  6  9  1  0  0  0  0
  7  8  1  0  0  0  0
  9 10  1  0  0  0  0
 10 11  2  0  0  0  0
M  END
>  <CHROM.1>
11.50645426,12.31674439,7.05793878,-1.14893833,1.19770555,-1.99098267

>  <Name>
ligand

>  <RI>
0

>  <Rbt.Current_Directory>
/home/itssahil/PROJECTS/Mol_Feturizer/New_Systems/rnas/4FEP

>  <Rbt.Executable>
rbdock ($Id: //depot/dev/client3/rdock/2013.1/src/exe/rbdock.cxx#4 $)

>  <Rbt.Library>
libRbt.so (2013.1, Build901 2013/11/27)

>  <Rbt.Parameter_File>
/export/apps/rDock/src/rDock_2013.1_src/data/scripts/dock_solv.prm

>  <Rbt.Receptor>
prm/blind_docking_100.prm

>  <SCORE>
-11.2633

>  <SCORE.INTER>
-11.2633

>  <SCORE.INTER.CONST>
1

>  <SCORE.INTER.POLAR>
0

>  <SCORE.INTER.ROT>
0

>  <SCORE.INTER.SOLV>
20.7499

>  <SCORE.INTER.VDW>
-18.0255

>  <SCORE.INTER.norm>
-1.02394

>  <SCORE.INTRA>
0

>  <SCORE.INTRA.DIHEDRAL>
0

>  <SCORE.INTRA.DIHEDRAL.0>
0

>  <SCORE.INTRA.POLAR>
0

>  <SCORE.INTRA.POLAR.0>
0

>  <SCORE.INTRA.REPUL>
0

>  <SCORE.INTRA.REPUL.0>
0

>  <SCORE.INTRA.SOLV>
0

>  <SCORE.INTRA.SOLV.lig_0>
-48.9558

>  <SCORE.INTRA.VDW>
0

>  <SCORE.INTRA.VDW.0>
0

>  <SCORE.INTRA.norm>
0

>  <SCORE.RESTR>
0

>  <SCORE.RESTR.CAVITY>
0

>  <SCORE.RESTR.norm>
0

>  <SCORE.SYSTEM>
0

>  <SCORE.SYSTEM.CONST>
0

>  <SCORE.SYSTEM.DIHEDRAL>
0

>  <SCORE.SYSTEM.SOLV>
0

>  <SCORE.SYSTEM.norm>
0

>  <SCORE.heavy>
11

>  <SCORE.norm>
-1.02394

>  <RMSD>
0.539

$$$$
ligand
 OpenBabel11021811493D
libRbt.so/2013.1/901 2013/11/27
 11 12  0  0  0  0  0  0  0  0999 V2000
   12.0164   11.5867    8.5921 N   0  0  0  0  0  0  0  0  0  0  0  0
   11.6151   12.8462    8.8279 C   0  0  0  0  0  0  0  0  0  0  0  0
   11.6555   13.3352   10.1228 N   0  0  0  0  0  0  0  0  0  0  0  0
   11.1764   13.6397    7.8371 N   0  0  0  0  0  0  0  0  0  0  0  0
   11.1248   13.1926    6.5606 C   0  0  0  0  0  0  0  0  0  0  0  0
   11.5394   11.8694    6.2651 C   0  0  0  0  0  0  0  0  0  0  0  0
   11.9967   11.0621    7.3488 C   0  0  0  0  0  0  0  0  0  0  0  0
   12.4164    9.7624    7.1376 N   0  0  0  0  0  0  0  0  0  0  0  0
   11.3819   11.6889    4.9305 N   0  0  0  0  0  0  0  0  0  0  0  0
   10.9120   12.7821    4.3992 C   0  0  0  0  0  0  0  0  0  0  0  0
   10.7377   13.7368    5.3630 N   0  0  0  0  0  0  0  0  0  0  0  0
  1  7  2  0  0  0  0
  1  2  1  0  0  0  0
  2  3  1  0  0  0  0
  2  4  2  0  0  0  0
  4  5  1  0  0  0  0
  5  6  2  0  0  0  0
  5 11  1  0  0  0  0
  6  7  1  0  0  0  0
  6  9  1  0  0  0  0
  7  8  1  0  0  0  0
  9 10  1  0  0  0  0
 10 11  2  0  0  0  0
M  END
>  <CHROM.1>
11.51135972,12.31615299,7.05955328,-1.12909618,1.20262963,-2.00852638

>  <Name>
ligand

>  <RI>
0

>  <Rbt.Current_Directory>
/home/itssahil/PROJECTS/Mol_Feturizer/New_Systems/rnas/4FEP

>  <Rbt.Executable>
rbdock ($Id: //depot/dev/client3/rdock/2013.1/src/exe/rbdock.cxx#4 $)

>  <Rbt.Library>
libRbt.so (2013.1, Build901 2013/11/27)

>  <Rbt.Parameter_File>
/export/apps/rDock/src/rDock_2013.1_src/data/scripts/dock_solv.prm

>  <Rbt.Receptor>
prm/blind_docking_60.prm

>  <SCORE>
-11.2596

>  <SCORE.INTER>
-11.2596

>  <SCORE.INTER.CONST>
1

>  <SCORE.INTER.POLAR>
0

>  <SCORE.INTER.ROT>
0

>  <SCORE.INTER.SOLV>
20.7859

>  <SCORE.INTER.VDW>
-18.035

>  <SCORE.INTER.norm>
-1.0236

>  <SCORE.INTRA>
0

>  <SCORE.INTRA.DIHEDRAL>
0

>  <SCORE.INTRA.DIHEDRAL.0>
0

>  <SCORE.INTRA.POLAR>
0

>  <SCORE.INTRA.POLAR.0>
0

>  <SCORE.INTRA.REPUL>
0

>  <SCORE.INTRA.REPUL.0>
0

>  <SCORE.INTRA.SOLV>
0

>  <SCORE.INTRA.SOLV.lig_0>
-48.9558

>  <SCORE.INTRA.VDW>
0

>  <SCORE.INTRA.VDW.0>
0

>  <SCORE.INTRA.norm>
0

>  <SCORE.RESTR>
0

>  <SCORE.RESTR.CAVITY>
0

>  <SCORE.RESTR.norm>
0

>  <SCORE.SYSTEM>
0

>  <SCORE.SYSTEM.CONST>
0

>  <SCORE.SYSTEM.DIHEDRAL>
0

>  <SCORE.SYSTEM.SOLV>
0

>  <SCORE.SYSTEM.norm>
0

>  <SCORE.heavy>
11

>  <SCORE.norm>
-1.0236

>  <RMSD>
0.539

$$$$
ligand
 OpenBabel11021811493D
libRbt.so/2013.1/901 2013/11/27
 11 12  0  0  0  0  0  0  0  0999 V2000
   12.0183   11.5944    8.5934 N   0  0  0  0  0  0  0  0  0  0  0  0
   11.6103   12.8520    8.8276 C   0  0  0  0  0  0  0  0  0  0  0  0
   11.6457   13.3420   10.1223 N   0  0  0  0  0  0  0  0  0  0  0  0
   11.1698   13.6427    7.8354 N   0  0  0  0  0  0  0  0  0  0  0  0
   11.1230   13.1947    6.5591 C   0  0  0  0  0  0  0  0  0  0  0  0
   11.5446   11.8733    6.2653 C   0  0  0  0  0  0  0  0  0  0  0  0
   12.0037   11.0689    7.3504 C   0  0  0  0  0  0  0  0  0  0  0  0
   12.4301    9.7712    7.1408 N   0  0  0  0  0  0  0  0  0  0  0  0
   11.3907   11.6913    4.9305 N   0  0  0  0  0  0  0  0  0  0  0  0
   10.9166   12.7819    4.3975 C   0  0  0  0  0  0  0  0  0  0  0  0
   10.7357   13.7362    5.3604 N   0  0  0  0  0  0  0  0  0  0  0  0
  1  7  2  0  0  0  0
  1  2  1  0  0  0  0
  2  3  1  0  0  0  0
  2  4  2  0  0  0  0
  4  5  1  0  0  0  0
  5  6  2  0  0  0  0
  5 11  1  0  0  0  0
  6  7  1  0  0  0  0
  6  9  1  0  0  0  0
  7  8  1  0  0  0  0
  9 10  1  0  0  0  0
 10 11  2  0  0  0  0
M  END
>  <CHROM.1>
11.51277186,12.32042575,7.05936628,-1.13988721,1.19905372,-1.99906040

>  <Name>
ligand

>  <RI>
0

>  <Rbt.Current_Directory>
/home/itssahil/PROJECTS/Mol_Feturizer/New_Systems/rnas/4FEP

>  <Rbt.Executable>
rbdock ($Id: //depot/dev/client3/rdock/2013.1/src/exe/rbdock.cxx#4 $)

>  <Rbt.Library>
libRbt.so (2013.1, Build901 2013/11/27)

>  <Rbt.Parameter_File>
/export/apps/rDock/src/rDock_2013.1_src/data/scripts/dock_solv.prm

>  <Rbt.Receptor>
prm/pocket_docking_3.prm

>  <SCORE>
-11.2593

>  <SCORE.INTER>
-11.2593

>  <SCORE.INTER.CONST>
1

>  <SCORE.INTER.POLAR>
0

>  <SCORE.INTER.ROT>
0

>  <SCORE.INTER.SOLV>
20.7534

>  <SCORE.INTER.VDW>
-18.024

>  <SCORE.INTER.norm>
-1.02357

>  <SCORE.INTRA>
0

>  <SCORE.INTRA.DIHEDRAL>
0

>  <SCORE.INTRA.DIHEDRAL.0>
0

>  <SCORE.INTRA.POLAR>
0

>  <SCORE.INTRA.POLAR.0>
0

>  <SCORE.INTRA.REPUL>
0

>  <SCORE.INTRA.REPUL.0>
0

>  <SCORE.INTRA.SOLV>
0

>  <SCORE.INTRA.SOLV.lig_0>
-48.9558

>  <SCORE.INTRA.VDW>
0

>  <SCORE.INTRA.VDW.0>
0

>  <SCORE.INTRA.norm>
0

>  <SCORE.RESTR>
0

>  <SCORE.RESTR.CAVITY>
0

>  <SCORE.RESTR.norm>
0

>  <SCORE.SYSTEM>
0

>  <SCORE.SYSTEM.CONST>
0

>  <SCORE.SYSTEM.DIHEDRAL>
0

>  <SCORE.SYSTEM.SOLV>
0

>  <SCORE.SYSTEM.norm>
0

>  <SCORE.heavy>
11

>  <SCORE.norm>
-1.02357

>  <RMSD>
0.539

$$$$
ligand
 OpenBabel11021811493D
libRbt.so/2013.1/901 2013/11/27
 11 12  0  0  0  0  0  0  0  0999 V2000
   12.0027   11.5846    8.5995 N   0  0  0  0  0  0  0  0  0  0  0  0
   11.6125   12.8482    8.8316 C   0  0  0  0  0  0  0  0  0  0  0  0
   11.6509   13.3385   10.1261 N   0  0  0  0  0  0  0  0  0  0  0  0
   11.1868   13.6446    7.8375 N   0  0  0  0  0  0  0  0  0  0  0  0
   11.1374   13.1965    6.5613 C   0  0  0  0  0  0  0  0  0  0  0  0
   11.5406   11.8689    6.2696 C   0  0  0  0  0  0  0  0  0  0  0  0
   11.9844   11.0585    7.3568 C   0  0  0  0  0  0  0  0  0  0  0  0
   12.3924    9.7546    7.1494 N   0  0  0  0  0  0  0  0  0  0  0  0
   11.3883   11.6882    4.9345 N   0  0  0  0  0  0  0  0  0  0  0  0
   10.9319   12.7852    4.3993 C   0  0  0  0  0  0  0  0  0  0  0  0
   10.7619   13.7428    5.3610 N   0  0  0  0  0  0  0  0  0  0  0  0
  1  7  2  0  0  0  0
  1  2  1  0  0  0  0
  2  3  1  0  0  0  0
  2  4  2  0  0  0  0
  4  5  1  0  0  0  0
  5  6  2  0  0  0  0
  5 11  1  0  0  0  0
  6  7  1  0  0  0  0
  6  9  1  0  0  0  0
  7  8  1  0  0  0  0
  9 10  1  0  0  0  0
 10 11  2  0  0  0  0
M  END
>  <CHROM.1>
11.51280119,12.31691431,7.06336278,-1.13079005,1.21368994,-2.00822017

>  <Name>
ligand

>  <RI>
0

>  <Rbt.Current_Directory>
/home/itssahil/PROJECTS/Mol_Feturizer/New_Systems/rnas/4FEP

>  <Rbt.Executable>
rbdock ($Id: //depot/dev/client3/rdock/2013.1/src/exe/rbdock.cxx#4 $)

>  <Rbt.Library>
libRbt.so (2013.1, Build901 2013/11/27)

>  <Rbt.Parameter_File>
/export/apps/rDock/src/rDock_2013.1_src/data/scripts/dock_solv.prm

>  <Rbt.Receptor>
prm/pocket_docking_3.prm

>  <SCORE>
-11.2422

>  <SCORE.INTER>
-11.2422

>  <SCORE.INTER.CONST>
1

>  <SCORE.INTER.POLAR>
0

>  <SCORE.INTER.ROT>
0

>  <SCORE.INTER.SOLV>
20.8742

>  <SCORE.INTER.VDW>
-18.0529

>  <SCORE.INTER.norm>
-1.02202

>  <SCORE.INTRA>
0

>  <SCORE.INTRA.DIHEDRAL>
0

>  <SCORE.INTRA.DIHEDRAL.0>
0

>  <SCORE.INTRA.POLAR>
0

>  <SCORE.INTRA.POLAR.0>
0

>  <SCORE.INTRA.REPUL>
0

>  <SCORE.INTRA.REPUL.0>
0

>  <SCORE.INTRA.SOLV>
0

>  <SCORE.INTRA.SOLV.lig_0>
-48.9558

>  <SCORE.INTRA.VDW>
0

>  <SCORE.INTRA.VDW.0>
0

>  <SCORE.INTRA.norm>
0

>  <SCORE.RESTR>
0

>  <SCORE.RESTR.CAVITY>
0

>  <SCORE.RESTR.norm>
0

>  <SCORE.SYSTEM>
0

>  <SCORE.SYSTEM.CONST>
0

>  <SCORE.SYSTEM.DIHEDRAL>
0

>  <SCORE.SYSTEM.SOLV>
0

>  <SCORE.SYSTEM.norm>
0

>  <SCORE.heavy>
11

>  <SCORE.norm>
-1.02202

>  <RMSD>
0.539

$$$$
ligand
 OpenBabel11021811493D
libRbt.so/2013.1/901 2013/11/27
 11 12  0  0  0  0  0  0  0  0999 V2000
   12.0379   11.6129    8.5965 N   0  0  0  0  0  0  0  0  0  0  0  0
   11.6210   12.8680    8.8286 C   0  0  0  0  0  0  0  0  0  0  0  0
   11.6543   13.3609   10.1223 N   0  0  0  0  0  0  0  0  0  0  0  0
   11.1734   13.6534    7.8353 N   0  0  0  0  0  0  0  0  0  0  0  0
   11.1284   13.2025    6.5600 C   0  0  0  0  0  0  0  0  0  0  0  0
   11.5594   11.8836    6.2684 C   0  0  0  0  0  0  0  0  0  0  0  0
   12.0257   11.0848    7.3546 C   0  0  0  0  0  0  0  0  0  0  0  0
   12.4614    9.7899    7.1471 N   0  0  0  0  0  0  0  0  0  0  0  0
   11.4052   11.6977    4.9341 N   0  0  0  0  0  0  0  0  0  0  0  0
   10.9224   12.7836    4.3995 C   0  0  0  0  0  0  0  0  0  0  0  0
   10.7356   13.7386    5.3607 N   0  0  0  0  0  0  0  0  0  0  0  0
  1  7  2  0  0  0  0
  1  2  1  0  0  0  0
  2  3  1  0  0  0  0
  2  4  2  0  0  0  0
  4  5  1  0  0  0  0
  5  6  2  0  0  0  0
  5 11  1  0  0  0  0
  6  7  1  0  0  0  0
  6  9  1  0  0  0  0
  7  8  1  0  0  0  0
  9 10  1  0  0  0  0
 10 11  2  0  0  0  0
M  END
>  <CHROM.1>
11.52520897,12.33207933,7.06158696,-1.14523527,1.19183944,-1.99613757

>  <Name>
ligand

>  <RI>
0

>  <Rbt.Current_Directory>
/home/itssahil/PROJECTS/Mol_Feturizer/New_Systems/rnas/4FEP

>  <Rbt.Executable>
rbdock ($Id: //depot/dev/client3/rdock/2013.1/src/exe/rbdock.cxx#4 $)

>  <Rbt.Library>
libRbt.so (2013.1, Build901 2013/11/27)

>  <Rbt.Parameter_File>
/export/apps/rDock/src/rDock_2013.1_src/data/scripts/dock_solv.prm

>  <Rbt.Receptor>
prm/pocket_docking_3.prm

>  <SCORE>
-11.2103

>  <SCORE.INTER>
-11.2103

>  <SCORE.INTER.CONST>
1

>  <SCORE.INTER.POLAR>
0

>  <SCORE.INTER.ROT>
0

>  <SCORE.INTER.SOLV>
20.6806

>  <SCORE.INTER.VDW>
-17.9671

>  <SCORE.INTER.norm>
-1.01912

>  <SCORE.INTRA>
0

>  <SCORE.INTRA.DIHEDRAL>
0

>  <SCORE.INTRA.DIHEDRAL.0>
0

>  <SCORE.INTRA.POLAR>
0

>  <SCORE.INTRA.POLAR.0>
0

>  <SCORE.INTRA.REPUL>
0

>  <SCORE.INTRA.REPUL.0>
0

>  <SCORE.INTRA.SOLV>
0

>  <SCORE.INTRA.SOLV.lig_0>
-48.9558

>  <SCORE.INTRA.VDW>
0

>  <SCORE.INTRA.VDW.0>
0

>  <SCORE.INTRA.norm>
0

>  <SCORE.RESTR>
0

>  <SCORE.RESTR.CAVITY>
0

>  <SCORE.RESTR.norm>
0

>  <SCORE.SYSTEM>
0

>  <SCORE.SYSTEM.CONST>
0

>  <SCORE.SYSTEM.DIHEDRAL>
0

>  <SCORE.SYSTEM.SOLV>
0

>  <SCORE.SYSTEM.norm>
0

>  <SCORE.heavy>
11

>  <SCORE.norm>
-1.01912

>  <RMSD>
0.539

$$$$
ligand
 OpenBabel11021811493D
libRbt.so/2013.1/901 2013/11/27
 11 12  0  0  0  0  0  0  0  0999 V2000
   12.0094   11.6006    8.6020 N   0  0  0  0  0  0  0  0  0  0  0  0
   11.6163   12.8640    8.8304 C   0  0  0  0  0  0  0  0  0  0  0  0
   11.6569   13.3592   10.1230 N   0  0  0  0  0  0  0  0  0  0  0  0
   11.1856   13.6555    7.8345 N   0  0  0  0  0  0  0  0  0  0  0  0
   11.1341   13.2024    6.5602 C   0  0  0  0  0  0  0  0  0  0  0  0
   11.5402   11.8748    6.2724 C   0  0  0  0  0  0  0  0  0  0  0  0
   11.9892   11.0698    7.3613 C   0  0  0  0  0  0  0  0  0  0  0  0
   12.4003    9.7662    7.1576 N   0  0  0  0  0  0  0  0  0  0  0  0
   11.3848   11.6888    4.9383 N   0  0  0  0  0  0  0  0  0  0  0  0
   10.9238   12.7825    4.4003 C   0  0  0  0  0  0  0  0  0  0  0  0
   10.7538   13.7432    5.3589 N   0  0  0  0  0  0  0  0  0  0  0  0
  1  7  2  0  0  0  0
  1  2  1  0  0  0  0
  2  3  1  0  0  0  0
  2  4  2  0  0  0  0
  4  5  1  0  0  0  0
  5  6  2  0  0  0  0
  5 11  1  0  0  0  0
  6  7  1  0  0  0  0
  6  9  1  0  0  0  0
  7  8  1  0  0  0  0
  9 10  1  0  0  0  0
 10 11  2  0  0  0  0
M  END
>  <CHROM.1>
11.51329241,12.32576326,7.06448982,-1.12715036,1.20999091,-2.01536387

>  <Name>
ligand

>  <RI>
0

>  <Rbt.Current_Directory>
/home/itssahil/PROJECTS/Mol_Feturizer/New_Systems/rnas/4FEP

>  <Rbt.Executable>
rbdock ($Id: //depot/dev/client3/rdock/2013.1/src/exe/rbdock.cxx#4 $)

>  <Rbt.Library>
libRbt.so (2013.1, Build901 2013/11/27)

>  <Rbt.Parameter_File>
/export/apps/rDock/src/rDock_2013.1_src/data/scripts/dock_solv.prm

>  <Rbt.Receptor>
prm/pocket_docking_4.prm

>  <SCORE>
-11.2361

>  <SCORE.INTER>
-11.2361

>  <SCORE.INTER.CONST>
1

>  <SCORE.INTER.POLAR>
0

>  <SCORE.INTER.ROT>
0

>  <SCORE.INTER.SOLV>
20.8681

>  <SCORE.INTER.VDW>
-18.0467

>  <SCORE.INTER.norm>
-1.02146

>  <SCORE.INTRA>
0

>  <SCORE.INTRA.DIHEDRAL>
0

>  <SCORE.INTRA.DIHEDRAL.0>
0

>  <SCORE.INTRA.POLAR>
0

>  <SCORE.INTRA.POLAR.0>
0

>  <SCORE.INTRA.REPUL>
0

>  <SCORE.INTRA.REPUL.0>
0

>  <SCORE.INTRA.SOLV>
0

>  <SCORE.INTRA.SOLV.lig_0>
-48.9558

>  <SCORE.INTRA.VDW>
0

>  <SCORE.INTRA.VDW.0>
0

>  <SCORE.INTRA.norm>
0

>  <SCORE.RESTR>
0

>  <SCORE.RESTR.CAVITY>
0

>  <SCORE.RESTR.norm>
0

>  <SCORE.SYSTEM>
0

>  <SCORE.SYSTEM.CONST>
0

>  <SCORE.SYSTEM.DIHEDRAL>
0

>  <SCORE.SYSTEM.SOLV>
0

>  <SCORE.SYSTEM.norm>
0

>  <SCORE.heavy>
11

>  <SCORE.norm>
-1.02146

>  <RMSD>
0.539

$$$$
ligand
 OpenBabel11021811493D
libRbt.so/2013.1/901 2013/11/27
 11 12  0  0  0  0  0  0  0  0999 V2000
   12.0218   11.5903    8.5923 N   0  0  0  0  0  0  0  0  0  0  0  0
   11.6194   12.8496    8.8271 C   0  0  0  0  0  0  0  0  0  0  0  0
   11.6609   13.3403   10.1213 N   0  0  0  0  0  0  0  0  0  0  0  0
   11.1786   13.6414    7.8358 N   0  0  0  0  0  0  0  0  0  0  0  0
   11.1258   13.1927    6.5600 C   0  0  0  0  0  0  0  0  0  0  0  0
   11.5416   11.8695    6.2656 C   0  0  0  0  0  0  0  0  0  0  0  0
   12.0012   11.0641    7.3498 C   0  0  0  0  0  0  0  0  0  0  0  0
   12.4221    9.7647    7.1396 N   0  0  0  0  0  0  0  0  0  0  0  0
   11.3826   11.6872    4.9314 N   0  0  0  0  0  0  0  0  0  0  0  0
   10.9108   12.7792    4.3993 C   0  0  0  0  0  0  0  0  0  0  0  0
   10.7366   13.7348    5.3621 N   0  0  0  0  0  0  0  0  0  0  0  0
  1  7  2  0  0  0  0
  1  2  1  0  0  0  0
  2  3  1  0  0  0  0
  2  4  2  0  0  0  0
  4  5  1  0  0  0  0
  5  6  2  0  0  0  0
  5 11  1  0  0  0  0
  6  7  1  0  0  0  0
  6  9  1  0  0  0  0
  7  8  1  0  0  0  0
  9 10  1  0  0  0  0
 10 11  2  0  0  0  0
M  END
>  <CHROM.1>
11.51402513,12.31725177,7.05950639,-1.12730249,1.20105688,-2.01145735

>  <Name>
ligand

>  <RI>
0

>  <Rbt.Current_Directory>
/home/itssahil/PROJECTS/Mol_Feturizer/New_Systems/rnas/4FEP

>  <Rbt.Executable>
rbdock ($Id: //depot/dev/client3/rdock/2013.1/src/exe/rbdock.cxx#4 $)

>  <Rbt.Library>
libRbt.so (2013.1, Build901 2013/11/27)

>  <Rbt.Parameter_File>
/export/apps/rDock/src/rDock_2013.1_src/data/scripts/dock_solv.prm

>  <Rbt.Receptor>
prm/pocket_docking_5.prm

>  <SCORE>
-11.2586

>  <SCORE.INTER>
-11.2586

>  <SCORE.INTER.CONST>
1

>  <SCORE.INTER.POLAR>
0

>  <SCORE.INTER.ROT>
0

>  <SCORE.INTER.SOLV>
20.7719

>  <SCORE.INTER.VDW>
-18.0297

>  <SCORE.INTER.norm>
-1.02351

>  <SCORE.INTRA>
0

>  <SCORE.INTRA.DIHEDRAL>
0

>  <SCORE.INTRA.DIHEDRAL.0>
0

>  <SCORE.INTRA.POLAR>
0

>  <SCORE.INTRA.POLAR.0>
0

>  <SCORE.INTRA.REPUL>
0

>  <SCORE.INTRA.REPUL.0>
0

>  <SCORE.INTRA.SOLV>
0

>  <SCORE.INTRA.SOLV.lig_0>
-48.9558

>  <SCORE.INTRA.VDW>
0

>  <SCORE.INTRA.VDW.0>
0

>  <SCORE.INTRA.norm>
0

>  <SCORE.RESTR>
0

>  <SCORE.RESTR.CAVITY>
0

>  <SCORE.RESTR.norm>
0

>  <SCORE.SYSTEM>
0

>  <SCORE.SYSTEM.CONST>
0

>  <SCORE.SYSTEM.DIHEDRAL>
0

>  <SCORE.SYSTEM.SOLV>
0

>  <SCORE.SYSTEM.norm>
0

>  <SCORE.heavy>
11

>  <SCORE.norm>
-1.02351

>  <RMSD>
0.539

$$$$
ligand
 OpenBabel11021811493D
libRbt.so/2013.1/901 2013/11/27
 11 12  0  0  0  0  0  0  0  0999 V2000
   12.0250   11.6022    8.5954 N   0  0  0  0  0  0  0  0  0  0  0  0
   11.6216   12.8618    8.8268 C   0  0  0  0  0  0  0  0  0  0  0  0
   11.6638   13.3563   10.1196 N   0  0  0  0  0  0  0  0  0  0  0  0
   11.1793   13.6503    7.8337 N   0  0  0  0  0  0  0  0  0  0  0  0
   11.1258   13.1978    6.5592 C   0  0  0  0  0  0  0  0  0  0  0  0
   11.5424   11.8742    6.2683 C   0  0  0  0  0  0  0  0  0  0  0  0
   12.0037   11.0723    7.3544 C   0  0  0  0  0  0  0  0  0  0  0  0
   12.4255    9.7726    7.1477 N   0  0  0  0  0  0  0  0  0  0  0  0
   11.3825   11.6879    4.9348 N   0  0  0  0  0  0  0  0  0  0  0  0
   10.9093   12.7779    4.3999 C   0  0  0  0  0  0  0  0  0  0  0  0
   10.7351   13.7362    5.3601 N   0  0  0  0  0  0  0  0  0  0  0  0
  1  7  2  0  0  0  0
  1  2  1  0  0  0  0
  2  3  1  0  0  0  0
  2  4  2  0  0  0  0
  4  5  1  0  0  0  0
  5  6  2  0  0  0  0
  5 11  1  0  0  0  0
  6  7  1  0  0  0  0
  6  9  1  0  0  0  0
  7  8  1  0  0  0  0
  9 10  1  0  0  0  0
 10 11  2  0  0  0  0
M  END
>  <CHROM.1>
11.51519751,12.32418605,7.06091196,-1.12617344,1.19991724,-2.01540960

>  <Name>
ligand

>  <RI>
0

>  <Rbt.Current_Directory>
/home/itssahil/PROJECTS/Mol_Feturizer/New_Systems/rnas/4FEP

>  <Rbt.Executable>
rbdock ($Id: //depot/dev/client3/rdock/2013.1/src/exe/rbdock.cxx#4 $)

>  <Rbt.Library>
libRbt.so (2013.1, Build901 2013/11/27)

>  <Rbt.Parameter_File>
/export/apps/rDock/src/rDock_2013.1_src/data/scripts/dock_solv.prm

>  <Rbt.Receptor>
prm/pocket_docking_5.prm

>  <SCORE>
-11.2561

>  <SCORE.INTER>
-11.2561

>  <SCORE.INTER.CONST>
1

>  <SCORE.INTER.POLAR>
0

>  <SCORE.INTER.ROT>
0

>  <SCORE.INTER.SOLV>
20.7778

>  <SCORE.INTER.VDW>
-18.03

>  <SCORE.INTER.norm>
-1.02328

>  <SCORE.INTRA>
0

>  <SCORE.INTRA.DIHEDRAL>
0

>  <SCORE.INTRA.DIHEDRAL.0>
0

>  <SCORE.INTRA.POLAR>
0

>  <SCORE.INTRA.POLAR.0>
0

>  <SCORE.INTRA.REPUL>
0

>  <SCORE.INTRA.REPUL.0>
0

>  <SCORE.INTRA.SOLV>
0

>  <SCORE.INTRA.SOLV.lig_0>
-48.9558

>  <SCORE.INTRA.VDW>
0

>  <SCORE.INTRA.VDW.0>
0

>  <SCORE.INTRA.norm>
0

>  <SCORE.RESTR>
0

>  <SCORE.RESTR.CAVITY>
0

>  <SCORE.RESTR.norm>
0

>  <SCORE.SYSTEM>
0

>  <SCORE.SYSTEM.CONST>
0

>  <SCORE.SYSTEM.DIHEDRAL>
0

>  <SCORE.SYSTEM.SOLV>
0

>  <SCORE.SYSTEM.norm>
0

>  <SCORE.heavy>
11

>  <SCORE.norm>
-1.02328

>  <RMSD>
0.539

$$$$
ligand
 OpenBabel11021811493D
libRbt.so/2013.1/901 2013/11/27
 11 12  0  0  0  0  0  0  0  0999 V2000
   12.0326   11.5943    8.5931 N   0  0  0  0  0  0  0  0  0  0  0  0
   11.6365   12.8555    8.8284 C   0  0  0  0  0  0  0  0  0  0  0  0
   11.6862   13.3474   10.1219 N   0  0  0  0  0  0  0  0  0  0  0  0
   11.1943   13.6481    7.8384 N   0  0  0  0  0  0  0  0  0  0  0  0
   11.1337   13.1983    6.5633 C   0  0  0  0  0  0  0  0  0  0  0  0
   11.5425   11.8731    6.2684 C   0  0  0  0  0  0  0  0  0  0  0  0
   12.0038   11.0668    7.3512 C   0  0  0  0  0  0  0  0  0  0  0  0
   12.4183    9.7654    7.1405 N   0  0  0  0  0  0  0  0  0  0  0  0
   11.3764   11.6900    4.9352 N   0  0  0  0  0  0  0  0  0  0  0  0
   10.9067   12.7834    4.4041 C   0  0  0  0  0  0  0  0  0  0  0  0
   10.7411   13.7408    5.3668 N   0  0  0  0  0  0  0  0  0  0  0  0
  1  7  2  0  0  0  0
  1  2  1  0  0  0  0
  2  3  1  0  0  0  0
  2  4  2  0  0  0  0
  4  5  1  0  0  0  0
  5  6  2  0  0  0  0
  5 11  1  0  0  0  0
  6  7  1  0  0  0  0
  6  9  1  0  0  0  0
  7  8  1  0  0  0  0
  9 10  1  0  0  0  0
 10 11  2  0  0  0  0
M  END
>  <CHROM.1>
11.52056284,12.32174125,7.06194320,-1.11041767,1.20279774,-2.02825496

>  <Name>
ligand

>  <RI>
0

>  <Rbt.Current_Directory>
/home/itssahil/PROJECTS/Mol_Feturizer/New_Systems/rnas/4FEP

>  <Rbt.Executable>
rbdock ($Id: //depot/dev/client3/rdock/2013.1/src/exe/rbdock.cxx#4 $)

>  <Rbt.Library>
libRbt.so (2013.1, Build901 2013/11/27)

>  <Rbt.Parameter_File>
/export/apps/rDock/src/rDock_2013.1_src/data/scripts/dock_solv.prm

>  <Rbt.Receptor>
prm/pocket_docking_6.prm

>  <SCORE>
-11.2486

>  <SCORE.INTER>
-11.2486

>  <SCORE.INTER.CONST>
1

>  <SCORE.INTER.POLAR>
0

>  <SCORE.INTER.ROT>
0

>  <SCORE.INTER.SOLV>
20.7871

>  <SCORE.INTER.VDW>
-18.0281

>  <SCORE.INTER.norm>
-1.0226

>  <SCORE.INTRA>
0

>  <SCORE.INTRA.DIHEDRAL>
0

>  <SCORE.INTRA.DIHEDRAL.0>
0

>  <SCORE.INTRA.POLAR>
0

>  <SCORE.INTRA.POLAR.0>
0

>  <SCORE.INTRA.REPUL>
0

>  <SCORE.INTRA.REPUL.0>
0

>  <SCORE.INTRA.SOLV>
0

>  <SCORE.INTRA.SOLV.lig_0>
-48.9558

>  <SCORE.INTRA.VDW>
0

>  <SCORE.INTRA.VDW.0>
0

>  <SCORE.INTRA.norm>
0

>  <SCORE.RESTR>
0

>  <SCORE.RESTR.CAVITY>
0

>  <SCORE.RESTR.norm>
0

>  <SCORE.SYSTEM>
0

>  <SCORE.SYSTEM.CONST>
0

>  <SCORE.SYSTEM.DIHEDRAL>
0

>  <SCORE.SYSTEM.SOLV>
0

>  <SCORE.SYSTEM.norm>
0

>  <SCORE.heavy>
11

>  <SCORE.norm>
-1.0226

>  <RMSD>
0.539

$$$$
ligand
 OpenBabel11021811493D
libRbt.so/2013.1/901 2013/11/27
 11 12  0  0  0  0  0  0  0  0999 V2000
   12.0185   11.6014    8.5946 N   0  0  0  0  0  0  0  0  0  0  0  0
   11.6102   12.8596    8.8251 C   0  0  0  0  0  0  0  0  0  0  0  0
   11.6468   13.3539   10.1181 N   0  0  0  0  0  0  0  0  0  0  0  0
   11.1681   13.6468    7.8308 N   0  0  0  0  0  0  0  0  0  0  0  0
   11.1200   13.1945    6.5561 C   0  0  0  0  0  0  0  0  0  0  0  0
   11.5420   11.8724    6.2661 C   0  0  0  0  0  0  0  0  0  0  0  0
   12.0028   11.0718    7.3534 C   0  0  0  0  0  0  0  0  0  0  0  0
   12.4297    9.7736    7.1476 N   0  0  0  0  0  0  0  0  0  0  0  0
   11.3867   11.6859    4.9321 N   0  0  0  0  0  0  0  0  0  0  0  0
   10.9114   12.7744    4.3960 C   0  0  0  0  0  0  0  0  0  0  0  0
   10.7311   13.7318    5.3560 N   0  0  0  0  0  0  0  0  0  0  0  0
  1  7  2  0  0  0  0
  1  2  1  0  0  0  0
  2  3  1  0  0  0  0
  2  4  2  0  0  0  0
  4  5  1  0  0  0  0
  5  6  2  0  0  0  0
  5 11  1  0  0  0  0
  6  7  1  0  0  0  0
  6  9  1  0  0  0  0
  7  8  1  0  0  0  0
  9 10  1  0  0  0  0
 10 11  2  0  0  0  0
M  END
>  <CHROM.1>
11.51088168,12.32209411,7.05874313,-1.13760955,1.19809256,-2.00450703

>  <Name>
ligand

>  <RI>
0

>  <Rbt.Current_Directory>
/home/itssahil/PROJECTS/Mol_Feturizer/New_Systems/rnas/4FEP

>  <Rbt.Executable>
rbdock ($Id: //depot/dev/client3/rdock/2013.1/src/exe/rbdock.cxx#4 $)

>  <Rbt.Library>
libRbt.so (2013.1, Build901 2013/11/27)

>  <Rbt.Parameter_File>
/export/apps/rDock/src/rDock_2013.1_src/data/scripts/dock_solv.prm

>  <Rbt.Receptor>
prm/pocket_docking_8.prm

>  <SCORE>
-11.2602

>  <SCORE.INTER>
-11.2602

>  <SCORE.INTER.CONST>
1

>  <SCORE.INTER.POLAR>
0

>  <SCORE.INTER.ROT>
0

>  <SCORE.INTER.SOLV>
20.7642

>  <SCORE.INTER.VDW>
-18.0282

>  <SCORE.INTER.norm>
-1.02365

>  <SCORE.INTRA>
0

>  <SCORE.INTRA.DIHEDRAL>
0

>  <SCORE.INTRA.DIHEDRAL.0>
0

>  <SCORE.INTRA.POLAR>
0

>  <SCORE.INTRA.POLAR.0>
0

>  <SCORE.INTRA.REPUL>
0

>  <SCORE.INTRA.REPUL.0>
0

>  <SCORE.INTRA.SOLV>
0

>  <SCORE.INTRA.SOLV.lig_0>
-48.9558

>  <SCORE.INTRA.VDW>
0

>  <SCORE.INTRA.VDW.0>
0

>  <SCORE.INTRA.norm>
0

>  <SCORE.RESTR>
0

>  <SCORE.RESTR.CAVITY>
0

>  <SCORE.RESTR.norm>
0

>  <SCORE.SYSTEM>
0

>  <SCORE.SYSTEM.CONST>
0

>  <SCORE.SYSTEM.DIHEDRAL>
0

>  <SCORE.SYSTEM.SOLV>
0

>  <SCORE.SYSTEM.norm>
0

>  <SCORE.heavy>
11

>  <SCORE.norm>
-1.02365

>  <RMSD>
0.539

$$$$
ligand
 OpenBabel11021811493D
libRbt.so/2013.1/901 2013/11/27
 11 12  0  0  0  0  0  0  0  0999 V2000
   12.0036   11.5871    8.5970 N   0  0  0  0  0  0  0  0  0  0  0  0
   11.6060   12.8484    8.8290 C   0  0  0  0  0  0  0  0  0  0  0  0
   11.6424   13.3393   10.1233 N   0  0  0  0  0  0  0  0  0  0  0  0
   11.1748   13.6420    7.8350 N   0  0  0  0  0  0  0  0  0  0  0  0
   11.1272   13.1932    6.5590 C   0  0  0  0  0  0  0  0  0  0  0  0
   11.5382   11.8679    6.2674 C   0  0  0  0  0  0  0  0  0  0  0  0
   11.9876   11.0605    7.3544 C   0  0  0  0  0  0  0  0  0  0  0  0
   12.4033    9.7590    7.1471 N   0  0  0  0  0  0  0  0  0  0  0  0
   11.3860   11.6859    4.9324 N   0  0  0  0  0  0  0  0  0  0  0  0
   10.9227   12.7800    4.3972 C   0  0  0  0  0  0  0  0  0  0  0  0
   10.7476   13.7368    5.3588 N   0  0  0  0  0  0  0  0  0  0  0  0
  1  7  2  0  0  0  0
  1  2  1  0  0  0  0
  2  3  1  0  0  0  0
  2  4  2  0  0  0  0
  4  5  1  0  0  0  0
  5  6  2  0  0  0  0
  5 11  1  0  0  0  0
  6  7  1  0  0  0  0
  6  9  1  0  0  0  0
  7  8  1  0  0  0  0
  9 10  1  0  0  0  0
 10 11  2  0  0  0  0
M  END
>  <CHROM.1>
11.50824108,12.31599347,7.06099694,-1.13613939,1.20794271,-2.00350439

>  <Name>
ligand

>  <RI>
0

>  <Rbt.Current_Directory>
/home/itssahil/PROJECTS/Mol_Feturizer/New_Systems/rnas/4FEP

>  <Rbt.Executable>
rbdock ($Id: //depot/dev/client3/rdock/2013.1/src/exe/rbdock.cxx#4 $)

>  <Rbt.Library>
libRbt.so (2013.1, Build901 2013/11/27)

>  <Rbt.Parameter_File>
/export/apps/rDock/src/rDock_2013.1_src/data/scripts/dock_solv.prm

>  <Rbt.Receptor>
prm/pocket_docking_8.prm

>  <SCORE>
-11.239

>  <SCORE.INTER>
-11.239

>  <SCORE.INTER.CONST>
1

>  <SCORE.INTER.POLAR>
0

>  <SCORE.INTER.ROT>
0

>  <SCORE.INTER.SOLV>
20.8372

>  <SCORE.INTER.VDW>
-18.0384

>  <SCORE.INTER.norm>
-1.02173

>  <SCORE.INTRA>
0

>  <SCORE.INTRA.DIHEDRAL>
0

>  <SCORE.INTRA.DIHEDRAL.0>
0

>  <SCORE.INTRA.POLAR>
0

>  <SCORE.INTRA.POLAR.0>
0

>  <SCORE.INTRA.REPUL>
0

>  <SCORE.INTRA.REPUL.0>
0

>  <SCORE.INTRA.SOLV>
0

>  <SCORE.INTRA.SOLV.lig_0>
-48.9558

>  <SCORE.INTRA.VDW>
0

>  <SCORE.INTRA.VDW.0>
0

>  <SCORE.INTRA.norm>
0

>  <SCORE.RESTR>
0

>  <SCORE.RESTR.CAVITY>
0

>  <SCORE.RESTR.norm>
0

>  <SCORE.SYSTEM>
0

>  <SCORE.SYSTEM.CONST>
0

>  <SCORE.SYSTEM.DIHEDRAL>
0

>  <SCORE.SYSTEM.SOLV>
0

>  <SCORE.SYSTEM.norm>
0

>  <SCORE.heavy>
11

>  <SCORE.norm>
-1.02173

>  <RMSD>
0.539

$$$$
ligand
 OpenBabel11021811493D
libRbt.so/2013.1/901 2013/11/27
 11 12  0  0  0  0  0  0  0  0999 V2000
   12.0217   11.5994    8.5939 N   0  0  0  0  0  0  0  0  0  0  0  0
   11.6197   12.8592    8.8264 C   0  0  0  0  0  0  0  0  0  0  0  0
   11.6620   13.3524   10.1197 N   0  0  0  0  0  0  0  0  0  0  0  0
   11.1785   13.6491    7.8339 N   0  0  0  0  0  0  0  0  0  0  0  0
   11.1250   13.1980    6.5590 C   0  0  0  0  0  0  0  0  0  0  0  0
   11.5403   11.8742    6.2669 C   0  0  0  0  0  0  0  0  0  0  0  0
   12.0003   11.0707    7.3523 C   0  0  0  0  0  0  0  0  0  0  0  0
   12.4208    9.7708    7.1445 N   0  0  0  0  0  0  0  0  0  0  0  0
   11.3806   11.6894    4.9332 N   0  0  0  0  0  0  0  0  0  0  0  0
   10.9087   12.7804    4.3992 C   0  0  0  0  0  0  0  0  0  0  0  0
   10.7353   13.7380    5.3603 N   0  0  0  0  0  0  0  0  0  0  0  0
  1  7  2  0  0  0  0
  1  2  1  0  0  0  0
  2  3  1  0  0  0  0
  2  4  2  0  0  0  0
  4  5  1  0  0  0  0
  5  6  2  0  0  0  0
  5 11  1  0  0  0  0
  6  7  1  0  0  0  0
  6  9  1  0  0  0  0
  7  8  1  0  0  0  0
  9 10  1  0  0  0  0
 10 11  2  0  0  0  0
M  END
>  <CHROM.1>
11.51326368,12.32346980,7.05994695,-1.12572109,1.20102687,-2.01483770

>  <Name>
ligand

>  <RI>
0

>  <Rbt.Current_Directory>
/home/itssahil/PROJECTS/Mol_Feturizer/New_Systems/rnas/4FEP

>  <Rbt.Executable>
rbdock ($Id: //depot/dev/client3/rdock/2013.1/src/exe/rbdock.cxx#4 $)

>  <Rbt.Library>
libRbt.so (2013.1, Build901 2013/11/27)

>  <Rbt.Parameter_File>
/export/apps/rDock/src/rDock_2013.1_src/data/scripts/dock_solv.prm

>  <Rbt.Receptor>
prm/blind_docking_100.prm

>  <SCORE>
-11.2549

>  <SCORE.INTER>
-11.2549

>  <SCORE.INTER.CONST>
1

>  <SCORE.INTER.POLAR>
0

>  <SCORE.INTER.ROT>
0

>  <SCORE.INTER.SOLV>
20.7892

>  <SCORE.INTER.VDW>
-18.033

>  <SCORE.INTER.norm>
-1.02317

>  <SCORE.INTRA>
0

>  <SCORE.INTRA.DIHEDRAL>
0

>  <SCORE.INTRA.DIHEDRAL.0>
0

>  <SCORE.INTRA.POLAR>
0

>  <SCORE.INTRA.POLAR.0>
0

>  <SCORE.INTRA.REPUL>
0

>  <SCORE.INTRA.REPUL.0>
0

>  <SCORE.INTRA.SOLV>
0

>  <SCORE.INTRA.SOLV.lig_0>
-48.9558

>  <SCORE.INTRA.VDW>
0

>  <SCORE.INTRA.VDW.0>
0

>  <SCORE.INTRA.norm>
0

>  <SCORE.RESTR>
0

>  <SCORE.RESTR.CAVITY>
0

>  <SCORE.RESTR.norm>
0

>  <SCORE.SYSTEM>
0

>  <SCORE.SYSTEM.CONST>
0

>  <SCORE.SYSTEM.DIHEDRAL>
0

>  <SCORE.SYSTEM.SOLV>
0

>  <SCORE.SYSTEM.norm>
0

>  <SCORE.heavy>
11

>  <SCORE.norm>
-1.02317

>  <RMSD>
0.540

$$$$
ligand
 OpenBabel11021811493D
libRbt.so/2013.1/901 2013/11/27
 11 12  0  0  0  0  0  0  0  0999 V2000
   12.0264   11.6035    8.5937 N   0  0  0  0  0  0  0  0  0  0  0  0
   11.6167   12.8611    8.8248 C   0  0  0  0  0  0  0  0  0  0  0  0
   11.6542   13.3554   10.1178 N   0  0  0  0  0  0  0  0  0  0  0  0
   11.1723   13.6478    7.8311 N   0  0  0  0  0  0  0  0  0  0  0  0
   11.1232   13.1955    6.5564 C   0  0  0  0  0  0  0  0  0  0  0  0
   11.5466   11.8739    6.2658 C   0  0  0  0  0  0  0  0  0  0  0  0
   12.0098   11.0739    7.3525 C   0  0  0  0  0  0  0  0  0  0  0  0
   12.4382    9.7763    7.1461 N   0  0  0  0  0  0  0  0  0  0  0  0
   11.3899   11.6873    4.9320 N   0  0  0  0  0  0  0  0  0  0  0  0
   10.9125   12.7752    4.3966 C   0  0  0  0  0  0  0  0  0  0  0  0
   10.7321   13.7323    5.3568 N   0  0  0  0  0  0  0  0  0  0  0  0
  1  7  2  0  0  0  0
  1  2  1  0  0  0  0
  2  3  1  0  0  0  0
  2  4  2  0  0  0  0
  4  5  1  0  0  0  0
  5  6  2  0  0  0  0
  5 11  1  0  0  0  0
  6  7  1  0  0  0  0
  6  9  1  0  0  0  0
  7  8  1  0  0  0  0
  9 10  1  0  0  0  0
 10 11  2  0  0  0  0
M  END
>  <CHROM.1>
11.51587953,12.32353964,7.05854961,-1.13606504,1.19636252,-2.00588826

>  <Name>
ligand

>  <RI>
0

>  <Rbt.Current_Directory>
/home/itssahil/PROJECTS/Mol_Feturizer/New_Systems/rnas/4FEP

>  <Rbt.Executable>
rbdock ($Id: //depot/dev/client3/rdock/2013.1/src/exe/rbdock.cxx#4 $)

>  <Rbt.Library>
libRbt.so (2013.1, Build901 2013/11/27)

>  <Rbt.Parameter_File>
/export/apps/rDock/src/rDock_2013.1_src/data/scripts/dock_solv.prm

>  <Rbt.Receptor>
prm/blind_docking_60.prm

>  <SCORE>
-11.2573

>  <SCORE.INTER>
-11.2573

>  <SCORE.INTER.CONST>
1

>  <SCORE.INTER.POLAR>
0

>  <SCORE.INTER.ROT>
0

>  <SCORE.INTER.SOLV>
20.7387

>  <SCORE.INTER.VDW>
-18.0177

>  <SCORE.INTER.norm>
-1.02339

>  <SCORE.INTRA>
0

>  <SCORE.INTRA.DIHEDRAL>
0

>  <SCORE.INTRA.DIHEDRAL.0>
0

>  <SCORE.INTRA.POLAR>
0

>  <SCORE.INTRA.POLAR.0>
0

>  <SCORE.INTRA.REPUL>
0

>  <SCORE.INTRA.REPUL.0>
0

>  <SCORE.INTRA.SOLV>
0

>  <SCORE.INTRA.SOLV.lig_0>
-48.9558

>  <SCORE.INTRA.VDW>
0

>  <SCORE.INTRA.VDW.0>
0

>  <SCORE.INTRA.norm>
0

>  <SCORE.RESTR>
0

>  <SCORE.RESTR.CAVITY>
0

>  <SCORE.RESTR.norm>
0

>  <SCORE.SYSTEM>
0

>  <SCORE.SYSTEM.CONST>
0

>  <SCORE.SYSTEM.DIHEDRAL>
0

>  <SCORE.SYSTEM.SOLV>
0

>  <SCORE.SYSTEM.norm>
0

>  <SCORE.heavy>
11

>  <SCORE.norm>
-1.02339

>  <RMSD>
0.540

$$$$
ligand
 OpenBabel11021811493D
libRbt.so/2013.1/901 2013/11/27
 11 12  0  0  0  0  0  0  0  0999 V2000
   12.0167   11.6040    8.5929 N   0  0  0  0  0  0  0  0  0  0  0  0
   11.6017   12.8601    8.8228 C   0  0  0  0  0  0  0  0  0  0  0  0
   11.6347   13.3548   10.1158 N   0  0  0  0  0  0  0  0  0  0  0  0
   11.1564   13.6448    7.8280 N   0  0  0  0  0  0  0  0  0  0  0  0
   11.1117   13.1920    6.5533 C   0  0  0  0  0  0  0  0  0  0  0  0
   11.5408   11.8720    6.2639 C   0  0  0  0  0  0  0  0  0  0  0  0
   12.0048   11.0740    7.3517 C   0  0  0  0  0  0  0  0  0  0  0  0
   12.4385    9.7781    7.1465 N   0  0  0  0  0  0  0  0  0  0  0  0
   11.3875   11.6845    4.9298 N   0  0  0  0  0  0  0  0  0  0  0  0
   10.9070   12.7704    4.3932 C   0  0  0  0  0  0  0  0  0  0  0  0
   10.7210   13.7271    5.3528 N   0  0  0  0  0  0  0  0  0  0  0  0
  1  7  2  0  0  0  0
  1  2  1  0  0  0  0
  2  3  1  0  0  0  0
  2  4  2  0  0  0  0
  4  5  1  0  0  0  0
  5  6  2  0  0  0  0
  5 11  1  0  0  0  0
  6  7  1  0  0  0  0
  6  9  1  0  0  0  0
  7  8  1  0  0  0  0
  9 10  1  0  0  0  0
 10 11  2  0  0  0  0
M  END
>  <CHROM.1>
11.50665541,12.32171698,7.05646422,-1.14553142,1.19373959,-1.99731161

>  <Name>
ligand

>  <RI>
0

>  <Rbt.Current_Directory>
/home/itssahil/PROJECTS/Mol_Feturizer/New_Systems/rnas/4FEP

>  <Rbt.Executable>
rbdock ($Id: //depot/dev/client3/rdock/2013.1/src/exe/rbdock.cxx#4 $)

>  <Rbt.Library>
libRbt.so (2013.1, Build901 2013/11/27)

>  <Rbt.Parameter_File>
/export/apps/rDock/src/rDock_2013.1_src/data/scripts/dock_solv.prm

>  <Rbt.Receptor>
prm/blind_docking_80.prm

>  <SCORE>
-11.2569

>  <SCORE.INTER>
-11.2569

>  <SCORE.INTER.CONST>
1

>  <SCORE.INTER.POLAR>
0

>  <SCORE.INTER.ROT>
0

>  <SCORE.INTER.SOLV>
20.735

>  <SCORE.INTER.VDW>
-18.0162

>  <SCORE.INTER.norm>
-1.02335

>  <SCORE.INTRA>
0

>  <SCORE.INTRA.DIHEDRAL>
0

>  <SCORE.INTRA.DIHEDRAL.0>
0

>  <SCORE.INTRA.POLAR>
0

>  <SCORE.INTRA.POLAR.0>
0

>  <SCORE.INTRA.REPUL>
0

>  <SCORE.INTRA.REPUL.0>
0

>  <SCORE.INTRA.SOLV>
0

>  <SCORE.INTRA.SOLV.lig_0>
-48.9558

>  <SCORE.INTRA.VDW>
0

>  <SCORE.INTRA.VDW.0>
0

>  <SCORE.INTRA.norm>
0

>  <SCORE.RESTR>
0

>  <SCORE.RESTR.CAVITY>
0

>  <SCORE.RESTR.norm>
0

>  <SCORE.SYSTEM>
0

>  <SCORE.SYSTEM.CONST>
0

>  <SCORE.SYSTEM.DIHEDRAL>
0

>  <SCORE.SYSTEM.SOLV>
0

>  <SCORE.SYSTEM.norm>
0

>  <SCORE.heavy>
11

>  <SCORE.norm>
-1.02335

>  <RMSD>
0.540

$$$$
ligand
 OpenBabel11021811493D
libRbt.so/2013.1/901 2013/11/27
 11 12  0  0  0  0  0  0  0  0999 V2000
   12.0547   11.6727    8.6075 N   0  0  0  0  0  0  0  0  0  0  0  0
   11.5968   12.9173    8.8176 C   0  0  0  0  0  0  0  0  0  0  0  0
   11.6075   13.4313   10.1034 N   0  0  0  0  0  0  0  0  0  0  0  0
   11.1298   13.6723    7.8098 N   0  0  0  0  0  0  0  0  0  0  0  0
   11.1059   13.2001    6.5417 C   0  0  0  0  0  0  0  0  0  0  0  0
   11.5803   11.8913    6.2730 C   0  0  0  0  0  0  0  0  0  0  0  0
   12.0660   11.1249    7.3741 C   0  0  0  0  0  0  0  0  0  0  0  0
   12.5439    9.8415    7.1893 N   0  0  0  0  0  0  0  0  0  0  0  0
   11.4393   11.6796    4.9412 N   0  0  0  0  0  0  0  0  0  0  0  0
   10.9250   12.7410    4.3871 C   0  0  0  0  0  0  0  0  0  0  0  0
   10.7027   13.7045    5.3320 N   0  0  0  0  0  0  0  0  0  0  0  0
  1  7  2  0  0  0  0
  1  2  1  0  0  0  0
  2  3  1  0  0  0  0
  2  4  2  0  0  0  0
  4  5  1  0  0  0  0
  5  6  2  0  0  0  0
  5 11  1  0  0  0  0
  6  7  1  0  0  0  0
  6  9  1  0  0  0  0
  7  8  1  0  0  0  0
  9 10  1  0  0  0  0
 10 11  2  0  0  0  0
M  END
>  <CHROM.1>
11.52760666,12.35085122,7.05886793,-1.19083070,1.16463373,-1.96981644

>  <Name>
ligand

>  <RI>
0

>  <Rbt.Current_Directory>
/home/itssahil/PROJECTS/Mol_Feturizer/New_Systems/rnas/4FEP

>  <Rbt.Executable>
rbdock ($Id: //depot/dev/client3/rdock/2013.1/src/exe/rbdock.cxx#4 $)

>  <Rbt.Library>
libRbt.so (2013.1, Build901 2013/11/27)

>  <Rbt.Parameter_File>
/export/apps/rDock/src/rDock_2013.1_src/data/scripts/dock_solv.prm

>  <Rbt.Receptor>
prm/pocket_docking_3.prm

>  <SCORE>
-11.1868

>  <SCORE.INTER>
-11.1868

>  <SCORE.INTER.CONST>
1

>  <SCORE.INTER.POLAR>
0

>  <SCORE.INTER.ROT>
0

>  <SCORE.INTER.SOLV>
20.4979

>  <SCORE.INTER.VDW>
-17.8905

>  <SCORE.INTER.norm>
-1.01698

>  <SCORE.INTRA>
0

>  <SCORE.INTRA.DIHEDRAL>
0

>  <SCORE.INTRA.DIHEDRAL.0>
0

>  <SCORE.INTRA.POLAR>
0

>  <SCORE.INTRA.POLAR.0>
0

>  <SCORE.INTRA.REPUL>
0

>  <SCORE.INTRA.REPUL.0>
0

>  <SCORE.INTRA.SOLV>
0

>  <SCORE.INTRA.SOLV.lig_0>
-48.9558

>  <SCORE.INTRA.VDW>
0

>  <SCORE.INTRA.VDW.0>
0

>  <SCORE.INTRA.norm>
0

>  <SCORE.RESTR>
0

>  <SCORE.RESTR.CAVITY>
0

>  <SCORE.RESTR.norm>
0

>  <SCORE.SYSTEM>
0

>  <SCORE.SYSTEM.CONST>
0

>  <SCORE.SYSTEM.DIHEDRAL>
0

>  <SCORE.SYSTEM.SOLV>
0

>  <SCORE.SYSTEM.norm>
0

>  <SCORE.heavy>
11

>  <SCORE.norm>
-1.01698

>  <RMSD>
0.540

$$$$
ligand
 OpenBabel11021811493D
libRbt.so/2013.1/901 2013/11/27
 11 12  0  0  0  0  0  0  0  0999 V2000
   12.0184   11.6035    8.5941 N   0  0  0  0  0  0  0  0  0  0  0  0
   11.6017   12.8589    8.8251 C   0  0  0  0  0  0  0  0  0  0  0  0
   11.6307   13.3514   10.1190 N   0  0  0  0  0  0  0  0  0  0  0  0
   11.1584   13.6450    7.8305 N   0  0  0  0  0  0  0  0  0  0  0  0
   11.1177   13.1944    6.5549 C   0  0  0  0  0  0  0  0  0  0  0  0
   11.5486   11.8753    6.2644 C   0  0  0  0  0  0  0  0  0  0  0  0
   12.0103   11.0757    7.3521 C   0  0  0  0  0  0  0  0  0  0  0  0
   12.4457    9.7805    7.1458 N   0  0  0  0  0  0  0  0  0  0  0  0
   11.3992   11.6899    4.9295 N   0  0  0  0  0  0  0  0  0  0  0  0
   10.9192   12.7763    4.3935 C   0  0  0  0  0  0  0  0  0  0  0  0
   10.7297   13.7312    5.3542 N   0  0  0  0  0  0  0  0  0  0  0  0
  1  7  2  0  0  0  0
  1  2  1  0  0  0  0
  2  3  1  0  0  0  0
  2  4  2  0  0  0  0
  4  5  1  0  0  0  0
  5  6  2  0  0  0  0
  5 11  1  0  0  0  0
  6  7  1  0  0  0  0
  6  9  1  0  0  0  0
  7  8  1  0  0  0  0
  9 10  1  0  0  0  0
 10 11  2  0  0  0  0
M  END
>  <CHROM.1>
11.51194208,12.32352488,7.05759949,-1.15330598,1.19409508,-1.98835028

>  <Name>
ligand

>  <RI>
0

>  <Rbt.Current_Directory>
/home/itssahil/PROJECTS/Mol_Feturizer/New_Systems/rnas/4FEP

>  <Rbt.Executable>
rbdock ($Id: //depot/dev/client3/rdock/2013.1/src/exe/rbdock.cxx#4 $)

>  <Rbt.Library>
libRbt.so (2013.1, Build901 2013/11/27)

>  <Rbt.Parameter_File>
/export/apps/rDock/src/rDock_2013.1_src/data/scripts/dock_solv.prm

>  <Rbt.Receptor>
prm/pocket_docking_4.prm

>  <SCORE>
-11.2595

>  <SCORE.INTER>
-11.2595

>  <SCORE.INTER.CONST>
1

>  <SCORE.INTER.POLAR>
0

>  <SCORE.INTER.ROT>
0

>  <SCORE.INTER.SOLV>
20.7151

>  <SCORE.INTER.VDW>
-18.0114

>  <SCORE.INTER.norm>
-1.02359

>  <SCORE.INTRA>
0

>  <SCORE.INTRA.DIHEDRAL>
0

>  <SCORE.INTRA.DIHEDRAL.0>
0

>  <SCORE.INTRA.POLAR>
0

>  <SCORE.INTRA.POLAR.0>
0

>  <SCORE.INTRA.REPUL>
0

>  <SCORE.INTRA.REPUL.0>
0

>  <SCORE.INTRA.SOLV>
0

>  <SCORE.INTRA.SOLV.lig_0>
-48.9558

>  <SCORE.INTRA.VDW>
0

>  <SCORE.INTRA.VDW.0>
0

>  <SCORE.INTRA.norm>
0

>  <SCORE.RESTR>
0

>  <SCORE.RESTR.CAVITY>
0

>  <SCORE.RESTR.norm>
0

>  <SCORE.SYSTEM>
0

>  <SCORE.SYSTEM.CONST>
0

>  <SCORE.SYSTEM.DIHEDRAL>
0

>  <SCORE.SYSTEM.SOLV>
0

>  <SCORE.SYSTEM.norm>
0

>  <SCORE.heavy>
11

>  <SCORE.norm>
-1.02359

>  <RMSD>
0.540

$$$$
ligand
 OpenBabel11021811493D
libRbt.so/2013.1/901 2013/11/27
 11 12  0  0  0  0  0  0  0  0999 V2000
   12.0264   11.5954    8.5917 N   0  0  0  0  0  0  0  0  0  0  0  0
   11.6205   12.8537    8.8258 C   0  0  0  0  0  0  0  0  0  0  0  0
   11.6608   13.3452   10.1197 N   0  0  0  0  0  0  0  0  0  0  0  0
   11.1771   13.6435    7.8341 N   0  0  0  0  0  0  0  0  0  0  0  0
   11.1254   13.1939    6.5586 C   0  0  0  0  0  0  0  0  0  0  0  0
   11.5448   11.8718    6.2649 C   0  0  0  0  0  0  0  0  0  0  0  0
   12.0070   11.0683    7.3495 C   0  0  0  0  0  0  0  0  0  0  0  0
   12.4315    9.7699    7.1400 N   0  0  0  0  0  0  0  0  0  0  0  0
   11.3861   11.6882    4.9309 N   0  0  0  0  0  0  0  0  0  0  0  0
   10.9110   12.7785    4.3982 C   0  0  0  0  0  0  0  0  0  0  0  0
   10.7344   13.7342    5.3605 N   0  0  0  0  0  0  0  0  0  0  0  0
  1  7  2  0  0  0  0
  1  2  1  0  0  0  0
  2  3  1  0  0  0  0
  2  4  2  0  0  0  0
  4  5  1  0  0  0  0
  5  6  2  0  0  0  0
  5 11  1  0  0  0  0
  6  7  1  0  0  0  0
  6  9  1  0  0  0  0
  7  8  1  0  0  0  0
  9 10  1  0  0  0  0
 10 11  2  0  0  0  0
M  END
>  <CHROM.1>
11.51620103,12.31988644,7.05855253,-1.13006790,1.19839085,-2.00948690

>  <Name>
ligand

>  <RI>
0

>  <Rbt.Current_Directory>
/home/itssahil/PROJECTS/Mol_Feturizer/New_Systems/rnas/4FEP

>  <Rbt.Executable>
rbdock ($Id: //depot/dev/client3/rdock/2013.1/src/exe/rbdock.cxx#4 $)

>  <Rbt.Library>
libRbt.so (2013.1, Build901 2013/11/27)

>  <Rbt.Parameter_File>
/export/apps/rDock/src/rDock_2013.1_src/data/scripts/dock_solv.prm

>  <Rbt.Receptor>
prm/pocket_docking_7.prm

>  <SCORE>
-11.256

>  <SCORE.INTER>
-11.256

>  <SCORE.INTER.CONST>
1

>  <SCORE.INTER.POLAR>
0

>  <SCORE.INTER.ROT>
0

>  <SCORE.INTER.SOLV>
20.7478

>  <SCORE.INTER.VDW>
-18.0199

>  <SCORE.INTER.norm>
-1.02327

>  <SCORE.INTRA>
0

>  <SCORE.INTRA.DIHEDRAL>
0

>  <SCORE.INTRA.DIHEDRAL.0>
0

>  <SCORE.INTRA.POLAR>
0

>  <SCORE.INTRA.POLAR.0>
0

>  <SCORE.INTRA.REPUL>
0

>  <SCORE.INTRA.REPUL.0>
0

>  <SCORE.INTRA.SOLV>
0

>  <SCORE.INTRA.SOLV.lig_0>
-48.9558

>  <SCORE.INTRA.VDW>
0

>  <SCORE.INTRA.VDW.0>
0

>  <SCORE.INTRA.norm>
0

>  <SCORE.RESTR>
0

>  <SCORE.RESTR.CAVITY>
0

>  <SCORE.RESTR.norm>
0

>  <SCORE.SYSTEM>
0

>  <SCORE.SYSTEM.CONST>
0

>  <SCORE.SYSTEM.DIHEDRAL>
0

>  <SCORE.SYSTEM.SOLV>
0

>  <SCORE.SYSTEM.norm>
0

>  <SCORE.heavy>
11

>  <SCORE.norm>
-1.02327

>  <RMSD>
0.540

$$$$
ligand
 OpenBabel11021811493D
libRbt.so/2013.1/901 2013/11/27
 11 12  0  0  0  0  0  0  0  0999 V2000
   12.0007   11.5862    8.6011 N   0  0  0  0  0  0  0  0  0  0  0  0
   11.6182   12.8525    8.8313 C   0  0  0  0  0  0  0  0  0  0  0  0
   11.6593   13.3444   10.1251 N   0  0  0  0  0  0  0  0  0  0  0  0
   11.1975   13.6501    7.8360 N   0  0  0  0  0  0  0  0  0  0  0  0
   11.1458   13.2004    6.5605 C   0  0  0  0  0  0  0  0  0  0  0  0
   11.5409   11.8700    6.2708 C   0  0  0  0  0  0  0  0  0  0  0  0
   11.9795   11.0585    7.3592 C   0  0  0  0  0  0  0  0  0  0  0  0
   12.3796    9.7518    7.1537 N   0  0  0  0  0  0  0  0  0  0  0  0
   11.3878   11.6883    4.9359 N   0  0  0  0  0  0  0  0  0  0  0  0
   10.9382   12.7873    4.3990 C   0  0  0  0  0  0  0  0  0  0  0  0
   10.7739   13.7473    5.3593 N   0  0  0  0  0  0  0  0  0  0  0  0
  1  7  2  0  0  0  0
  1  2  1  0  0  0  0
  2  3  1  0  0  0  0
  2  4  2  0  0  0  0
  4  5  1  0  0  0  0
  5  6  2  0  0  0  0
  5 11  1  0  0  0  0
  6  7  1  0  0  0  0
  6  9  1  0  0  0  0
  7  8  1  0  0  0  0
  9 10  1  0  0  0  0
 10 11  2  0  0  0  0
M  END
>  <CHROM.1>
11.51564854,12.31929560,7.06385771,-1.12390406,1.21929820,-2.01610827

>  <Name>
ligand

>  <RI>
0

>  <Rbt.Current_Directory>
/home/itssahil/PROJECTS/Mol_Feturizer/New_Systems/rnas/4FEP

>  <Rbt.Executable>
rbdock ($Id: //depot/dev/client3/rdock/2013.1/src/exe/rbdock.cxx#4 $)

>  <Rbt.Library>
libRbt.so (2013.1, Build901 2013/11/27)

>  <Rbt.Parameter_File>
/export/apps/rDock/src/rDock_2013.1_src/data/scripts/dock_solv.prm

>  <Rbt.Receptor>
prm/blind_docking_40.prm

>  <SCORE>
-11.2403

>  <SCORE.INTER>
-11.2403

>  <SCORE.INTER.CONST>
1

>  <SCORE.INTER.POLAR>
0

>  <SCORE.INTER.ROT>
0

>  <SCORE.INTER.SOLV>
20.9293

>  <SCORE.INTER.VDW>
-18.07

>  <SCORE.INTER.norm>
-1.02184

>  <SCORE.INTRA>
0

>  <SCORE.INTRA.DIHEDRAL>
0

>  <SCORE.INTRA.DIHEDRAL.0>
0

>  <SCORE.INTRA.POLAR>
0

>  <SCORE.INTRA.POLAR.0>
0

>  <SCORE.INTRA.REPUL>
0

>  <SCORE.INTRA.REPUL.0>
0

>  <SCORE.INTRA.SOLV>
0

>  <SCORE.INTRA.SOLV.lig_0>
-48.9558

>  <SCORE.INTRA.VDW>
0

>  <SCORE.INTRA.VDW.0>
0

>  <SCORE.INTRA.norm>
0

>  <SCORE.RESTR>
0

>  <SCORE.RESTR.CAVITY>
0

>  <SCORE.RESTR.norm>
0

>  <SCORE.SYSTEM>
0

>  <SCORE.SYSTEM.CONST>
0

>  <SCORE.SYSTEM.DIHEDRAL>
0

>  <SCORE.SYSTEM.SOLV>
0

>  <SCORE.SYSTEM.norm>
0

>  <SCORE.heavy>
11

>  <SCORE.norm>
-1.02184

>  <RMSD>
0.541

$$$$
ligand
 OpenBabel11021811493D
libRbt.so/2013.1/901 2013/11/27
 11 12  0  0  0  0  0  0  0  0999 V2000
   12.0180   11.5956    8.5925 N   0  0  0  0  0  0  0  0  0  0  0  0
   11.6190   12.8562    8.8257 C   0  0  0  0  0  0  0  0  0  0  0  0
   11.6628   13.3487   10.1192 N   0  0  0  0  0  0  0  0  0  0  0  0
   11.1794   13.6476    7.8336 N   0  0  0  0  0  0  0  0  0  0  0  0
   11.1245   13.1972    6.5585 C   0  0  0  0  0  0  0  0  0  0  0  0
   11.5365   11.8725    6.2658 C   0  0  0  0  0  0  0  0  0  0  0  0
   11.9950   11.0675    7.3508 C   0  0  0  0  0  0  0  0  0  0  0  0
   12.4124    9.7667    7.1422 N   0  0  0  0  0  0  0  0  0  0  0  0
   11.3760   11.6886    4.9320 N   0  0  0  0  0  0  0  0  0  0  0  0
   10.9066   12.7810    4.3986 C   0  0  0  0  0  0  0  0  0  0  0  0
   10.7356   13.7386    5.3602 N   0  0  0  0  0  0  0  0  0  0  0  0
  1  7  2  0  0  0  0
  1  2  1  0  0  0  0
  2  3  1  0  0  0  0
  2  4  2  0  0  0  0
  4  5  1  0  0  0  0
  5  6  2  0  0  0  0
  5 11  1  0  0  0  0
  6  7  1  0  0  0  0
  6  9  1  0  0  0  0
  7  8  1  0  0  0  0
  9 10  1  0  0  0  0
 10 11  2  0  0  0  0
M  END
>  <CHROM.1>
11.51079750,12.32150078,7.05903396,-1.12218742,1.20303337,-2.01771353

>  <Name>
ligand

>  <RI>
0

>  <Rbt.Current_Directory>
/home/itssahil/PROJECTS/Mol_Feturizer/New_Systems/rnas/4FEP

>  <Rbt.Executable>
rbdock ($Id: //depot/dev/client3/rdock/2013.1/src/exe/rbdock.cxx#4 $)

>  <Rbt.Library>
libRbt.so (2013.1, Build901 2013/11/27)

>  <Rbt.Parameter_File>
/export/apps/rDock/src/rDock_2013.1_src/data/scripts/dock_solv.prm

>  <Rbt.Receptor>
prm/blind_docking_80.prm

>  <SCORE>
-11.2546

>  <SCORE.INTER>
-11.2546

>  <SCORE.INTER.CONST>
1

>  <SCORE.INTER.POLAR>
0

>  <SCORE.INTER.ROT>
0

>  <SCORE.INTER.SOLV>
20.8111

>  <SCORE.INTER.VDW>
-18.0401

>  <SCORE.INTER.norm>
-1.02315

>  <SCORE.INTRA>
0

>  <SCORE.INTRA.DIHEDRAL>
0

>  <SCORE.INTRA.DIHEDRAL.0>
0

>  <SCORE.INTRA.POLAR>
0

>  <SCORE.INTRA.POLAR.0>
0

>  <SCORE.INTRA.REPUL>
0

>  <SCORE.INTRA.REPUL.0>
0

>  <SCORE.INTRA.SOLV>
0

>  <SCORE.INTRA.SOLV.lig_0>
-48.9558

>  <SCORE.INTRA.VDW>
0

>  <SCORE.INTRA.VDW.0>
0

>  <SCORE.INTRA.norm>
0

>  <SCORE.RESTR>
0

>  <SCORE.RESTR.CAVITY>
0

>  <SCORE.RESTR.norm>
0

>  <SCORE.SYSTEM>
0

>  <SCORE.SYSTEM.CONST>
0

>  <SCORE.SYSTEM.DIHEDRAL>
0

>  <SCORE.SYSTEM.SOLV>
0

>  <SCORE.SYSTEM.norm>
0

>  <SCORE.heavy>
11

>  <SCORE.norm>
-1.02315

>  <RMSD>
0.541

$$$$
ligand
 OpenBabel11021811493D
libRbt.so/2013.1/901 2013/11/27
 11 12  0  0  0  0  0  0  0  0999 V2000
   12.0226   11.5958    8.5924 N   0  0  0  0  0  0  0  0  0  0  0  0
   11.6223   12.8561    8.8258 C   0  0  0  0  0  0  0  0  0  0  0  0
   11.6663   13.3486   10.1193 N   0  0  0  0  0  0  0  0  0  0  0  0
   11.1813   13.6469    7.8340 N   0  0  0  0  0  0  0  0  0  0  0  0
   11.1262   13.1965    6.5589 C   0  0  0  0  0  0  0  0  0  0  0  0
   11.5396   11.8723    6.2659 C   0  0  0  0  0  0  0  0  0  0  0  0
   11.9996   11.0678    7.3506 C   0  0  0  0  0  0  0  0  0  0  0  0
   12.4183    9.7674    7.1419 N   0  0  0  0  0  0  0  0  0  0  0  0
   11.3786   11.6882    4.9322 N   0  0  0  0  0  0  0  0  0  0  0  0
   10.9077   12.7801    4.3991 C   0  0  0  0  0  0  0  0  0  0  0  0
   10.7362   13.7374    5.3608 N   0  0  0  0  0  0  0  0  0  0  0  0
  1  7  2  0  0  0  0
  1  2  1  0  0  0  0
  2  3  1  0  0  0  0
  2  4  2  0  0  0  0
  4  5  1  0  0  0  0
  5  6  2  0  0  0  0
  5 11  1  0  0  0  0
  6  7  1  0  0  0  0
  6  9  1  0  0  0  0
  7  8  1  0  0  0  0
  9 10  1  0  0  0  0
 10 11  2  0  0  0  0
M  END
>  <CHROM.1>
11.51380871,12.32121125,7.05919432,-1.12221948,1.20178050,-2.01766950

>  <Name>
ligand

>  <RI>
0

>  <Rbt.Current_Directory>
/home/itssahil/PROJECTS/Mol_Feturizer/New_Systems/rnas/4FEP

>  <Rbt.Executable>
rbdock ($Id: //depot/dev/client3/rdock/2013.1/src/exe/rbdock.cxx#4 $)

>  <Rbt.Library>
libRbt.so (2013.1, Build901 2013/11/27)

>  <Rbt.Parameter_File>
/export/apps/rDock/src/rDock_2013.1_src/data/scripts/dock_solv.prm

>  <Rbt.Receptor>
prm/blind_docking_80.prm

>  <SCORE>
-11.2545

>  <SCORE.INTER>
-11.2545

>  <SCORE.INTER.CONST>
1

>  <SCORE.INTER.POLAR>
0

>  <SCORE.INTER.ROT>
0

>  <SCORE.INTER.SOLV>
20.7918

>  <SCORE.INTER.VDW>
-18.0336

>  <SCORE.INTER.norm>
-1.02313

>  <SCORE.INTRA>
0

>  <SCORE.INTRA.DIHEDRAL>
0

>  <SCORE.INTRA.DIHEDRAL.0>
0

>  <SCORE.INTRA.POLAR>
0

>  <SCORE.INTRA.POLAR.0>
0

>  <SCORE.INTRA.REPUL>
0

>  <SCORE.INTRA.REPUL.0>
0

>  <SCORE.INTRA.SOLV>
0

>  <SCORE.INTRA.SOLV.lig_0>
-48.9558

>  <SCORE.INTRA.VDW>
0

>  <SCORE.INTRA.VDW.0>
0

>  <SCORE.INTRA.norm>
0

>  <SCORE.RESTR>
0

>  <SCORE.RESTR.CAVITY>
0

>  <SCORE.RESTR.norm>
0

>  <SCORE.SYSTEM>
0

>  <SCORE.SYSTEM.CONST>
0

>  <SCORE.SYSTEM.DIHEDRAL>
0

>  <SCORE.SYSTEM.SOLV>
0

>  <SCORE.SYSTEM.norm>
0

>  <SCORE.heavy>
11

>  <SCORE.norm>
-1.02313

>  <RMSD>
0.541

$$$$
ligand
 OpenBabel11021811493D
libRbt.so/2013.1/901 2013/11/27
 11 12  0  0  0  0  0  0  0  0999 V2000
   12.0148   11.5895    8.5908 N   0  0  0  0  0  0  0  0  0  0  0  0
   11.6158   12.8499    8.8255 C   0  0  0  0  0  0  0  0  0  0  0  0
   11.6585   13.3404   10.1198 N   0  0  0  0  0  0  0  0  0  0  0  0
   11.1772   13.6429    7.8343 N   0  0  0  0  0  0  0  0  0  0  0  0
   11.1234   13.1945    6.5584 C   0  0  0  0  0  0  0  0  0  0  0  0
   11.5356   11.8702    6.2640 C   0  0  0  0  0  0  0  0  0  0  0  0
   11.9929   11.0634    7.3481 C   0  0  0  0  0  0  0  0  0  0  0  0
   12.4103    9.7629    7.1379 N   0  0  0  0  0  0  0  0  0  0  0  0
   11.3762   11.6885    4.9298 N   0  0  0  0  0  0  0  0  0  0  0  0
   10.9074   12.7817    4.3977 C   0  0  0  0  0  0  0  0  0  0  0  0
   10.7358   13.7378    5.3606 N   0  0  0  0  0  0  0  0  0  0  0  0
  1  7  2  0  0  0  0
  1  2  1  0  0  0  0
  2  3  1  0  0  0  0
  2  4  2  0  0  0  0
  4  5  1  0  0  0  0
  5  6  2  0  0  0  0
  5 11  1  0  0  0  0
  6  7  1  0  0  0  0
  6  9  1  0  0  0  0
  7  8  1  0  0  0  0
  9 10  1  0  0  0  0
 10 11  2  0  0  0  0
M  END
>  <CHROM.1>
11.50915724,12.31796737,7.05792676,-1.12430529,1.20356812,-2.01416712

>  <Name>
ligand

>  <RI>
0

>  <Rbt.Current_Directory>
/home/itssahil/PROJECTS/Mol_Feturizer/New_Systems/rnas/4FEP

>  <Rbt.Executable>
rbdock ($Id: //depot/dev/client3/rdock/2013.1/src/exe/rbdock.cxx#4 $)

>  <Rbt.Library>
libRbt.so (2013.1, Build901 2013/11/27)

>  <Rbt.Parameter_File>
/export/apps/rDock/src/rDock_2013.1_src/data/scripts/dock_solv.prm

>  <Rbt.Receptor>
prm/pocket_docking_6.prm

>  <SCORE>
-11.2562

>  <SCORE.INTER>
-11.2562

>  <SCORE.INTER.CONST>
1

>  <SCORE.INTER.POLAR>
0

>  <SCORE.INTER.ROT>
0

>  <SCORE.INTER.SOLV>
20.8093

>  <SCORE.INTER.VDW>
-18.0406

>  <SCORE.INTER.norm>
-1.02329

>  <SCORE.INTRA>
0

>  <SCORE.INTRA.DIHEDRAL>
0

>  <SCORE.INTRA.DIHEDRAL.0>
0

>  <SCORE.INTRA.POLAR>
0

>  <SCORE.INTRA.POLAR.0>
0

>  <SCORE.INTRA.REPUL>
0

>  <SCORE.INTRA.REPUL.0>
0

>  <SCORE.INTRA.SOLV>
0

>  <SCORE.INTRA.SOLV.lig_0>
-48.9558

>  <SCORE.INTRA.VDW>
0

>  <SCORE.INTRA.VDW.0>
0

>  <SCORE.INTRA.norm>
0

>  <SCORE.RESTR>
0

>  <SCORE.RESTR.CAVITY>
0

>  <SCORE.RESTR.norm>
0

>  <SCORE.SYSTEM>
0

>  <SCORE.SYSTEM.CONST>
0

>  <SCORE.SYSTEM.DIHEDRAL>
0

>  <SCORE.SYSTEM.SOLV>
0

>  <SCORE.SYSTEM.norm>
0

>  <SCORE.heavy>
11

>  <SCORE.norm>
-1.02329

>  <RMSD>
0.541

$$$$
ligand
 OpenBabel11021811493D
libRbt.so/2013.1/901 2013/11/27
 11 12  0  0  0  0  0  0  0  0999 V2000
   11.9820   11.5885    8.6020 N   0  0  0  0  0  0  0  0  0  0  0  0
   11.5932   12.8533    8.8303 C   0  0  0  0  0  0  0  0  0  0  0  0
   11.6257   13.3453   10.1242 N   0  0  0  0  0  0  0  0  0  0  0  0
   11.1744   13.6491    7.8328 N   0  0  0  0  0  0  0  0  0  0  0  0
   11.1309   13.1992    6.5570 C   0  0  0  0  0  0  0  0  0  0  0  0
   11.5329   11.8704    6.2694 C   0  0  0  0  0  0  0  0  0  0  0  0
   11.9692   11.0607    7.3600 C   0  0  0  0  0  0  0  0  0  0  0  0
   12.3756    9.7556    7.1567 N   0  0  0  0  0  0  0  0  0  0  0  0
   11.3873   11.6881    4.9337 N   0  0  0  0  0  0  0  0  0  0  0  0
   10.9360   12.7853    4.3945 C   0  0  0  0  0  0  0  0  0  0  0  0
   10.7629   13.7446    5.3539 N   0  0  0  0  0  0  0  0  0  0  0  0
  1  7  2  0  0  0  0
  1  2  1  0  0  0  0
  2  3  1  0  0  0  0
  2  4  2  0  0  0  0
  4  5  1  0  0  0  0
  5  6  2  0  0  0  0
  5 11  1  0  0  0  0
  6  7  1  0  0  0  0
  6  9  1  0  0  0  0
  7  8  1  0  0  0  0
  9 10  1  0  0  0  0
 10 11  2  0  0  0  0
M  END
>  <CHROM.1>
11.50176685,12.31960159,7.06231149,-1.14216334,1.21779957,-1.99899688

>  <Name>
ligand

>  <RI>
0

>  <Rbt.Current_Directory>
/home/itssahil/PROJECTS/Mol_Feturizer/New_Systems/rnas/4FEP

>  <Rbt.Executable>
rbdock ($Id: //depot/dev/client3/rdock/2013.1/src/exe/rbdock.cxx#4 $)

>  <Rbt.Library>
libRbt.so (2013.1, Build901 2013/11/27)

>  <Rbt.Parameter_File>
/export/apps/rDock/src/rDock_2013.1_src/data/scripts/dock_solv.prm

>  <Rbt.Receptor>
prm/pocket_docking_7.prm

>  <SCORE>
-11.2087

>  <SCORE.INTER>
-11.2087

>  <SCORE.INTER.CONST>
1

>  <SCORE.INTER.POLAR>
0

>  <SCORE.INTER.ROT>
0

>  <SCORE.INTER.SOLV>
20.9461

>  <SCORE.INTER.VDW>
-18.0545

>  <SCORE.INTER.norm>
-1.01897

>  <SCORE.INTRA>
0

>  <SCORE.INTRA.DIHEDRAL>
0

>  <SCORE.INTRA.DIHEDRAL.0>
0

>  <SCORE.INTRA.POLAR>
0

>  <SCORE.INTRA.POLAR.0>
0

>  <SCORE.INTRA.REPUL>
0

>  <SCORE.INTRA.REPUL.0>
0

>  <SCORE.INTRA.SOLV>
0

>  <SCORE.INTRA.SOLV.lig_0>
-48.9558

>  <SCORE.INTRA.VDW>
0

>  <SCORE.INTRA.VDW.0>
0

>  <SCORE.INTRA.norm>
0

>  <SCORE.RESTR>
0

>  <SCORE.RESTR.CAVITY>
0

>  <SCORE.RESTR.norm>
0

>  <SCORE.SYSTEM>
0

>  <SCORE.SYSTEM.CONST>
0

>  <SCORE.SYSTEM.DIHEDRAL>
0

>  <SCORE.SYSTEM.SOLV>
0

>  <SCORE.SYSTEM.norm>
0

>  <SCORE.heavy>
11

>  <SCORE.norm>
-1.01897

>  <RMSD>
0.541

$$$$
ligand
 OpenBabel11021811493D
libRbt.so/2013.1/901 2013/11/27
 11 12  0  0  0  0  0  0  0  0999 V2000
   12.0035   11.5858    8.6002 N   0  0  0  0  0  0  0  0  0  0  0  0
   11.6200   12.8518    8.8309 C   0  0  0  0  0  0  0  0  0  0  0  0
   11.6608   13.3432   10.1249 N   0  0  0  0  0  0  0  0  0  0  0  0
   11.1986   13.6494    7.8359 N   0  0  0  0  0  0  0  0  0  0  0  0
   11.1470   13.2002    6.5602 C   0  0  0  0  0  0  0  0  0  0  0  0
   11.5432   11.8701    6.2700 C   0  0  0  0  0  0  0  0  0  0  0  0
   11.9825   11.0585    7.3580 C   0  0  0  0  0  0  0  0  0  0  0  0
   12.3837    9.7522    7.1520 N   0  0  0  0  0  0  0  0  0  0  0  0
   11.3901   11.6889    4.9350 N   0  0  0  0  0  0  0  0  0  0  0  0
   10.9396   12.7877    4.3986 C   0  0  0  0  0  0  0  0  0  0  0  0
   10.7746   13.7472    5.3593 N   0  0  0  0  0  0  0  0  0  0  0  0
  1  7  2  0  0  0  0
  1  2  1  0  0  0  0
  2  3  1  0  0  0  0
  2  4  2  0  0  0  0
  4  5  1  0  0  0  0
  5  6  2  0  0  0  0
  5 11  1  0  0  0  0
  6  7  1  0  0  0  0
  6  9  1  0  0  0  0
  7  8  1  0  0  0  0
  9 10  1  0  0  0  0
 10 11  2  0  0  0  0
M  END
>  <CHROM.1>
11.51765745,12.31912289,7.06322849,-1.12458189,1.21854552,-2.01508891

>  <Name>
ligand

>  <RI>
0

>  <Rbt.Current_Directory>
/home/itssahil/PROJECTS/Mol_Feturizer/New_Systems/rnas/4FEP

>  <Rbt.Executable>
rbdock ($Id: //depot/dev/client3/rdock/2013.1/src/exe/rbdock.cxx#4 $)

>  <Rbt.Library>
libRbt.so (2013.1, Build901 2013/11/27)

>  <Rbt.Parameter_File>
/export/apps/rDock/src/rDock_2013.1_src/data/scripts/dock_solv.prm

>  <Rbt.Receptor>
prm/pocket_docking_8.prm

>  <SCORE>
-11.2397

>  <SCORE.INTER>
-11.2397

>  <SCORE.INTER.CONST>
1

>  <SCORE.INTER.POLAR>
0

>  <SCORE.INTER.ROT>
0

>  <SCORE.INTER.SOLV>
20.9138

>  <SCORE.INTER.VDW>
-18.0644

>  <SCORE.INTER.norm>
-1.02179

>  <SCORE.INTRA>
0

>  <SCORE.INTRA.DIHEDRAL>
0

>  <SCORE.INTRA.DIHEDRAL.0>
0

>  <SCORE.INTRA.POLAR>
0

>  <SCORE.INTRA.POLAR.0>
0

>  <SCORE.INTRA.REPUL>
0

>  <SCORE.INTRA.REPUL.0>
0

>  <SCORE.INTRA.SOLV>
0

>  <SCORE.INTRA.SOLV.lig_0>
-48.9558

>  <SCORE.INTRA.VDW>
0

>  <SCORE.INTRA.VDW.0>
0

>  <SCORE.INTRA.norm>
0

>  <SCORE.RESTR>
0

>  <SCORE.RESTR.CAVITY>
0

>  <SCORE.RESTR.norm>
0

>  <SCORE.SYSTEM>
0

>  <SCORE.SYSTEM.CONST>
0

>  <SCORE.SYSTEM.DIHEDRAL>
0

>  <SCORE.SYSTEM.SOLV>
0

>  <SCORE.SYSTEM.norm>
0

>  <SCORE.heavy>
11

>  <SCORE.norm>
-1.02179

>  <RMSD>
0.541

$$$$
ligand
 OpenBabel11021811493D
libRbt.so/2013.1/901 2013/11/27
 11 12  0  0  0  0  0  0  0  0999 V2000
   12.0561   11.6053    8.5850 N   0  0  0  0  0  0  0  0  0  0  0  0
   11.6404   12.8601    8.8209 C   0  0  0  0  0  0  0  0  0  0  0  0
   11.6867   13.3536   10.1139 N   0  0  0  0  0  0  0  0  0  0  0  0
   11.1818   13.6446    7.8319 N   0  0  0  0  0  0  0  0  0  0  0  0
   11.1240   13.1930    6.5574 C   0  0  0  0  0  0  0  0  0  0  0  0
   11.5532   11.8744    6.2618 C   0  0  0  0  0  0  0  0  0  0  0  0
   12.0315   11.0765    7.3435 C   0  0  0  0  0  0  0  0  0  0  0  0
   12.4664    9.7819    7.1321 N   0  0  0  0  0  0  0  0  0  0  0  0
   11.3853   11.6877    4.9294 N   0  0  0  0  0  0  0  0  0  0  0  0
   10.8960   12.7729    4.3993 C   0  0  0  0  0  0  0  0  0  0  0  0
   10.7183   13.7282    5.3619 N   0  0  0  0  0  0  0  0  0  0  0  0
  1  7  2  0  0  0  0
  1  2  1  0  0  0  0
  2  3  1  0  0  0  0
  2  4  2  0  0  0  0
  4  5  1  0  0  0  0
  5  6  2  0  0  0  0
  5 11  1  0  0  0  0
  6  7  1  0  0  0  0
  6  9  1  0  0  0  0
  7  8  1  0  0  0  0
  9 10  1  0  0  0  0
 10 11  2  0  0  0  0
M  END
>  <CHROM.1>
11.52684123,12.32321460,7.05517657,-1.12100856,1.18656809,-2.01908774

>  <Name>
ligand

>  <RI>
0

>  <Rbt.Current_Directory>
/home/itssahil/PROJECTS/Mol_Feturizer/New_Systems/rnas/4FEP

>  <Rbt.Executable>
rbdock ($Id: //depot/dev/client3/rdock/2013.1/src/exe/rbdock.cxx#4 $)

>  <Rbt.Library>
libRbt.so (2013.1, Build901 2013/11/27)

>  <Rbt.Parameter_File>
/export/apps/rDock/src/rDock_2013.1_src/data/scripts/dock_solv.prm

>  <Rbt.Receptor>
prm/blind_docking_100.prm

>  <SCORE>
-11.2252

>  <SCORE.INTER>
-11.2252

>  <SCORE.INTER.CONST>
1

>  <SCORE.INTER.POLAR>
0

>  <SCORE.INTER.ROT>
0

>  <SCORE.INTER.SOLV>
20.6513

>  <SCORE.INTER.VDW>
-17.9672

>  <SCORE.INTER.norm>
-1.02048

>  <SCORE.INTRA>
0

>  <SCORE.INTRA.DIHEDRAL>
0

>  <SCORE.INTRA.DIHEDRAL.0>
0

>  <SCORE.INTRA.POLAR>
0

>  <SCORE.INTRA.POLAR.0>
0

>  <SCORE.INTRA.REPUL>
0

>  <SCORE.INTRA.REPUL.0>
0

>  <SCORE.INTRA.SOLV>
0

>  <SCORE.INTRA.SOLV.lig_0>
-48.9558

>  <SCORE.INTRA.VDW>
0

>  <SCORE.INTRA.VDW.0>
0

>  <SCORE.INTRA.norm>
0

>  <SCORE.RESTR>
0

>  <SCORE.RESTR.CAVITY>
0

>  <SCORE.RESTR.norm>
0

>  <SCORE.SYSTEM>
0

>  <SCORE.SYSTEM.CONST>
0

>  <SCORE.SYSTEM.DIHEDRAL>
0

>  <SCORE.SYSTEM.SOLV>
0

>  <SCORE.SYSTEM.norm>
0

>  <SCORE.heavy>
11

>  <SCORE.norm>
-1.02048

>  <RMSD>
0.542

$$$$
ligand
 OpenBabel11021811493D
libRbt.so/2013.1/901 2013/11/27
 11 12  0  0  0  0  0  0  0  0999 V2000
   12.0151   11.5907    8.5942 N   0  0  0  0  0  0  0  0  0  0  0  0
   11.6353   12.8576    8.8254 C   0  0  0  0  0  0  0  0  0  0  0  0
   11.6956   13.3544   10.1166 N   0  0  0  0  0  0  0  0  0  0  0  0
   11.1992   13.6513    7.8335 N   0  0  0  0  0  0  0  0  0  0  0  0
   11.1285   13.1968    6.5606 C   0  0  0  0  0  0  0  0  0  0  0  0
   11.5200   11.8654    6.2700 C   0  0  0  0  0  0  0  0  0  0  0  0
   11.9754   11.0583    7.3547 C   0  0  0  0  0  0  0  0  0  0  0  0
   12.3731    9.7510    7.1481 N   0  0  0  0  0  0  0  0  0  0  0  0
   11.3469   11.6787    4.9382 N   0  0  0  0  0  0  0  0  0  0  0  0
   10.8886   12.7754    4.4041 C   0  0  0  0  0  0  0  0  0  0  0  0
   10.7382   13.7389    5.3631 N   0  0  0  0  0  0  0  0  0  0  0  0
  1  7  2  0  0  0  0
  1  2  1  0  0  0  0
  2  3  1  0  0  0  0
  2  4  2  0  0  0  0
  4  5  1  0  0  0  0
  5  6  2  0  0  0  0
  5 11  1  0  0  0  0
  6  7  1  0  0  0  0
  6  9  1  0  0  0  0
  7  8  1  0  0  0  0
  9 10  1  0  0  0  0
 10 11  2  0  0  0  0
M  END
>  <CHROM.1>
11.50643246,12.31772708,7.06165872,-1.08582145,1.21204904,-2.05556800

>  <Name>
ligand

>  <RI>
0

>  <Rbt.Current_Directory>
/home/itssahil/PROJECTS/Mol_Feturizer/New_Systems/rnas/4FEP

>  <Rbt.Executable>
rbdock ($Id: //depot/dev/client3/rdock/2013.1/src/exe/rbdock.cxx#4 $)

>  <Rbt.Library>
libRbt.so (2013.1, Build901 2013/11/27)

>  <Rbt.Parameter_File>
/export/apps/rDock/src/rDock_2013.1_src/data/scripts/dock_solv.prm

>  <Rbt.Receptor>
prm/pocket_docking_3.prm

>  <SCORE>
-11.2167

>  <SCORE.INTER>
-11.2167

>  <SCORE.INTER.CONST>
1

>  <SCORE.INTER.POLAR>
0

>  <SCORE.INTER.ROT>
0

>  <SCORE.INTER.SOLV>
20.9301

>  <SCORE.INTER.VDW>
-18.0545

>  <SCORE.INTER.norm>
-1.0197

>  <SCORE.INTRA>
0

>  <SCORE.INTRA.DIHEDRAL>
0

>  <SCORE.INTRA.DIHEDRAL.0>
0

>  <SCORE.INTRA.POLAR>
0

>  <SCORE.INTRA.POLAR.0>
0

>  <SCORE.INTRA.REPUL>
0

>  <SCORE.INTRA.REPUL.0>
0

>  <SCORE.INTRA.SOLV>
0

>  <SCORE.INTRA.SOLV.lig_0>
-48.9558

>  <SCORE.INTRA.VDW>
0

>  <SCORE.INTRA.VDW.0>
0

>  <SCORE.INTRA.norm>
0

>  <SCORE.RESTR>
0

>  <SCORE.RESTR.CAVITY>
0

>  <SCORE.RESTR.norm>
0

>  <SCORE.SYSTEM>
0

>  <SCORE.SYSTEM.CONST>
0

>  <SCORE.SYSTEM.DIHEDRAL>
0

>  <SCORE.SYSTEM.SOLV>
0

>  <SCORE.SYSTEM.norm>
0

>  <SCORE.heavy>
11

>  <SCORE.norm>
-1.0197

>  <RMSD>
0.542

$$$$
ligand
 OpenBabel11021811493D
libRbt.so/2013.1/901 2013/11/27
 11 12  0  0  0  0  0  0  0  0999 V2000
   12.0234   11.6118    8.5939 N   0  0  0  0  0  0  0  0  0  0  0  0
   11.6099   12.8687    8.8223 C   0  0  0  0  0  0  0  0  0  0  0  0
   11.6445   13.3653   10.1145 N   0  0  0  0  0  0  0  0  0  0  0  0
   11.1645   13.6523    7.8266 N   0  0  0  0  0  0  0  0  0  0  0  0
   11.1183   13.1976    6.5527 C   0  0  0  0  0  0  0  0  0  0  0  0
   11.5457   11.8767    6.2650 C   0  0  0  0  0  0  0  0  0  0  0  0
   12.0098   11.0799    7.3536 C   0  0  0  0  0  0  0  0  0  0  0  0
   12.4419    9.7832    7.1501 N   0  0  0  0  0  0  0  0  0  0  0  0
   11.3910   11.6873    4.9313 N   0  0  0  0  0  0  0  0  0  0  0  0
   10.9112   12.7729    4.3934 C   0  0  0  0  0  0  0  0  0  0  0  0
   10.7270   13.7313    5.3517 N   0  0  0  0  0  0  0  0  0  0  0  0
  1  7  2  0  0  0  0
  1  2  1  0  0  0  0
  2  3  1  0  0  0  0
  2  4  2  0  0  0  0
  4  5  1  0  0  0  0
  5  6  2  0  0  0  0
  5 11  1  0  0  0  0
  6  7  1  0  0  0  0
  6  9  1  0  0  0  0
  7  8  1  0  0  0  0
  9 10  1  0  0  0  0
 10 11  2  0  0  0  0
M  END
>  <CHROM.1>
11.51271353,12.32768905,7.05686752,-1.14218971,1.19434779,-2.00197297

>  <Name>
ligand

>  <RI>
0

>  <Rbt.Current_Directory>
/home/itssahil/PROJECTS/Mol_Feturizer/New_Systems/rnas/4FEP

>  <Rbt.Executable>
rbdock ($Id: //depot/dev/client3/rdock/2013.1/src/exe/rbdock.cxx#4 $)

>  <Rbt.Library>
libRbt.so (2013.1, Build901 2013/11/27)

>  <Rbt.Parameter_File>
/export/apps/rDock/src/rDock_2013.1_src/data/scripts/dock_solv.prm

>  <Rbt.Receptor>
prm/pocket_docking_6.prm

>  <SCORE>
-11.2551

>  <SCORE.INTER>
-11.2551

>  <SCORE.INTER.CONST>
1

>  <SCORE.INTER.POLAR>
0

>  <SCORE.INTER.ROT>
0

>  <SCORE.INTER.SOLV>
20.738

>  <SCORE.INTER.VDW>
-18.0161

>  <SCORE.INTER.norm>
-1.02319

>  <SCORE.INTRA>
0

>  <SCORE.INTRA.DIHEDRAL>
0

>  <SCORE.INTRA.DIHEDRAL.0>
0

>  <SCORE.INTRA.POLAR>
0

>  <SCORE.INTRA.POLAR.0>
0

>  <SCORE.INTRA.REPUL>
0

>  <SCORE.INTRA.REPUL.0>
0

>  <SCORE.INTRA.SOLV>
0

>  <SCORE.INTRA.SOLV.lig_0>
-48.9558

>  <SCORE.INTRA.VDW>
0

>  <SCORE.INTRA.VDW.0>
0

>  <SCORE.INTRA.norm>
0

>  <SCORE.RESTR>
0

>  <SCORE.RESTR.CAVITY>
0

>  <SCORE.RESTR.norm>
0

>  <SCORE.SYSTEM>
0

>  <SCORE.SYSTEM.CONST>
0

>  <SCORE.SYSTEM.DIHEDRAL>
0

>  <SCORE.SYSTEM.SOLV>
0

>  <SCORE.SYSTEM.norm>
0

>  <SCORE.heavy>
11

>  <SCORE.norm>
-1.02319

>  <RMSD>
0.542

$$$$
ligand
 OpenBabel11021811493D
libRbt.so/2013.1/901 2013/11/27
 11 12  0  0  0  0  0  0  0  0999 V2000
   12.0016   11.5785    8.5941 N   0  0  0  0  0  0  0  0  0  0  0  0
   11.6154   12.8430    8.8286 C   0  0  0  0  0  0  0  0  0  0  0  0
   11.6583   13.3317   10.1235 N   0  0  0  0  0  0  0  0  0  0  0  0
   11.1896   13.6417    7.8364 N   0  0  0  0  0  0  0  0  0  0  0  0
   11.1360   13.1951    6.5598 C   0  0  0  0  0  0  0  0  0  0  0  0
   11.5348   11.8667    6.2657 C   0  0  0  0  0  0  0  0  0  0  0  0
   11.9789   11.0539    7.3509 C   0  0  0  0  0  0  0  0  0  0  0  0
   12.3828    9.7491    7.1411 N   0  0  0  0  0  0  0  0  0  0  0  0
   11.3788   11.6879    4.9307 N   0  0  0  0  0  0  0  0  0  0  0  0
   10.9242   12.7868    4.3979 C   0  0  0  0  0  0  0  0  0  0  0  0
   10.7591   13.7438    5.3610 N   0  0  0  0  0  0  0  0  0  0  0  0
  1  7  2  0  0  0  0
  1  2  1  0  0  0  0
  2  3  1  0  0  0  0
  2  4  2  0  0  0  0
  4  5  1  0  0  0  0
  5  6  2  0  0  0  0
  5 11  1  0  0  0  0
  6  7  1  0  0  0  0
  6  9  1  0  0  0  0
  7  8  1  0  0  0  0
  9 10  1  0  0  0  0
 10 11  2  0  0  0  0
M  END
>  <CHROM.1>
11.51007161,12.31392307,7.06000606,-1.12124190,1.21518157,-2.01606140

>  <Name>
ligand

>  <RI>
0

>  <Rbt.Current_Directory>
/home/itssahil/PROJECTS/Mol_Feturizer/New_Systems/rnas/4FEP

>  <Rbt.Executable>
rbdock ($Id: //depot/dev/client3/rdock/2013.1/src/exe/rbdock.cxx#4 $)

>  <Rbt.Library>
libRbt.so (2013.1, Build901 2013/11/27)

>  <Rbt.Parameter_File>
/export/apps/rDock/src/rDock_2013.1_src/data/scripts/dock_solv.prm

>  <Rbt.Receptor>
prm/pocket_docking_8.prm

>  <SCORE>
-11.2375

>  <SCORE.INTER>
-11.2375

>  <SCORE.INTER.CONST>
1

>  <SCORE.INTER.POLAR>
0

>  <SCORE.INTER.ROT>
0

>  <SCORE.INTER.SOLV>
20.8933

>  <SCORE.INTER.VDW>
-18.0561

>  <SCORE.INTER.norm>
-1.02159

>  <SCORE.INTRA>
0

>  <SCORE.INTRA.DIHEDRAL>
0

>  <SCORE.INTRA.DIHEDRAL.0>
0

>  <SCORE.INTRA.POLAR>
0

>  <SCORE.INTRA.POLAR.0>
0

>  <SCORE.INTRA.REPUL>
0

>  <SCORE.INTRA.REPUL.0>
0

>  <SCORE.INTRA.SOLV>
0

>  <SCORE.INTRA.SOLV.lig_0>
-48.9558

>  <SCORE.INTRA.VDW>
0

>  <SCORE.INTRA.VDW.0>
0

>  <SCORE.INTRA.norm>
0

>  <SCORE.RESTR>
0

>  <SCORE.RESTR.CAVITY>
0

>  <SCORE.RESTR.norm>
0

>  <SCORE.SYSTEM>
0

>  <SCORE.SYSTEM.CONST>
0

>  <SCORE.SYSTEM.DIHEDRAL>
0

>  <SCORE.SYSTEM.SOLV>
0

>  <SCORE.SYSTEM.norm>
0

>  <SCORE.heavy>
11

>  <SCORE.norm>
-1.02159

>  <RMSD>
0.542

$$$$
ligand
 OpenBabel11021811493D
libRbt.so/2013.1/901 2013/11/27
 11 12  0  0  0  0  0  0  0  0999 V2000
   12.0096   11.6216    8.5972 N   0  0  0  0  0  0  0  0  0  0  0  0
   11.5904   12.8773    8.8219 C   0  0  0  0  0  0  0  0  0  0  0  0
   11.6172   13.3758   10.1135 N   0  0  0  0  0  0  0  0  0  0  0  0
   11.1469   13.6580    7.8231 N   0  0  0  0  0  0  0  0  0  0  0  0
   11.1082   13.2014    6.5496 C   0  0  0  0  0  0  0  0  0  0  0  0
   11.5418   11.8817    6.2657 C   0  0  0  0  0  0  0  0  0  0  0  0
   12.0037   11.0880    7.3575 C   0  0  0  0  0  0  0  0  0  0  0  0
   12.4416    9.7926    7.1578 N   0  0  0  0  0  0  0  0  0  0  0  0
   11.3941   11.6898    4.9316 N   0  0  0  0  0  0  0  0  0  0  0  0
   10.9128   12.7729    4.3899 C   0  0  0  0  0  0  0  0  0  0  0  0
   10.7206   13.7319    5.3460 N   0  0  0  0  0  0  0  0  0  0  0  0
  1  7  2  0  0  0  0
  1  2  1  0  0  0  0
  2  3  1  0  0  0  0
  2  4  2  0  0  0  0
  4  5  1  0  0  0  0
  5  6  2  0  0  0  0
  5 11  1  0  0  0  0
  6  7  1  0  0  0  0
  6  9  1  0  0  0  0
  7  8  1  0  0  0  0
  9 10  1  0  0  0  0
 10 11  2  0  0  0  0
M  END
>  <CHROM.1>
11.50347192,12.33356686,7.05675369,-1.15784012,1.19291810,-1.98879020

>  <Name>
ligand

>  <RI>
0

>  <Rbt.Current_Directory>
/home/itssahil/PROJECTS/Mol_Feturizer/New_Systems/rnas/4FEP

>  <Rbt.Executable>
rbdock ($Id: //depot/dev/client3/rdock/2013.1/src/exe/rbdock.cxx#4 $)

>  <Rbt.Library>
libRbt.so (2013.1, Build901 2013/11/27)

>  <Rbt.Parameter_File>
/export/apps/rDock/src/rDock_2013.1_src/data/scripts/dock_solv.prm

>  <Rbt.Receptor>
prm/blind_docking_40.prm

>  <SCORE>
-11.2157

>  <SCORE.INTER>
-11.2157

>  <SCORE.INTER.CONST>
1

>  <SCORE.INTER.POLAR>
0

>  <SCORE.INTER.ROT>
0

>  <SCORE.INTER.SOLV>
20.7549

>  <SCORE.INTER.VDW>
-17.9954

>  <SCORE.INTER.norm>
-1.01961

>  <SCORE.INTRA>
0

>  <SCORE.INTRA.DIHEDRAL>
0

>  <SCORE.INTRA.DIHEDRAL.0>
0

>  <SCORE.INTRA.POLAR>
0

>  <SCORE.INTRA.POLAR.0>
0

>  <SCORE.INTRA.REPUL>
0

>  <SCORE.INTRA.REPUL.0>
0

>  <SCORE.INTRA.SOLV>
0

>  <SCORE.INTRA.SOLV.lig_0>
-48.9558

>  <SCORE.INTRA.VDW>
0

>  <SCORE.INTRA.VDW.0>
0

>  <SCORE.INTRA.norm>
0

>  <SCORE.RESTR>
0

>  <SCORE.RESTR.CAVITY>
0

>  <SCORE.RESTR.norm>
0

>  <SCORE.SYSTEM>
0

>  <SCORE.SYSTEM.CONST>
0

>  <SCORE.SYSTEM.DIHEDRAL>
0

>  <SCORE.SYSTEM.SOLV>
0

>  <SCORE.SYSTEM.norm>
0

>  <SCORE.heavy>
11

>  <SCORE.norm>
-1.01961

>  <RMSD>
0.543

$$$$
ligand
 OpenBabel11021811493D
libRbt.so/2013.1/901 2013/11/27
 11 12  0  0  0  0  0  0  0  0999 V2000
   12.0061   11.5921    8.5979 N   0  0  0  0  0  0  0  0  0  0  0  0
   11.6187   12.8571    8.8269 C   0  0  0  0  0  0  0  0  0  0  0  0
   11.6593   13.3508   10.1201 N   0  0  0  0  0  0  0  0  0  0  0  0
   11.1938   13.6518    7.8311 N   0  0  0  0  0  0  0  0  0  0  0  0
   11.1424   13.2003    6.5562 C   0  0  0  0  0  0  0  0  0  0  0  0
   11.5426   11.8711    6.2677 C   0  0  0  0  0  0  0  0  0  0  0  0
   11.9856   11.0627    7.3566 C   0  0  0  0  0  0  0  0  0  0  0  0
   12.3907    9.7574    7.1524 N   0  0  0  0  0  0  0  0  0  0  0  0
   11.3887   11.6871    4.9332 N   0  0  0  0  0  0  0  0  0  0  0  0
   10.9342   12.7836    4.3954 C   0  0  0  0  0  0  0  0  0  0  0  0
   10.7670   13.7442    5.3547 N   0  0  0  0  0  0  0  0  0  0  0  0
  1  7  2  0  0  0  0
  1  2  1  0  0  0  0
  2  3  1  0  0  0  0
  2  4  2  0  0  0  0
  4  5  1  0  0  0  0
  5  6  2  0  0  0  0
  5 11  1  0  0  0  0
  6  7  1  0  0  0  0
  6  9  1  0  0  0  0
  7  8  1  0  0  0  0
  9 10  1  0  0  0  0
 10 11  2  0  0  0  0
M  END
>  <CHROM.1>
11.51638962,12.32128722,7.06023946,-1.12596865,1.21521034,-2.01542616

>  <Name>
ligand

>  <RI>
0

>  <Rbt.Current_Directory>
/home/itssahil/PROJECTS/Mol_Feturizer/New_Systems/rnas/4FEP

>  <Rbt.Executable>
rbdock ($Id: //depot/dev/client3/rdock/2013.1/src/exe/rbdock.cxx#4 $)

>  <Rbt.Library>
libRbt.so (2013.1, Build901 2013/11/27)

>  <Rbt.Parameter_File>
/export/apps/rDock/src/rDock_2013.1_src/data/scripts/dock_solv.prm

>  <Rbt.Receptor>
prm/blind_docking_80.prm

>  <SCORE>
-11.2396

>  <SCORE.INTER>
-11.2396

>  <SCORE.INTER.CONST>
1

>  <SCORE.INTER.POLAR>
0

>  <SCORE.INTER.ROT>
0

>  <SCORE.INTER.SOLV>
20.8942

>  <SCORE.INTER.VDW>
-18.0578

>  <SCORE.INTER.norm>
-1.02178

>  <SCORE.INTRA>
0

>  <SCORE.INTRA.DIHEDRAL>
0

>  <SCORE.INTRA.DIHEDRAL.0>
0

>  <SCORE.INTRA.POLAR>
0

>  <SCORE.INTRA.POLAR.0>
0

>  <SCORE.INTRA.REPUL>
0

>  <SCORE.INTRA.REPUL.0>
0

>  <SCORE.INTRA.SOLV>
0

>  <SCORE.INTRA.SOLV.lig_0>
-48.9558

>  <SCORE.INTRA.VDW>
0

>  <SCORE.INTRA.VDW.0>
0

>  <SCORE.INTRA.norm>
0

>  <SCORE.RESTR>
0

>  <SCORE.RESTR.CAVITY>
0

>  <SCORE.RESTR.norm>
0

>  <SCORE.SYSTEM>
0

>  <SCORE.SYSTEM.CONST>
0

>  <SCORE.SYSTEM.DIHEDRAL>
0

>  <SCORE.SYSTEM.SOLV>
0

>  <SCORE.SYSTEM.norm>
0

>  <SCORE.heavy>
11

>  <SCORE.norm>
-1.02178

>  <RMSD>
0.543

$$$$
ligand
 OpenBabel11021811493D
libRbt.so/2013.1/901 2013/11/27
 11 12  0  0  0  0  0  0  0  0999 V2000
   12.0248   11.6091    8.5942 N   0  0  0  0  0  0  0  0  0  0  0  0
   11.6283   12.8710    8.8255 C   0  0  0  0  0  0  0  0  0  0  0  0
   11.6764   13.3664   10.1177 N   0  0  0  0  0  0  0  0  0  0  0  0
   11.1873   13.6607    7.8327 N   0  0  0  0  0  0  0  0  0  0  0  0
   11.1282   13.2074    6.5588 C   0  0  0  0  0  0  0  0  0  0  0  0
   11.5375   11.8814    6.2681 C   0  0  0  0  0  0  0  0  0  0  0  0
   11.9976   11.0782    7.3537 C   0  0  0  0  0  0  0  0  0  0  0  0
   12.4124    9.7763    7.1471 N   0  0  0  0  0  0  0  0  0  0  0  0
   11.3730   11.6946    4.9352 N   0  0  0  0  0  0  0  0  0  0  0  0
   10.9039   12.7865    4.4005 C   0  0  0  0  0  0  0  0  0  0  0  0
   10.7371   13.7465    5.3603 N   0  0  0  0  0  0  0  0  0  0  0  0
  1  7  2  0  0  0  0
  1  2  1  0  0  0  0
  2  3  1  0  0  0  0
  2  4  2  0  0  0  0
  4  5  1  0  0  0  0
  5  6  2  0  0  0  0
  5 11  1  0  0  0  0
  6  7  1  0  0  0  0
  6  9  1  0  0  0  0
  7  8  1  0  0  0  0
  9 10  1  0  0  0  0
 10 11  2  0  0  0  0
M  END
>  <CHROM.1>
11.51455970,12.33224700,7.06035143,-1.11356190,1.20326344,-2.02810211

>  <Name>
ligand

>  <RI>
0

>  <Rbt.Current_Directory>
/home/itssahil/PROJECTS/Mol_Feturizer/New_Systems/rnas/4FEP

>  <Rbt.Executable>
rbdock ($Id: //depot/dev/client3/rdock/2013.1/src/exe/rbdock.cxx#4 $)

>  <Rbt.Library>
libRbt.so (2013.1, Build901 2013/11/27)

>  <Rbt.Parameter_File>
/export/apps/rDock/src/rDock_2013.1_src/data/scripts/dock_solv.prm

>  <Rbt.Receptor>
prm/pocket_docking_5.prm

>  <SCORE>
-11.2399

>  <SCORE.INTER>
-11.2399

>  <SCORE.INTER.CONST>
1

>  <SCORE.INTER.POLAR>
0

>  <SCORE.INTER.ROT>
0

>  <SCORE.INTER.SOLV>
20.8346

>  <SCORE.INTER.VDW>
-18.0381

>  <SCORE.INTER.norm>
-1.02181

>  <SCORE.INTRA>
0

>  <SCORE.INTRA.DIHEDRAL>
0

>  <SCORE.INTRA.DIHEDRAL.0>
0

>  <SCORE.INTRA.POLAR>
0

>  <SCORE.INTRA.POLAR.0>
0

>  <SCORE.INTRA.REPUL>
0

>  <SCORE.INTRA.REPUL.0>
0

>  <SCORE.INTRA.SOLV>
0

>  <SCORE.INTRA.SOLV.lig_0>
-48.9558

>  <SCORE.INTRA.VDW>
0

>  <SCORE.INTRA.VDW.0>
0

>  <SCORE.INTRA.norm>
0

>  <SCORE.RESTR>
0

>  <SCORE.RESTR.CAVITY>
0

>  <SCORE.RESTR.norm>
0

>  <SCORE.SYSTEM>
0

>  <SCORE.SYSTEM.CONST>
0

>  <SCORE.SYSTEM.DIHEDRAL>
0

>  <SCORE.SYSTEM.SOLV>
0

>  <SCORE.SYSTEM.norm>
0

>  <SCORE.heavy>
11

>  <SCORE.norm>
-1.02181

>  <RMSD>
0.543

$$$$
ligand
 OpenBabel11021811493D
libRbt.so/2013.1/901 2013/11/27
 11 12  0  0  0  0  0  0  0  0999 V2000
   12.0051   11.5920    8.5990 N   0  0  0  0  0  0  0  0  0  0  0  0
   11.6190   12.8575    8.8281 C   0  0  0  0  0  0  0  0  0  0  0  0
   11.6593   13.3508   10.1214 N   0  0  0  0  0  0  0  0  0  0  0  0
   11.1957   13.6528    7.8321 N   0  0  0  0  0  0  0  0  0  0  0  0
   11.1446   13.2016    6.5571 C   0  0  0  0  0  0  0  0  0  0  0  0
   11.5434   11.8720    6.2686 C   0  0  0  0  0  0  0  0  0  0  0  0
   11.9848   11.0629    7.3577 C   0  0  0  0  0  0  0  0  0  0  0  0
   12.3886    9.7571    7.1534 N   0  0  0  0  0  0  0  0  0  0  0  0
   11.3902   11.6885    4.9340 N   0  0  0  0  0  0  0  0  0  0  0  0
   10.9373   12.7856    4.3961 C   0  0  0  0  0  0  0  0  0  0  0  0
   10.7706   13.7461    5.3555 N   0  0  0  0  0  0  0  0  0  0  0  0
  1  7  2  0  0  0  0
  1  2  1  0  0  0  0
  2  3  1  0  0  0  0
  2  4  2  0  0  0  0
  4  5  1  0  0  0  0
  5  6  2  0  0  0  0
  5 11  1  0  0  0  0
  6  7  1  0  0  0  0
  6  9  1  0  0  0  0
  7  8  1  0  0  0  0
  9 10  1  0  0  0  0
 10 11  2  0  0  0  0
M  END
>  <CHROM.1>
11.51723663,12.32207218,7.06123947,-1.12624775,1.21653512,-2.01496393

>  <Name>
ligand

>  <RI>
0

>  <Rbt.Current_Directory>
/home/itssahil/PROJECTS/Mol_Feturizer/New_Systems/rnas/4FEP

>  <Rbt.Executable>
rbdock ($Id: //depot/dev/client3/rdock/2013.1/src/exe/rbdock.cxx#4 $)

>  <Rbt.Library>
libRbt.so (2013.1, Build901 2013/11/27)

>  <Rbt.Parameter_File>
/export/apps/rDock/src/rDock_2013.1_src/data/scripts/dock_solv.prm

>  <Rbt.Receptor>
prm/pocket_docking_6.prm

>  <SCORE>
-11.2393

>  <SCORE.INTER>
-11.2393

>  <SCORE.INTER.CONST>
1

>  <SCORE.INTER.POLAR>
0

>  <SCORE.INTER.ROT>
0

>  <SCORE.INTER.SOLV>
20.9037

>  <SCORE.INTER.VDW>
-18.0608

>  <SCORE.INTER.norm>
-1.02175

>  <SCORE.INTRA>
0

>  <SCORE.INTRA.DIHEDRAL>
0

>  <SCORE.INTRA.DIHEDRAL.0>
0

>  <SCORE.INTRA.POLAR>
0

>  <SCORE.INTRA.POLAR.0>
0

>  <SCORE.INTRA.REPUL>
0

>  <SCORE.INTRA.REPUL.0>
0

>  <SCORE.INTRA.SOLV>
0

>  <SCORE.INTRA.SOLV.lig_0>
-48.9558

>  <SCORE.INTRA.VDW>
0

>  <SCORE.INTRA.VDW.0>
0

>  <SCORE.INTRA.norm>
0

>  <SCORE.RESTR>
0

>  <SCORE.RESTR.CAVITY>
0

>  <SCORE.RESTR.norm>
0

>  <SCORE.SYSTEM>
0

>  <SCORE.SYSTEM.CONST>
0

>  <SCORE.SYSTEM.DIHEDRAL>
0

>  <SCORE.SYSTEM.SOLV>
0

>  <SCORE.SYSTEM.norm>
0

>  <SCORE.heavy>
11

>  <SCORE.norm>
-1.02175

>  <RMSD>
0.543

$$$$
ligand
 OpenBabel11021811493D
libRbt.so/2013.1/901 2013/11/27
 11 12  0  0  0  0  0  0  0  0999 V2000
   12.0074   11.5907    8.5979 N   0  0  0  0  0  0  0  0  0  0  0  0
   11.6207   12.8559    8.8276 C   0  0  0  0  0  0  0  0  0  0  0  0
   11.6621   13.3490   10.1209 N   0  0  0  0  0  0  0  0  0  0  0  0
   11.1956   13.6511    7.8323 N   0  0  0  0  0  0  0  0  0  0  0  0
   11.1434   13.2002    6.5572 C   0  0  0  0  0  0  0  0  0  0  0  0
   11.5428   11.8709    6.2680 C   0  0  0  0  0  0  0  0  0  0  0  0
   11.9860   11.0619    7.3564 C   0  0  0  0  0  0  0  0  0  0  0  0
   12.3905    9.7564    7.1514 N   0  0  0  0  0  0  0  0  0  0  0  0
   11.3882   11.6875    4.9335 N   0  0  0  0  0  0  0  0  0  0  0  0
   10.9339   12.7845    4.3964 C   0  0  0  0  0  0  0  0  0  0  0  0
   10.7676   13.7447    5.3562 N   0  0  0  0  0  0  0  0  0  0  0  0
  1  7  2  0  0  0  0
  1  2  1  0  0  0  0
  2  3  1  0  0  0  0
  2  4  2  0  0  0  0
  4  5  1  0  0  0  0
  5  6  2  0  0  0  0
  5 11  1  0  0  0  0
  6  7  1  0  0  0  0
  6  9  1  0  0  0  0
  7  8  1  0  0  0  0
  9 10  1  0  0  0  0
 10 11  2  0  0  0  0
M  END
>  <CHROM.1>
11.51722517,12.32077787,7.06076891,-1.12412445,1.21539532,-2.01675381

>  <Name>
ligand

>  <RI>
0

>  <Rbt.Current_Directory>
/home/itssahil/PROJECTS/Mol_Feturizer/New_Systems/rnas/4FEP

>  <Rbt.Executable>
rbdock ($Id: //depot/dev/client3/rdock/2013.1/src/exe/rbdock.cxx#4 $)

>  <Rbt.Library>
libRbt.so (2013.1, Build901 2013/11/27)

>  <Rbt.Parameter_File>
/export/apps/rDock/src/rDock_2013.1_src/data/scripts/dock_solv.prm

>  <Rbt.Receptor>
prm/pocket_docking_7.prm

>  <SCORE>
-11.2389

>  <SCORE.INTER>
-11.2389

>  <SCORE.INTER.CONST>
1

>  <SCORE.INTER.POLAR>
0

>  <SCORE.INTER.ROT>
0

>  <SCORE.INTER.SOLV>
20.8924

>  <SCORE.INTER.VDW>
-18.0568

>  <SCORE.INTER.norm>
-1.02172

>  <SCORE.INTRA>
0

>  <SCORE.INTRA.DIHEDRAL>
0

>  <SCORE.INTRA.DIHEDRAL.0>
0

>  <SCORE.INTRA.POLAR>
0

>  <SCORE.INTRA.POLAR.0>
0

>  <SCORE.INTRA.REPUL>
0

>  <SCORE.INTRA.REPUL.0>
0

>  <SCORE.INTRA.SOLV>
0

>  <SCORE.INTRA.SOLV.lig_0>
-48.9558

>  <SCORE.INTRA.VDW>
0

>  <SCORE.INTRA.VDW.0>
0

>  <SCORE.INTRA.norm>
0

>  <SCORE.RESTR>
0

>  <SCORE.RESTR.CAVITY>
0

>  <SCORE.RESTR.norm>
0

>  <SCORE.SYSTEM>
0

>  <SCORE.SYSTEM.CONST>
0

>  <SCORE.SYSTEM.DIHEDRAL>
0

>  <SCORE.SYSTEM.SOLV>
0

>  <SCORE.SYSTEM.norm>
0

>  <SCORE.heavy>
11

>  <SCORE.norm>
-1.02172

>  <RMSD>
0.543

$$$$
ligand
 OpenBabel11021811493D
libRbt.so/2013.1/901 2013/11/27
 11 12  0  0  0  0  0  0  0  0999 V2000
   12.0080   11.5962    8.5999 N   0  0  0  0  0  0  0  0  0  0  0  0
   11.6250   12.8629    8.8272 C   0  0  0  0  0  0  0  0  0  0  0  0
   11.6683   13.3585   10.1195 N   0  0  0  0  0  0  0  0  0  0  0  0
   11.2018   13.6574    7.8305 N   0  0  0  0  0  0  0  0  0  0  0  0
   11.1479   13.2040    6.5563 C   0  0  0  0  0  0  0  0  0  0  0  0
   11.5434   11.8730    6.2697 C   0  0  0  0  0  0  0  0  0  0  0  0
   11.9847   11.0649    7.3595 C   0  0  0  0  0  0  0  0  0  0  0  0
   12.3853    9.7580    7.1570 N   0  0  0  0  0  0  0  0  0  0  0  0
   11.3878   11.6875    4.9355 N   0  0  0  0  0  0  0  0  0  0  0  0
   10.9364   12.7846    4.3964 C   0  0  0  0  0  0  0  0  0  0  0  0
   10.7732   13.7472    5.3543 N   0  0  0  0  0  0  0  0  0  0  0  0
  1  7  2  0  0  0  0
  1  2  1  0  0  0  0
  2  3  1  0  0  0  0
  2  4  2  0  0  0  0
  4  5  1  0  0  0  0
  5  6  2  0  0  0  0
  5 11  1  0  0  0  0
  6  7  1  0  0  0  0
  6  9  1  0  0  0  0
  7  8  1  0  0  0  0
  9 10  1  0  0  0  0
 10 11  2  0  0  0  0
M  END
>  <CHROM.1>
11.51936267,12.32460531,7.06148189,-1.11964739,1.21781058,-2.02295155

>  <Name>
ligand

>  <RI>
0

>  <Rbt.Current_Directory>
/home/itssahil/PROJECTS/Mol_Feturizer/New_Systems/rnas/4FEP

>  <Rbt.Executable>
rbdock ($Id: //depot/dev/client3/rdock/2013.1/src/exe/rbdock.cxx#4 $)

>  <Rbt.Library>
libRbt.so (2013.1, Build901 2013/11/27)

>  <Rbt.Parameter_File>
/export/apps/rDock/src/rDock_2013.1_src/data/scripts/dock_solv.prm

>  <Rbt.Receptor>
prm/pocket_docking_5.prm

>  <SCORE>
-11.2363

>  <SCORE.INTER>
-11.2363

>  <SCORE.INTER.CONST>
1

>  <SCORE.INTER.POLAR>
0

>  <SCORE.INTER.ROT>
0

>  <SCORE.INTER.SOLV>
20.9229

>  <SCORE.INTER.VDW>
-18.0652

>  <SCORE.INTER.norm>
-1.02148

>  <SCORE.INTRA>
0

>  <SCORE.INTRA.DIHEDRAL>
0

>  <SCORE.INTRA.DIHEDRAL.0>
0

>  <SCORE.INTRA.POLAR>
0

>  <SCORE.INTRA.POLAR.0>
0

>  <SCORE.INTRA.REPUL>
0

>  <SCORE.INTRA.REPUL.0>
0

>  <SCORE.INTRA.SOLV>
0

>  <SCORE.INTRA.SOLV.lig_0>
-48.9558

>  <SCORE.INTRA.VDW>
0

>  <SCORE.INTRA.VDW.0>
0

>  <SCORE.INTRA.norm>
0

>  <SCORE.RESTR>
0

>  <SCORE.RESTR.CAVITY>
0

>  <SCORE.RESTR.norm>
0

>  <SCORE.SYSTEM>
0

>  <SCORE.SYSTEM.CONST>
0

>  <SCORE.SYSTEM.DIHEDRAL>
0

>  <SCORE.SYSTEM.SOLV>
0

>  <SCORE.SYSTEM.norm>
0

>  <SCORE.heavy>
11

>  <SCORE.norm>
-1.02148

>  <RMSD>
0.544

$$$$
ligand
 OpenBabel11021811493D
libRbt.so/2013.1/901 2013/11/27
 11 12  0  0  0  0  0  0  0  0999 V2000
   12.0266   11.5976    8.5896 N   0  0  0  0  0  0  0  0  0  0  0  0
   11.6307   12.8588    8.8254 C   0  0  0  0  0  0  0  0  0  0  0  0
   11.6791   13.3497   10.1193 N   0  0  0  0  0  0  0  0  0  0  0  0
   11.1899   13.6522    7.8354 N   0  0  0  0  0  0  0  0  0  0  0  0
   11.1305   13.2033    6.5600 C   0  0  0  0  0  0  0  0  0  0  0  0
   11.5392   11.8782    6.2645 C   0  0  0  0  0  0  0  0  0  0  0  0
   11.9990   11.0710    7.3473 C   0  0  0  0  0  0  0  0  0  0  0  0
   12.4133    9.7696    7.1361 N   0  0  0  0  0  0  0  0  0  0  0  0
   11.3745   11.6962    4.9310 N   0  0  0  0  0  0  0  0  0  0  0  0
   10.9058   12.7901    4.4002 C   0  0  0  0  0  0  0  0  0  0  0  0
   10.7395   13.7469    5.3634 N   0  0  0  0  0  0  0  0  0  0  0  0
  1  7  2  0  0  0  0
  1  2  1  0  0  0  0
  2  3  1  0  0  0  0
  2  4  2  0  0  0  0
  4  5  1  0  0  0  0
  5  6  2  0  0  0  0
  5 11  1  0  0  0  0
  6  7  1  0  0  0  0
  6  9  1  0  0  0  0
  7  8  1  0  0  0  0
  9 10  1  0  0  0  0
 10 11  2  0  0  0  0
M  END
>  <CHROM.1>
11.51652210,12.32630620,7.05838072,-1.11281731,1.20359865,-2.02529223

>  <Name>
ligand

>  <RI>
0

>  <Rbt.Current_Directory>
/home/itssahil/PROJECTS/Mol_Feturizer/New_Systems/rnas/4FEP

>  <Rbt.Executable>
rbdock ($Id: //depot/dev/client3/rdock/2013.1/src/exe/rbdock.cxx#4 $)

>  <Rbt.Library>
libRbt.so (2013.1, Build901 2013/11/27)

>  <Rbt.Parameter_File>
/export/apps/rDock/src/rDock_2013.1_src/data/scripts/dock_solv.prm

>  <Rbt.Receptor>
prm/pocket_docking_7.prm

>  <SCORE>
-11.242

>  <SCORE.INTER>
-11.242

>  <SCORE.INTER.CONST>
1

>  <SCORE.INTER.POLAR>
0

>  <SCORE.INTER.ROT>
0

>  <SCORE.INTER.SOLV>
20.8092

>  <SCORE.INTER.VDW>
-18.0311

>  <SCORE.INTER.norm>
-1.022

>  <SCORE.INTRA>
0

>  <SCORE.INTRA.DIHEDRAL>
0

>  <SCORE.INTRA.DIHEDRAL.0>
0

>  <SCORE.INTRA.POLAR>
0

>  <SCORE.INTRA.POLAR.0>
0

>  <SCORE.INTRA.REPUL>
0

>  <SCORE.INTRA.REPUL.0>
0

>  <SCORE.INTRA.SOLV>
0

>  <SCORE.INTRA.SOLV.lig_0>
-48.9558

>  <SCORE.INTRA.VDW>
0

>  <SCORE.INTRA.VDW.0>
0

>  <SCORE.INTRA.norm>
0

>  <SCORE.RESTR>
0

>  <SCORE.RESTR.CAVITY>
0

>  <SCORE.RESTR.norm>
0

>  <SCORE.SYSTEM>
0

>  <SCORE.SYSTEM.CONST>
0

>  <SCORE.SYSTEM.DIHEDRAL>
0

>  <SCORE.SYSTEM.SOLV>
0

>  <SCORE.SYSTEM.norm>
0

>  <SCORE.heavy>
11

>  <SCORE.norm>
-1.022

>  <RMSD>
0.544

$$$$
ligand
 OpenBabel11021811493D
libRbt.so/2013.1/901 2013/11/27
 11 12  0  0  0  0  0  0  0  0999 V2000
   12.0239   11.6013    8.5914 N   0  0  0  0  0  0  0  0  0  0  0  0
   11.6201   12.8610    8.8216 C   0  0  0  0  0  0  0  0  0  0  0  0
   11.6590   13.3557   10.1144 N   0  0  0  0  0  0  0  0  0  0  0  0
   11.1803   13.6493    7.8272 N   0  0  0  0  0  0  0  0  0  0  0  0
   11.1300   13.1967    6.5526 C   0  0  0  0  0  0  0  0  0  0  0  0
   11.5473   11.8730    6.2630 C   0  0  0  0  0  0  0  0  0  0  0  0
   12.0057   11.0712    7.3504 C   0  0  0  0  0  0  0  0  0  0  0  0
   12.4279    9.7715    7.1450 N   0  0  0  0  0  0  0  0  0  0  0  0
   11.3906   11.6864    4.9292 N   0  0  0  0  0  0  0  0  0  0  0  0
   10.9189   12.7763    4.3929 C   0  0  0  0  0  0  0  0  0  0  0  0
   10.7424   13.7349    5.3525 N   0  0  0  0  0  0  0  0  0  0  0  0
  1  7  2  0  0  0  0
  1  2  1  0  0  0  0
  2  3  1  0  0  0  0
  2  4  2  0  0  0  0
  4  5  1  0  0  0  0
  5  6  2  0  0  0  0
  5 11  1  0  0  0  0
  6  7  1  0  0  0  0
  6  9  1  0  0  0  0
  7  8  1  0  0  0  0
  9 10  1  0  0  0  0
 10 11  2  0  0  0  0
M  END
>  <CHROM.1>
11.51804872,12.32310439,7.05551012,-1.13237484,1.20108301,-2.00981164

>  <Name>
ligand

>  <RI>
0

>  <Rbt.Current_Directory>
/home/itssahil/PROJECTS/Mol_Feturizer/New_Systems/rnas/4FEP

>  <Rbt.Executable>
rbdock ($Id: //depot/dev/client3/rdock/2013.1/src/exe/rbdock.cxx#4 $)

>  <Rbt.Library>
libRbt.so (2013.1, Build901 2013/11/27)

>  <Rbt.Parameter_File>
/export/apps/rDock/src/rDock_2013.1_src/data/scripts/dock_solv.prm

>  <Rbt.Receptor>
prm/pocket_docking_8.prm

>  <SCORE>
-11.2264

>  <SCORE.INTER>
-11.2264

>  <SCORE.INTER.CONST>
1

>  <SCORE.INTER.POLAR>
0

>  <SCORE.INTER.ROT>
0

>  <SCORE.INTER.SOLV>
20.7754

>  <SCORE.INTER.VDW>
-18.0094

>  <SCORE.INTER.norm>
-1.02058

>  <SCORE.INTRA>
0

>  <SCORE.INTRA.DIHEDRAL>
0

>  <SCORE.INTRA.DIHEDRAL.0>
0

>  <SCORE.INTRA.POLAR>
0

>  <SCORE.INTRA.POLAR.0>
0

>  <SCORE.INTRA.REPUL>
0

>  <SCORE.INTRA.REPUL.0>
0

>  <SCORE.INTRA.SOLV>
0

>  <SCORE.INTRA.SOLV.lig_0>
-48.9558

>  <SCORE.INTRA.VDW>
0

>  <SCORE.INTRA.VDW.0>
0

>  <SCORE.INTRA.norm>
0

>  <SCORE.RESTR>
0

>  <SCORE.RESTR.CAVITY>
0

>  <SCORE.RESTR.norm>
0

>  <SCORE.SYSTEM>
0

>  <SCORE.SYSTEM.CONST>
0

>  <SCORE.SYSTEM.DIHEDRAL>
0

>  <SCORE.SYSTEM.SOLV>
0

>  <SCORE.SYSTEM.norm>
0

>  <SCORE.heavy>
11

>  <SCORE.norm>
-1.02058

>  <RMSD>
0.544

$$$$
ligand
 OpenBabel11021811493D
libRbt.so/2013.1/901 2013/11/27
 11 12  0  0  0  0  0  0  0  0999 V2000
   12.0463   11.6117    8.5844 N   0  0  0  0  0  0  0  0  0  0  0  0
   11.6227   12.8645    8.8167 C   0  0  0  0  0  0  0  0  0  0  0  0
   11.6583   13.3592   10.1096 N   0  0  0  0  0  0  0  0  0  0  0  0
   11.1662   13.6458    7.8243 N   0  0  0  0  0  0  0  0  0  0  0  0
   11.1187   13.1929    6.5498 C   0  0  0  0  0  0  0  0  0  0  0  0
   11.5566   11.8764    6.2580 C   0  0  0  0  0  0  0  0  0  0  0  0
   12.0323   11.0819    7.3433 C   0  0  0  0  0  0  0  0  0  0  0  0
   12.4751    9.7894    7.1357 N   0  0  0  0  0  0  0  0  0  0  0  0
   11.3981   11.6878    4.9246 N   0  0  0  0  0  0  0  0  0  0  0  0
   10.9064   12.7701    4.3906 C   0  0  0  0  0  0  0  0  0  0  0  0
   10.7177   13.7251    5.3513 N   0  0  0  0  0  0  0  0  0  0  0  0
  1  7  2  0  0  0  0
  1  2  1  0  0  0  0
  2  3  1  0  0  0  0
  2  4  2  0  0  0  0
  4  5  1  0  0  0  0
  5  6  2  0  0  0  0
  5 11  1  0  0  0  0
  6  7  1  0  0  0  0
  6  9  1  0  0  0  0
  7  8  1  0  0  0  0
  9 10  1  0  0  0  0
 10 11  2  0  0  0  0
M  END
>  <CHROM.1>
11.52293916,12.32566684,7.05076435,-1.14201496,1.18452816,-2.00039845

>  <Name>
ligand

>  <RI>
0

>  <Rbt.Current_Directory>
/home/itssahil/PROJECTS/Mol_Feturizer/New_Systems/rnas/4FEP

>  <Rbt.Executable>
rbdock ($Id: //depot/dev/client3/rdock/2013.1/src/exe/rbdock.cxx#4 $)

>  <Rbt.Library>
libRbt.so (2013.1, Build901 2013/11/27)

>  <Rbt.Parameter_File>
/export/apps/rDock/src/rDock_2013.1_src/data/scripts/dock_solv.prm

>  <Rbt.Receptor>
prm/blind_docking_80.prm

>  <SCORE>
-11.2338

>  <SCORE.INTER>
-11.2338

>  <SCORE.INTER.CONST>
1

>  <SCORE.INTER.POLAR>
0

>  <SCORE.INTER.ROT>
0

>  <SCORE.INTER.SOLV>
20.6378

>  <SCORE.INTER.VDW>
-17.9685

>  <SCORE.INTER.norm>
-1.02125

>  <SCORE.INTRA>
0

>  <SCORE.INTRA.DIHEDRAL>
0

>  <SCORE.INTRA.DIHEDRAL.0>
0

>  <SCORE.INTRA.POLAR>
0

>  <SCORE.INTRA.POLAR.0>
0

>  <SCORE.INTRA.REPUL>
0

>  <SCORE.INTRA.REPUL.0>
0

>  <SCORE.INTRA.SOLV>
0

>  <SCORE.INTRA.SOLV.lig_0>
-48.9558

>  <SCORE.INTRA.VDW>
0

>  <SCORE.INTRA.VDW.0>
0

>  <SCORE.INTRA.norm>
0

>  <SCORE.RESTR>
0

>  <SCORE.RESTR.CAVITY>
0

>  <SCORE.RESTR.norm>
0

>  <SCORE.SYSTEM>
0

>  <SCORE.SYSTEM.CONST>
0

>  <SCORE.SYSTEM.DIHEDRAL>
0

>  <SCORE.SYSTEM.SOLV>
0

>  <SCORE.SYSTEM.norm>
0

>  <SCORE.heavy>
11

>  <SCORE.norm>
-1.02125

>  <RMSD>
0.545

$$$$
ligand
 OpenBabel11021811493D
libRbt.so/2013.1/901 2013/11/27
 11 12  0  0  0  0  0  0  0  0999 V2000
   12.0214   11.5962    8.5938 N   0  0  0  0  0  0  0  0  0  0  0  0
   11.6318   12.8605    8.8233 C   0  0  0  0  0  0  0  0  0  0  0  0
   11.6773   13.3558   10.1156 N   0  0  0  0  0  0  0  0  0  0  0  0
   11.2000   13.6529    7.8285 N   0  0  0  0  0  0  0  0  0  0  0  0
   11.1437   13.1998    6.5544 C   0  0  0  0  0  0  0  0  0  0  0  0
   11.5459   11.8713    6.2656 C   0  0  0  0  0  0  0  0  0  0  0  0
   11.9963   11.0653    7.3533 C   0  0  0  0  0  0  0  0  0  0  0  0
   12.4039    9.7608    7.1486 N   0  0  0  0  0  0  0  0  0  0  0  0
   11.3862   11.6854    4.9320 N   0  0  0  0  0  0  0  0  0  0  0  0
   10.9262   12.7801    4.3952 C   0  0  0  0  0  0  0  0  0  0  0  0
   10.7611   13.7413    5.3541 N   0  0  0  0  0  0  0  0  0  0  0  0
  1  7  2  0  0  0  0
  1  2  1  0  0  0  0
  2  3  1  0  0  0  0
  2  4  2  0  0  0  0
  4  5  1  0  0  0  0
  5  6  2  0  0  0  0
  5 11  1  0  0  0  0
  6  7  1  0  0  0  0
  6  9  1  0  0  0  0
  7  8  1  0  0  0  0
  9 10  1  0  0  0  0
 10 11  2  0  0  0  0
M  END
>  <CHROM.1>
11.52237111,12.32235238,7.05769692,-1.11686957,1.21077204,-2.02510893

>  <Name>
ligand

>  <RI>
0

>  <Rbt.Current_Directory>
/home/itssahil/PROJECTS/Mol_Feturizer/New_Systems/rnas/4FEP

>  <Rbt.Executable>
rbdock ($Id: //depot/dev/client3/rdock/2013.1/src/exe/rbdock.cxx#4 $)

>  <Rbt.Library>
libRbt.so (2013.1, Build901 2013/11/27)

>  <Rbt.Parameter_File>
/export/apps/rDock/src/rDock_2013.1_src/data/scripts/dock_solv.prm

>  <Rbt.Receptor>
prm/pocket_docking_3.prm

>  <SCORE>
-11.2299

>  <SCORE.INTER>
-11.2299

>  <SCORE.INTER.CONST>
1

>  <SCORE.INTER.POLAR>
0

>  <SCORE.INTER.ROT>
0

>  <SCORE.INTER.SOLV>
20.8526

>  <SCORE.INTER.VDW>
-18.0374

>  <SCORE.INTER.norm>
-1.0209

>  <SCORE.INTRA>
0

>  <SCORE.INTRA.DIHEDRAL>
0

>  <SCORE.INTRA.DIHEDRAL.0>
0

>  <SCORE.INTRA.POLAR>
0

>  <SCORE.INTRA.POLAR.0>
0

>  <SCORE.INTRA.REPUL>
0

>  <SCORE.INTRA.REPUL.0>
0

>  <SCORE.INTRA.SOLV>
0

>  <SCORE.INTRA.SOLV.lig_0>
-48.9558

>  <SCORE.INTRA.VDW>
0

>  <SCORE.INTRA.VDW.0>
0

>  <SCORE.INTRA.norm>
0

>  <SCORE.RESTR>
0

>  <SCORE.RESTR.CAVITY>
0

>  <SCORE.RESTR.norm>
0

>  <SCORE.SYSTEM>
0

>  <SCORE.SYSTEM.CONST>
0

>  <SCORE.SYSTEM.DIHEDRAL>
0

>  <SCORE.SYSTEM.SOLV>
0

>  <SCORE.SYSTEM.norm>
0

>  <SCORE.heavy>
11

>  <SCORE.norm>
-1.0209

>  <RMSD>
0.545

$$$$
ligand
 OpenBabel11021811493D
libRbt.so/2013.1/901 2013/11/27
 11 12  0  0  0  0  0  0  0  0999 V2000
   12.0048   11.6070    8.5901 N   0  0  0  0  0  0  0  0  0  0  0  0
   11.5883   12.8630    8.8180 C   0  0  0  0  0  0  0  0  0  0  0  0
   11.6161   13.3582   10.1109 N   0  0  0  0  0  0  0  0  0  0  0  0
   11.1463   13.6471    7.8213 N   0  0  0  0  0  0  0  0  0  0  0  0
   11.1067   13.1939    6.5466 C   0  0  0  0  0  0  0  0  0  0  0  0
   11.5375   11.8741    6.2593 C   0  0  0  0  0  0  0  0  0  0  0  0
   11.9978   11.0767    7.3491 C   0  0  0  0  0  0  0  0  0  0  0  0
   12.4330    9.7809    7.1460 N   0  0  0  0  0  0  0  0  0  0  0  0
   11.3894   11.6859    4.9247 N   0  0  0  0  0  0  0  0  0  0  0  0
   10.9104   12.7714    4.3858 C   0  0  0  0  0  0  0  0  0  0  0  0
   10.7202   13.7284    5.3444 N   0  0  0  0  0  0  0  0  0  0  0  0
  1  7  2  0  0  0  0
  1  2  1  0  0  0  0
  2  3  1  0  0  0  0
  2  4  2  0  0  0  0
  4  5  1  0  0  0  0
  5  6  2  0  0  0  0
  5 11  1  0  0  0  0
  6  7  1  0  0  0  0
  6  9  1  0  0  0  0
  7  8  1  0  0  0  0
  9 10  1  0  0  0  0
 10 11  2  0  0  0  0
M  END
>  <CHROM.1>
11.50015999,12.32399008,7.05152666,-1.15551767,1.19480543,-1.98837519

>  <Name>
ligand

>  <RI>
0

>  <Rbt.Current_Directory>
/home/itssahil/PROJECTS/Mol_Feturizer/New_Systems/rnas/4FEP

>  <Rbt.Executable>
rbdock ($Id: //depot/dev/client3/rdock/2013.1/src/exe/rbdock.cxx#4 $)

>  <Rbt.Library>
libRbt.so (2013.1, Build901 2013/11/27)

>  <Rbt.Parameter_File>
/export/apps/rDock/src/rDock_2013.1_src/data/scripts/dock_solv.prm

>  <Rbt.Receptor>
prm/pocket_docking_6.prm

>  <SCORE>
-11.2185

>  <SCORE.INTER>
-11.2185

>  <SCORE.INTER.CONST>
1

>  <SCORE.INTER.POLAR>
0

>  <SCORE.INTER.ROT>
0

>  <SCORE.INTER.SOLV>
20.76

>  <SCORE.INTER.VDW>
-17.999

>  <SCORE.INTER.norm>
-1.01987

>  <SCORE.INTRA>
0

>  <SCORE.INTRA.DIHEDRAL>
0

>  <SCORE.INTRA.DIHEDRAL.0>
0

>  <SCORE.INTRA.POLAR>
0

>  <SCORE.INTRA.POLAR.0>
0

>  <SCORE.INTRA.REPUL>
0

>  <SCORE.INTRA.REPUL.0>
0

>  <SCORE.INTRA.SOLV>
0

>  <SCORE.INTRA.SOLV.lig_0>
-48.9558

>  <SCORE.INTRA.VDW>
0

>  <SCORE.INTRA.VDW.0>
0

>  <SCORE.INTRA.norm>
0

>  <SCORE.RESTR>
0

>  <SCORE.RESTR.CAVITY>
0

>  <SCORE.RESTR.norm>
0

>  <SCORE.SYSTEM>
0

>  <SCORE.SYSTEM.CONST>
0

>  <SCORE.SYSTEM.DIHEDRAL>
0

>  <SCORE.SYSTEM.SOLV>
0

>  <SCORE.SYSTEM.norm>
0

>  <SCORE.heavy>
11

>  <SCORE.norm>
-1.01987

>  <RMSD>
0.545

$$$$
ligand
 OpenBabel11021811493D
libRbt.so/2013.1/901 2013/11/27
 11 12  0  0  0  0  0  0  0  0999 V2000
   12.0100   11.5960    8.5966 N   0  0  0  0  0  0  0  0  0  0  0  0
   11.6266   12.8626    8.8241 C   0  0  0  0  0  0  0  0  0  0  0  0
   11.6704   13.3583   10.1164 N   0  0  0  0  0  0  0  0  0  0  0  0
   11.2026   13.6567    7.8275 N   0  0  0  0  0  0  0  0  0  0  0  0
   11.1481   13.2033    6.5535 C   0  0  0  0  0  0  0  0  0  0  0  0
   11.5440   11.8724    6.2667 C   0  0  0  0  0  0  0  0  0  0  0  0
   11.9863   11.0646    7.3563 C   0  0  0  0  0  0  0  0  0  0  0  0
   12.3874    9.7578    7.1537 N   0  0  0  0  0  0  0  0  0  0  0  0
   11.3878   11.6867    4.9327 N   0  0  0  0  0  0  0  0  0  0  0  0
   10.9356   12.7836    4.3937 C   0  0  0  0  0  0  0  0  0  0  0  0
   10.7726   13.7462    5.3516 N   0  0  0  0  0  0  0  0  0  0  0  0
  1  7  2  0  0  0  0
  1  2  1  0  0  0  0
  2  3  1  0  0  0  0
  2  4  2  0  0  0  0
  4  5  1  0  0  0  0
  5  6  2  0  0  0  0
  5 11  1  0  0  0  0
  6  7  1  0  0  0  0
  6  9  1  0  0  0  0
  7  8  1  0  0  0  0
  9 10  1  0  0  0  0
 10 11  2  0  0  0  0
M  END
>  <CHROM.1>
11.52026460,12.32402955,7.05847594,-1.11878146,1.21717236,-2.02384439

>  <Name>
ligand

>  <RI>
0

>  <Rbt.Current_Directory>
/home/itssahil/PROJECTS/Mol_Feturizer/New_Systems/rnas/4FEP

>  <Rbt.Executable>
rbdock ($Id: //depot/dev/client3/rdock/2013.1/src/exe/rbdock.cxx#4 $)

>  <Rbt.Library>
libRbt.so (2013.1, Build901 2013/11/27)

>  <Rbt.Parameter_File>
/export/apps/rDock/src/rDock_2013.1_src/data/scripts/dock_solv.prm

>  <Rbt.Receptor>
prm/pocket_docking_3.prm

>  <SCORE>
-11.2351

>  <SCORE.INTER>
-11.2351

>  <SCORE.INTER.CONST>
1

>  <SCORE.INTER.POLAR>
0

>  <SCORE.INTER.ROT>
0

>  <SCORE.INTER.SOLV>
20.9138

>  <SCORE.INTER.VDW>
-18.0613

>  <SCORE.INTER.norm>
-1.02137

>  <SCORE.INTRA>
0

>  <SCORE.INTRA.DIHEDRAL>
0

>  <SCORE.INTRA.DIHEDRAL.0>
0

>  <SCORE.INTRA.POLAR>
0

>  <SCORE.INTRA.POLAR.0>
0

>  <SCORE.INTRA.REPUL>
0

>  <SCORE.INTRA.REPUL.0>
0

>  <SCORE.INTRA.SOLV>
0

>  <SCORE.INTRA.SOLV.lig_0>
-48.9558

>  <SCORE.INTRA.VDW>
0

>  <SCORE.INTRA.VDW.0>
0

>  <SCORE.INTRA.norm>
0

>  <SCORE.RESTR>
0

>  <SCORE.RESTR.CAVITY>
0

>  <SCORE.RESTR.norm>
0

>  <SCORE.SYSTEM>
0

>  <SCORE.SYSTEM.CONST>
0

>  <SCORE.SYSTEM.DIHEDRAL>
0

>  <SCORE.SYSTEM.SOLV>
0

>  <SCORE.SYSTEM.norm>
0

>  <SCORE.heavy>
11

>  <SCORE.norm>
-1.02137

>  <RMSD>
0.546

$$$$
ligand
 OpenBabel11021811493D
libRbt.so/2013.1/901 2013/11/27
 11 12  0  0  0  0  0  0  0  0999 V2000
   12.0239   11.6035    8.5902 N   0  0  0  0  0  0  0  0  0  0  0  0
   11.6084   12.8629    8.8006 C   0  0  0  0  0  0  0  0  0  0  0  0
   11.6389   13.3768   10.0861 N   0  0  0  0  0  0  0  0  0  0  0  0
   11.1648   13.6326    7.7933 N   0  0  0  0  0  0  0  0  0  0  0  0
   11.1225   13.1609    6.5255 C   0  0  0  0  0  0  0  0  0  0  0  0
   11.5522   11.8368    6.2566 C   0  0  0  0  0  0  0  0  0  0  0  0
   12.0142   11.0551    7.3570 C   0  0  0  0  0  0  0  0  0  0  0  0
   12.4484    9.7563    7.1720 N   0  0  0  0  0  0  0  0  0  0  0  0
   11.4014   11.6293    4.9252 N   0  0  0  0  0  0  0  0  0  0  0  0
   10.9218   12.7071    4.3715 C   0  0  0  0  0  0  0  0  0  0  0  0
   10.7339   13.6780    5.3164 N   0  0  0  0  0  0  0  0  0  0  0  0
  1  7  2  0  0  0  0
  1  2  1  0  0  0  0
  2  3  1  0  0  0  0
  2  4  2  0  0  0  0
  4  5  1  0  0  0  0
  5  6  2  0  0  0  0
  5 11  1  0  0  0  0
  6  7  1  0  0  0  0
  6  9  1  0  0  0  0
  7  8  1  0  0  0  0
  9 10  1  0  0  0  0
 10 11  2  0  0  0  0
M  END
>  <CHROM.1>
11.51656996,12.29822916,7.04228551,-1.15017632,1.19443538,-2.00792011

>  <Name>
ligand

>  <RI>
0

>  <Rbt.Current_Directory>
/home/itssahil/PROJECTS/Mol_Feturizer/New_Systems/rnas/4FEP

>  <Rbt.Executable>
rbdock ($Id: //depot/dev/client3/rdock/2013.1/src/exe/rbdock.cxx#4 $)

>  <Rbt.Library>
libRbt.so (2013.1, Build901 2013/11/27)

>  <Rbt.Parameter_File>
/export/apps/rDock/src/rDock_2013.1_src/data/scripts/dock_solv.prm

>  <Rbt.Receptor>
prm/pocket_docking_5.prm

>  <SCORE>
-11.1922

>  <SCORE.INTER>
-11.1922

>  <SCORE.INTER.CONST>
1

>  <SCORE.INTER.POLAR>
0

>  <SCORE.INTER.ROT>
0

>  <SCORE.INTER.SOLV>
20.7254

>  <SCORE.INTER.VDW>
-17.9699

>  <SCORE.INTER.norm>
-1.01747

>  <SCORE.INTRA>
0

>  <SCORE.INTRA.DIHEDRAL>
0

>  <SCORE.INTRA.DIHEDRAL.0>
0

>  <SCORE.INTRA.POLAR>
0

>  <SCORE.INTRA.POLAR.0>
0

>  <SCORE.INTRA.REPUL>
0

>  <SCORE.INTRA.REPUL.0>
0

>  <SCORE.INTRA.SOLV>
0

>  <SCORE.INTRA.SOLV.lig_0>
-48.9558

>  <SCORE.INTRA.VDW>
0

>  <SCORE.INTRA.VDW.0>
0

>  <SCORE.INTRA.norm>
0

>  <SCORE.RESTR>
0

>  <SCORE.RESTR.CAVITY>
0

>  <SCORE.RESTR.norm>
0

>  <SCORE.SYSTEM>
0

>  <SCORE.SYSTEM.CONST>
0

>  <SCORE.SYSTEM.DIHEDRAL>
0

>  <SCORE.SYSTEM.SOLV>
0

>  <SCORE.SYSTEM.norm>
0

>  <SCORE.heavy>
11

>  <SCORE.norm>
-1.01747

>  <RMSD>
0.546

$$$$
ligand
 OpenBabel11021811493D
libRbt.so/2013.1/901 2013/11/27
 11 12  0  0  0  0  0  0  0  0999 V2000
   12.0102   11.5958    8.5957 N   0  0  0  0  0  0  0  0  0  0  0  0
   11.6248   12.8617    8.8232 C   0  0  0  0  0  0  0  0  0  0  0  0
   11.6684   13.3576   10.1154 N   0  0  0  0  0  0  0  0  0  0  0  0
   11.1989   13.6550    7.8267 N   0  0  0  0  0  0  0  0  0  0  0  0
   11.1447   13.2013    6.5527 C   0  0  0  0  0  0  0  0  0  0  0  0
   11.5427   11.8711    6.2659 C   0  0  0  0  0  0  0  0  0  0  0  0
   11.9868   11.0642    7.3554 C   0  0  0  0  0  0  0  0  0  0  0  0
   12.3900    9.7580    7.1527 N   0  0  0  0  0  0  0  0  0  0  0  0
   11.3862   11.6850    4.9319 N   0  0  0  0  0  0  0  0  0  0  0  0
   10.9319   12.7811    4.3931 C   0  0  0  0  0  0  0  0  0  0  0  0
   10.7676   13.7435    5.3510 N   0  0  0  0  0  0  0  0  0  0  0  0
  1  7  2  0  0  0  0
  1  2  1  0  0  0  0
  2  3  1  0  0  0  0
  2  4  2  0  0  0  0
  4  5  1  0  0  0  0
  5  6  2  0  0  0  0
  5 11  1  0  0  0  0
  6  7  1  0  0  0  0
  6  9  1  0  0  0  0
  7  8  1  0  0  0  0
  9 10  1  0  0  0  0
 10 11  2  0  0  0  0
M  END
>  <CHROM.1>
11.51852545,12.32280242,7.05763668,-1.11968540,1.21545984,-2.02310012

>  <Name>
ligand

>  <RI>
0

>  <Rbt.Current_Directory>
/home/itssahil/PROJECTS/Mol_Feturizer/New_Systems/rnas/4FEP

>  <Rbt.Executable>
rbdock ($Id: //depot/dev/client3/rdock/2013.1/src/exe/rbdock.cxx#4 $)

>  <Rbt.Library>
libRbt.so (2013.1, Build901 2013/11/27)

>  <Rbt.Parameter_File>
/export/apps/rDock/src/rDock_2013.1_src/data/scripts/dock_solv.prm

>  <Rbt.Receptor>
prm/pocket_docking_5.prm

>  <SCORE>
-11.2363

>  <SCORE.INTER>
-11.2363

>  <SCORE.INTER.CONST>
1

>  <SCORE.INTER.POLAR>
0

>  <SCORE.INTER.ROT>
0

>  <SCORE.INTER.SOLV>
20.9018

>  <SCORE.INTER.VDW>
-18.0582

>  <SCORE.INTER.norm>
-1.02149

>  <SCORE.INTRA>
0

>  <SCORE.INTRA.DIHEDRAL>
0

>  <SCORE.INTRA.DIHEDRAL.0>
0

>  <SCORE.INTRA.POLAR>
0

>  <SCORE.INTRA.POLAR.0>
0

>  <SCORE.INTRA.REPUL>
0

>  <SCORE.INTRA.REPUL.0>
0

>  <SCORE.INTRA.SOLV>
0

>  <SCORE.INTRA.SOLV.lig_0>
-48.9558

>  <SCORE.INTRA.VDW>
0

>  <SCORE.INTRA.VDW.0>
0

>  <SCORE.INTRA.norm>
0

>  <SCORE.RESTR>
0

>  <SCORE.RESTR.CAVITY>
0

>  <SCORE.RESTR.norm>
0

>  <SCORE.SYSTEM>
0

>  <SCORE.SYSTEM.CONST>
0

>  <SCORE.SYSTEM.DIHEDRAL>
0

>  <SCORE.SYSTEM.SOLV>
0

>  <SCORE.SYSTEM.norm>
0

>  <SCORE.heavy>
11

>  <SCORE.norm>
-1.02149

>  <RMSD>
0.546

$$$$
ligand
 OpenBabel11021811493D
libRbt.so/2013.1/901 2013/11/27
 11 12  0  0  0  0  0  0  0  0999 V2000
   12.0055   11.5845    8.5928 N   0  0  0  0  0  0  0  0  0  0  0  0
   11.6209   12.8498    8.8255 C   0  0  0  0  0  0  0  0  0  0  0  0
   11.6635   13.3400   10.1198 N   0  0  0  0  0  0  0  0  0  0  0  0
   11.1968   13.6479    7.8320 N   0  0  0  0  0  0  0  0  0  0  0  0
   11.1435   13.1998    6.5560 C   0  0  0  0  0  0  0  0  0  0  0  0
   11.5407   11.8705    6.2637 C   0  0  0  0  0  0  0  0  0  0  0  0
   11.9830   11.0584    7.3502 C   0  0  0  0  0  0  0  0  0  0  0  0
   12.3853    9.7528    7.1423 N   0  0  0  0  0  0  0  0  0  0  0  0
   11.3855   11.6903    4.9289 N   0  0  0  0  0  0  0  0  0  0  0  0
   10.9327   12.7892    4.3943 C   0  0  0  0  0  0  0  0  0  0  0  0
   10.7683   13.7475    5.3562 N   0  0  0  0  0  0  0  0  0  0  0  0
  1  7  2  0  0  0  0
  1  2  1  0  0  0  0
  2  3  1  0  0  0  0
  2  4  2  0  0  0  0
  4  5  1  0  0  0  0
  5  6  2  0  0  0  0
  5 11  1  0  0  0  0
  6  7  1  0  0  0  0
  6  9  1  0  0  0  0
  7  8  1  0  0  0  0
  9 10  1  0  0  0  0
 10 11  2  0  0  0  0
M  END
>  <CHROM.1>
11.51608750,12.31871947,7.05745983,-1.12139499,1.21671456,-2.01712617

>  <Name>
ligand

>  <RI>
0

>  <Rbt.Current_Directory>
/home/itssahil/PROJECTS/Mol_Feturizer/New_Systems/rnas/4FEP

>  <Rbt.Executable>
rbdock ($Id: //depot/dev/client3/rdock/2013.1/src/exe/rbdock.cxx#4 $)

>  <Rbt.Library>
libRbt.so (2013.1, Build901 2013/11/27)

>  <Rbt.Parameter_File>
/export/apps/rDock/src/rDock_2013.1_src/data/scripts/dock_solv.prm

>  <Rbt.Receptor>
prm/pocket_docking_6.prm

>  <SCORE>
-11.2347

>  <SCORE.INTER>
-11.2347

>  <SCORE.INTER.CONST>
1

>  <SCORE.INTER.POLAR>
0

>  <SCORE.INTER.ROT>
0

>  <SCORE.INTER.SOLV>
20.8995

>  <SCORE.INTER.VDW>
-18.0563

>  <SCORE.INTER.norm>
-1.02134

>  <SCORE.INTRA>
0

>  <SCORE.INTRA.DIHEDRAL>
0

>  <SCORE.INTRA.DIHEDRAL.0>
0

>  <SCORE.INTRA.POLAR>
0

>  <SCORE.INTRA.POLAR.0>
0

>  <SCORE.INTRA.REPUL>
0

>  <SCORE.INTRA.REPUL.0>
0

>  <SCORE.INTRA.SOLV>
0

>  <SCORE.INTRA.SOLV.lig_0>
-48.9558

>  <SCORE.INTRA.VDW>
0

>  <SCORE.INTRA.VDW.0>
0

>  <SCORE.INTRA.norm>
0

>  <SCORE.RESTR>
0

>  <SCORE.RESTR.CAVITY>
0

>  <SCORE.RESTR.norm>
0

>  <SCORE.SYSTEM>
0

>  <SCORE.SYSTEM.CONST>
0

>  <SCORE.SYSTEM.DIHEDRAL>
0

>  <SCORE.SYSTEM.SOLV>
0

>  <SCORE.SYSTEM.norm>
0

>  <SCORE.heavy>
11

>  <SCORE.norm>
-1.02134

>  <RMSD>
0.546

$$$$
ligand
 OpenBabel11021811493D
libRbt.so/2013.1/901 2013/11/27
 11 12  0  0  0  0  0  0  0  0999 V2000
   12.0105   11.5851    8.5892 N   0  0  0  0  0  0  0  0  0  0  0  0
   11.6155   12.8503    8.8041 C   0  0  0  0  0  0  0  0  0  0  0  0
   11.6563   13.3598   10.0911 N   0  0  0  0  0  0  0  0  0  0  0  0
   11.1827   13.6301    7.7999 N   0  0  0  0  0  0  0  0  0  0  0  0
   11.1308   13.1629    6.5307 C   0  0  0  0  0  0  0  0  0  0  0  0
   11.5389   11.8330    6.2571 C   0  0  0  0  0  0  0  0  0  0  0  0
   11.9902   11.0407    7.3545 C   0  0  0  0  0  0  0  0  0  0  0  0
   12.4033    9.7357    7.1648 N   0  0  0  0  0  0  0  0  0  0  0  0
   11.3827   11.6319    4.9253 N   0  0  0  0  0  0  0  0  0  0  0  0
   10.9195   12.7189    4.3757 C   0  0  0  0  0  0  0  0  0  0  0  0
   10.7486   13.6898    5.3238 N   0  0  0  0  0  0  0  0  0  0  0  0
  1  7  2  0  0  0  0
  1  2  1  0  0  0  0
  2  3  1  0  0  0  0
  2  4  2  0  0  0  0
  4  5  1  0  0  0  0
  5  6  2  0  0  0  0
  5 11  1  0  0  0  0
  6  7  1  0  0  0  0
  6  9  1  0  0  0  0
  7  8  1  0  0  0  0
  9 10  1  0  0  0  0
 10 11  2  0  0  0  0
M  END
>  <CHROM.1>
11.51190657,12.29253822,7.04425649,-1.12706218,1.20813881,-2.02645954

>  <Name>
ligand

>  <RI>
0

>  <Rbt.Current_Directory>
/home/itssahil/PROJECTS/Mol_Feturizer/New_Systems/rnas/4FEP

>  <Rbt.Executable>
rbdock ($Id: //depot/dev/client3/rdock/2013.1/src/exe/rbdock.cxx#4 $)

>  <Rbt.Library>
libRbt.so (2013.1, Build901 2013/11/27)

>  <Rbt.Parameter_File>
/export/apps/rDock/src/rDock_2013.1_src/data/scripts/dock_solv.prm

>  <Rbt.Receptor>
prm/blind_docking_40.prm

>  <SCORE>
-11.1987

>  <SCORE.INTER>
-11.1987

>  <SCORE.INTER.CONST>
1

>  <SCORE.INTER.POLAR>
0

>  <SCORE.INTER.ROT>
0

>  <SCORE.INTER.SOLV>
20.8552

>  <SCORE.INTER.VDW>
-18.0175

>  <SCORE.INTER.norm>
-1.01806

>  <SCORE.INTRA>
0

>  <SCORE.INTRA.DIHEDRAL>
0

>  <SCORE.INTRA.DIHEDRAL.0>
0

>  <SCORE.INTRA.POLAR>
0

>  <SCORE.INTRA.POLAR.0>
0

>  <SCORE.INTRA.REPUL>
0

>  <SCORE.INTRA.REPUL.0>
0

>  <SCORE.INTRA.SOLV>
0

>  <SCORE.INTRA.SOLV.lig_0>
-48.9558

>  <SCORE.INTRA.VDW>
0

>  <SCORE.INTRA.VDW.0>
0

>  <SCORE.INTRA.norm>
0

>  <SCORE.RESTR>
0

>  <SCORE.RESTR.CAVITY>
0

>  <SCORE.RESTR.norm>
0

>  <SCORE.SYSTEM>
0

>  <SCORE.SYSTEM.CONST>
0

>  <SCORE.SYSTEM.DIHEDRAL>
0

>  <SCORE.SYSTEM.SOLV>
0

>  <SCORE.SYSTEM.norm>
0

>  <SCORE.heavy>
11

>  <SCORE.norm>
-1.01806

>  <RMSD>
0.547

$$$$
ligand
 OpenBabel11021811493D
libRbt.so/2013.1/901 2013/11/27
 11 12  0  0  0  0  0  0  0  0999 V2000
   12.0143   11.5834    8.5881 N   0  0  0  0  0  0  0  0  0  0  0  0
   11.6170   12.8478    8.8034 C   0  0  0  0  0  0  0  0  0  0  0  0
   11.6578   13.3573   10.0903 N   0  0  0  0  0  0  0  0  0  0  0  0
   11.1820   13.6268    7.7995 N   0  0  0  0  0  0  0  0  0  0  0  0
   11.1301   13.1596    6.5303 C   0  0  0  0  0  0  0  0  0  0  0  0
   11.5405   11.8304    6.2564 C   0  0  0  0  0  0  0  0  0  0  0  0
   11.9941   11.0390    7.3534 C   0  0  0  0  0  0  0  0  0  0  0  0
   12.4096    9.7348    7.1634 N   0  0  0  0  0  0  0  0  0  0  0  0
   11.3837   11.6292    4.9247 N   0  0  0  0  0  0  0  0  0  0  0  0
   10.9180   12.7153    4.3755 C   0  0  0  0  0  0  0  0  0  0  0  0
   10.7460   13.6858    5.3238 N   0  0  0  0  0  0  0  0  0  0  0  0
  1  7  2  0  0  0  0
  1  2  1  0  0  0  0
  2  3  1  0  0  0  0
  2  4  2  0  0  0  0
  4  5  1  0  0  0  0
  5  6  2  0  0  0  0
  5 11  1  0  0  0  0
  6  7  1  0  0  0  0
  6  9  1  0  0  0  0
  7  8  1  0  0  0  0
  9 10  1  0  0  0  0
 10 11  2  0  0  0  0
M  END
>  <CHROM.1>
11.51322299,12.28990815,7.04358857,-1.12757626,1.20608253,-2.02592451

>  <Name>
ligand

>  <RI>
0

>  <Rbt.Current_Directory>
/home/itssahil/PROJECTS/Mol_Feturizer/New_Systems/rnas/4FEP

>  <Rbt.Executable>
rbdock ($Id: //depot/dev/client3/rdock/2013.1/src/exe/rbdock.cxx#4 $)

>  <Rbt.Library>
libRbt.so (2013.1, Build901 2013/11/27)

>  <Rbt.Parameter_File>
/export/apps/rDock/src/rDock_2013.1_src/data/scripts/dock_solv.prm

>  <Rbt.Receptor>
prm/blind_docking_60.prm

>  <SCORE>
-11.1982

>  <SCORE.INTER>
-11.1982

>  <SCORE.INTER.CONST>
1

>  <SCORE.INTER.POLAR>
0

>  <SCORE.INTER.ROT>
0

>  <SCORE.INTER.SOLV>
20.8284

>  <SCORE.INTER.VDW>
-18.0083

>  <SCORE.INTER.norm>
-1.01802

>  <SCORE.INTRA>
0

>  <SCORE.INTRA.DIHEDRAL>
0

>  <SCORE.INTRA.DIHEDRAL.0>
0

>  <SCORE.INTRA.POLAR>
0

>  <SCORE.INTRA.POLAR.0>
0

>  <SCORE.INTRA.REPUL>
0

>  <SCORE.INTRA.REPUL.0>
0

>  <SCORE.INTRA.SOLV>
0

>  <SCORE.INTRA.SOLV.lig_0>
-48.9558

>  <SCORE.INTRA.VDW>
0

>  <SCORE.INTRA.VDW.0>
0

>  <SCORE.INTRA.norm>
0

>  <SCORE.RESTR>
0

>  <SCORE.RESTR.CAVITY>
0

>  <SCORE.RESTR.norm>
0

>  <SCORE.SYSTEM>
0

>  <SCORE.SYSTEM.CONST>
0

>  <SCORE.SYSTEM.DIHEDRAL>
0

>  <SCORE.SYSTEM.SOLV>
0

>  <SCORE.SYSTEM.norm>
0

>  <SCORE.heavy>
11

>  <SCORE.norm>
-1.01802

>  <RMSD>
0.547

$$$$
ligand
 OpenBabel11021811493D
libRbt.so/2013.1/901 2013/11/27
 11 12  0  0  0  0  0  0  0  0999 V2000
   12.0074   11.6308    8.5917 N   0  0  0  0  0  0  0  0  0  0  0  0
   11.5768   12.8830    8.8139 C   0  0  0  0  0  0  0  0  0  0  0  0
   11.6010   13.3851   10.1042 N   0  0  0  0  0  0  0  0  0  0  0  0
   11.1243   13.6569    7.8139 N   0  0  0  0  0  0  0  0  0  0  0  0
   11.0879   13.1968    6.5416 C   0  0  0  0  0  0  0  0  0  0  0  0
   11.5334   11.8805    6.2603 C   0  0  0  0  0  0  0  0  0  0  0  0
   12.0046   11.0940    7.3534 C   0  0  0  0  0  0  0  0  0  0  0  0
   12.4543    9.8023    7.1562 N   0  0  0  0  0  0  0  0  0  0  0  0
   11.3853   11.6839    4.9269 N   0  0  0  0  0  0  0  0  0  0  0  0
   10.8930   12.7610    4.3833 C   0  0  0  0  0  0  0  0  0  0  0  0
   10.6933   13.7206    5.3373 N   0  0  0  0  0  0  0  0  0  0  0  0
  1  7  2  0  0  0  0
  1  2  1  0  0  0  0
  2  3  1  0  0  0  0
  2  4  2  0  0  0  0
  4  5  1  0  0  0  0
  5  6  2  0  0  0  0
  5 11  1  0  0  0  0
  6  7  1  0  0  0  0
  6  9  1  0  0  0  0
  7  8  1  0  0  0  0
  9 10  1  0  0  0  0
 10 11  2  0  0  0  0
M  END
>  <CHROM.1>
11.49212597,12.33402642,7.05029290,-1.16402157,1.18363617,-1.98559080

>  <Name>
ligand

>  <RI>
0

>  <Rbt.Current_Directory>
/home/itssahil/PROJECTS/Mol_Feturizer/New_Systems/rnas/4FEP

>  <Rbt.Executable>
rbdock ($Id: //depot/dev/client3/rdock/2013.1/src/exe/rbdock.cxx#4 $)

>  <Rbt.Library>
libRbt.so (2013.1, Build901 2013/11/27)

>  <Rbt.Parameter_File>
/export/apps/rDock/src/rDock_2013.1_src/data/scripts/dock_solv.prm

>  <Rbt.Receptor>
prm/pocket_docking_5.prm

>  <SCORE>
-11.2305

>  <SCORE.INTER>
-11.2305

>  <SCORE.INTER.CONST>
1

>  <SCORE.INTER.POLAR>
0

>  <SCORE.INTER.ROT>
0

>  <SCORE.INTER.SOLV>
20.715

>  <SCORE.INTER.VDW>
-17.992

>  <SCORE.INTER.norm>
-1.02096

>  <SCORE.INTRA>
0

>  <SCORE.INTRA.DIHEDRAL>
0

>  <SCORE.INTRA.DIHEDRAL.0>
0

>  <SCORE.INTRA.POLAR>
0

>  <SCORE.INTRA.POLAR.0>
0

>  <SCORE.INTRA.REPUL>
0

>  <SCORE.INTRA.REPUL.0>
0

>  <SCORE.INTRA.SOLV>
0

>  <SCORE.INTRA.SOLV.lig_0>
-48.9558

>  <SCORE.INTRA.VDW>
0

>  <SCORE.INTRA.VDW.0>
0

>  <SCORE.INTRA.norm>
0

>  <SCORE.RESTR>
0

>  <SCORE.RESTR.CAVITY>
0

>  <SCORE.RESTR.norm>
0

>  <SCORE.SYSTEM>
0

>  <SCORE.SYSTEM.CONST>
0

>  <SCORE.SYSTEM.DIHEDRAL>
0

>  <SCORE.SYSTEM.SOLV>
0

>  <SCORE.SYSTEM.norm>
0

>  <SCORE.heavy>
11

>  <SCORE.norm>
-1.02096

>  <RMSD>
0.547

$$$$
ligand
 OpenBabel11021811493D
libRbt.so/2013.1/901 2013/11/27
 11 12  0  0  0  0  0  0  0  0999 V2000
   12.0041   11.5878    8.5979 N   0  0  0  0  0  0  0  0  0  0  0  0
   11.6334   12.8579    8.8265 C   0  0  0  0  0  0  0  0  0  0  0  0
   11.6825   13.3522   10.1191 N   0  0  0  0  0  0  0  0  0  0  0  0
   11.2170   13.6571    7.8306 N   0  0  0  0  0  0  0  0  0  0  0  0
   11.1576   13.2051    6.5562 C   0  0  0  0  0  0  0  0  0  0  0  0
   11.5402   11.8706    6.2683 C   0  0  0  0  0  0  0  0  0  0  0  0
   11.9747   11.0576    7.3572 C   0  0  0  0  0  0  0  0  0  0  0  0
   12.3627    9.7470    7.1534 N   0  0  0  0  0  0  0  0  0  0  0  0
   11.3817   11.6875    4.9342 N   0  0  0  0  0  0  0  0  0  0  0  0
   10.9404   12.7893    4.3962 C   0  0  0  0  0  0  0  0  0  0  0  0
   10.7872   13.7527    5.3549 N   0  0  0  0  0  0  0  0  0  0  0  0
  1  7  2  0  0  0  0
  1  2  1  0  0  0  0
  2  3  1  0  0  0  0
  2  4  2  0  0  0  0
  4  5  1  0  0  0  0
  5  6  2  0  0  0  0
  5 11  1  0  0  0  0
  6  7  1  0  0  0  0
  6  9  1  0  0  0  0
  7  8  1  0  0  0  0
  9 10  1  0  0  0  0
 10 11  2  0  0  0  0
M  END
>  <CHROM.1>
11.52113907,12.32185096,7.06043219,-1.10510424,1.22599893,-2.03592971

>  <Name>
ligand

>  <RI>
0

>  <Rbt.Current_Directory>
/home/itssahil/PROJECTS/Mol_Feturizer/New_Systems/rnas/4FEP

>  <Rbt.Executable>
rbdock ($Id: //depot/dev/client3/rdock/2013.1/src/exe/rbdock.cxx#4 $)

>  <Rbt.Library>
libRbt.so (2013.1, Build901 2013/11/27)

>  <Rbt.Parameter_File>
/export/apps/rDock/src/rDock_2013.1_src/data/scripts/dock_solv.prm

>  <Rbt.Receptor>
prm/pocket_docking_7.prm

>  <SCORE>
-11.2294

>  <SCORE.INTER>
-11.2294

>  <SCORE.INTER.CONST>
1

>  <SCORE.INTER.POLAR>
0

>  <SCORE.INTER.ROT>
0

>  <SCORE.INTER.SOLV>
20.9959

>  <SCORE.INTER.VDW>
-18.0849

>  <SCORE.INTER.norm>
-1.02086

>  <SCORE.INTRA>
0

>  <SCORE.INTRA.DIHEDRAL>
0

>  <SCORE.INTRA.DIHEDRAL.0>
0

>  <SCORE.INTRA.POLAR>
0

>  <SCORE.INTRA.POLAR.0>
0

>  <SCORE.INTRA.REPUL>
0

>  <SCORE.INTRA.REPUL.0>
0

>  <SCORE.INTRA.SOLV>
0

>  <SCORE.INTRA.SOLV.lig_0>
-48.9558

>  <SCORE.INTRA.VDW>
0

>  <SCORE.INTRA.VDW.0>
0

>  <SCORE.INTRA.norm>
0

>  <SCORE.RESTR>
0

>  <SCORE.RESTR.CAVITY>
0

>  <SCORE.RESTR.norm>
0

>  <SCORE.SYSTEM>
0

>  <SCORE.SYSTEM.CONST>
0

>  <SCORE.SYSTEM.DIHEDRAL>
0

>  <SCORE.SYSTEM.SOLV>
0

>  <SCORE.SYSTEM.norm>
0

>  <SCORE.heavy>
11

>  <SCORE.norm>
-1.02086

>  <RMSD>
0.547

$$$$
ligand
 OpenBabel11021811493D
libRbt.so/2013.1/901 2013/11/27
 11 12  0  0  0  0  0  0  0  0999 V2000
   12.0224   11.6105    8.5932 N   0  0  0  0  0  0  0  0  0  0  0  0
   11.6102   12.8713    8.8014 C   0  0  0  0  0  0  0  0  0  0  0  0
   11.6421   13.3873   10.0861 N   0  0  0  0  0  0  0  0  0  0  0  0
   11.1688   13.6406    7.7929 N   0  0  0  0  0  0  0  0  0  0  0  0
   11.1253   13.1668    6.5258 C   0  0  0  0  0  0  0  0  0  0  0  0
   11.5515   11.8411    6.2592 C   0  0  0  0  0  0  0  0  0  0  0  0
   12.0114   11.0601    7.3610 C   0  0  0  0  0  0  0  0  0  0  0  0
   12.4421    9.7598    7.1781 N   0  0  0  0  0  0  0  0  0  0  0  0
   11.4002   11.6318    4.9281 N   0  0  0  0  0  0  0  0  0  0  0  0
   10.9236   12.7099    4.3726 C   0  0  0  0  0  0  0  0  0  0  0  0
   10.7382   13.6829    5.3158 N   0  0  0  0  0  0  0  0  0  0  0  0
  1  7  2  0  0  0  0
  1  2  1  0  0  0  0
  2  3  1  0  0  0  0
  2  4  2  0  0  0  0
  4  5  1  0  0  0  0
  5  6  2  0  0  0  0
  5 11  1  0  0  0  0
  6  7  1  0  0  0  0
  6  9  1  0  0  0  0
  7  8  1  0  0  0  0
  9 10  1  0  0  0  0
 10 11  2  0  0  0  0
M  END
>  <CHROM.1>
11.51707479,12.30397729,7.04409556,-1.14726873,1.19688470,-2.01229412

>  <Name>
ligand

>  <RI>
0

>  <Rbt.Current_Directory>
/home/itssahil/PROJECTS/Mol_Feturizer/New_Systems/rnas/4FEP

>  <Rbt.Executable>
rbdock ($Id: //depot/dev/client3/rdock/2013.1/src/exe/rbdock.cxx#4 $)

>  <Rbt.Library>
libRbt.so (2013.1, Build901 2013/11/27)

>  <Rbt.Parameter_File>
/export/apps/rDock/src/rDock_2013.1_src/data/scripts/dock_solv.prm

>  <Rbt.Receptor>
prm/pocket_docking_7.prm

>  <SCORE>
-11.1905

>  <SCORE.INTER>
-11.1905

>  <SCORE.INTER.CONST>
1

>  <SCORE.INTER.POLAR>
0

>  <SCORE.INTER.ROT>
0

>  <SCORE.INTER.SOLV>
20.764

>  <SCORE.INTER.VDW>
-17.9817

>  <SCORE.INTER.norm>
-1.01732

>  <SCORE.INTRA>
0

>  <SCORE.INTRA.DIHEDRAL>
0

>  <SCORE.INTRA.DIHEDRAL.0>
0

>  <SCORE.INTRA.POLAR>
0

>  <SCORE.INTRA.POLAR.0>
0

>  <SCORE.INTRA.REPUL>
0

>  <SCORE.INTRA.REPUL.0>
0

>  <SCORE.INTRA.SOLV>
0

>  <SCORE.INTRA.SOLV.lig_0>
-48.9558

>  <SCORE.INTRA.VDW>
0

>  <SCORE.INTRA.VDW.0>
0

>  <SCORE.INTRA.norm>
0

>  <SCORE.RESTR>
0

>  <SCORE.RESTR.CAVITY>
0

>  <SCORE.RESTR.norm>
0

>  <SCORE.SYSTEM>
0

>  <SCORE.SYSTEM.CONST>
0

>  <SCORE.SYSTEM.DIHEDRAL>
0

>  <SCORE.SYSTEM.SOLV>
0

>  <SCORE.SYSTEM.norm>
0

>  <SCORE.heavy>
11

>  <SCORE.norm>
-1.01732

>  <RMSD>
0.547

$$$$
ligand
 OpenBabel11021811493D
libRbt.so/2013.1/901 2013/11/27
 11 12  0  0  0  0  0  0  0  0999 V2000
   12.0161   11.5987    8.5904 N   0  0  0  0  0  0  0  0  0  0  0  0
   11.6194   12.8609    8.8190 C   0  0  0  0  0  0  0  0  0  0  0  0
   11.6575   13.3558   10.1117 N   0  0  0  0  0  0  0  0  0  0  0  0
   11.1876   13.6516    7.8229 N   0  0  0  0  0  0  0  0  0  0  0  0
   11.1384   13.1989    6.5484 C   0  0  0  0  0  0  0  0  0  0  0  0
   11.5483   11.8725    6.2605 C   0  0  0  0  0  0  0  0  0  0  0  0
   11.9985   11.0683    7.3495 C   0  0  0  0  0  0  0  0  0  0  0  0
   12.4133    9.7659    7.1458 N   0  0  0  0  0  0  0  0  0  0  0  0
   11.3945   11.6865    4.9262 N   0  0  0  0  0  0  0  0  0  0  0  0
   10.9312   12.7791    4.3882 C   0  0  0  0  0  0  0  0  0  0  0  0
   10.7577   13.7390    5.3469 N   0  0  0  0  0  0  0  0  0  0  0  0
  1  7  2  0  0  0  0
  1  2  1  0  0  0  0
  2  3  1  0  0  0  0
  2  4  2  0  0  0  0
  4  5  1  0  0  0  0
  5  6  2  0  0  0  0
  5 11  1  0  0  0  0
  6  7  1  0  0  0  0
  6  9  1  0  0  0  0
  7  8  1  0  0  0  0
  9 10  1  0  0  0  0
 10 11  2  0  0  0  0
M  END
>  <CHROM.1>
11.51945472,12.32305823,7.05273821,-1.13268454,1.20795782,-2.00983967

>  <Name>
ligand

>  <RI>
0

>  <Rbt.Current_Directory>
/home/itssahil/PROJECTS/Mol_Feturizer/New_Systems/rnas/4FEP

>  <Rbt.Executable>
rbdock ($Id: //depot/dev/client3/rdock/2013.1/src/exe/rbdock.cxx#4 $)

>  <Rbt.Library>
libRbt.so (2013.1, Build901 2013/11/27)

>  <Rbt.Parameter_File>
/export/apps/rDock/src/rDock_2013.1_src/data/scripts/dock_solv.prm

>  <Rbt.Receptor>
prm/pocket_docking_3.prm

>  <SCORE>
-11.2309

>  <SCORE.INTER>
-11.2309

>  <SCORE.INTER.CONST>
1

>  <SCORE.INTER.POLAR>
0

>  <SCORE.INTER.ROT>
0

>  <SCORE.INTER.SOLV>
20.8289

>  <SCORE.INTER.VDW>
-18.0303

>  <SCORE.INTER.norm>
-1.02099

>  <SCORE.INTRA>
0

>  <SCORE.INTRA.DIHEDRAL>
0

>  <SCORE.INTRA.DIHEDRAL.0>
0

>  <SCORE.INTRA.POLAR>
0

>  <SCORE.INTRA.POLAR.0>
0

>  <SCORE.INTRA.REPUL>
0

>  <SCORE.INTRA.REPUL.0>
0

>  <SCORE.INTRA.SOLV>
0

>  <SCORE.INTRA.SOLV.lig_0>
-48.9558

>  <SCORE.INTRA.VDW>
0

>  <SCORE.INTRA.VDW.0>
0

>  <SCORE.INTRA.norm>
0

>  <SCORE.RESTR>
0

>  <SCORE.RESTR.CAVITY>
0

>  <SCORE.RESTR.norm>
0

>  <SCORE.SYSTEM>
0

>  <SCORE.SYSTEM.CONST>
0

>  <SCORE.SYSTEM.DIHEDRAL>
0

>  <SCORE.SYSTEM.SOLV>
0

>  <SCORE.SYSTEM.norm>
0

>  <SCORE.heavy>
11

>  <SCORE.norm>
-1.02099

>  <RMSD>
0.548

$$$$
ligand
 OpenBabel11021811493D
libRbt.so/2013.1/901 2013/11/27
 11 12  0  0  0  0  0  0  0  0999 V2000
   12.0120   11.5955    8.5937 N   0  0  0  0  0  0  0  0  0  0  0  0
   11.6282   12.8620    8.8210 C   0  0  0  0  0  0  0  0  0  0  0  0
   11.6724   13.3581   10.1131 N   0  0  0  0  0  0  0  0  0  0  0  0
   11.2034   13.6557    7.8244 N   0  0  0  0  0  0  0  0  0  0  0  0
   11.1485   13.2018    6.5505 C   0  0  0  0  0  0  0  0  0  0  0  0
   11.5448   11.8710    6.2639 C   0  0  0  0  0  0  0  0  0  0  0  0
   11.9878   11.0637    7.3536 C   0  0  0  0  0  0  0  0  0  0  0  0
   12.3893    9.7569    7.1512 N   0  0  0  0  0  0  0  0  0  0  0  0
   11.3880   11.6848    4.9300 N   0  0  0  0  0  0  0  0  0  0  0  0
   10.9351   12.7814    4.3909 C   0  0  0  0  0  0  0  0  0  0  0  0
   10.7722   13.7442    5.3486 N   0  0  0  0  0  0  0  0  0  0  0  0
  1  7  2  0  0  0  0
  1  2  1  0  0  0  0
  2  3  1  0  0  0  0
  2  4  2  0  0  0  0
  4  5  1  0  0  0  0
  5  6  2  0  0  0  0
  5 11  1  0  0  0  0
  6  7  1  0  0  0  0
  6  9  1  0  0  0  0
  7  8  1  0  0  0  0
  9 10  1  0  0  0  0
 10 11  2  0  0  0  0
M  END
>  <CHROM.1>
11.52119837,12.32285663,7.05557529,-1.11797468,1.21666461,-2.02491227

>  <Name>
ligand

>  <RI>
0

>  <Rbt.Current_Directory>
/home/itssahil/PROJECTS/Mol_Feturizer/New_Systems/rnas/4FEP

>  <Rbt.Executable>
rbdock ($Id: //depot/dev/client3/rdock/2013.1/src/exe/rbdock.cxx#4 $)

>  <Rbt.Library>
libRbt.so (2013.1, Build901 2013/11/27)

>  <Rbt.Parameter_File>
/export/apps/rDock/src/rDock_2013.1_src/data/scripts/dock_solv.prm

>  <Rbt.Receptor>
prm/pocket_docking_4.prm

>  <SCORE>
-11.2344

>  <SCORE.INTER>
-11.2344

>  <SCORE.INTER.CONST>
1

>  <SCORE.INTER.POLAR>
0

>  <SCORE.INTER.ROT>
0

>  <SCORE.INTER.SOLV>
20.9061

>  <SCORE.INTER.VDW>
-18.0583

>  <SCORE.INTER.norm>
-1.02131

>  <SCORE.INTRA>
0

>  <SCORE.INTRA.DIHEDRAL>
0

>  <SCORE.INTRA.DIHEDRAL.0>
0

>  <SCORE.INTRA.POLAR>
0

>  <SCORE.INTRA.POLAR.0>
0

>  <SCORE.INTRA.REPUL>
0

>  <SCORE.INTRA.REPUL.0>
0

>  <SCORE.INTRA.SOLV>
0

>  <SCORE.INTRA.SOLV.lig_0>
-48.9558

>  <SCORE.INTRA.VDW>
0

>  <SCORE.INTRA.VDW.0>
0

>  <SCORE.INTRA.norm>
0

>  <SCORE.RESTR>
0

>  <SCORE.RESTR.CAVITY>
0

>  <SCORE.RESTR.norm>
0

>  <SCORE.SYSTEM>
0

>  <SCORE.SYSTEM.CONST>
0

>  <SCORE.SYSTEM.DIHEDRAL>
0

>  <SCORE.SYSTEM.SOLV>
0

>  <SCORE.SYSTEM.norm>
0

>  <SCORE.heavy>
11

>  <SCORE.norm>
-1.02131

>  <RMSD>
0.548

$$$$
ligand
 OpenBabel11021811493D
libRbt.so/2013.1/901 2013/11/27
 11 12  0  0  0  0  0  0  0  0999 V2000
   12.0217   11.6041    8.5885 N   0  0  0  0  0  0  0  0  0  0  0  0
   11.6080   12.8637    8.8006 C   0  0  0  0  0  0  0  0  0  0  0  0
   11.6394   13.3759   10.0868 N   0  0  0  0  0  0  0  0  0  0  0  0
   11.1655   13.6355    7.7945 N   0  0  0  0  0  0  0  0  0  0  0  0
   11.1224   13.1655    6.5260 C   0  0  0  0  0  0  0  0  0  0  0  0
   11.5502   11.8411    6.2553 C   0  0  0  0  0  0  0  0  0  0  0  0
   12.0112   11.0573    7.3547 C   0  0  0  0  0  0  0  0  0  0  0  0
   12.4436    9.7581    7.1679 N   0  0  0  0  0  0  0  0  0  0  0  0
   11.3990   11.6357    4.9236 N   0  0  0  0  0  0  0  0  0  0  0  0
   10.9210   12.7149    4.3714 C   0  0  0  0  0  0  0  0  0  0  0  0
   10.7345   13.6848    5.3176 N   0  0  0  0  0  0  0  0  0  0  0  0
  1  7  2  0  0  0  0
  1  2  1  0  0  0  0
  2  3  1  0  0  0  0
  2  4  2  0  0  0  0
  4  5  1  0  0  0  0
  5  6  2  0  0  0  0
  5 11  1  0  0  0  0
  6  7  1  0  0  0  0
  6  9  1  0  0  0  0
  7  8  1  0  0  0  0
  9 10  1  0  0  0  0
 10 11  2  0  0  0  0
M  END
>  <CHROM.1>
11.51530673,12.30157650,7.04160219,-1.14839935,1.19570340,-2.00822430

>  <Name>
ligand

>  <RI>
0

>  <Rbt.Current_Directory>
/home/itssahil/PROJECTS/Mol_Feturizer/New_Systems/rnas/4FEP

>  <Rbt.Executable>
rbdock ($Id: //depot/dev/client3/rdock/2013.1/src/exe/rbdock.cxx#4 $)

>  <Rbt.Library>
libRbt.so (2013.1, Build901 2013/11/27)

>  <Rbt.Parameter_File>
/export/apps/rDock/src/rDock_2013.1_src/data/scripts/dock_solv.prm

>  <Rbt.Receptor>
prm/pocket_docking_7.prm

>  <SCORE>
-11.1913

>  <SCORE.INTER>
-11.1913

>  <SCORE.INTER.CONST>
1

>  <SCORE.INTER.POLAR>
0

>  <SCORE.INTER.ROT>
0

>  <SCORE.INTER.SOLV>
20.7413

>  <SCORE.INTER.VDW>
-17.9747

>  <SCORE.INTER.norm>
-1.01739

>  <SCORE.INTRA>
0

>  <SCORE.INTRA.DIHEDRAL>
0

>  <SCORE.INTRA.DIHEDRAL.0>
0

>  <SCORE.INTRA.POLAR>
0

>  <SCORE.INTRA.POLAR.0>
0

>  <SCORE.INTRA.REPUL>
0

>  <SCORE.INTRA.REPUL.0>
0

>  <SCORE.INTRA.SOLV>
0

>  <SCORE.INTRA.SOLV.lig_0>
-48.9558

>  <SCORE.INTRA.VDW>
0

>  <SCORE.INTRA.VDW.0>
0

>  <SCORE.INTRA.norm>
0

>  <SCORE.RESTR>
0

>  <SCORE.RESTR.CAVITY>
0

>  <SCORE.RESTR.norm>
0

>  <SCORE.SYSTEM>
0

>  <SCORE.SYSTEM.CONST>
0

>  <SCORE.SYSTEM.DIHEDRAL>
0

>  <SCORE.SYSTEM.SOLV>
0

>  <SCORE.SYSTEM.norm>
0

>  <SCORE.heavy>
11

>  <SCORE.norm>
-1.01739

>  <RMSD>
0.548

$$$$
ligand
 OpenBabel11021811493D
libRbt.so/2013.1/901 2013/11/27
 11 12  0  0  0  0  0  0  0  0999 V2000
   12.0145   11.5948    8.5908 N   0  0  0  0  0  0  0  0  0  0  0  0
   11.6137   12.8596    8.7968 C   0  0  0  0  0  0  0  0  0  0  0  0
   11.6507   13.3778   10.0804 N   0  0  0  0  0  0  0  0  0  0  0  0
   11.1787   13.6308    7.7869 N   0  0  0  0  0  0  0  0  0  0  0  0
   11.1305   13.1550    6.5208 C   0  0  0  0  0  0  0  0  0  0  0  0
   11.5447   11.8250    6.2566 C   0  0  0  0  0  0  0  0  0  0  0  0
   11.9980   11.0420    7.3597 C   0  0  0  0  0  0  0  0  0  0  0  0
   12.4171    9.7376    7.1792 N   0  0  0  0  0  0  0  0  0  0  0  0
   11.3910   11.6145    4.9259 N   0  0  0  0  0  0  0  0  0  0  0  0
   10.9237   12.6958    4.3685 C   0  0  0  0  0  0  0  0  0  0  0  0
   10.7475   13.6722    5.3099 N   0  0  0  0  0  0  0  0  0  0  0  0
  1  7  2  0  0  0  0
  1  2  1  0  0  0  0
  2  3  1  0  0  0  0
  2  4  2  0  0  0  0
  4  5  1  0  0  0  0
  5  6  2  0  0  0  0
  5 11  1  0  0  0  0
  6  7  1  0  0  0  0
  6  9  1  0  0  0  0
  7  8  1  0  0  0  0
  9 10  1  0  0  0  0
 10 11  2  0  0  0  0
M  END
>  <CHROM.1>
11.51470563,12.28969768,7.04056590,-1.13550373,1.20475333,-2.02521138

>  <Name>
ligand

>  <RI>
0

>  <Rbt.Current_Directory>
/home/itssahil/PROJECTS/Mol_Feturizer/New_Systems/rnas/4FEP

>  <Rbt.Executable>
rbdock ($Id: //depot/dev/client3/rdock/2013.1/src/exe/rbdock.cxx#4 $)

>  <Rbt.Library>
libRbt.so (2013.1, Build901 2013/11/27)

>  <Rbt.Parameter_File>
/export/apps/rDock/src/rDock_2013.1_src/data/scripts/dock_solv.prm

>  <Rbt.Receptor>
prm/pocket_docking_4.prm

>  <SCORE>
-11.2262

>  <SCORE.INTER>
-11.2262

>  <SCORE.INTER.CONST>
1

>  <SCORE.INTER.POLAR>
0

>  <SCORE.INTER.ROT>
0

>  <SCORE.INTER.SOLV>
20.8395

>  <SCORE.INTER.VDW>
-18.0306

>  <SCORE.INTER.norm>
-1.02056

>  <SCORE.INTRA>
0

>  <SCORE.INTRA.DIHEDRAL>
0

>  <SCORE.INTRA.DIHEDRAL.0>
0

>  <SCORE.INTRA.POLAR>
0

>  <SCORE.INTRA.POLAR.0>
0

>  <SCORE.INTRA.REPUL>
0

>  <SCORE.INTRA.REPUL.0>
0

>  <SCORE.INTRA.SOLV>
0

>  <SCORE.INTRA.SOLV.lig_0>
-48.9558

>  <SCORE.INTRA.VDW>
0

>  <SCORE.INTRA.VDW.0>
0

>  <SCORE.INTRA.norm>
0

>  <SCORE.RESTR>
0

>  <SCORE.RESTR.CAVITY>
0

>  <SCORE.RESTR.norm>
0

>  <SCORE.SYSTEM>
0

>  <SCORE.SYSTEM.CONST>
0

>  <SCORE.SYSTEM.DIHEDRAL>
0

>  <SCORE.SYSTEM.SOLV>
0

>  <SCORE.SYSTEM.norm>
0

>  <SCORE.heavy>
11

>  <SCORE.norm>
-1.02056

>  <RMSD>
0.549

$$$$
ligand
 OpenBabel11021811493D
libRbt.so/2013.1/901 2013/11/27
 11 12  0  0  0  0  0  0  0  0999 V2000
   12.0372   11.6229    8.5804 N   0  0  0  0  0  0  0  0  0  0  0  0
   11.6005   12.8720    8.8084 C   0  0  0  0  0  0  0  0  0  0  0  0
   11.6298   13.3711   10.0998 N   0  0  0  0  0  0  0  0  0  0  0  0
   11.1370   13.6456    7.8132 N   0  0  0  0  0  0  0  0  0  0  0  0
   11.0954   13.1883    6.5400 C   0  0  0  0  0  0  0  0  0  0  0  0
   11.5470   11.8754    6.2527 C   0  0  0  0  0  0  0  0  0  0  0  0
   12.0298   11.0891    7.3409 C   0  0  0  0  0  0  0  0  0  0  0  0
   12.4861    9.8006    7.1377 N   0  0  0  0  0  0  0  0  0  0  0  0
   11.3917   11.6811    4.9198 N   0  0  0  0  0  0  0  0  0  0  0  0
   10.8895   12.7566    4.3820 C   0  0  0  0  0  0  0  0  0  0  0  0
   10.6901   13.7126    5.3396 N   0  0  0  0  0  0  0  0  0  0  0  0
  1  7  2  0  0  0  0
  1  2  1  0  0  0  0
  2  3  1  0  0  0  0
  2  4  2  0  0  0  0
  4  5  1  0  0  0  0
  5  6  2  0  0  0  0
  5 11  1  0  0  0  0
  6  7  1  0  0  0  0
  6  9  1  0  0  0  0
  7  8  1  0  0  0  0
  9 10  1  0  0  0  0
 10 11  2  0  0  0  0
M  END
>  <CHROM.1>
11.50801601,12.32675361,7.04407741,-1.15534682,1.17557428,-1.99118168

>  <Name>
ligand

>  <RI>
0

>  <Rbt.Current_Directory>
/home/itssahil/PROJECTS/Mol_Feturizer/New_Systems/rnas/4FEP

>  <Rbt.Executable>
rbdock ($Id: //depot/dev/client3/rdock/2013.1/src/exe/rbdock.cxx#4 $)

>  <Rbt.Library>
libRbt.so (2013.1, Build901 2013/11/27)

>  <Rbt.Parameter_File>
/export/apps/rDock/src/rDock_2013.1_src/data/scripts/dock_solv.prm

>  <Rbt.Receptor>
prm/pocket_docking_4.prm

>  <SCORE>
-11.2551

>  <SCORE.INTER>
-11.2551

>  <SCORE.INTER.CONST>
1

>  <SCORE.INTER.POLAR>
0

>  <SCORE.INTER.ROT>
0

>  <SCORE.INTER.SOLV>
20.6113

>  <SCORE.INTER.VDW>
-17.9739

>  <SCORE.INTER.norm>
-1.02319

>  <SCORE.INTRA>
0

>  <SCORE.INTRA.DIHEDRAL>
0

>  <SCORE.INTRA.DIHEDRAL.0>
0

>  <SCORE.INTRA.POLAR>
0

>  <SCORE.INTRA.POLAR.0>
0

>  <SCORE.INTRA.REPUL>
0

>  <SCORE.INTRA.REPUL.0>
0

>  <SCORE.INTRA.SOLV>
0

>  <SCORE.INTRA.SOLV.lig_0>
-48.9558

>  <SCORE.INTRA.VDW>
0

>  <SCORE.INTRA.VDW.0>
0

>  <SCORE.INTRA.norm>
0

>  <SCORE.RESTR>
0

>  <SCORE.RESTR.CAVITY>
0

>  <SCORE.RESTR.norm>
0

>  <SCORE.SYSTEM>
0

>  <SCORE.SYSTEM.CONST>
0

>  <SCORE.SYSTEM.DIHEDRAL>
0

>  <SCORE.SYSTEM.SOLV>
0

>  <SCORE.SYSTEM.norm>
0

>  <SCORE.heavy>
11

>  <SCORE.norm>
-1.02319

>  <RMSD>
0.549

$$$$
ligand
 OpenBabel11021811493D
libRbt.so/2013.1/901 2013/11/27
 11 12  0  0  0  0  0  0  0  0999 V2000
   11.9758   11.6223    8.5955 N   0  0  0  0  0  0  0  0  0  0  0  0
   11.5562   12.8785    8.8165 C   0  0  0  0  0  0  0  0  0  0  0  0
   11.5740   13.3776   10.1080 N   0  0  0  0  0  0  0  0  0  0  0  0
   11.1207   13.6591    7.8141 N   0  0  0  0  0  0  0  0  0  0  0  0
   11.0909   13.2019    6.5406 C   0  0  0  0  0  0  0  0  0  0  0  0
   11.5254   11.8816    6.2605 C   0  0  0  0  0  0  0  0  0  0  0  0
   11.9785   11.0881    7.3561 C   0  0  0  0  0  0  0  0  0  0  0  0
   12.4166    9.7922    7.1602 N   0  0  0  0  0  0  0  0  0  0  0  0
   11.3872   11.6893    4.9254 N   0  0  0  0  0  0  0  0  0  0  0  0
   10.9110   12.7726    4.3797 C   0  0  0  0  0  0  0  0  0  0  0  0
   10.7127   13.7322    5.3339 N   0  0  0  0  0  0  0  0  0  0  0  0
  1  7  2  0  0  0  0
  1  2  1  0  0  0  0
  2  3  1  0  0  0  0
  2  4  2  0  0  0  0
  4  5  1  0  0  0  0
  5  6  2  0  0  0  0
  5 11  1  0  0  0  0
  6  7  1  0  0  0  0
  6  9  1  0  0  0  0
  7  8  1  0  0  0  0
  9 10  1  0  0  0  0
 10 11  2  0  0  0  0
M  END
>  <CHROM.1>
11.48167316,12.33395239,7.05104613,-1.17512592,1.19671686,-1.97319732

>  <Name>
ligand

>  <RI>
0

>  <Rbt.Current_Directory>
/home/itssahil/PROJECTS/Mol_Feturizer/New_Systems/rnas/4FEP

>  <Rbt.Executable>
rbdock ($Id: //depot/dev/client3/rdock/2013.1/src/exe/rbdock.cxx#4 $)

>  <Rbt.Library>
libRbt.so (2013.1, Build901 2013/11/27)

>  <Rbt.Parameter_File>
/export/apps/rDock/src/rDock_2013.1_src/data/scripts/dock_solv.prm

>  <Rbt.Receptor>
prm/pocket_docking_5.prm

>  <SCORE>
-11.2441

>  <SCORE.INTER>
-11.2441

>  <SCORE.INTER.CONST>
1

>  <SCORE.INTER.POLAR>
0

>  <SCORE.INTER.ROT>
0

>  <SCORE.INTER.SOLV>
20.8323

>  <SCORE.INTER.VDW>
-18.0402

>  <SCORE.INTER.norm>
-1.02219

>  <SCORE.INTRA>
0

>  <SCORE.INTRA.DIHEDRAL>
0

>  <SCORE.INTRA.DIHEDRAL.0>
0

>  <SCORE.INTRA.POLAR>
0

>  <SCORE.INTRA.POLAR.0>
0

>  <SCORE.INTRA.REPUL>
0

>  <SCORE.INTRA.REPUL.0>
0

>  <SCORE.INTRA.SOLV>
0

>  <SCORE.INTRA.SOLV.lig_0>
-48.9558

>  <SCORE.INTRA.VDW>
0

>  <SCORE.INTRA.VDW.0>
0

>  <SCORE.INTRA.norm>
0

>  <SCORE.RESTR>
0

>  <SCORE.RESTR.CAVITY>
0

>  <SCORE.RESTR.norm>
0

>  <SCORE.SYSTEM>
0

>  <SCORE.SYSTEM.CONST>
0

>  <SCORE.SYSTEM.DIHEDRAL>
0

>  <SCORE.SYSTEM.SOLV>
0

>  <SCORE.SYSTEM.norm>
0

>  <SCORE.heavy>
11

>  <SCORE.norm>
-1.02219

>  <RMSD>
0.549

$$$$
ligand
 OpenBabel11021811493D
libRbt.so/2013.1/901 2013/11/27
 11 12  0  0  0  0  0  0  0  0999 V2000
   12.0177   11.5993    8.5889 N   0  0  0  0  0  0  0  0  0  0  0  0
   11.6117   12.8619    8.7983 C   0  0  0  0  0  0  0  0  0  0  0  0
   11.6471   13.3769   10.0833 N   0  0  0  0  0  0  0  0  0  0  0  0
   11.1730   13.6338    7.7906 N   0  0  0  0  0  0  0  0  0  0  0  0
   11.1261   13.1611    6.5233 C   0  0  0  0  0  0  0  0  0  0  0  0
   11.5459   11.8336    6.2555 C   0  0  0  0  0  0  0  0  0  0  0  0
   12.0031   11.0497    7.3563 C   0  0  0  0  0  0  0  0  0  0  0  0
   12.4276    9.7475    7.1723 N   0  0  0  0  0  0  0  0  0  0  0  0
   11.3924   11.6258    4.9244 N   0  0  0  0  0  0  0  0  0  0  0  0
   10.9203   12.7065    4.3700 C   0  0  0  0  0  0  0  0  0  0  0  0
   10.7404   13.6797    5.3140 N   0  0  0  0  0  0  0  0  0  0  0  0
  1  7  2  0  0  0  0
  1  2  1  0  0  0  0
  2  3  1  0  0  0  0
  2  4  2  0  0  0  0
  4  5  1  0  0  0  0
  5  6  2  0  0  0  0
  5 11  1  0  0  0  0
  6  7  1  0  0  0  0
  6  9  1  0  0  0  0
  7  8  1  0  0  0  0
  9 10  1  0  0  0  0
 10 11  2  0  0  0  0
M  END
>  <CHROM.1>
11.51427834,12.29608930,7.04069984,-1.13951137,1.20072504,-2.01889282

>  <Name>
ligand

>  <RI>
0

>  <Rbt.Current_Directory>
/home/itssahil/PROJECTS/Mol_Feturizer/New_Systems/rnas/4FEP

>  <Rbt.Executable>
rbdock ($Id: //depot/dev/client3/rdock/2013.1/src/exe/rbdock.cxx#4 $)

>  <Rbt.Library>
libRbt.so (2013.1, Build901 2013/11/27)

>  <Rbt.Parameter_File>
/export/apps/rDock/src/rDock_2013.1_src/data/scripts/dock_solv.prm

>  <Rbt.Receptor>
prm/pocket_docking_5.prm

>  <SCORE>
-11.228

>  <SCORE.INTER>
-11.228

>  <SCORE.INTER.CONST>
1

>  <SCORE.INTER.POLAR>
0

>  <SCORE.INTER.ROT>
0

>  <SCORE.INTER.SOLV>
20.7957

>  <SCORE.INTER.VDW>
-18.0172

>  <SCORE.INTER.norm>
-1.02072

>  <SCORE.INTRA>
0

>  <SCORE.INTRA.DIHEDRAL>
0

>  <SCORE.INTRA.DIHEDRAL.0>
0

>  <SCORE.INTRA.POLAR>
0

>  <SCORE.INTRA.POLAR.0>
0

>  <SCORE.INTRA.REPUL>
0

>  <SCORE.INTRA.REPUL.0>
0

>  <SCORE.INTRA.SOLV>
0

>  <SCORE.INTRA.SOLV.lig_0>
-48.9558

>  <SCORE.INTRA.VDW>
0

>  <SCORE.INTRA.VDW.0>
0

>  <SCORE.INTRA.norm>
0

>  <SCORE.RESTR>
0

>  <SCORE.RESTR.CAVITY>
0

>  <SCORE.RESTR.norm>
0

>  <SCORE.SYSTEM>
0

>  <SCORE.SYSTEM.CONST>
0

>  <SCORE.SYSTEM.DIHEDRAL>
0

>  <SCORE.SYSTEM.SOLV>
0

>  <SCORE.SYSTEM.norm>
0

>  <SCORE.heavy>
11

>  <SCORE.norm>
-1.02072

>  <RMSD>
0.549

$$$$
ligand
 OpenBabel11021811493D
libRbt.so/2013.1/901 2013/11/27
 11 12  0  0  0  0  0  0  0  0999 V2000
   12.0222   11.5997    8.5851 N   0  0  0  0  0  0  0  0  0  0  0  0
   11.6112   12.8602    8.7980 C   0  0  0  0  0  0  0  0  0  0  0  0
   11.6462   13.3724   10.0841 N   0  0  0  0  0  0  0  0  0  0  0  0
   11.1681   13.6326    7.7927 N   0  0  0  0  0  0  0  0  0  0  0  0
   11.1216   13.1627    6.5243 C   0  0  0  0  0  0  0  0  0  0  0  0
   11.5463   11.8375    6.2529 C   0  0  0  0  0  0  0  0  0  0  0  0
   12.0081   11.0529    7.3513 C   0  0  0  0  0  0  0  0  0  0  0  0
   12.4377    9.7529    7.1638 N   0  0  0  0  0  0  0  0  0  0  0  0
   11.3920   11.6322    4.9215 N   0  0  0  0  0  0  0  0  0  0  0  0
   10.9148   12.7122    4.3702 C   0  0  0  0  0  0  0  0  0  0  0  0
   10.7321   13.6825    5.3167 N   0  0  0  0  0  0  0  0  0  0  0  0
  1  7  2  0  0  0  0
  1  2  1  0  0  0  0
  2  3  1  0  0  0  0
  2  4  2  0  0  0  0
  4  5  1  0  0  0  0
  5  6  2  0  0  0  0
  5 11  1  0  0  0  0
  6  7  1  0  0  0  0
  6  9  1  0  0  0  0
  7  8  1  0  0  0  0
  9 10  1  0  0  0  0
 10 11  2  0  0  0  0
M  END
>  <CHROM.1>
11.51389295,12.29804751,7.03922125,-1.14116598,1.19649269,-2.01503124

>  <Name>
ligand

>  <RI>
0

>  <Rbt.Current_Directory>
/home/itssahil/PROJECTS/Mol_Feturizer/New_Systems/rnas/4FEP

>  <Rbt.Executable>
rbdock ($Id: //depot/dev/client3/rdock/2013.1/src/exe/rbdock.cxx#4 $)

>  <Rbt.Library>
libRbt.so (2013.1, Build901 2013/11/27)

>  <Rbt.Parameter_File>
/export/apps/rDock/src/rDock_2013.1_src/data/scripts/dock_solv.prm

>  <Rbt.Receptor>
prm/blind_docking_80.prm

>  <SCORE>
-11.2246

>  <SCORE.INTER>
-11.2246

>  <SCORE.INTER.CONST>
1

>  <SCORE.INTER.POLAR>
0

>  <SCORE.INTER.ROT>
0

>  <SCORE.INTER.SOLV>
20.7523

>  <SCORE.INTER.VDW>
-18.0005

>  <SCORE.INTER.norm>
-1.02041

>  <SCORE.INTRA>
0

>  <SCORE.INTRA.DIHEDRAL>
0

>  <SCORE.INTRA.DIHEDRAL.0>
0

>  <SCORE.INTRA.POLAR>
0

>  <SCORE.INTRA.POLAR.0>
0

>  <SCORE.INTRA.REPUL>
0

>  <SCORE.INTRA.REPUL.0>
0

>  <SCORE.INTRA.SOLV>
0

>  <SCORE.INTRA.SOLV.lig_0>
-48.9558

>  <SCORE.INTRA.VDW>
0

>  <SCORE.INTRA.VDW.0>
0

>  <SCORE.INTRA.norm>
0

>  <SCORE.RESTR>
0

>  <SCORE.RESTR.CAVITY>
0

>  <SCORE.RESTR.norm>
0

>  <SCORE.SYSTEM>
0

>  <SCORE.SYSTEM.CONST>
0

>  <SCORE.SYSTEM.DIHEDRAL>
0

>  <SCORE.SYSTEM.SOLV>
0

>  <SCORE.SYSTEM.norm>
0

>  <SCORE.heavy>
11

>  <SCORE.norm>
-1.02041

>  <RMSD>
0.550

$$$$
ligand
 OpenBabel11021811493D
libRbt.so/2013.1/901 2013/11/27
 11 12  0  0  0  0  0  0  0  0999 V2000
   12.0177   11.5962    8.5883 N   0  0  0  0  0  0  0  0  0  0  0  0
   11.6113   12.8588    8.7968 C   0  0  0  0  0  0  0  0  0  0  0  0
   11.6430   13.3736   10.0819 N   0  0  0  0  0  0  0  0  0  0  0  0
   11.1757   13.6310    7.7880 N   0  0  0  0  0  0  0  0  0  0  0  0
   11.1325   13.1586    6.5204 C   0  0  0  0  0  0  0  0  0  0  0  0
   11.5527   11.8310    6.2536 C   0  0  0  0  0  0  0  0  0  0  0  0
   12.0065   11.0468    7.3556 C   0  0  0  0  0  0  0  0  0  0  0  0
   12.4312    9.7446    7.1726 N   0  0  0  0  0  0  0  0  0  0  0  0
   11.4032   11.6236    4.9220 N   0  0  0  0  0  0  0  0  0  0  0  0
   10.9330   12.7045    4.3664 C   0  0  0  0  0  0  0  0  0  0  0  0
   10.7505   13.6776    5.3101 N   0  0  0  0  0  0  0  0  0  0  0  0
  1  7  2  0  0  0  0
  1  2  1  0  0  0  0
  2  3  1  0  0  0  0
  2  4  2  0  0  0  0
  4  5  1  0  0  0  0
  5  6  2  0  0  0  0
  5 11  1  0  0  0  0
  6  7  1  0  0  0  0
  6  9  1  0  0  0  0
  7  8  1  0  0  0  0
  9 10  1  0  0  0  0
 10 11  2  0  0  0  0
M  END
>  <CHROM.1>
11.51894837,12.29339420,7.03879224,-1.14664952,1.20220775,-2.01203094

>  <Name>
ligand

>  <RI>
0

>  <Rbt.Current_Directory>
/home/itssahil/PROJECTS/Mol_Feturizer/New_Systems/rnas/4FEP

>  <Rbt.Executable>
rbdock ($Id: //depot/dev/client3/rdock/2013.1/src/exe/rbdock.cxx#4 $)

>  <Rbt.Library>
libRbt.so (2013.1, Build901 2013/11/27)

>  <Rbt.Parameter_File>
/export/apps/rDock/src/rDock_2013.1_src/data/scripts/dock_solv.prm

>  <Rbt.Receptor>
prm/pocket_docking_3.prm

>  <SCORE>
-11.2298

>  <SCORE.INTER>
-11.2298

>  <SCORE.INTER.CONST>
1

>  <SCORE.INTER.POLAR>
0

>  <SCORE.INTER.ROT>
0

>  <SCORE.INTER.SOLV>
20.7825

>  <SCORE.INTER.VDW>
-18.014

>  <SCORE.INTER.norm>
-1.02089

>  <SCORE.INTRA>
0

>  <SCORE.INTRA.DIHEDRAL>
0

>  <SCORE.INTRA.DIHEDRAL.0>
0

>  <SCORE.INTRA.POLAR>
0

>  <SCORE.INTRA.POLAR.0>
0

>  <SCORE.INTRA.REPUL>
0

>  <SCORE.INTRA.REPUL.0>
0

>  <SCORE.INTRA.SOLV>
0

>  <SCORE.INTRA.SOLV.lig_0>
-48.9558

>  <SCORE.INTRA.VDW>
0

>  <SCORE.INTRA.VDW.0>
0

>  <SCORE.INTRA.norm>
0

>  <SCORE.RESTR>
0

>  <SCORE.RESTR.CAVITY>
0

>  <SCORE.RESTR.norm>
0

>  <SCORE.SYSTEM>
0

>  <SCORE.SYSTEM.CONST>
0

>  <SCORE.SYSTEM.DIHEDRAL>
0

>  <SCORE.SYSTEM.SOLV>
0

>  <SCORE.SYSTEM.norm>
0

>  <SCORE.heavy>
11

>  <SCORE.norm>
-1.02089

>  <RMSD>
0.550

$$$$
ligand
 OpenBabel11021811493D
libRbt.so/2013.1/901 2013/11/27
 11 12  0  0  0  0  0  0  0  0999 V2000
   12.0521   11.6414    8.5833 N   0  0  0  0  0  0  0  0  0  0  0  0
   11.5921   12.8820    8.8119 C   0  0  0  0  0  0  0  0  0  0  0  0
   11.6038   13.3777   10.1048 N   0  0  0  0  0  0  0  0  0  0  0  0
   11.1221   13.6503    7.8156 N   0  0  0  0  0  0  0  0  0  0  0  0
   11.0971   13.1962    6.5409 C   0  0  0  0  0  0  0  0  0  0  0  0
   11.5736   11.8922    6.2530 C   0  0  0  0  0  0  0  0  0  0  0  0
   12.0625   11.1113    7.3423 C   0  0  0  0  0  0  0  0  0  0  0  0
   12.5425    9.8315    7.1386 N   0  0  0  0  0  0  0  0  0  0  0  0
   11.4309   11.6992    4.9185 N   0  0  0  0  0  0  0  0  0  0  0  0
   10.9137   12.7674    4.3803 C   0  0  0  0  0  0  0  0  0  0  0  0
   10.6911   13.7169    5.3392 N   0  0  0  0  0  0  0  0  0  0  0  0
  1  7  2  0  0  0  0
  1  2  1  0  0  0  0
  2  3  1  0  0  0  0
  2  4  2  0  0  0  0
  4  5  1  0  0  0  0
  5  6  2  0  0  0  0
  5 11  1  0  0  0  0
  6  7  1  0  0  0  0
  6  9  1  0  0  0  0
  7  8  1  0  0  0  0
  9 10  1  0  0  0  0
 10 11  2  0  0  0  0
M  END
>  <CHROM.1>
11.52125315,12.34046539,7.04536199,-1.18907293,1.16225830,-1.95722648

>  <Name>
ligand

>  <RI>
0

>  <Rbt.Current_Directory>
/home/itssahil/PROJECTS/Mol_Feturizer/New_Systems/rnas/4FEP

>  <Rbt.Executable>
rbdock ($Id: //depot/dev/client3/rdock/2013.1/src/exe/rbdock.cxx#4 $)

>  <Rbt.Library>
libRbt.so (2013.1, Build901 2013/11/27)

>  <Rbt.Parameter_File>
/export/apps/rDock/src/rDock_2013.1_src/data/scripts/dock_solv.prm

>  <Rbt.Receptor>
prm/pocket_docking_6.prm

>  <SCORE>
-11.2111

>  <SCORE.INTER>
-11.2111

>  <SCORE.INTER.CONST>
1

>  <SCORE.INTER.POLAR>
0

>  <SCORE.INTER.ROT>
0

>  <SCORE.INTER.SOLV>
20.4588

>  <SCORE.INTER.VDW>
-17.8936

>  <SCORE.INTER.norm>
-1.01919

>  <SCORE.INTRA>
0

>  <SCORE.INTRA.DIHEDRAL>
0

>  <SCORE.INTRA.DIHEDRAL.0>
0

>  <SCORE.INTRA.POLAR>
0

>  <SCORE.INTRA.POLAR.0>
0

>  <SCORE.INTRA.REPUL>
0

>  <SCORE.INTRA.REPUL.0>
0

>  <SCORE.INTRA.SOLV>
0

>  <SCORE.INTRA.SOLV.lig_0>
-48.9558

>  <SCORE.INTRA.VDW>
0

>  <SCORE.INTRA.VDW.0>
0

>  <SCORE.INTRA.norm>
0

>  <SCORE.RESTR>
0

>  <SCORE.RESTR.CAVITY>
0

>  <SCORE.RESTR.norm>
0

>  <SCORE.SYSTEM>
0

>  <SCORE.SYSTEM.CONST>
0

>  <SCORE.SYSTEM.DIHEDRAL>
0

>  <SCORE.SYSTEM.SOLV>
0

>  <SCORE.SYSTEM.norm>
0

>  <SCORE.heavy>
11

>  <SCORE.norm>
-1.01919

>  <RMSD>
0.550

$$$$
ligand
 OpenBabel11021811493D
libRbt.so/2013.1/901 2013/11/27
 11 12  0  0  0  0  0  0  0  0999 V2000
   12.0218   11.5987    8.5879 N   0  0  0  0  0  0  0  0  0  0  0  0
   11.6129   12.8605    8.7961 C   0  0  0  0  0  0  0  0  0  0  0  0
   11.6447   13.3761   10.0809 N   0  0  0  0  0  0  0  0  0  0  0  0
   11.1748   13.6313    7.7873 N   0  0  0  0  0  0  0  0  0  0  0  0
   11.1314   13.1581    6.5200 C   0  0  0  0  0  0  0  0  0  0  0  0
   11.5542   11.8313    6.2535 C   0  0  0  0  0  0  0  0  0  0  0  0
   12.0107   11.0486    7.3555 C   0  0  0  0  0  0  0  0  0  0  0  0
   12.4381    9.7472    7.1728 N   0  0  0  0  0  0  0  0  0  0  0  0
   11.4039   11.6228    4.9221 N   0  0  0  0  0  0  0  0  0  0  0  0
   10.9309   12.7024    4.3664 C   0  0  0  0  0  0  0  0  0  0  0  0
   10.7471   13.6756    5.3097 N   0  0  0  0  0  0  0  0  0  0  0  0
  1  7  2  0  0  0  0
  1  2  1  0  0  0  0
  2  3  1  0  0  0  0
  2  4  2  0  0  0  0
  4  5  1  0  0  0  0
  5  6  2  0  0  0  0
  5 11  1  0  0  0  0
  6  7  1  0  0  0  0
  6  9  1  0  0  0  0
  7  8  1  0  0  0  0
  9 10  1  0  0  0  0
 10 11  2  0  0  0  0
M  END
>  <CHROM.1>
11.52017869,12.29398630,7.03847738,-1.14687844,1.19986431,-2.01235797

>  <Name>
ligand

>  <RI>
0

>  <Rbt.Current_Directory>
/home/itssahil/PROJECTS/Mol_Feturizer/New_Systems/rnas/4FEP

>  <Rbt.Executable>
rbdock ($Id: //depot/dev/client3/rdock/2013.1/src/exe/rbdock.cxx#4 $)

>  <Rbt.Library>
libRbt.so (2013.1, Build901 2013/11/27)

>  <Rbt.Parameter_File>
/export/apps/rDock/src/rDock_2013.1_src/data/scripts/dock_solv.prm

>  <Rbt.Receptor>
prm/pocket_docking_6.prm

>  <SCORE>
-11.2279

>  <SCORE.INTER>
-11.2279

>  <SCORE.INTER.CONST>
1

>  <SCORE.INTER.POLAR>
0

>  <SCORE.INTER.ROT>
0

>  <SCORE.INTER.SOLV>
20.7608

>  <SCORE.INTER.VDW>
-18.0055

>  <SCORE.INTER.norm>
-1.02072

>  <SCORE.INTRA>
0

>  <SCORE.INTRA.DIHEDRAL>
0

>  <SCORE.INTRA.DIHEDRAL.0>
0

>  <SCORE.INTRA.POLAR>
0

>  <SCORE.INTRA.POLAR.0>
0

>  <SCORE.INTRA.REPUL>
0

>  <SCORE.INTRA.REPUL.0>
0

>  <SCORE.INTRA.SOLV>
0

>  <SCORE.INTRA.SOLV.lig_0>
-48.9558

>  <SCORE.INTRA.VDW>
0

>  <SCORE.INTRA.VDW.0>
0

>  <SCORE.INTRA.norm>
0

>  <SCORE.RESTR>
0

>  <SCORE.RESTR.CAVITY>
0

>  <SCORE.RESTR.norm>
0

>  <SCORE.SYSTEM>
0

>  <SCORE.SYSTEM.CONST>
0

>  <SCORE.SYSTEM.DIHEDRAL>
0

>  <SCORE.SYSTEM.SOLV>
0

>  <SCORE.SYSTEM.norm>
0

>  <SCORE.heavy>
11

>  <SCORE.norm>
-1.02072

>  <RMSD>
0.550

$$$$
ligand
 OpenBabel11021811493D
libRbt.so/2013.1/901 2013/11/27
 11 12  0  0  0  0  0  0  0  0999 V2000
   11.9920   11.6220    8.5897 N   0  0  0  0  0  0  0  0  0  0  0  0
   11.5693   12.8767    8.8135 C   0  0  0  0  0  0  0  0  0  0  0  0
   11.5898   13.3745   10.1055 N   0  0  0  0  0  0  0  0  0  0  0  0
   11.1282   13.6571    7.8134 N   0  0  0  0  0  0  0  0  0  0  0  0
   11.0957   13.2012    6.5395 C   0  0  0  0  0  0  0  0  0  0  0  0
   11.5332   11.8826    6.2565 C   0  0  0  0  0  0  0  0  0  0  0  0
   11.9923   11.0892    7.3497 C   0  0  0  0  0  0  0  0  0  0  0  0
   12.4337    9.7949    7.1510 N   0  0  0  0  0  0  0  0  0  0  0  0
   11.3913   11.6913    4.9217 N   0  0  0  0  0  0  0  0  0  0  0  0
   10.9099   12.7738    4.3788 C   0  0  0  0  0  0  0  0  0  0  0  0
   10.7119   13.7317    5.3347 N   0  0  0  0  0  0  0  0  0  0  0  0
  1  7  2  0  0  0  0
  1  2  1  0  0  0  0
  2  3  1  0  0  0  0
  2  4  2  0  0  0  0
  4  5  1  0  0  0  0
  5  6  2  0  0  0  0
  5 11  1  0  0  0  0
  6  7  1  0  0  0  0
  6  9  1  0  0  0  0
  7  8  1  0  0  0  0
  9 10  1  0  0  0  0
 10 11  2  0  0  0  0
M  END
>  <CHROM.1>
11.49069180,12.33391830,7.04770918,-1.17021254,1.19262980,-1.97665456

>  <Name>
ligand

>  <RI>
0

>  <Rbt.Current_Directory>
/home/itssahil/PROJECTS/Mol_Feturizer/New_Systems/rnas/4FEP

>  <Rbt.Executable>
rbdock ($Id: //depot/dev/client3/rdock/2013.1/src/exe/rbdock.cxx#4 $)

>  <Rbt.Library>
libRbt.so (2013.1, Build901 2013/11/27)

>  <Rbt.Parameter_File>
/export/apps/rDock/src/rDock_2013.1_src/data/scripts/dock_solv.prm

>  <Rbt.Receptor>
prm/pocket_docking_4.prm

>  <SCORE>
-11.2405

>  <SCORE.INTER>
-11.2405

>  <SCORE.INTER.CONST>
1

>  <SCORE.INTER.POLAR>
0

>  <SCORE.INTER.ROT>
0

>  <SCORE.INTER.SOLV>
20.7758

>  <SCORE.INTER.VDW>
-18.0189

>  <SCORE.INTER.norm>
-1.02186

>  <SCORE.INTRA>
0

>  <SCORE.INTRA.DIHEDRAL>
0

>  <SCORE.INTRA.DIHEDRAL.0>
0

>  <SCORE.INTRA.POLAR>
0

>  <SCORE.INTRA.POLAR.0>
0

>  <SCORE.INTRA.REPUL>
0

>  <SCORE.INTRA.REPUL.0>
0

>  <SCORE.INTRA.SOLV>
0

>  <SCORE.INTRA.SOLV.lig_0>
-48.9558

>  <SCORE.INTRA.VDW>
0

>  <SCORE.INTRA.VDW.0>
0

>  <SCORE.INTRA.norm>
0

>  <SCORE.RESTR>
0

>  <SCORE.RESTR.CAVITY>
0

>  <SCORE.RESTR.norm>
0

>  <SCORE.SYSTEM>
0

>  <SCORE.SYSTEM.CONST>
0

>  <SCORE.SYSTEM.DIHEDRAL>
0

>  <SCORE.SYSTEM.SOLV>
0

>  <SCORE.SYSTEM.norm>
0

>  <SCORE.heavy>
11

>  <SCORE.norm>
-1.02186

>  <RMSD>
0.551

$$$$
ligand
 OpenBabel11021811493D
libRbt.so/2013.1/901 2013/11/27
 11 12  0  0  0  0  0  0  0  0999 V2000
   11.9896   11.6249    8.5909 N   0  0  0  0  0  0  0  0  0  0  0  0
   11.5730   12.8818    8.8137 C   0  0  0  0  0  0  0  0  0  0  0  0
   11.5980   13.3812   10.1050 N   0  0  0  0  0  0  0  0  0  0  0  0
   11.1337   13.6628    7.8133 N   0  0  0  0  0  0  0  0  0  0  0  0
   11.0969   13.2054    6.5400 C   0  0  0  0  0  0  0  0  0  0  0  0
   11.5279   11.8844    6.2581 C   0  0  0  0  0  0  0  0  0  0  0  0
   11.9853   11.0905    7.3516 C   0  0  0  0  0  0  0  0  0  0  0  0
   12.4205    9.7938    7.1538 N   0  0  0  0  0  0  0  0  0  0  0  0
   11.3828   11.6920    4.9238 N   0  0  0  0  0  0  0  0  0  0  0  0
   10.9055   12.7759    4.3803 C   0  0  0  0  0  0  0  0  0  0  0  0
   10.7134   13.7360    5.3352 N   0  0  0  0  0  0  0  0  0  0  0  0
  1  7  2  0  0  0  0
  1  2  1  0  0  0  0
  2  3  1  0  0  0  0
  2  4  2  0  0  0  0
  4  5  1  0  0  0  0
  5  6  2  0  0  0  0
  5 11  1  0  0  0  0
  6  7  1  0  0  0  0
  6  9  1  0  0  0  0
  7  8  1  0  0  0  0
  9 10  1  0  0  0  0
 10 11  2  0  0  0  0
M  END
>  <CHROM.1>
11.48884980,12.33698786,7.04878239,-1.16098465,1.19609393,-1.98658379

>  <Name>
ligand

>  <RI>
0

>  <Rbt.Current_Directory>
/home/itssahil/PROJECTS/Mol_Feturizer/New_Systems/rnas/4FEP

>  <Rbt.Executable>
rbdock ($Id: //depot/dev/client3/rdock/2013.1/src/exe/rbdock.cxx#4 $)

>  <Rbt.Library>
libRbt.so (2013.1, Build901 2013/11/27)

>  <Rbt.Parameter_File>
/export/apps/rDock/src/rDock_2013.1_src/data/scripts/dock_solv.prm

>  <Rbt.Receptor>
prm/blind_docking_40.prm

>  <SCORE>
-11.2371

>  <SCORE.INTER>
-11.2371

>  <SCORE.INTER.CONST>
1

>  <SCORE.INTER.POLAR>
0

>  <SCORE.INTER.ROT>
0

>  <SCORE.INTER.SOLV>
20.8277

>  <SCORE.INTER.VDW>
-18.034

>  <SCORE.INTER.norm>
-1.02156

>  <SCORE.INTRA>
0

>  <SCORE.INTRA.DIHEDRAL>
0

>  <SCORE.INTRA.DIHEDRAL.0>
0

>  <SCORE.INTRA.POLAR>
0

>  <SCORE.INTRA.POLAR.0>
0

>  <SCORE.INTRA.REPUL>
0

>  <SCORE.INTRA.REPUL.0>
0

>  <SCORE.INTRA.SOLV>
0

>  <SCORE.INTRA.SOLV.lig_0>
-48.9558

>  <SCORE.INTRA.VDW>
0

>  <SCORE.INTRA.VDW.0>
0

>  <SCORE.INTRA.norm>
0

>  <SCORE.RESTR>
0

>  <SCORE.RESTR.CAVITY>
0

>  <SCORE.RESTR.norm>
0

>  <SCORE.SYSTEM>
0

>  <SCORE.SYSTEM.CONST>
0

>  <SCORE.SYSTEM.DIHEDRAL>
0

>  <SCORE.SYSTEM.SOLV>
0

>  <SCORE.SYSTEM.norm>
0

>  <SCORE.heavy>
11

>  <SCORE.norm>
-1.02156

>  <RMSD>
0.552

$$$$
ligand
 OpenBabel11021811493D
libRbt.so/2013.1/901 2013/11/27
 11 12  0  0  0  0  0  0  0  0999 V2000
   11.9930   11.5901    8.5879 N   0  0  0  0  0  0  0  0  0  0  0  0
   11.5953   12.8551    8.7990 C   0  0  0  0  0  0  0  0  0  0  0  0
   11.6285   13.3662   10.0856 N   0  0  0  0  0  0  0  0  0  0  0  0
   11.1671   13.6331    7.7915 N   0  0  0  0  0  0  0  0  0  0  0  0
   11.1228   13.1643    6.5226 C   0  0  0  0  0  0  0  0  0  0  0  0
   11.5339   11.8345    6.2530 C   0  0  0  0  0  0  0  0  0  0  0  0
   11.9801   11.0441    7.3537 C   0  0  0  0  0  0  0  0  0  0  0  0
   12.3958    9.7393    7.1680 N   0  0  0  0  0  0  0  0  0  0  0  0
   11.3852   11.6317    4.9206 N   0  0  0  0  0  0  0  0  0  0  0  0
   10.9238   12.7174    4.3671 C   0  0  0  0  0  0  0  0  0  0  0  0
   10.7466   13.6893    5.3130 N   0  0  0  0  0  0  0  0  0  0  0  0
  1  7  2  0  0  0  0
  1  2  1  0  0  0  0
  2  3  1  0  0  0  0
  2  4  2  0  0  0  0
  4  5  1  0  0  0  0
  5  6  2  0  0  0  0
  5 11  1  0  0  0  0
  6  7  1  0  0  0  0
  6  9  1  0  0  0  0
  7  8  1  0  0  0  0
  9 10  1  0  0  0  0
 10 11  2  0  0  0  0
M  END
>  <CHROM.1>
11.50204347,12.29500413,7.03936477,-1.14246379,1.20944226,-2.01328226

>  <Name>
ligand

>  <RI>
0

>  <Rbt.Current_Directory>
/home/itssahil/PROJECTS/Mol_Feturizer/New_Systems/rnas/4FEP

>  <Rbt.Executable>
rbdock ($Id: //depot/dev/client3/rdock/2013.1/src/exe/rbdock.cxx#4 $)

>  <Rbt.Library>
libRbt.so (2013.1, Build901 2013/11/27)

>  <Rbt.Parameter_File>
/export/apps/rDock/src/rDock_2013.1_src/data/scripts/dock_solv.prm

>  <Rbt.Receptor>
prm/pocket_docking_5.prm

>  <SCORE>
-11.1996

>  <SCORE.INTER>
-11.1996

>  <SCORE.INTER.CONST>
1

>  <SCORE.INTER.POLAR>
0

>  <SCORE.INTER.ROT>
0

>  <SCORE.INTER.SOLV>
20.8924

>  <SCORE.INTER.VDW>
-18.0305

>  <SCORE.INTER.norm>
-1.01814

>  <SCORE.INTRA>
0

>  <SCORE.INTRA.DIHEDRAL>
0

>  <SCORE.INTRA.DIHEDRAL.0>
0

>  <SCORE.INTRA.POLAR>
0

>  <SCORE.INTRA.POLAR.0>
0

>  <SCORE.INTRA.REPUL>
0

>  <SCORE.INTRA.REPUL.0>
0

>  <SCORE.INTRA.SOLV>
0

>  <SCORE.INTRA.SOLV.lig_0>
-48.9558

>  <SCORE.INTRA.VDW>
0

>  <SCORE.INTRA.VDW.0>
0

>  <SCORE.INTRA.norm>
0

>  <SCORE.RESTR>
0

>  <SCORE.RESTR.CAVITY>
0

>  <SCORE.RESTR.norm>
0

>  <SCORE.SYSTEM>
0

>  <SCORE.SYSTEM.CONST>
0

>  <SCORE.SYSTEM.DIHEDRAL>
0

>  <SCORE.SYSTEM.SOLV>
0

>  <SCORE.SYSTEM.norm>
0

>  <SCORE.heavy>
11

>  <SCORE.norm>
-1.01814

>  <RMSD>
0.552

$$$$
ligand
 OpenBabel11021811493D
libRbt.so/2013.1/901 2013/11/27
 11 12  0  0  0  0  0  0  0  0999 V2000
   11.9847   11.5987    8.5834 N   0  0  0  0  0  0  0  0  0  0  0  0
   11.5842   12.8609    8.8057 C   0  0  0  0  0  0  0  0  0  0  0  0
   11.6253   13.3638   10.0953 N   0  0  0  0  0  0  0  0  0  0  0  0
   11.1456   13.6439    7.8065 N   0  0  0  0  0  0  0  0  0  0  0  0
   11.0934   13.1832    6.5350 C   0  0  0  0  0  0  0  0  0  0  0  0
   11.5071   11.8566    6.2536 C   0  0  0  0  0  0  0  0  0  0  0  0
   11.9643   11.0607    7.3458 C   0  0  0  0  0  0  0  0  0  0  0  0
   12.3832    9.7586    7.1485 N   0  0  0  0  0  0  0  0  0  0  0  0
   11.3491   11.6618    4.9211 N   0  0  0  0  0  0  0  0  0  0  0  0
   10.8796   12.7495    4.3781 C   0  0  0  0  0  0  0  0  0  0  0  0
   10.7062   13.7146    5.3317 N   0  0  0  0  0  0  0  0  0  0  0  0
  1  7  2  0  0  0  0
  1  2  1  0  0  0  0
  2  3  1  0  0  0  0
  2  4  2  0  0  0  0
  4  5  1  0  0  0  0
  5  6  2  0  0  0  0
  5 11  1  0  0  0  0
  6  7  1  0  0  0  0
  6  9  1  0  0  0  0
  7  8  1  0  0  0  0
  9 10  1  0  0  0  0
 10 11  2  0  0  0  0
M  END
>  <CHROM.1>
11.47956851,12.31188502,7.04319314,-1.12763645,1.20301025,-2.02065880

>  <Name>
ligand

>  <RI>
0

>  <Rbt.Current_Directory>
/home/itssahil/PROJECTS/Mol_Feturizer/New_Systems/rnas/4FEP

>  <Rbt.Executable>
rbdock ($Id: //depot/dev/client3/rdock/2013.1/src/exe/rbdock.cxx#4 $)

>  <Rbt.Library>
libRbt.so (2013.1, Build901 2013/11/27)

>  <Rbt.Parameter_File>
/export/apps/rDock/src/rDock_2013.1_src/data/scripts/dock_solv.prm

>  <Rbt.Receptor>
prm/blind_docking_60.prm

>  <SCORE>
-11.2573

>  <SCORE.INTER>
-11.2573

>  <SCORE.INTER.CONST>
1

>  <SCORE.INTER.POLAR>
0

>  <SCORE.INTER.ROT>
0

>  <SCORE.INTER.SOLV>
20.9059

>  <SCORE.INTER.VDW>
-18.0735

>  <SCORE.INTER.norm>
-1.02339

>  <SCORE.INTRA>
0

>  <SCORE.INTRA.DIHEDRAL>
0

>  <SCORE.INTRA.DIHEDRAL.0>
0

>  <SCORE.INTRA.POLAR>
0

>  <SCORE.INTRA.POLAR.0>
0

>  <SCORE.INTRA.REPUL>
0

>  <SCORE.INTRA.REPUL.0>
0

>  <SCORE.INTRA.SOLV>
0

>  <SCORE.INTRA.SOLV.lig_0>
-48.9558

>  <SCORE.INTRA.VDW>
0

>  <SCORE.INTRA.VDW.0>
0

>  <SCORE.INTRA.norm>
0

>  <SCORE.RESTR>
0

>  <SCORE.RESTR.CAVITY>
0

>  <SCORE.RESTR.norm>
0

>  <SCORE.SYSTEM>
0

>  <SCORE.SYSTEM.CONST>
0

>  <SCORE.SYSTEM.DIHEDRAL>
0

>  <SCORE.SYSTEM.SOLV>
0

>  <SCORE.SYSTEM.norm>
0

>  <SCORE.heavy>
11

>  <SCORE.norm>
-1.02339

>  <RMSD>
0.553

$$$$
ligand
 OpenBabel11021811493D
libRbt.so/2013.1/901 2013/11/27
 11 12  0  0  0  0  0  0  0  0999 V2000
   12.0401   11.6201    8.5764 N   0  0  0  0  0  0  0  0  0  0  0  0
   11.6125   12.8724    8.8042 C   0  0  0  0  0  0  0  0  0  0  0  0
   11.6487   13.3726   10.0950 N   0  0  0  0  0  0  0  0  0  0  0  0
   11.1516   13.6480    7.8094 N   0  0  0  0  0  0  0  0  0  0  0  0
   11.1034   13.1897    6.5369 C   0  0  0  0  0  0  0  0  0  0  0  0
   11.5453   11.8735    6.2497 C   0  0  0  0  0  0  0  0  0  0  0  0
   12.0257   11.0851    7.3375 C   0  0  0  0  0  0  0  0  0  0  0  0
   12.4726    9.7933    7.1344 N   0  0  0  0  0  0  0  0  0  0  0  0
   11.3851   11.6788    4.9175 N   0  0  0  0  0  0  0  0  0  0  0  0
   10.8888   12.7571    4.3799 C   0  0  0  0  0  0  0  0  0  0  0  0
   10.6984   13.7155    5.3369 N   0  0  0  0  0  0  0  0  0  0  0  0
  1  7  2  0  0  0  0
  1  2  1  0  0  0  0
  2  3  1  0  0  0  0
  2  4  2  0  0  0  0
  4  5  1  0  0  0  0
  5  6  2  0  0  0  0
  5 11  1  0  0  0  0
  6  7  1  0  0  0  0
  6  9  1  0  0  0  0
  7  8  1  0  0  0  0
  9 10  1  0  0  0  0
 10 11  2  0  0  0  0
M  END
>  <CHROM.1>
11.51152422,12.32591405,7.04071537,-1.14154600,1.18064222,-2.00498396

>  <Name>
ligand

>  <RI>
0

>  <Rbt.Current_Directory>
/home/itssahil/PROJECTS/Mol_Feturizer/New_Systems/rnas/4FEP

>  <Rbt.Executable>
rbdock ($Id: //depot/dev/client3/rdock/2013.1/src/exe/rbdock.cxx#4 $)

>  <Rbt.Library>
libRbt.so (2013.1, Build901 2013/11/27)

>  <Rbt.Parameter_File>
/export/apps/rDock/src/rDock_2013.1_src/data/scripts/dock_solv.prm

>  <Rbt.Receptor>
prm/blind_docking_80.prm

>  <SCORE>
-11.2534

>  <SCORE.INTER>
-11.2534

>  <SCORE.INTER.CONST>
1

>  <SCORE.INTER.POLAR>
0

>  <SCORE.INTER.ROT>
0

>  <SCORE.INTER.SOLV>
20.6581

>  <SCORE.INTER.VDW>
-17.9883

>  <SCORE.INTER.norm>
-1.02304

>  <SCORE.INTRA>
0

>  <SCORE.INTRA.DIHEDRAL>
0

>  <SCORE.INTRA.DIHEDRAL.0>
0

>  <SCORE.INTRA.POLAR>
0

>  <SCORE.INTRA.POLAR.0>
0

>  <SCORE.INTRA.REPUL>
0

>  <SCORE.INTRA.REPUL.0>
0

>  <SCORE.INTRA.SOLV>
0

>  <SCORE.INTRA.SOLV.lig_0>
-48.9558

>  <SCORE.INTRA.VDW>
0

>  <SCORE.INTRA.VDW.0>
0

>  <SCORE.INTRA.norm>
0

>  <SCORE.RESTR>
0

>  <SCORE.RESTR.CAVITY>
0

>  <SCORE.RESTR.norm>
0

>  <SCORE.SYSTEM>
0

>  <SCORE.SYSTEM.CONST>
0

>  <SCORE.SYSTEM.DIHEDRAL>
0

>  <SCORE.SYSTEM.SOLV>
0

>  <SCORE.SYSTEM.norm>
0

>  <SCORE.heavy>
11

>  <SCORE.norm>
-1.02304

>  <RMSD>
0.553

$$$$
ligand
 OpenBabel11021811493D
libRbt.so/2013.1/901 2013/11/27
 11 12  0  0  0  0  0  0  0  0999 V2000
   12.0194   11.5944    8.5804 N   0  0  0  0  0  0  0  0  0  0  0  0
   11.6124   12.8556    8.7963 C   0  0  0  0  0  0  0  0  0  0  0  0
   11.6495   13.3649   10.0835 N   0  0  0  0  0  0  0  0  0  0  0  0
   11.1712   13.6316    7.7929 N   0  0  0  0  0  0  0  0  0  0  0  0
   11.1226   13.1646    6.5235 C   0  0  0  0  0  0  0  0  0  0  0  0
   11.5433   11.8387    6.2489 C   0  0  0  0  0  0  0  0  0  0  0  0
   12.0032   11.0504    7.3455 C   0  0  0  0  0  0  0  0  0  0  0  0
   12.4287    9.7495    7.1548 N   0  0  0  0  0  0  0  0  0  0  0  0
   11.3878   11.6368    4.9172 N   0  0  0  0  0  0  0  0  0  0  0  0
   10.9136   12.7195    4.3685 C   0  0  0  0  0  0  0  0  0  0  0  0
   10.7343   13.6883    5.3172 N   0  0  0  0  0  0  0  0  0  0  0  0
  1  7  2  0  0  0  0
  1  2  1  0  0  0  0
  2  3  1  0  0  0  0
  2  4  2  0  0  0  0
  4  5  1  0  0  0  0
  5  6  2  0  0  0  0
  5 11  1  0  0  0  0
  6  7  1  0  0  0  0
  6  9  1  0  0  0  0
  7  8  1  0  0  0  0
  9 10  1  0  0  0  0
 10 11  2  0  0  0  0
M  END
>  <CHROM.1>
11.51256443,12.29767029,7.03628989,-1.13646591,1.19904948,-2.01721858

>  <Name>
ligand

>  <RI>
0

>  <Rbt.Current_Directory>
/home/itssahil/PROJECTS/Mol_Feturizer/New_Systems/rnas/4FEP

>  <Rbt.Executable>
rbdock ($Id: //depot/dev/client3/rdock/2013.1/src/exe/rbdock.cxx#4 $)

>  <Rbt.Library>
libRbt.so (2013.1, Build901 2013/11/27)

>  <Rbt.Parameter_File>
/export/apps/rDock/src/rDock_2013.1_src/data/scripts/dock_solv.prm

>  <Rbt.Receptor>
prm/pocket_docking_3.prm

>  <SCORE>
-11.2245

>  <SCORE.INTER>
-11.2245

>  <SCORE.INTER.CONST>
1

>  <SCORE.INTER.POLAR>
0

>  <SCORE.INTER.ROT>
0

>  <SCORE.INTER.SOLV>
20.7703

>  <SCORE.INTER.VDW>
-18.0064

>  <SCORE.INTER.norm>
-1.02041

>  <SCORE.INTRA>
0

>  <SCORE.INTRA.DIHEDRAL>
0

>  <SCORE.INTRA.DIHEDRAL.0>
0

>  <SCORE.INTRA.POLAR>
0

>  <SCORE.INTRA.POLAR.0>
0

>  <SCORE.INTRA.REPUL>
0

>  <SCORE.INTRA.REPUL.0>
0

>  <SCORE.INTRA.SOLV>
0

>  <SCORE.INTRA.SOLV.lig_0>
-48.9558

>  <SCORE.INTRA.VDW>
0

>  <SCORE.INTRA.VDW.0>
0

>  <SCORE.INTRA.norm>
0

>  <SCORE.RESTR>
0

>  <SCORE.RESTR.CAVITY>
0

>  <SCORE.RESTR.norm>
0

>  <SCORE.SYSTEM>
0

>  <SCORE.SYSTEM.CONST>
0

>  <SCORE.SYSTEM.DIHEDRAL>
0

>  <SCORE.SYSTEM.SOLV>
0

>  <SCORE.SYSTEM.norm>
0

>  <SCORE.heavy>
11

>  <SCORE.norm>
-1.02041

>  <RMSD>
0.553

$$$$
ligand
 OpenBabel11021811493D
libRbt.so/2013.1/901 2013/11/27
 11 12  0  0  0  0  0  0  0  0999 V2000
   12.0151   11.6138    8.5792 N   0  0  0  0  0  0  0  0  0  0  0  0
   11.5881   12.8666    8.8050 C   0  0  0  0  0  0  0  0  0  0  0  0
   11.6149   13.3654   10.0965 N   0  0  0  0  0  0  0  0  0  0  0  0
   11.1366   13.6442    7.8073 N   0  0  0  0  0  0  0  0  0  0  0  0
   11.0976   13.1873    6.5339 C   0  0  0  0  0  0  0  0  0  0  0  0
   11.5393   11.8706    6.2489 C   0  0  0  0  0  0  0  0  0  0  0  0
   12.0095   11.0801    7.3396 C   0  0  0  0  0  0  0  0  0  0  0  0
   12.4556    9.7877    7.1387 N   0  0  0  0  0  0  0  0  0  0  0  0
   11.3894   11.6777    4.9152 N   0  0  0  0  0  0  0  0  0  0  0  0
   10.8994   12.7575    4.3748 C   0  0  0  0  0  0  0  0  0  0  0  0
   10.7033   13.7152    5.3314 N   0  0  0  0  0  0  0  0  0  0  0  0
  1  7  2  0  0  0  0
  1  2  1  0  0  0  0
  2  3  1  0  0  0  0
  2  4  2  0  0  0  0
  4  5  1  0  0  0  0
  5  6  2  0  0  0  0
  5 11  1  0  0  0  0
  6  7  1  0  0  0  0
  6  9  1  0  0  0  0
  7  8  1  0  0  0  0
  9 10  1  0  0  0  0
 10 11  2  0  0  0  0
M  END
>  <CHROM.1>
11.50009464,12.32224759,7.04010560,-1.15865489,1.18569558,-1.98807453

>  <Name>
ligand

>  <RI>
0

>  <Rbt.Current_Directory>
/home/itssahil/PROJECTS/Mol_Feturizer/New_Systems/rnas/4FEP

>  <Rbt.Executable>
rbdock ($Id: //depot/dev/client3/rdock/2013.1/src/exe/rbdock.cxx#4 $)

>  <Rbt.Library>
libRbt.so (2013.1, Build901 2013/11/27)

>  <Rbt.Parameter_File>
/export/apps/rDock/src/rDock_2013.1_src/data/scripts/dock_solv.prm

>  <Rbt.Receptor>
prm/pocket_docking_3.prm

>  <SCORE>
-11.2368

>  <SCORE.INTER>
-11.2368

>  <SCORE.INTER.CONST>
1

>  <SCORE.INTER.POLAR>
0

>  <SCORE.INTER.ROT>
0

>  <SCORE.INTER.SOLV>
20.6973

>  <SCORE.INTER.VDW>
-17.9903

>  <SCORE.INTER.norm>
-1.02153

>  <SCORE.INTRA>
0

>  <SCORE.INTRA.DIHEDRAL>
0

>  <SCORE.INTRA.DIHEDRAL.0>
0

>  <SCORE.INTRA.POLAR>
0

>  <SCORE.INTRA.POLAR.0>
0

>  <SCORE.INTRA.REPUL>
0

>  <SCORE.INTRA.REPUL.0>
0

>  <SCORE.INTRA.SOLV>
0

>  <SCORE.INTRA.SOLV.lig_0>
-48.9558

>  <SCORE.INTRA.VDW>
0

>  <SCORE.INTRA.VDW.0>
0

>  <SCORE.INTRA.norm>
0

>  <SCORE.RESTR>
0

>  <SCORE.RESTR.CAVITY>
0

>  <SCORE.RESTR.norm>
0

>  <SCORE.SYSTEM>
0

>  <SCORE.SYSTEM.CONST>
0

>  <SCORE.SYSTEM.DIHEDRAL>
0

>  <SCORE.SYSTEM.SOLV>
0

>  <SCORE.SYSTEM.norm>
0

>  <SCORE.heavy>
11

>  <SCORE.norm>
-1.02153

>  <RMSD>
0.553

$$$$
ligand
 OpenBabel11021811493D
libRbt.so/2013.1/901 2013/11/27
 11 12  0  0  0  0  0  0  0  0999 V2000
   12.0519   11.6329    8.5772 N   0  0  0  0  0  0  0  0  0  0  0  0
   11.6077   12.8794    8.8048 C   0  0  0  0  0  0  0  0  0  0  0  0
   11.6344   13.3792   10.0960 N   0  0  0  0  0  0  0  0  0  0  0  0
   11.1394   13.6498    7.8094 N   0  0  0  0  0  0  0  0  0  0  0  0
   11.1001   13.1917    6.5364 C   0  0  0  0  0  0  0  0  0  0  0  0
   11.5595   11.8815    6.2495 C   0  0  0  0  0  0  0  0  0  0  0  0
   12.0473   11.0986    7.3379 C   0  0  0  0  0  0  0  0  0  0  0  0
   12.5112    9.8127    7.1351 N   0  0  0  0  0  0  0  0  0  0  0  0
   11.4050   11.6857    4.9167 N   0  0  0  0  0  0  0  0  0  0  0  0
   10.8962   12.7579    4.3786 C   0  0  0  0  0  0  0  0  0  0  0  0
   10.6914   13.7132    5.3358 N   0  0  0  0  0  0  0  0  0  0  0  0
  1  7  2  0  0  0  0
  1  2  1  0  0  0  0
  2  3  1  0  0  0  0
  2  4  2  0  0  0  0
  4  5  1  0  0  0  0
  5  6  2  0  0  0  0
  5 11  1  0  0  0  0
  6  7  1  0  0  0  0
  6  9  1  0  0  0  0
  7  8  1  0  0  0  0
  9 10  1  0  0  0  0
 10 11  2  0  0  0  0
M  END
>  <CHROM.1>
11.51801684,12.33289975,7.04067678,-1.16097819,1.16998520,-1.98638321

>  <Name>
ligand

>  <RI>
0

>  <Rbt.Current_Directory>
/home/itssahil/PROJECTS/Mol_Feturizer/New_Systems/rnas/4FEP

>  <Rbt.Executable>
rbdock ($Id: //depot/dev/client3/rdock/2013.1/src/exe/rbdock.cxx#4 $)

>  <Rbt.Library>
libRbt.so (2013.1, Build901 2013/11/27)

>  <Rbt.Parameter_File>
/export/apps/rDock/src/rDock_2013.1_src/data/scripts/dock_solv.prm

>  <Rbt.Receptor>
prm/pocket_docking_4.prm

>  <SCORE>
-11.2425

>  <SCORE.INTER>
-11.2425

>  <SCORE.INTER.CONST>
1

>  <SCORE.INTER.POLAR>
0

>  <SCORE.INTER.ROT>
0

>  <SCORE.INTER.SOLV>
20.5566

>  <SCORE.INTER.VDW>
-17.9472

>  <SCORE.INTER.norm>
-1.02205

>  <SCORE.INTRA>
0

>  <SCORE.INTRA.DIHEDRAL>
0

>  <SCORE.INTRA.DIHEDRAL.0>
0

>  <SCORE.INTRA.POLAR>
0

>  <SCORE.INTRA.POLAR.0>
0

>  <SCORE.INTRA.REPUL>
0

>  <SCORE.INTRA.REPUL.0>
0

>  <SCORE.INTRA.SOLV>
0

>  <SCORE.INTRA.SOLV.lig_0>
-48.9558

>  <SCORE.INTRA.VDW>
0

>  <SCORE.INTRA.VDW.0>
0

>  <SCORE.INTRA.norm>
0

>  <SCORE.RESTR>
0

>  <SCORE.RESTR.CAVITY>
0

>  <SCORE.RESTR.norm>
0

>  <SCORE.SYSTEM>
0

>  <SCORE.SYSTEM.CONST>
0

>  <SCORE.SYSTEM.DIHEDRAL>
0

>  <SCORE.SYSTEM.SOLV>
0

>  <SCORE.SYSTEM.norm>
0

>  <SCORE.heavy>
11

>  <SCORE.norm>
-1.02205

>  <RMSD>
0.553

$$$$
ligand
 OpenBabel11021811493D
libRbt.so/2013.1/901 2013/11/27
 11 12  0  0  0  0  0  0  0  0999 V2000
   11.9893   11.6146    8.5859 N   0  0  0  0  0  0  0  0  0  0  0  0
   11.5695   12.8699    8.8119 C   0  0  0  0  0  0  0  0  0  0  0  0
   11.5914   13.3654   10.1048 N   0  0  0  0  0  0  0  0  0  0  0  0
   11.1299   13.6529    7.8132 N   0  0  0  0  0  0  0  0  0  0  0  0
   11.0961   13.1992    6.5385 C   0  0  0  0  0  0  0  0  0  0  0  0
   11.5306   11.8801    6.2532 C   0  0  0  0  0  0  0  0  0  0  0  0
   11.9882   11.0839    7.3451 C   0  0  0  0  0  0  0  0  0  0  0  0
   12.4266    9.7889    7.1440 N   0  0  0  0  0  0  0  0  0  0  0  0
   11.3880   11.6913    4.9181 N   0  0  0  0  0  0  0  0  0  0  0  0
   10.9090   12.7758    4.3771 C   0  0  0  0  0  0  0  0  0  0  0  0
   10.7132   13.7326    5.3347 N   0  0  0  0  0  0  0  0  0  0  0  0
  1  7  2  0  0  0  0
  1  2  1  0  0  0  0
  2  3  1  0  0  0  0
  2  4  2  0  0  0  0
  4  5  1  0  0  0  0
  5  6  2  0  0  0  0
  5 11  1  0  0  0  0
  6  7  1  0  0  0  0
  6  9  1  0  0  0  0
  7  8  1  0  0  0  0
  9 10  1  0  0  0  0
 10 11  2  0  0  0  0
M  END
>  <CHROM.1>
11.48928671,12.33019828,7.04521399,-1.16726790,1.19461022,-1.97773000

>  <Name>
ligand

>  <RI>
0

>  <Rbt.Current_Directory>
/home/itssahil/PROJECTS/Mol_Feturizer/New_Systems/rnas/4FEP

>  <Rbt.Executable>
rbdock ($Id: //depot/dev/client3/rdock/2013.1/src/exe/rbdock.cxx#4 $)

>  <Rbt.Library>
libRbt.so (2013.1, Build901 2013/11/27)

>  <Rbt.Parameter_File>
/export/apps/rDock/src/rDock_2013.1_src/data/scripts/dock_solv.prm

>  <Rbt.Receptor>
prm/pocket_docking_4.prm

>  <SCORE>
-11.2402

>  <SCORE.INTER>
-11.2402

>  <SCORE.INTER.CONST>
1

>  <SCORE.INTER.POLAR>
0

>  <SCORE.INTER.ROT>
0

>  <SCORE.INTER.SOLV>
20.7898

>  <SCORE.INTER.VDW>
-18.0234

>  <SCORE.INTER.norm>
-1.02184

>  <SCORE.INTRA>
0

>  <SCORE.INTRA.DIHEDRAL>
0

>  <SCORE.INTRA.DIHEDRAL.0>
0

>  <SCORE.INTRA.POLAR>
0

>  <SCORE.INTRA.POLAR.0>
0

>  <SCORE.INTRA.REPUL>
0

>  <SCORE.INTRA.REPUL.0>
0

>  <SCORE.INTRA.SOLV>
0

>  <SCORE.INTRA.SOLV.lig_0>
-48.9558

>  <SCORE.INTRA.VDW>
0

>  <SCORE.INTRA.VDW.0>
0

>  <SCORE.INTRA.norm>
0

>  <SCORE.RESTR>
0

>  <SCORE.RESTR.CAVITY>
0

>  <SCORE.RESTR.norm>
0

>  <SCORE.SYSTEM>
0

>  <SCORE.SYSTEM.CONST>
0

>  <SCORE.SYSTEM.DIHEDRAL>
0

>  <SCORE.SYSTEM.SOLV>
0

>  <SCORE.SYSTEM.norm>
0

>  <SCORE.heavy>
11

>  <SCORE.norm>
-1.02184

>  <RMSD>
0.553

$$$$
ligand
 OpenBabel11021811493D
libRbt.so/2013.1/901 2013/11/27
 11 12  0  0  0  0  0  0  0  0999 V2000
   11.9801   11.5988    8.5840 N   0  0  0  0  0  0  0  0  0  0  0  0
   11.5784   12.8607    8.8060 C   0  0  0  0  0  0  0  0  0  0  0  0
   11.6166   13.3631   10.0958 N   0  0  0  0  0  0  0  0  0  0  0  0
   11.1414   13.6438    7.8062 N   0  0  0  0  0  0  0  0  0  0  0  0
   11.0920   13.1835    6.5344 C   0  0  0  0  0  0  0  0  0  0  0  0
   11.5071   11.8573    6.2533 C   0  0  0  0  0  0  0  0  0  0  0  0
   11.9626   11.0613    7.3462 C   0  0  0  0  0  0  0  0  0  0  0  0
   12.3826    9.7595    7.1492 N   0  0  0  0  0  0  0  0  0  0  0  0
   11.3519   11.6630    4.9204 N   0  0  0  0  0  0  0  0  0  0  0  0
   10.8829   12.7506    4.3770 C   0  0  0  0  0  0  0  0  0  0  0  0
   10.7069   13.7152    5.3305 N   0  0  0  0  0  0  0  0  0  0  0  0
  1  7  2  0  0  0  0
  1  2  1  0  0  0  0
  2  3  1  0  0  0  0
  2  4  2  0  0  0  0
  4  5  1  0  0  0  0
  5  6  2  0  0  0  0
  5 11  1  0  0  0  0
  6  7  1  0  0  0  0
  6  9  1  0  0  0  0
  7  8  1  0  0  0  0
  9 10  1  0  0  0  0
 10 11  2  0  0  0  0
M  END
>  <CHROM.1>
11.47767652,12.31228397,7.04304595,-1.13344576,1.20335159,-2.01484439

>  <Name>
ligand

>  <RI>
0

>  <Rbt.Current_Directory>
/home/itssahil/PROJECTS/Mol_Feturizer/New_Systems/rnas/4FEP

>  <Rbt.Executable>
rbdock ($Id: //depot/dev/client3/rdock/2013.1/src/exe/rbdock.cxx#4 $)

>  <Rbt.Library>
libRbt.so (2013.1, Build901 2013/11/27)

>  <Rbt.Parameter_File>
/export/apps/rDock/src/rDock_2013.1_src/data/scripts/dock_solv.prm

>  <Rbt.Receptor>
prm/pocket_docking_4.prm

>  <SCORE>
-11.2596

>  <SCORE.INTER>
-11.2596

>  <SCORE.INTER.CONST>
1

>  <SCORE.INTER.POLAR>
0

>  <SCORE.INTER.ROT>
0

>  <SCORE.INTER.SOLV>
20.9089

>  <SCORE.INTER.VDW>
-18.076

>  <SCORE.INTER.norm>
-1.0236

>  <SCORE.INTRA>
0

>  <SCORE.INTRA.DIHEDRAL>
0

>  <SCORE.INTRA.DIHEDRAL.0>
0

>  <SCORE.INTRA.POLAR>
0

>  <SCORE.INTRA.POLAR.0>
0

>  <SCORE.INTRA.REPUL>
0

>  <SCORE.INTRA.REPUL.0>
0

>  <SCORE.INTRA.SOLV>
0

>  <SCORE.INTRA.SOLV.lig_0>
-48.9558

>  <SCORE.INTRA.VDW>
0

>  <SCORE.INTRA.VDW.0>
0

>  <SCORE.INTRA.norm>
0

>  <SCORE.RESTR>
0

>  <SCORE.RESTR.CAVITY>
0

>  <SCORE.RESTR.norm>
0

>  <SCORE.SYSTEM>
0

>  <SCORE.SYSTEM.CONST>
0

>  <SCORE.SYSTEM.DIHEDRAL>
0

>  <SCORE.SYSTEM.SOLV>
0

>  <SCORE.SYSTEM.norm>
0

>  <SCORE.heavy>
11

>  <SCORE.norm>
-1.0236

>  <RMSD>
0.553

$$$$
ligand
 OpenBabel11021811493D
libRbt.so/2013.1/901 2013/11/27
 11 12  0  0  0  0  0  0  0  0999 V2000
   12.2540   11.7569    8.6007 N   0  0  0  0  0  0  0  0  0  0  0  0
   11.5756   12.8923    8.8323 C   0  0  0  0  0  0  0  0  0  0  0  0
   11.5190   13.3924   10.1224 N   0  0  0  0  0  0  0  0  0  0  0  0
   10.9525   13.5515    7.8419 N   0  0  0  0  0  0  0  0  0  0  0  0
   10.9888   13.0900    6.5701 C   0  0  0  0  0  0  0  0  0  0  0  0
   11.6940   11.8949    6.2791 C   0  0  0  0  0  0  0  0  0  0  0  0
   12.3398   11.2275    7.3622 C   0  0  0  0  0  0  0  0  0  0  0  0
   13.0456   10.0576    7.1552 N   0  0  0  0  0  0  0  0  0  0  0  0
   11.5650   11.6675    4.9486 N   0  0  0  0  0  0  0  0  0  0  0  0
   10.8483   12.6164    4.4156 C   0  0  0  0  0  0  0  0  0  0  0  0
   10.4708   13.5161    5.3742 N   0  0  0  0  0  0  0  0  0  0  0  0
  1  7  2  0  0  0  0
  1  2  1  0  0  0  0
  2  3  1  0  0  0  0
  2  4  2  0  0  0  0
  4  5  1  0  0  0  0
  5  6  2  0  0  0  0
  5 11  1  0  0  0  0
  6  7  1  0  0  0  0
  6  9  1  0  0  0  0
  7  8  1  0  0  0  0
  9 10  1  0  0  0  0
 10 11  2  0  0  0  0
M  END
>  <CHROM.1>
11.57398019,12.33224290,7.07016503,-1.28415067,0.97971075,-1.88005983

>  <Name>
ligand

>  <RI>
0

>  <Rbt.Current_Directory>
/home/itssahil/PROJECTS/Mol_Feturizer/New_Systems/rnas/4FEP

>  <Rbt.Executable>
rbdock ($Id: //depot/dev/client3/rdock/2013.1/src/exe/rbdock.cxx#4 $)

>  <Rbt.Library>
libRbt.so (2013.1, Build901 2013/11/27)

>  <Rbt.Parameter_File>
/export/apps/rDock/src/rDock_2013.1_src/data/scripts/dock_solv.prm

>  <Rbt.Receptor>
prm/pocket_docking_7.prm

>  <SCORE>
-10.9313

>  <SCORE.INTER>
-10.9313

>  <SCORE.INTER.CONST>
1

>  <SCORE.INTER.POLAR>
0

>  <SCORE.INTER.ROT>
0

>  <SCORE.INTER.SOLV>
18.8194

>  <SCORE.INTER.VDW>
-17.1607

>  <SCORE.INTER.norm>
-0.993759

>  <SCORE.INTRA>
0

>  <SCORE.INTRA.DIHEDRAL>
0

>  <SCORE.INTRA.DIHEDRAL.0>
0

>  <SCORE.INTRA.POLAR>
0

>  <SCORE.INTRA.POLAR.0>
0

>  <SCORE.INTRA.REPUL>
0

>  <SCORE.INTRA.REPUL.0>
0

>  <SCORE.INTRA.SOLV>
0

>  <SCORE.INTRA.SOLV.lig_0>
-48.9558

>  <SCORE.INTRA.VDW>
0

>  <SCORE.INTRA.VDW.0>
0

>  <SCORE.INTRA.norm>
0

>  <SCORE.RESTR>
0

>  <SCORE.RESTR.CAVITY>
0

>  <SCORE.RESTR.norm>
0

>  <SCORE.SYSTEM>
0

>  <SCORE.SYSTEM.CONST>
0

>  <SCORE.SYSTEM.DIHEDRAL>
0

>  <SCORE.SYSTEM.SOLV>
0

>  <SCORE.SYSTEM.norm>
0

>  <SCORE.heavy>
11

>  <SCORE.norm>
-0.993759

>  <RMSD>
0.553

$$$$
ligand
 OpenBabel11021811493D
libRbt.so/2013.1/901 2013/11/27
 11 12  0  0  0  0  0  0  0  0999 V2000
   12.0417   11.6207    8.5765 N   0  0  0  0  0  0  0  0  0  0  0  0
   11.6143   12.8732    8.8037 C   0  0  0  0  0  0  0  0  0  0  0  0
   11.6501   13.3739   10.0942 N   0  0  0  0  0  0  0  0  0  0  0  0
   11.1539   13.6485    7.8084 N   0  0  0  0  0  0  0  0  0  0  0  0
   11.1060   13.1897    6.5360 C   0  0  0  0  0  0  0  0  0  0  0  0
   11.5479   11.8733    6.2495 C   0  0  0  0  0  0  0  0  0  0  0  0
   12.0277   11.0852    7.3377 C   0  0  0  0  0  0  0  0  0  0  0  0
   12.4745    9.7933    7.1354 N   0  0  0  0  0  0  0  0  0  0  0  0
   11.3881   11.6781    4.9173 N   0  0  0  0  0  0  0  0  0  0  0  0
   10.8922   12.7563    4.3791 C   0  0  0  0  0  0  0  0  0  0  0  0
   10.7017   13.7151    5.3357 N   0  0  0  0  0  0  0  0  0  0  0  0
  1  7  2  0  0  0  0
  1  2  1  0  0  0  0
  2  3  1  0  0  0  0
  2  4  2  0  0  0  0
  4  5  1  0  0  0  0
  5  6  2  0  0  0  0
  5 11  1  0  0  0  0
  6  7  1  0  0  0  0
  6  9  1  0  0  0  0
  7  8  1  0  0  0  0
  9 10  1  0  0  0  0
 10 11  2  0  0  0  0
M  END
>  <CHROM.1>
11.51384535,12.32603026,7.04032046,-1.14225649,1.18096085,-2.00472383

>  <Name>
ligand

>  <RI>
0

>  <Rbt.Current_Directory>
/home/itssahil/PROJECTS/Mol_Feturizer/New_Systems/rnas/4FEP

>  <Rbt.Executable>
rbdock ($Id: //depot/dev/client3/rdock/2013.1/src/exe/rbdock.cxx#4 $)

>  <Rbt.Library>
libRbt.so (2013.1, Build901 2013/11/27)

>  <Rbt.Parameter_File>
/export/apps/rDock/src/rDock_2013.1_src/data/scripts/dock_solv.prm

>  <Rbt.Receptor>
prm/blind_docking_60.prm

>  <SCORE>
-11.2556

>  <SCORE.INTER>
-11.2556

>  <SCORE.INTER.CONST>
1

>  <SCORE.INTER.POLAR>
0

>  <SCORE.INTER.ROT>
0

>  <SCORE.INTER.SOLV>
20.6556

>  <SCORE.INTER.VDW>
-17.989

>  <SCORE.INTER.norm>
-1.02324

>  <SCORE.INTRA>
0

>  <SCORE.INTRA.DIHEDRAL>
0

>  <SCORE.INTRA.DIHEDRAL.0>
0

>  <SCORE.INTRA.POLAR>
0

>  <SCORE.INTRA.POLAR.0>
0

>  <SCORE.INTRA.REPUL>
0

>  <SCORE.INTRA.REPUL.0>
0

>  <SCORE.INTRA.SOLV>
0

>  <SCORE.INTRA.SOLV.lig_0>
-48.9558

>  <SCORE.INTRA.VDW>
0

>  <SCORE.INTRA.VDW.0>
0

>  <SCORE.INTRA.norm>
0

>  <SCORE.RESTR>
0

>  <SCORE.RESTR.CAVITY>
0

>  <SCORE.RESTR.norm>
0

>  <SCORE.SYSTEM>
0

>  <SCORE.SYSTEM.CONST>
0

>  <SCORE.SYSTEM.DIHEDRAL>
0

>  <SCORE.SYSTEM.SOLV>
0

>  <SCORE.SYSTEM.norm>
0

>  <SCORE.heavy>
11

>  <SCORE.norm>
-1.02324

>  <RMSD>
0.554

$$$$
ligand
 OpenBabel11021811493D
libRbt.so/2013.1/901 2013/11/27
 11 12  0  0  0  0  0  0  0  0999 V2000
   12.0382   11.6196    8.5769 N   0  0  0  0  0  0  0  0  0  0  0  0
   11.6094   12.8716    8.8042 C   0  0  0  0  0  0  0  0  0  0  0  0
   11.6419   13.3712   10.0953 N   0  0  0  0  0  0  0  0  0  0  0  0
   11.1508   13.6475    7.8085 N   0  0  0  0  0  0  0  0  0  0  0  0
   11.1063   13.1898    6.5356 C   0  0  0  0  0  0  0  0  0  0  0  0
   11.5496   11.8739    6.2491 C   0  0  0  0  0  0  0  0  0  0  0  0
   12.0274   11.0852    7.3377 C   0  0  0  0  0  0  0  0  0  0  0  0
   12.4754    9.7937    7.1352 N   0  0  0  0  0  0  0  0  0  0  0  0
   11.3931   11.6799    4.9163 N   0  0  0  0  0  0  0  0  0  0  0  0
   10.8977   12.7582    4.3778 C   0  0  0  0  0  0  0  0  0  0  0  0
   10.7044   13.7160    5.3349 N   0  0  0  0  0  0  0  0  0  0  0  0
  1  7  2  0  0  0  0
  1  2  1  0  0  0  0
  2  3  1  0  0  0  0
  2  4  2  0  0  0  0
  4  5  1  0  0  0  0
  5  6  2  0  0  0  0
  5 11  1  0  0  0  0
  6  7  1  0  0  0  0
  6  9  1  0  0  0  0
  7  8  1  0  0  0  0
  9 10  1  0  0  0  0
 10 11  2  0  0  0  0
M  END
>  <CHROM.1>
11.51343049,12.32593528,7.04016787,-1.14853684,1.18136489,-1.99801989

>  <Name>
ligand

>  <RI>
0

>  <Rbt.Current_Directory>
/home/itssahil/PROJECTS/Mol_Feturizer/New_Systems/rnas/4FEP

>  <Rbt.Executable>
rbdock ($Id: //depot/dev/client3/rdock/2013.1/src/exe/rbdock.cxx#4 $)

>  <Rbt.Library>
libRbt.so (2013.1, Build901 2013/11/27)

>  <Rbt.Parameter_File>
/export/apps/rDock/src/rDock_2013.1_src/data/scripts/dock_solv.prm

>  <Rbt.Receptor>
prm/pocket_docking_4.prm

>  <SCORE>
-11.2603

>  <SCORE.INTER>
-11.2603

>  <SCORE.INTER.CONST>
1

>  <SCORE.INTER.POLAR>
0

>  <SCORE.INTER.ROT>
0

>  <SCORE.INTER.SOLV>
20.6507

>  <SCORE.INTER.VDW>
-17.9904

>  <SCORE.INTER.norm>
-1.02366

>  <SCORE.INTRA>
0

>  <SCORE.INTRA.DIHEDRAL>
0

>  <SCORE.INTRA.DIHEDRAL.0>
0

>  <SCORE.INTRA.POLAR>
0

>  <SCORE.INTRA.POLAR.0>
0

>  <SCORE.INTRA.REPUL>
0

>  <SCORE.INTRA.REPUL.0>
0

>  <SCORE.INTRA.SOLV>
0

>  <SCORE.INTRA.SOLV.lig_0>
-48.9558

>  <SCORE.INTRA.VDW>
0

>  <SCORE.INTRA.VDW.0>
0

>  <SCORE.INTRA.norm>
0

>  <SCORE.RESTR>
0

>  <SCORE.RESTR.CAVITY>
0

>  <SCORE.RESTR.norm>
0

>  <SCORE.SYSTEM>
0

>  <SCORE.SYSTEM.CONST>
0

>  <SCORE.SYSTEM.DIHEDRAL>
0

>  <SCORE.SYSTEM.SOLV>
0

>  <SCORE.SYSTEM.norm>
0

>  <SCORE.heavy>
11

>  <SCORE.norm>
-1.02366

>  <RMSD>
0.554

$$$$
ligand
 OpenBabel11021811493D
libRbt.so/2013.1/901 2013/11/27
 11 12  0  0  0  0  0  0  0  0999 V2000
   12.0036   11.6045    8.5805 N   0  0  0  0  0  0  0  0  0  0  0  0
   11.6014   12.8661    8.8035 C   0  0  0  0  0  0  0  0  0  0  0  0
   11.6473   13.3702   10.0925 N   0  0  0  0  0  0  0  0  0  0  0  0
   11.1568   13.6473    7.8056 N   0  0  0  0  0  0  0  0  0  0  0  0
   11.0998   13.1853    6.5348 C   0  0  0  0  0  0  0  0  0  0  0  0
   11.5150   11.8593    6.2527 C   0  0  0  0  0  0  0  0  0  0  0  0
   11.9788   11.0653    7.3436 C   0  0  0  0  0  0  0  0  0  0  0  0
   12.3995    9.7640    7.1455 N   0  0  0  0  0  0  0  0  0  0  0  0
   11.3514   11.6630    4.9211 N   0  0  0  0  0  0  0  0  0  0  0  0
   10.8773   12.7492    4.3793 C   0  0  0  0  0  0  0  0  0  0  0  0
   10.7061   13.7148    5.3327 N   0  0  0  0  0  0  0  0  0  0  0  0
  1  7  2  0  0  0  0
  1  2  1  0  0  0  0
  2  3  1  0  0  0  0
  2  4  2  0  0  0  0
  4  5  1  0  0  0  0
  5  6  2  0  0  0  0
  5 11  1  0  0  0  0
  6  7  1  0  0  0  0
  6  9  1  0  0  0  0
  7  8  1  0  0  0  0
  9 10  1  0  0  0  0
 10 11  2  0  0  0  0
M  END
>  <CHROM.1>
11.49006977,12.31525668,7.04200363,-1.11902424,1.19917994,-2.02959005

>  <Name>
ligand

>  <RI>
0

>  <Rbt.Current_Directory>
/home/itssahil/PROJECTS/Mol_Feturizer/New_Systems/rnas/4FEP

>  <Rbt.Executable>
rbdock ($Id: //depot/dev/client3/rdock/2013.1/src/exe/rbdock.cxx#4 $)

>  <Rbt.Library>
libRbt.so (2013.1, Build901 2013/11/27)

>  <Rbt.Parameter_File>
/export/apps/rDock/src/rDock_2013.1_src/data/scripts/dock_solv.prm

>  <Rbt.Receptor>
prm/pocket_docking_6.prm

>  <SCORE>
-11.2476

>  <SCORE.INTER>
-11.2476

>  <SCORE.INTER.CONST>
1

>  <SCORE.INTER.POLAR>
0

>  <SCORE.INTER.ROT>
0

>  <SCORE.INTER.SOLV>
20.8641

>  <SCORE.INTER.VDW>
-18.0531

>  <SCORE.INTER.norm>
-1.02251

>  <SCORE.INTRA>
0

>  <SCORE.INTRA.DIHEDRAL>
0

>  <SCORE.INTRA.DIHEDRAL.0>
0

>  <SCORE.INTRA.POLAR>
0

>  <SCORE.INTRA.POLAR.0>
0

>  <SCORE.INTRA.REPUL>
0

>  <SCORE.INTRA.REPUL.0>
0

>  <SCORE.INTRA.SOLV>
0

>  <SCORE.INTRA.SOLV.lig_0>
-48.9558

>  <SCORE.INTRA.VDW>
0

>  <SCORE.INTRA.VDW.0>
0

>  <SCORE.INTRA.norm>
0

>  <SCORE.RESTR>
0

>  <SCORE.RESTR.CAVITY>
0

>  <SCORE.RESTR.norm>
0

>  <SCORE.SYSTEM>
0

>  <SCORE.SYSTEM.CONST>
0

>  <SCORE.SYSTEM.DIHEDRAL>
0

>  <SCORE.SYSTEM.SOLV>
0

>  <SCORE.SYSTEM.norm>
0

>  <SCORE.heavy>
11

>  <SCORE.norm>
-1.02251

>  <RMSD>
0.554

$$$$
ligand
 OpenBabel11021811493D
libRbt.so/2013.1/901 2013/11/27
 11 12  0  0  0  0  0  0  0  0999 V2000
   11.9783   11.6008    8.5832 N   0  0  0  0  0  0  0  0  0  0  0  0
   11.5737   12.8618    8.8047 C   0  0  0  0  0  0  0  0  0  0  0  0
   11.6090   13.3643   10.0946 N   0  0  0  0  0  0  0  0  0  0  0  0
   11.1366   13.6441    7.8044 N   0  0  0  0  0  0  0  0  0  0  0  0
   11.0900   13.1839    6.5324 C   0  0  0  0  0  0  0  0  0  0  0  0
   11.5082   11.8585    6.2519 C   0  0  0  0  0  0  0  0  0  0  0  0
   11.9637   11.0633    7.3454 C   0  0  0  0  0  0  0  0  0  0  0  0
   12.3867    9.7625    7.1489 N   0  0  0  0  0  0  0  0  0  0  0  0
   11.3554   11.6640    4.9188 N   0  0  0  0  0  0  0  0  0  0  0  0
   10.8850   12.7506    4.3747 C   0  0  0  0  0  0  0  0  0  0  0  0
   10.7056   13.7148    5.3280 N   0  0  0  0  0  0  0  0  0  0  0  0
  1  7  2  0  0  0  0
  1  2  1  0  0  0  0
  2  3  1  0  0  0  0
  2  4  2  0  0  0  0
  4  5  1  0  0  0  0
  5  6  2  0  0  0  0
  5 11  1  0  0  0  0
  6  7  1  0  0  0  0
  6  9  1  0  0  0  0
  7  8  1  0  0  0  0
  9 10  1  0  0  0  0
 10 11  2  0  0  0  0
M  END
>  <CHROM.1>
11.47672394,12.31337571,7.04159642,-1.13957562,1.20213514,-2.00906104

>  <Name>
ligand

>  <RI>
0

>  <Rbt.Current_Directory>
/home/itssahil/PROJECTS/Mol_Feturizer/New_Systems/rnas/4FEP

>  <Rbt.Executable>
rbdock ($Id: //depot/dev/client3/rdock/2013.1/src/exe/rbdock.cxx#4 $)

>  <Rbt.Library>
libRbt.so (2013.1, Build901 2013/11/27)

>  <Rbt.Parameter_File>
/export/apps/rDock/src/rDock_2013.1_src/data/scripts/dock_solv.prm

>  <Rbt.Receptor>
prm/pocket_docking_7.prm

>  <SCORE>
-11.2588

>  <SCORE.INTER>
-11.2588

>  <SCORE.INTER.CONST>
1

>  <SCORE.INTER.POLAR>
0

>  <SCORE.INTER.ROT>
0

>  <SCORE.INTER.SOLV>
20.8987

>  <SCORE.INTER.VDW>
-18.0721

>  <SCORE.INTER.norm>
-1.02352

>  <SCORE.INTRA>
0

>  <SCORE.INTRA.DIHEDRAL>
0

>  <SCORE.INTRA.DIHEDRAL.0>
0

>  <SCORE.INTRA.POLAR>
0

>  <SCORE.INTRA.POLAR.0>
0

>  <SCORE.INTRA.REPUL>
0

>  <SCORE.INTRA.REPUL.0>
0

>  <SCORE.INTRA.SOLV>
0

>  <SCORE.INTRA.SOLV.lig_0>
-48.9558

>  <SCORE.INTRA.VDW>
0

>  <SCORE.INTRA.VDW.0>
0

>  <SCORE.INTRA.norm>
0

>  <SCORE.RESTR>
0

>  <SCORE.RESTR.CAVITY>
0

>  <SCORE.RESTR.norm>
0

>  <SCORE.SYSTEM>
0

>  <SCORE.SYSTEM.CONST>
0

>  <SCORE.SYSTEM.DIHEDRAL>
0

>  <SCORE.SYSTEM.SOLV>
0

>  <SCORE.SYSTEM.norm>
0

>  <SCORE.heavy>
11

>  <SCORE.norm>
-1.02352

>  <RMSD>
0.554

$$$$
ligand
 OpenBabel11021811493D
libRbt.so/2013.1/901 2013/11/27
 11 12  0  0  0  0  0  0  0  0999 V2000
   11.9897   11.6012    8.5815 N   0  0  0  0  0  0  0  0  0  0  0  0
   11.5835   12.8615    8.8044 C   0  0  0  0  0  0  0  0  0  0  0  0
   11.6207   13.3634   10.0945 N   0  0  0  0  0  0  0  0  0  0  0  0
   11.1429   13.6435    7.8054 N   0  0  0  0  0  0  0  0  0  0  0  0
   11.0943   13.1838    6.5333 C   0  0  0  0  0  0  0  0  0  0  0  0
   11.5141   11.8592    6.2513 C   0  0  0  0  0  0  0  0  0  0  0  0
   11.9733   11.0643    7.3434 C   0  0  0  0  0  0  0  0  0  0  0  0
   12.3979    9.7642    7.1454 N   0  0  0  0  0  0  0  0  0  0  0  0
   11.3587   11.6650    4.9184 N   0  0  0  0  0  0  0  0  0  0  0  0
   10.8854   12.7512    4.3758 C   0  0  0  0  0  0  0  0  0  0  0  0
   10.7066   13.7146    5.3300 N   0  0  0  0  0  0  0  0  0  0  0  0
  1  7  2  0  0  0  0
  1  2  1  0  0  0  0
  2  3  1  0  0  0  0
  2  4  2  0  0  0  0
  4  5  1  0  0  0  0
  5  6  2  0  0  0  0
  5 11  1  0  0  0  0
  6  7  1  0  0  0  0
  6  9  1  0  0  0  0
  7  8  1  0  0  0  0
  9 10  1  0  0  0  0
 10 11  2  0  0  0  0
M  END
>  <CHROM.1>
11.48358354,12.31365229,7.04127320,-1.13613016,1.19974739,-2.01181583

>  <Name>
ligand

>  <RI>
0

>  <Rbt.Current_Directory>
/home/itssahil/PROJECTS/Mol_Feturizer/New_Systems/rnas/4FEP

>  <Rbt.Executable>
rbdock ($Id: //depot/dev/client3/rdock/2013.1/src/exe/rbdock.cxx#4 $)

>  <Rbt.Library>
libRbt.so (2013.1, Build901 2013/11/27)

>  <Rbt.Parameter_File>
/export/apps/rDock/src/rDock_2013.1_src/data/scripts/dock_solv.prm

>  <Rbt.Receptor>
prm/pocket_docking_8.prm

>  <SCORE>
-11.2575

>  <SCORE.INTER>
-11.2575

>  <SCORE.INTER.CONST>
1

>  <SCORE.INTER.POLAR>
0

>  <SCORE.INTER.ROT>
0

>  <SCORE.INTER.SOLV>
20.8627

>  <SCORE.INTER.VDW>
-18.0592

>  <SCORE.INTER.norm>
-1.02341

>  <SCORE.INTRA>
0

>  <SCORE.INTRA.DIHEDRAL>
0

>  <SCORE.INTRA.DIHEDRAL.0>
0

>  <SCORE.INTRA.POLAR>
0

>  <SCORE.INTRA.POLAR.0>
0

>  <SCORE.INTRA.REPUL>
0

>  <SCORE.INTRA.REPUL.0>
0

>  <SCORE.INTRA.SOLV>
0

>  <SCORE.INTRA.SOLV.lig_0>
-48.9558

>  <SCORE.INTRA.VDW>
0

>  <SCORE.INTRA.VDW.0>
0

>  <SCORE.INTRA.norm>
0

>  <SCORE.RESTR>
0

>  <SCORE.RESTR.CAVITY>
0

>  <SCORE.RESTR.norm>
0

>  <SCORE.SYSTEM>
0

>  <SCORE.SYSTEM.CONST>
0

>  <SCORE.SYSTEM.DIHEDRAL>
0

>  <SCORE.SYSTEM.SOLV>
0

>  <SCORE.SYSTEM.norm>
0

>  <SCORE.heavy>
11

>  <SCORE.norm>
-1.02341

>  <RMSD>
0.554

$$$$
ligand
 OpenBabel11021811493D
libRbt.so/2013.1/901 2013/11/27
 11 12  0  0  0  0  0  0  0  0999 V2000
   11.9733   11.6028    8.5844 N   0  0  0  0  0  0  0  0  0  0  0  0
   11.5713   12.8649    8.8042 C   0  0  0  0  0  0  0  0  0  0  0  0
   11.6079   13.3690   10.0935 N   0  0  0  0  0  0  0  0  0  0  0  0
   11.1357   13.6467    7.8029 N   0  0  0  0  0  0  0  0  0  0  0  0
   11.0879   13.1848    6.5316 C   0  0  0  0  0  0  0  0  0  0  0  0
   11.5033   11.8582    6.2528 C   0  0  0  0  0  0  0  0  0  0  0  0
   11.9574   11.0636    7.3473 C   0  0  0  0  0  0  0  0  0  0  0  0
   12.3776    9.7616    7.1525 N   0  0  0  0  0  0  0  0  0  0  0  0
   11.3498   11.6621    4.9200 N   0  0  0  0  0  0  0  0  0  0  0  0
   10.8816   12.7490    4.3744 C   0  0  0  0  0  0  0  0  0  0  0  0
   10.7045   13.7149    5.3265 N   0  0  0  0  0  0  0  0  0  0  0  0
  1  7  2  0  0  0  0
  1  2  1  0  0  0  0
  2  3  1  0  0  0  0
  2  4  2  0  0  0  0
  4  5  1  0  0  0  0
  5  6  2  0  0  0  0
  5 11  1  0  0  0  0
  6  7  1  0  0  0  0
  6  9  1  0  0  0  0
  7  8  1  0  0  0  0
  9 10  1  0  0  0  0
 10 11  2  0  0  0  0
M  END
>  <CHROM.1>
11.47291666,12.31421593,7.04188899,-1.13668678,1.20394028,-2.01313948

>  <Name>
ligand

>  <RI>
0

>  <Rbt.Current_Directory>
/home/itssahil/PROJECTS/Mol_Feturizer/New_Systems/rnas/4FEP

>  <Rbt.Executable>
rbdock ($Id: //depot/dev/client3/rdock/2013.1/src/exe/rbdock.cxx#4 $)

>  <Rbt.Library>
libRbt.so (2013.1, Build901 2013/11/27)

>  <Rbt.Parameter_File>
/export/apps/rDock/src/rDock_2013.1_src/data/scripts/dock_solv.prm

>  <Rbt.Receptor>
prm/blind_docking_80.prm

>  <SCORE>
-11.2564

>  <SCORE.INTER>
-11.2564

>  <SCORE.INTER.CONST>
1

>  <SCORE.INTER.POLAR>
0

>  <SCORE.INTER.ROT>
0

>  <SCORE.INTER.SOLV>
20.9323

>  <SCORE.INTER.VDW>
-18.0817

>  <SCORE.INTER.norm>
-1.02331

>  <SCORE.INTRA>
0

>  <SCORE.INTRA.DIHEDRAL>
0

>  <SCORE.INTRA.DIHEDRAL.0>
0

>  <SCORE.INTRA.POLAR>
0

>  <SCORE.INTRA.POLAR.0>
0

>  <SCORE.INTRA.REPUL>
0

>  <SCORE.INTRA.REPUL.0>
0

>  <SCORE.INTRA.SOLV>
0

>  <SCORE.INTRA.SOLV.lig_0>
-48.9558

>  <SCORE.INTRA.VDW>
0

>  <SCORE.INTRA.VDW.0>
0

>  <SCORE.INTRA.norm>
0

>  <SCORE.RESTR>
0

>  <SCORE.RESTR.CAVITY>
0

>  <SCORE.RESTR.norm>
0

>  <SCORE.SYSTEM>
0

>  <SCORE.SYSTEM.CONST>
0

>  <SCORE.SYSTEM.DIHEDRAL>
0

>  <SCORE.SYSTEM.SOLV>
0

>  <SCORE.SYSTEM.norm>
0

>  <SCORE.heavy>
11

>  <SCORE.norm>
-1.02331

>  <RMSD>
0.555

$$$$
ligand
 OpenBabel11021811493D
libRbt.so/2013.1/901 2013/11/27
 11 12  0  0  0  0  0  0  0  0999 V2000
   12.0020   11.6068    8.5789 N   0  0  0  0  0  0  0  0  0  0  0  0
   11.5944   12.8666    8.8017 C   0  0  0  0  0  0  0  0  0  0  0  0
   11.6348   13.3700   10.0911 N   0  0  0  0  0  0  0  0  0  0  0  0
   11.1495   13.6468    7.8032 N   0  0  0  0  0  0  0  0  0  0  0  0
   11.0977   13.1856    6.5318 C   0  0  0  0  0  0  0  0  0  0  0  0
   11.5188   11.8614    6.2499 C   0  0  0  0  0  0  0  0  0  0  0  0
   11.9826   11.0685    7.3414 C   0  0  0  0  0  0  0  0  0  0  0  0
   12.4088    9.7689    7.1436 N   0  0  0  0  0  0  0  0  0  0  0  0
   11.3596   11.6656    4.9177 N   0  0  0  0  0  0  0  0  0  0  0  0
   10.8828   12.7503    4.3754 C   0  0  0  0  0  0  0  0  0  0  0  0
   10.7053   13.7145    5.3291 N   0  0  0  0  0  0  0  0  0  0  0  0
  1  7  2  0  0  0  0
  1  2  1  0  0  0  0
  2  3  1  0  0  0  0
  2  4  2  0  0  0  0
  4  5  1  0  0  0  0
  5  6  2  0  0  0  0
  5 11  1  0  0  0  0
  6  7  1  0  0  0  0
  6  9  1  0  0  0  0
  7  8  1  0  0  0  0
  9 10  1  0  0  0  0
 10 11  2  0  0  0  0
M  END
>  <CHROM.1>
11.48994413,12.31671136,7.03946609,-1.13037553,1.19692325,-2.01826580

>  <Name>
ligand

>  <RI>
0

>  <Rbt.Current_Directory>
/home/itssahil/PROJECTS/Mol_Feturizer/New_Systems/rnas/4FEP

>  <Rbt.Executable>
rbdock ($Id: //depot/dev/client3/rdock/2013.1/src/exe/rbdock.cxx#4 $)

>  <Rbt.Library>
libRbt.so (2013.1, Build901 2013/11/27)

>  <Rbt.Parameter_File>
/export/apps/rDock/src/rDock_2013.1_src/data/scripts/dock_solv.prm

>  <Rbt.Receptor>
prm/blind_docking_40.prm

>  <SCORE>
-11.25

>  <SCORE.INTER>
-11.25

>  <SCORE.INTER.CONST>
1

>  <SCORE.INTER.POLAR>
0

>  <SCORE.INTER.ROT>
0

>  <SCORE.INTER.SOLV>
20.8363

>  <SCORE.INTER.VDW>
-18.0454

>  <SCORE.INTER.norm>
-1.02273

>  <SCORE.INTRA>
0

>  <SCORE.INTRA.DIHEDRAL>
0

>  <SCORE.INTRA.DIHEDRAL.0>
0

>  <SCORE.INTRA.POLAR>
0

>  <SCORE.INTRA.POLAR.0>
0

>  <SCORE.INTRA.REPUL>
0

>  <SCORE.INTRA.REPUL.0>
0

>  <SCORE.INTRA.SOLV>
0

>  <SCORE.INTRA.SOLV.lig_0>
-48.9558

>  <SCORE.INTRA.VDW>
0

>  <SCORE.INTRA.VDW.0>
0

>  <SCORE.INTRA.norm>
0

>  <SCORE.RESTR>
0

>  <SCORE.RESTR.CAVITY>
0

>  <SCORE.RESTR.norm>
0

>  <SCORE.SYSTEM>
0

>  <SCORE.SYSTEM.CONST>
0

>  <SCORE.SYSTEM.DIHEDRAL>
0

>  <SCORE.SYSTEM.SOLV>
0

>  <SCORE.SYSTEM.norm>
0

>  <SCORE.heavy>
11

>  <SCORE.norm>
-1.02273

>  <RMSD>
0.556

$$$$
ligand
 OpenBabel11021811493D
libRbt.so/2013.1/901 2013/11/27
 11 12  0  0  0  0  0  0  0  0999 V2000
   12.0034   11.6067    8.5789 N   0  0  0  0  0  0  0  0  0  0  0  0
   11.6000   12.8680    8.8010 C   0  0  0  0  0  0  0  0  0  0  0  0
   11.6444   13.3728   10.0897 N   0  0  0  0  0  0  0  0  0  0  0  0
   11.1554   13.6483    7.8024 N   0  0  0  0  0  0  0  0  0  0  0  0
   11.0997   13.1857    6.5317 C   0  0  0  0  0  0  0  0  0  0  0  0
   11.5163   11.8600    6.2506 C   0  0  0  0  0  0  0  0  0  0  0  0
   11.9800   11.0669    7.3422 C   0  0  0  0  0  0  0  0  0  0  0  0
   12.4020    9.7659    7.1450 N   0  0  0  0  0  0  0  0  0  0  0  0
   11.3539   11.6629    4.9190 N   0  0  0  0  0  0  0  0  0  0  0  0
   10.8792   12.7484    4.3763 C   0  0  0  0  0  0  0  0  0  0  0  0
   10.7065   13.7143    5.3291 N   0  0  0  0  0  0  0  0  0  0  0  0
  1  7  2  0  0  0  0
  1  2  1  0  0  0  0
  2  3  1  0  0  0  0
  2  4  2  0  0  0  0
  4  5  1  0  0  0  0
  5  6  2  0  0  0  0
  5 11  1  0  0  0  0
  6  7  1  0  0  0  0
  6  9  1  0  0  0  0
  7  8  1  0  0  0  0
  9 10  1  0  0  0  0
 10 11  2  0  0  0  0
M  END
>  <CHROM.1>
11.49040443,12.31626622,7.03965222,-1.12189679,1.19870323,-2.02737951

>  <Name>
ligand

>  <RI>
0

>  <Rbt.Current_Directory>
/home/itssahil/PROJECTS/Mol_Feturizer/New_Systems/rnas/4FEP

>  <Rbt.Executable>
rbdock ($Id: //depot/dev/client3/rdock/2013.1/src/exe/rbdock.cxx#4 $)

>  <Rbt.Library>
libRbt.so (2013.1, Build901 2013/11/27)

>  <Rbt.Parameter_File>
/export/apps/rDock/src/rDock_2013.1_src/data/scripts/dock_solv.prm

>  <Rbt.Receptor>
prm/pocket_docking_3.prm

>  <SCORE>
-11.2472

>  <SCORE.INTER>
-11.2472

>  <SCORE.INTER.CONST>
1

>  <SCORE.INTER.POLAR>
0

>  <SCORE.INTER.ROT>
0

>  <SCORE.INTER.SOLV>
20.8615

>  <SCORE.INTER.VDW>
-18.052

>  <SCORE.INTER.norm>
-1.02247

>  <SCORE.INTRA>
0

>  <SCORE.INTRA.DIHEDRAL>
0

>  <SCORE.INTRA.DIHEDRAL.0>
0

>  <SCORE.INTRA.POLAR>
0

>  <SCORE.INTRA.POLAR.0>
0

>  <SCORE.INTRA.REPUL>
0

>  <SCORE.INTRA.REPUL.0>
0

>  <SCORE.INTRA.SOLV>
0

>  <SCORE.INTRA.SOLV.lig_0>
-48.9558

>  <SCORE.INTRA.VDW>
0

>  <SCORE.INTRA.VDW.0>
0

>  <SCORE.INTRA.norm>
0

>  <SCORE.RESTR>
0

>  <SCORE.RESTR.CAVITY>
0

>  <SCORE.RESTR.norm>
0

>  <SCORE.SYSTEM>
0

>  <SCORE.SYSTEM.CONST>
0

>  <SCORE.SYSTEM.DIHEDRAL>
0

>  <SCORE.SYSTEM.SOLV>
0

>  <SCORE.SYSTEM.norm>
0

>  <SCORE.heavy>
11

>  <SCORE.norm>
-1.02247

>  <RMSD>
0.556

$$$$
ligand
 OpenBabel11021811493D
libRbt.so/2013.1/901 2013/11/27
 11 12  0  0  0  0  0  0  0  0999 V2000
   12.0204   11.6201    8.5774 N   0  0  0  0  0  0  0  0  0  0  0  0
   11.5919   12.8727    8.8017 C   0  0  0  0  0  0  0  0  0  0  0  0
   11.6187   13.3732   10.0926 N   0  0  0  0  0  0  0  0  0  0  0  0
   11.1390   13.6484    7.8033 N   0  0  0  0  0  0  0  0  0  0  0  0
   11.1001   13.1899    6.5305 C   0  0  0  0  0  0  0  0  0  0  0  0
   11.5434   11.8733    6.2470 C   0  0  0  0  0  0  0  0  0  0  0  0
   12.0150   11.0848    7.3385 C   0  0  0  0  0  0  0  0  0  0  0  0
   12.4626    9.7927    7.1391 N   0  0  0  0  0  0  0  0  0  0  0  0
   11.3931   11.6785    4.9136 N   0  0  0  0  0  0  0  0  0  0  0  0
   10.9015   12.7570    4.3720 C   0  0  0  0  0  0  0  0  0  0  0  0
   10.7046   13.7157    5.3275 N   0  0  0  0  0  0  0  0  0  0  0  0
  1  7  2  0  0  0  0
  1  2  1  0  0  0  0
  2  3  1  0  0  0  0
  2  4  2  0  0  0  0
  4  5  1  0  0  0  0
  5  6  2  0  0  0  0
  5 11  1  0  0  0  0
  6  7  1  0  0  0  0
  6  9  1  0  0  0  0
  7  8  1  0  0  0  0
  9 10  1  0  0  0  0
 10 11  2  0  0  0  0
M  END
>  <CHROM.1>
11.50389292,12.32592209,7.03761716,-1.15900250,1.18436189,-1.98903729

>  <Name>
ligand

>  <RI>
0

>  <Rbt.Current_Directory>
/home/itssahil/PROJECTS/Mol_Feturizer/New_Systems/rnas/4FEP

>  <Rbt.Executable>
rbdock ($Id: //depot/dev/client3/rdock/2013.1/src/exe/rbdock.cxx#4 $)

>  <Rbt.Library>
libRbt.so (2013.1, Build901 2013/11/27)

>  <Rbt.Parameter_File>
/export/apps/rDock/src/rDock_2013.1_src/data/scripts/dock_solv.prm

>  <Rbt.Receptor>
prm/pocket_docking_5.prm

>  <SCORE>
-11.232

>  <SCORE.INTER>
-11.232

>  <SCORE.INTER.CONST>
1

>  <SCORE.INTER.POLAR>
0

>  <SCORE.INTER.ROT>
0

>  <SCORE.INTER.SOLV>
20.6883

>  <SCORE.INTER.VDW>
-17.9841

>  <SCORE.INTER.norm>
-1.02109

>  <SCORE.INTRA>
0

>  <SCORE.INTRA.DIHEDRAL>
0

>  <SCORE.INTRA.DIHEDRAL.0>
0

>  <SCORE.INTRA.POLAR>
0

>  <SCORE.INTRA.POLAR.0>
0

>  <SCORE.INTRA.REPUL>
0

>  <SCORE.INTRA.REPUL.0>
0

>  <SCORE.INTRA.SOLV>
0

>  <SCORE.INTRA.SOLV.lig_0>
-48.9558

>  <SCORE.INTRA.VDW>
0

>  <SCORE.INTRA.VDW.0>
0

>  <SCORE.INTRA.norm>
0

>  <SCORE.RESTR>
0

>  <SCORE.RESTR.CAVITY>
0

>  <SCORE.RESTR.norm>
0

>  <SCORE.SYSTEM>
0

>  <SCORE.SYSTEM.CONST>
0

>  <SCORE.SYSTEM.DIHEDRAL>
0

>  <SCORE.SYSTEM.SOLV>
0

>  <SCORE.SYSTEM.norm>
0

>  <SCORE.heavy>
11

>  <SCORE.norm>
-1.02109

>  <RMSD>
0.556

$$$$
ligand
 OpenBabel11021811493D
libRbt.so/2013.1/901 2013/11/27
 11 12  0  0  0  0  0  0  0  0999 V2000
   12.0589   11.6397    8.5766 N   0  0  0  0  0  0  0  0  0  0  0  0
   11.6022   12.8815    8.8052 C   0  0  0  0  0  0  0  0  0  0  0  0
   11.6148   13.3769   10.0983 N   0  0  0  0  0  0  0  0  0  0  0  0
   11.1345   13.6512    7.8090 N   0  0  0  0  0  0  0  0  0  0  0  0
   11.1087   13.1973    6.5342 C   0  0  0  0  0  0  0  0  0  0  0  0
   11.5817   11.8921    6.2462 C   0  0  0  0  0  0  0  0  0  0  0  0
   12.0682   11.1097    7.3355 C   0  0  0  0  0  0  0  0  0  0  0  0
   12.5449    9.8286    7.1317 N   0  0  0  0  0  0  0  0  0  0  0  0
   11.4389   11.6997    4.9116 N   0  0  0  0  0  0  0  0  0  0  0  0
   10.9247   12.7693    4.3734 C   0  0  0  0  0  0  0  0  0  0  0  0
   10.7044   13.7193    5.3324 N   0  0  0  0  0  0  0  0  0  0  0  0
  1  7  2  0  0  0  0
  1  2  1  0  0  0  0
  2  3  1  0  0  0  0
  2  4  2  0  0  0  0
  4  5  1  0  0  0  0
  5  6  2  0  0  0  0
  5 11  1  0  0  0  0
  6  7  1  0  0  0  0
  6  9  1  0  0  0  0
  7  8  1  0  0  0  0
  9 10  1  0  0  0  0
 10 11  2  0  0  0  0
M  END
>  <CHROM.1>
11.53036819,12.34037691,7.03860914,-1.18718207,1.16486218,-1.95880988

>  <Name>
ligand

>  <RI>
0

>  <Rbt.Current_Directory>
/home/itssahil/PROJECTS/Mol_Feturizer/New_Systems/rnas/4FEP

>  <Rbt.Executable>
rbdock ($Id: //depot/dev/client3/rdock/2013.1/src/exe/rbdock.cxx#4 $)

>  <Rbt.Library>
libRbt.so (2013.1, Build901 2013/11/27)

>  <Rbt.Parameter_File>
/export/apps/rDock/src/rDock_2013.1_src/data/scripts/dock_solv.prm

>  <Rbt.Receptor>
prm/blind_docking_60.prm

>  <SCORE>
-11.2045

>  <SCORE.INTER>
-11.2045

>  <SCORE.INTER.CONST>
1

>  <SCORE.INTER.POLAR>
0

>  <SCORE.INTER.ROT>
0

>  <SCORE.INTER.SOLV>
20.465

>  <SCORE.INTER.VDW>
-17.8913

>  <SCORE.INTER.norm>
-1.01859

>  <SCORE.INTRA>
0

>  <SCORE.INTRA.DIHEDRAL>
0

>  <SCORE.INTRA.DIHEDRAL.0>
0

>  <SCORE.INTRA.POLAR>
0

>  <SCORE.INTRA.POLAR.0>
0

>  <SCORE.INTRA.REPUL>
0

>  <SCORE.INTRA.REPUL.0>
0

>  <SCORE.INTRA.SOLV>
0

>  <SCORE.INTRA.SOLV.lig_0>
-48.9558

>  <SCORE.INTRA.VDW>
0

>  <SCORE.INTRA.VDW.0>
0

>  <SCORE.INTRA.norm>
0

>  <SCORE.RESTR>
0

>  <SCORE.RESTR.CAVITY>
0

>  <SCORE.RESTR.norm>
0

>  <SCORE.SYSTEM>
0

>  <SCORE.SYSTEM.CONST>
0

>  <SCORE.SYSTEM.DIHEDRAL>
0

>  <SCORE.SYSTEM.SOLV>
0

>  <SCORE.SYSTEM.norm>
0

>  <SCORE.heavy>
11

>  <SCORE.norm>
-1.01859

>  <RMSD>
0.557

$$$$
ligand
 OpenBabel11021811493D
libRbt.so/2013.1/901 2013/11/27
 11 12  0  0  0  0  0  0  0  0999 V2000
   12.0029   11.6077    8.5773 N   0  0  0  0  0  0  0  0  0  0  0  0
   11.5913   12.8662    8.8003 C   0  0  0  0  0  0  0  0  0  0  0  0
   11.6286   13.3690   10.0900 N   0  0  0  0  0  0  0  0  0  0  0  0
   11.1454   13.6457    7.8016 N   0  0  0  0  0  0  0  0  0  0  0  0
   11.0965   13.1850    6.5300 C   0  0  0  0  0  0  0  0  0  0  0  0
   11.5219   11.8623    6.2478 C   0  0  0  0  0  0  0  0  0  0  0  0
   11.9867   11.0700    7.3395 C   0  0  0  0  0  0  0  0  0  0  0  0
   12.4169    9.7718    7.1415 N   0  0  0  0  0  0  0  0  0  0  0  0
   11.3649   11.6667    4.9153 N   0  0  0  0  0  0  0  0  0  0  0  0
   10.8856   12.7503    4.3730 C   0  0  0  0  0  0  0  0  0  0  0  0
   10.7041   13.7135    5.3270 N   0  0  0  0  0  0  0  0  0  0  0  0
  1  7  2  0  0  0  0
  1  2  1  0  0  0  0
  2  3  1  0  0  0  0
  2  4  2  0  0  0  0
  4  5  1  0  0  0  0
  5  6  2  0  0  0  0
  5 11  1  0  0  0  0
  6  7  1  0  0  0  0
  6  9  1  0  0  0  0
  7  8  1  0  0  0  0
  9 10  1  0  0  0  0
 10 11  2  0  0  0  0
M  END
>  <CHROM.1>
11.49069700,12.31700767,7.03762087,-1.13693505,1.19482036,-2.01160127

>  <Name>
ligand

>  <RI>
0

>  <Rbt.Current_Directory>
/home/itssahil/PROJECTS/Mol_Feturizer/New_Systems/rnas/4FEP

>  <Rbt.Executable>
rbdock ($Id: //depot/dev/client3/rdock/2013.1/src/exe/rbdock.cxx#4 $)

>  <Rbt.Library>
libRbt.so (2013.1, Build901 2013/11/27)

>  <Rbt.Parameter_File>
/export/apps/rDock/src/rDock_2013.1_src/data/scripts/dock_solv.prm

>  <Rbt.Receptor>
prm/pocket_docking_4.prm

>  <SCORE>
-11.2505

>  <SCORE.INTER>
-11.2505

>  <SCORE.INTER.CONST>
1

>  <SCORE.INTER.POLAR>
0

>  <SCORE.INTER.ROT>
0

>  <SCORE.INTER.SOLV>
20.8099

>  <SCORE.INTER.VDW>
-18.0369

>  <SCORE.INTER.norm>
-1.02277

>  <SCORE.INTRA>
0

>  <SCORE.INTRA.DIHEDRAL>
0

>  <SCORE.INTRA.DIHEDRAL.0>
0

>  <SCORE.INTRA.POLAR>
0

>  <SCORE.INTRA.POLAR.0>
0

>  <SCORE.INTRA.REPUL>
0

>  <SCORE.INTRA.REPUL.0>
0

>  <SCORE.INTRA.SOLV>
0

>  <SCORE.INTRA.SOLV.lig_0>
-48.9558

>  <SCORE.INTRA.VDW>
0

>  <SCORE.INTRA.VDW.0>
0

>  <SCORE.INTRA.norm>
0

>  <SCORE.RESTR>
0

>  <SCORE.RESTR.CAVITY>
0

>  <SCORE.RESTR.norm>
0

>  <SCORE.SYSTEM>
0

>  <SCORE.SYSTEM.CONST>
0

>  <SCORE.SYSTEM.DIHEDRAL>
0

>  <SCORE.SYSTEM.SOLV>
0

>  <SCORE.SYSTEM.norm>
0

>  <SCORE.heavy>
11

>  <SCORE.norm>
-1.02277

>  <RMSD>
0.557

$$$$
ligand
 OpenBabel11021811493D
libRbt.so/2013.1/901 2013/11/27
 11 12  0  0  0  0  0  0  0  0999 V2000
   12.0004   11.6158    8.5801 N   0  0  0  0  0  0  0  0  0  0  0  0
   11.5878   12.8732    8.8076 C   0  0  0  0  0  0  0  0  0  0  0  0
   11.6199   13.3697   10.0999 N   0  0  0  0  0  0  0  0  0  0  0  0
   11.1456   13.6574    7.8109 N   0  0  0  0  0  0  0  0  0  0  0  0
   11.1019   13.2028    6.5369 C   0  0  0  0  0  0  0  0  0  0  0  0
   11.5285   11.8815    6.2501 C   0  0  0  0  0  0  0  0  0  0  0  0
   11.9892   11.0841    7.3397 C   0  0  0  0  0  0  0  0  0  0  0  0
   12.4204    9.7869    7.1371 N   0  0  0  0  0  0  0  0  0  0  0  0
   11.3768   11.6922    4.9160 N   0  0  0  0  0  0  0  0  0  0  0  0
   10.8995   12.7784    4.3771 C   0  0  0  0  0  0  0  0  0  0  0  0
   10.7141   13.7370    5.3350 N   0  0  0  0  0  0  0  0  0  0  0  0
  1  7  2  0  0  0  0
  1  2  1  0  0  0  0
  2  3  1  0  0  0  0
  2  4  2  0  0  0  0
  4  5  1  0  0  0  0
  5  6  2  0  0  0  0
  5 11  1  0  0  0  0
  6  7  1  0  0  0  0
  6  9  1  0  0  0  0
  7  8  1  0  0  0  0
  9 10  1  0  0  0  0
 10 11  2  0  0  0  0
M  END
>  <CHROM.1>
11.49417965,12.33240410,7.04189525,-1.14681962,1.19632193,-1.99760215

>  <Name>
ligand

>  <RI>
0

>  <Rbt.Current_Directory>
/home/itssahil/PROJECTS/Mol_Feturizer/New_Systems/rnas/4FEP

>  <Rbt.Executable>
rbdock ($Id: //depot/dev/client3/rdock/2013.1/src/exe/rbdock.cxx#4 $)

>  <Rbt.Library>
libRbt.so (2013.1, Build901 2013/11/27)

>  <Rbt.Parameter_File>
/export/apps/rDock/src/rDock_2013.1_src/data/scripts/dock_solv.prm

>  <Rbt.Receptor>
prm/pocket_docking_4.prm

>  <SCORE>
-11.232

>  <SCORE.INTER>
-11.232

>  <SCORE.INTER.CONST>
1

>  <SCORE.INTER.POLAR>
0

>  <SCORE.INTER.ROT>
0

>  <SCORE.INTER.SOLV>
20.8119

>  <SCORE.INTER.VDW>
-18.0253

>  <SCORE.INTER.norm>
-1.02109

>  <SCORE.INTRA>
0

>  <SCORE.INTRA.DIHEDRAL>
0

>  <SCORE.INTRA.DIHEDRAL.0>
0

>  <SCORE.INTRA.POLAR>
0

>  <SCORE.INTRA.POLAR.0>
0

>  <SCORE.INTRA.REPUL>
0

>  <SCORE.INTRA.REPUL.0>
0

>  <SCORE.INTRA.SOLV>
0

>  <SCORE.INTRA.SOLV.lig_0>
-48.9558

>  <SCORE.INTRA.VDW>
0

>  <SCORE.INTRA.VDW.0>
0

>  <SCORE.INTRA.norm>
0

>  <SCORE.RESTR>
0

>  <SCORE.RESTR.CAVITY>
0

>  <SCORE.RESTR.norm>
0

>  <SCORE.SYSTEM>
0

>  <SCORE.SYSTEM.CONST>
0

>  <SCORE.SYSTEM.DIHEDRAL>
0

>  <SCORE.SYSTEM.SOLV>
0

>  <SCORE.SYSTEM.norm>
0

>  <SCORE.heavy>
11

>  <SCORE.norm>
-1.02109

>  <RMSD>
0.557

$$$$
ligand
 OpenBabel11021811493D
libRbt.so/2013.1/901 2013/11/27
 11 12  0  0  0  0  0  0  0  0999 V2000
   11.9985   11.5461    8.5735 N   0  0  0  0  0  0  0  0  0  0  0  0
   11.6265   12.8144    8.8105 C   0  0  0  0  0  0  0  0  0  0  0  0
   11.6757   13.3003   10.1063 N   0  0  0  0  0  0  0  0  0  0  0  0
   11.2089   13.6195    7.8200 N   0  0  0  0  0  0  0  0  0  0  0  0
   11.1495   13.1759    6.5428 C   0  0  0  0  0  0  0  0  0  0  0  0
   11.5333   11.8436    6.2460 C   0  0  0  0  0  0  0  0  0  0  0  0
   11.9691   11.0240    7.3294 C   0  0  0  0  0  0  0  0  0  0  0  0
   12.3583    9.7152    7.1170 N   0  0  0  0  0  0  0  0  0  0  0  0
   11.3744   11.6690    4.9108 N   0  0  0  0  0  0  0  0  0  0  0  0
   10.9317   12.7738    4.3802 C   0  0  0  0  0  0  0  0  0  0  0  0
   10.7780   13.7309    5.3452 N   0  0  0  0  0  0  0  0  0  0  0  0
  1  7  2  0  0  0  0
  1  2  1  0  0  0  0
  2  3  1  0  0  0  0
  2  4  2  0  0  0  0
  4  5  1  0  0  0  0
  5  6  2  0  0  0  0
  5 11  1  0  0  0  0
  6  7  1  0  0  0  0
  6  9  1  0  0  0  0
  7  8  1  0  0  0  0
  9 10  1  0  0  0  0
 10 11  2  0  0  0  0
M  END
>  <CHROM.1>
11.51411375,12.28969527,7.04108878,-1.10531788,1.22488095,-2.02921859

>  <Name>
ligand

>  <RI>
0

>  <Rbt.Current_Directory>
/home/itssahil/PROJECTS/Mol_Feturizer/New_Systems/rnas/4FEP

>  <Rbt.Executable>
rbdock ($Id: //depot/dev/client3/rdock/2013.1/src/exe/rbdock.cxx#4 $)

>  <Rbt.Library>
libRbt.so (2013.1, Build901 2013/11/27)

>  <Rbt.Parameter_File>
/export/apps/rDock/src/rDock_2013.1_src/data/scripts/dock_solv.prm

>  <Rbt.Receptor>
prm/pocket_docking_7.prm

>  <SCORE>
-11.2123

>  <SCORE.INTER>
-11.2123

>  <SCORE.INTER.CONST>
1

>  <SCORE.INTER.POLAR>
0

>  <SCORE.INTER.ROT>
0

>  <SCORE.INTER.SOLV>
20.9423

>  <SCORE.INTER.VDW>
-18.0557

>  <SCORE.INTER.norm>
-1.0193

>  <SCORE.INTRA>
0

>  <SCORE.INTRA.DIHEDRAL>
0

>  <SCORE.INTRA.DIHEDRAL.0>
0

>  <SCORE.INTRA.POLAR>
0

>  <SCORE.INTRA.POLAR.0>
0

>  <SCORE.INTRA.REPUL>
0

>  <SCORE.INTRA.REPUL.0>
0

>  <SCORE.INTRA.SOLV>
0

>  <SCORE.INTRA.SOLV.lig_0>
-48.9558

>  <SCORE.INTRA.VDW>
0

>  <SCORE.INTRA.VDW.0>
0

>  <SCORE.INTRA.norm>
0

>  <SCORE.RESTR>
0

>  <SCORE.RESTR.CAVITY>
0

>  <SCORE.RESTR.norm>
0

>  <SCORE.SYSTEM>
0

>  <SCORE.SYSTEM.CONST>
0

>  <SCORE.SYSTEM.DIHEDRAL>
0

>  <SCORE.SYSTEM.SOLV>
0

>  <SCORE.SYSTEM.norm>
0

>  <SCORE.heavy>
11

>  <SCORE.norm>
-1.0193

>  <RMSD>
0.557

$$$$
ligand
 OpenBabel11021811493D
libRbt.so/2013.1/901 2013/11/27
 11 12  0  0  0  0  0  0  0  0999 V2000
   11.9611   11.6119    8.5924 N   0  0  0  0  0  0  0  0  0  0  0  0
   11.5637   12.8762    8.8084 C   0  0  0  0  0  0  0  0  0  0  0  0
   11.5854   13.3784   10.0987 N   0  0  0  0  0  0  0  0  0  0  0  0
   11.1466   13.6618    7.8022 N   0  0  0  0  0  0  0  0  0  0  0  0
   11.1136   13.2018    6.5297 C   0  0  0  0  0  0  0  0  0  0  0  0
   11.5249   11.8731    6.2549 C   0  0  0  0  0  0  0  0  0  0  0  0
   11.9591   11.0744    7.3545 C   0  0  0  0  0  0  0  0  0  0  0  0
   12.3742    9.7702    7.1638 N   0  0  0  0  0  0  0  0  0  0  0  0
   11.3886   11.6797    4.9198 N   0  0  0  0  0  0  0  0  0  0  0  0
   10.9345   12.7700    4.3694 C   0  0  0  0  0  0  0  0  0  0  0  0
   10.7499   13.7357    5.3202 N   0  0  0  0  0  0  0  0  0  0  0  0
  1  7  2  0  0  0  0
  1  2  1  0  0  0  0
  2  3  1  0  0  0  0
  2  4  2  0  0  0  0
  4  5  1  0  0  0  0
  5  6  2  0  0  0  0
  5 11  1  0  0  0  0
  6  7  1  0  0  0  0
  6  9  1  0  0  0  0
  7  8  1  0  0  0  0
  9 10  1  0  0  0  0
 10 11  2  0  0  0  0
M  END
>  <CHROM.1>
11.48631475,12.32831090,7.04411191,-1.16517633,1.21509178,-1.98516892

>  <Name>
ligand

>  <RI>
0

>  <Rbt.Current_Directory>
/home/itssahil/PROJECTS/Mol_Feturizer/New_Systems/rnas/4FEP

>  <Rbt.Executable>
rbdock ($Id: //depot/dev/client3/rdock/2013.1/src/exe/rbdock.cxx#4 $)

>  <Rbt.Library>
libRbt.so (2013.1, Build901 2013/11/27)

>  <Rbt.Parameter_File>
/export/apps/rDock/src/rDock_2013.1_src/data/scripts/dock_solv.prm

>  <Rbt.Receptor>
prm/blind_docking_40.prm

>  <SCORE>
-11.2364

>  <SCORE.INTER>
-11.2364

>  <SCORE.INTER.CONST>
1

>  <SCORE.INTER.POLAR>
0

>  <SCORE.INTER.ROT>
0

>  <SCORE.INTER.SOLV>
20.9838

>  <SCORE.INTER.VDW>
-18.0855

>  <SCORE.INTER.norm>
-1.02149

>  <SCORE.INTRA>
0

>  <SCORE.INTRA.DIHEDRAL>
0

>  <SCORE.INTRA.DIHEDRAL.0>
0

>  <SCORE.INTRA.POLAR>
0

>  <SCORE.INTRA.POLAR.0>
0

>  <SCORE.INTRA.REPUL>
0

>  <SCORE.INTRA.REPUL.0>
0

>  <SCORE.INTRA.SOLV>
0

>  <SCORE.INTRA.SOLV.lig_0>
-48.9558

>  <SCORE.INTRA.VDW>
0

>  <SCORE.INTRA.VDW.0>
0

>  <SCORE.INTRA.norm>
0

>  <SCORE.RESTR>
0

>  <SCORE.RESTR.CAVITY>
0

>  <SCORE.RESTR.norm>
0

>  <SCORE.SYSTEM>
0

>  <SCORE.SYSTEM.CONST>
0

>  <SCORE.SYSTEM.DIHEDRAL>
0

>  <SCORE.SYSTEM.SOLV>
0

>  <SCORE.SYSTEM.norm>
0

>  <SCORE.heavy>
11

>  <SCORE.norm>
-1.02149

>  <RMSD>
0.558

$$$$
ligand
 OpenBabel11021811493D
libRbt.so/2013.1/901 2013/11/27
 11 12  0  0  0  0  0  0  0  0999 V2000
   11.9925   11.6042    8.5760 N   0  0  0  0  0  0  0  0  0  0  0  0
   11.5772   12.8614    8.7997 C   0  0  0  0  0  0  0  0  0  0  0  0
   11.6081   13.3618   10.0905 N   0  0  0  0  0  0  0  0  0  0  0  0
   11.1336   13.6418    7.8007 N   0  0  0  0  0  0  0  0  0  0  0  0
   11.0911   13.1834    6.5279 C   0  0  0  0  0  0  0  0  0  0  0  0
   11.5205   11.8621    6.2451 C   0  0  0  0  0  0  0  0  0  0  0  0
   11.9826   11.0688    7.3372 C   0  0  0  0  0  0  0  0  0  0  0  0
   12.4166    9.7720    7.1384 N   0  0  0  0  0  0  0  0  0  0  0  0
   11.3695   11.6687    4.9116 N   0  0  0  0  0  0  0  0  0  0  0  0
   10.8900   12.7523    4.3693 C   0  0  0  0  0  0  0  0  0  0  0  0
   10.7024   13.7132    5.3244 N   0  0  0  0  0  0  0  0  0  0  0  0
  1  7  2  0  0  0  0
  1  2  1  0  0  0  0
  2  3  1  0  0  0  0
  2  4  2  0  0  0  0
  4  5  1  0  0  0  0
  5  6  2  0  0  0  0
  5 11  1  0  0  0  0
  6  7  1  0  0  0  0
  6  9  1  0  0  0  0
  7  8  1  0  0  0  0
  9 10  1  0  0  0  0
 10 11  2  0  0  0  0
M  END
>  <CHROM.1>
11.48509067,12.31527060,7.03557798,-1.14963662,1.19451456,-1.99790484

>  <Name>
ligand

>  <RI>
0

>  <Rbt.Current_Directory>
/home/itssahil/PROJECTS/Mol_Feturizer/New_Systems/rnas/4FEP

>  <Rbt.Executable>
rbdock ($Id: //depot/dev/client3/rdock/2013.1/src/exe/rbdock.cxx#4 $)

>  <Rbt.Library>
libRbt.so (2013.1, Build901 2013/11/27)

>  <Rbt.Parameter_File>
/export/apps/rDock/src/rDock_2013.1_src/data/scripts/dock_solv.prm

>  <Rbt.Receptor>
prm/blind_docking_60.prm

>  <SCORE>
-11.2515

>  <SCORE.INTER>
-11.2515

>  <SCORE.INTER.CONST>
1

>  <SCORE.INTER.POLAR>
0

>  <SCORE.INTER.ROT>
0

>  <SCORE.INTER.SOLV>
20.8052

>  <SCORE.INTER.VDW>
-18.036

>  <SCORE.INTER.norm>
-1.02286

>  <SCORE.INTRA>
0

>  <SCORE.INTRA.DIHEDRAL>
0

>  <SCORE.INTRA.DIHEDRAL.0>
0

>  <SCORE.INTRA.POLAR>
0

>  <SCORE.INTRA.POLAR.0>
0

>  <SCORE.INTRA.REPUL>
0

>  <SCORE.INTRA.REPUL.0>
0

>  <SCORE.INTRA.SOLV>
0

>  <SCORE.INTRA.SOLV.lig_0>
-48.9558

>  <SCORE.INTRA.VDW>
0

>  <SCORE.INTRA.VDW.0>
0

>  <SCORE.INTRA.norm>
0

>  <SCORE.RESTR>
0

>  <SCORE.RESTR.CAVITY>
0

>  <SCORE.RESTR.norm>
0

>  <SCORE.SYSTEM>
0

>  <SCORE.SYSTEM.CONST>
0

>  <SCORE.SYSTEM.DIHEDRAL>
0

>  <SCORE.SYSTEM.SOLV>
0

>  <SCORE.SYSTEM.norm>
0

>  <SCORE.heavy>
11

>  <SCORE.norm>
-1.02286

>  <RMSD>
0.558

$$$$
ligand
 OpenBabel11021811493D
libRbt.so/2013.1/901 2013/11/27
 11 12  0  0  0  0  0  0  0  0999 V2000
   12.0364   11.6005    8.5636 N   0  0  0  0  0  0  0  0  0  0  0  0
   11.6120   12.8523    8.7999 C   0  0  0  0  0  0  0  0  0  0  0  0
   11.6537   13.3453   10.0932 N   0  0  0  0  0  0  0  0  0  0  0  0
   11.1490   13.6342    7.8110 N   0  0  0  0  0  0  0  0  0  0  0  0
   11.0954   13.1830    6.5361 C   0  0  0  0  0  0  0  0  0  0  0  0
   11.5339   11.8676    6.2402 C   0  0  0  0  0  0  0  0  0  0  0  0
   12.0166   11.0724    7.3218 C   0  0  0  0  0  0  0  0  0  0  0  0
   12.4605    9.7809    7.1100 N   0  0  0  0  0  0  0  0  0  0  0  0
   11.3686   11.6806    4.9074 N   0  0  0  0  0  0  0  0  0  0  0  0
   10.8723   12.7628    4.3776 C   0  0  0  0  0  0  0  0  0  0  0  0
   10.6871   13.7162    5.3406 N   0  0  0  0  0  0  0  0  0  0  0  0
  1  7  2  0  0  0  0
  1  2  1  0  0  0  0
  2  3  1  0  0  0  0
  2  4  2  0  0  0  0
  4  5  1  0  0  0  0
  5  6  2  0  0  0  0
  5 11  1  0  0  0  0
  6  7  1  0  0  0  0
  6  9  1  0  0  0  0
  7  8  1  0  0  0  0
  9 10  1  0  0  0  0
 10 11  2  0  0  0  0
M  END
>  <CHROM.1>
11.50370826,12.31573326,7.03375153,-1.13104895,1.18079908,-2.00916884

>  <Name>
ligand

>  <RI>
0

>  <Rbt.Current_Directory>
/home/itssahil/PROJECTS/Mol_Feturizer/New_Systems/rnas/4FEP

>  <Rbt.Executable>
rbdock ($Id: //depot/dev/client3/rdock/2013.1/src/exe/rbdock.cxx#4 $)

>  <Rbt.Library>
libRbt.so (2013.1, Build901 2013/11/27)

>  <Rbt.Parameter_File>
/export/apps/rDock/src/rDock_2013.1_src/data/scripts/dock_solv.prm

>  <Rbt.Receptor>
prm/pocket_docking_3.prm

>  <SCORE>
-11.2637

>  <SCORE.INTER>
-11.2637

>  <SCORE.INTER.CONST>
1

>  <SCORE.INTER.POLAR>
0

>  <SCORE.INTER.ROT>
0

>  <SCORE.INTER.SOLV>
20.6684

>  <SCORE.INTER.VDW>
-17.9986

>  <SCORE.INTER.norm>
-1.02397

>  <SCORE.INTRA>
0

>  <SCORE.INTRA.DIHEDRAL>
0

>  <SCORE.INTRA.DIHEDRAL.0>
0

>  <SCORE.INTRA.POLAR>
0

>  <SCORE.INTRA.POLAR.0>
0

>  <SCORE.INTRA.REPUL>
0

>  <SCORE.INTRA.REPUL.0>
0

>  <SCORE.INTRA.SOLV>
0

>  <SCORE.INTRA.SOLV.lig_0>
-48.9558

>  <SCORE.INTRA.VDW>
0

>  <SCORE.INTRA.VDW.0>
0

>  <SCORE.INTRA.norm>
0

>  <SCORE.RESTR>
0

>  <SCORE.RESTR.CAVITY>
0

>  <SCORE.RESTR.norm>
0

>  <SCORE.SYSTEM>
0

>  <SCORE.SYSTEM.CONST>
0

>  <SCORE.SYSTEM.DIHEDRAL>
0

>  <SCORE.SYSTEM.SOLV>
0

>  <SCORE.SYSTEM.norm>
0

>  <SCORE.heavy>
11

>  <SCORE.norm>
-1.02397

>  <RMSD>
0.558

$$$$
ligand
 OpenBabel11021811493D
libRbt.so/2013.1/901 2013/11/27
 11 12  0  0  0  0  0  0  0  0999 V2000
   12.0459   11.6254    8.5735 N   0  0  0  0  0  0  0  0  0  0  0  0
   11.6159   12.8771    8.7997 C   0  0  0  0  0  0  0  0  0  0  0  0
   11.6494   13.3785   10.0901 N   0  0  0  0  0  0  0  0  0  0  0  0
   11.1551   13.6512    7.8036 N   0  0  0  0  0  0  0  0  0  0  0  0
   11.1094   13.1918    6.5314 C   0  0  0  0  0  0  0  0  0  0  0  0
   11.5540   11.8761    6.2459 C   0  0  0  0  0  0  0  0  0  0  0  0
   12.0341   11.0894    7.3350 C   0  0  0  0  0  0  0  0  0  0  0  0
   12.4835    9.7982    7.1336 N   0  0  0  0  0  0  0  0  0  0  0  0
   11.3960   11.6801    4.9136 N   0  0  0  0  0  0  0  0  0  0  0  0
   10.8986   12.7571    4.3744 C   0  0  0  0  0  0  0  0  0  0  0  0
   10.7053   13.7159    5.3304 N   0  0  0  0  0  0  0  0  0  0  0  0
  1  7  2  0  0  0  0
  1  2  1  0  0  0  0
  2  3  1  0  0  0  0
  2  4  2  0  0  0  0
  4  5  1  0  0  0  0
  5  6  2  0  0  0  0
  5 11  1  0  0  0  0
  6  7  1  0  0  0  0
  6  9  1  0  0  0  0
  7  8  1  0  0  0  0
  9 10  1  0  0  0  0
 10 11  2  0  0  0  0
M  END
>  <CHROM.1>
11.51830605,12.32908355,7.03649858,-1.14679955,1.17971412,-2.00094018

>  <Name>
ligand

>  <RI>
0

>  <Rbt.Current_Directory>
/home/itssahil/PROJECTS/Mol_Feturizer/New_Systems/rnas/4FEP

>  <Rbt.Executable>
rbdock ($Id: //depot/dev/client3/rdock/2013.1/src/exe/rbdock.cxx#4 $)

>  <Rbt.Library>
libRbt.so (2013.1, Build901 2013/11/27)

>  <Rbt.Parameter_File>
/export/apps/rDock/src/rDock_2013.1_src/data/scripts/dock_solv.prm

>  <Rbt.Receptor>
prm/pocket_docking_4.prm

>  <SCORE>
-11.2502

>  <SCORE.INTER>
-11.2502

>  <SCORE.INTER.CONST>
1

>  <SCORE.INTER.POLAR>
0

>  <SCORE.INTER.ROT>
0

>  <SCORE.INTER.SOLV>
20.6422

>  <SCORE.INTER.VDW>
-17.9809

>  <SCORE.INTER.norm>
-1.02275

>  <SCORE.INTRA>
0

>  <SCORE.INTRA.DIHEDRAL>
0

>  <SCORE.INTRA.DIHEDRAL.0>
0

>  <SCORE.INTRA.POLAR>
0

>  <SCORE.INTRA.POLAR.0>
0

>  <SCORE.INTRA.REPUL>
0

>  <SCORE.INTRA.REPUL.0>
0

>  <SCORE.INTRA.SOLV>
0

>  <SCORE.INTRA.SOLV.lig_0>
-48.9558

>  <SCORE.INTRA.VDW>
0

>  <SCORE.INTRA.VDW.0>
0

>  <SCORE.INTRA.norm>
0

>  <SCORE.RESTR>
0

>  <SCORE.RESTR.CAVITY>
0

>  <SCORE.RESTR.norm>
0

>  <SCORE.SYSTEM>
0

>  <SCORE.SYSTEM.CONST>
0

>  <SCORE.SYSTEM.DIHEDRAL>
0

>  <SCORE.SYSTEM.SOLV>
0

>  <SCORE.SYSTEM.norm>
0

>  <SCORE.heavy>
11

>  <SCORE.norm>
-1.02275

>  <RMSD>
0.558

$$$$
ligand
 OpenBabel11021811493D
libRbt.so/2013.1/901 2013/11/27
 11 12  0  0  0  0  0  0  0  0999 V2000
   11.9609   11.6046    8.5885 N   0  0  0  0  0  0  0  0  0  0  0  0
   11.5615   12.8678    8.8067 C   0  0  0  0  0  0  0  0  0  0  0  0
   11.5812   13.3675   10.0980 N   0  0  0  0  0  0  0  0  0  0  0  0
   11.1443   13.6550    7.8016 N   0  0  0  0  0  0  0  0  0  0  0  0
   11.1132   13.1976    6.5282 C   0  0  0  0  0  0  0  0  0  0  0  0
   11.5266   11.8700    6.2511 C   0  0  0  0  0  0  0  0  0  0  0  0
   11.9608   11.0696    7.3494 C   0  0  0  0  0  0  0  0  0  0  0  0
   12.3779    9.7663    7.1565 N   0  0  0  0  0  0  0  0  0  0  0  0
   11.3920   11.6791    4.9155 N   0  0  0  0  0  0  0  0  0  0  0  0
   10.9369   12.7699    4.3668 C   0  0  0  0  0  0  0  0  0  0  0  0
   10.7501   13.7334    5.3194 N   0  0  0  0  0  0  0  0  0  0  0  0
  1  7  2  0  0  0  0
  1  2  1  0  0  0  0
  2  3  1  0  0  0  0
  2  4  2  0  0  0  0
  4  5  1  0  0  0  0
  5  6  2  0  0  0  0
  5 11  1  0  0  0  0
  6  7  1  0  0  0  0
  6  9  1  0  0  0  0
  7  8  1  0  0  0  0
  9 10  1  0  0  0  0
 10 11  2  0  0  0  0
M  END
>  <CHROM.1>
11.48665265,12.32348957,7.04117992,-1.16940586,1.21425118,-1.97915547

>  <Name>
ligand

>  <RI>
0

>  <Rbt.Current_Directory>
/home/itssahil/PROJECTS/Mol_Feturizer/New_Systems/rnas/4FEP

>  <Rbt.Executable>
rbdock ($Id: //depot/dev/client3/rdock/2013.1/src/exe/rbdock.cxx#4 $)

>  <Rbt.Library>
libRbt.so (2013.1, Build901 2013/11/27)

>  <Rbt.Parameter_File>
/export/apps/rDock/src/rDock_2013.1_src/data/scripts/dock_solv.prm

>  <Rbt.Receptor>
prm/pocket_docking_5.prm

>  <SCORE>
-11.2366

>  <SCORE.INTER>
-11.2366

>  <SCORE.INTER.CONST>
1

>  <SCORE.INTER.POLAR>
0

>  <SCORE.INTER.ROT>
0

>  <SCORE.INTER.SOLV>
20.9596

>  <SCORE.INTER.VDW>
-18.0776

>  <SCORE.INTER.norm>
-1.02151

>  <SCORE.INTRA>
0

>  <SCORE.INTRA.DIHEDRAL>
0

>  <SCORE.INTRA.DIHEDRAL.0>
0

>  <SCORE.INTRA.POLAR>
0

>  <SCORE.INTRA.POLAR.0>
0

>  <SCORE.INTRA.REPUL>
0

>  <SCORE.INTRA.REPUL.0>
0

>  <SCORE.INTRA.SOLV>
0

>  <SCORE.INTRA.SOLV.lig_0>
-48.9558

>  <SCORE.INTRA.VDW>
0

>  <SCORE.INTRA.VDW.0>
0

>  <SCORE.INTRA.norm>
0

>  <SCORE.RESTR>
0

>  <SCORE.RESTR.CAVITY>
0

>  <SCORE.RESTR.norm>
0

>  <SCORE.SYSTEM>
0

>  <SCORE.SYSTEM.CONST>
0

>  <SCORE.SYSTEM.DIHEDRAL>
0

>  <SCORE.SYSTEM.SOLV>
0

>  <SCORE.SYSTEM.norm>
0

>  <SCORE.heavy>
11

>  <SCORE.norm>
-1.02151

>  <RMSD>
0.560

$$$$
ligand
 OpenBabel11021811493D
libRbt.so/2013.1/901 2013/11/27
 11 12  0  0  0  0  0  0  0  0999 V2000
   12.0086   11.6043    8.5688 N   0  0  0  0  0  0  0  0  0  0  0  0
   11.5872   12.8587    8.7969 C   0  0  0  0  0  0  0  0  0  0  0  0
   11.6176   13.3554   10.0892 N   0  0  0  0  0  0  0  0  0  0  0  0
   11.1381   13.6397    7.8009 N   0  0  0  0  0  0  0  0  0  0  0  0
   11.0958   13.1849    6.5269 C   0  0  0  0  0  0  0  0  0  0  0  0
   11.5315   11.8667    6.2394 C   0  0  0  0  0  0  0  0  0  0  0  0
   11.9994   11.0725    7.3284 C   0  0  0  0  0  0  0  0  0  0  0  0
   12.4397    9.7785    7.1252 N   0  0  0  0  0  0  0  0  0  0  0  0
   11.3793   11.6764    4.9056 N   0  0  0  0  0  0  0  0  0  0  0  0
   10.8935   12.7592    4.3673 C   0  0  0  0  0  0  0  0  0  0  0  0
   10.7025   13.7163    5.3255 N   0  0  0  0  0  0  0  0  0  0  0  0
  1  7  2  0  0  0  0
  1  2  1  0  0  0  0
  2  3  1  0  0  0  0
  2  4  2  0  0  0  0
  4  5  1  0  0  0  0
  5  6  2  0  0  0  0
  5 11  1  0  0  0  0
  6  7  1  0  0  0  0
  6  9  1  0  0  0  0
  7  8  1  0  0  0  0
  9 10  1  0  0  0  0
 10 11  2  0  0  0  0
M  END
>  <CHROM.1>
11.49505776,12.31730385,7.03132239,-1.15139802,1.18921780,-1.99330179

>  <Name>
ligand

>  <RI>
0

>  <Rbt.Current_Directory>
/home/itssahil/PROJECTS/Mol_Feturizer/New_Systems/rnas/4FEP

>  <Rbt.Executable>
rbdock ($Id: //depot/dev/client3/rdock/2013.1/src/exe/rbdock.cxx#4 $)

>  <Rbt.Library>
libRbt.so (2013.1, Build901 2013/11/27)

>  <Rbt.Parameter_File>
/export/apps/rDock/src/rDock_2013.1_src/data/scripts/dock_solv.prm

>  <Rbt.Receptor>
prm/pocket_docking_5.prm

>  <SCORE>
-11.2617

>  <SCORE.INTER>
-11.2617

>  <SCORE.INTER.CONST>
1

>  <SCORE.INTER.POLAR>
0

>  <SCORE.INTER.ROT>
0

>  <SCORE.INTER.SOLV>
20.7407

>  <SCORE.INTER.VDW>
-18.0214

>  <SCORE.INTER.norm>
-1.02379

>  <SCORE.INTRA>
0

>  <SCORE.INTRA.DIHEDRAL>
0

>  <SCORE.INTRA.DIHEDRAL.0>
0

>  <SCORE.INTRA.POLAR>
0

>  <SCORE.INTRA.POLAR.0>
0

>  <SCORE.INTRA.REPUL>
0

>  <SCORE.INTRA.REPUL.0>
0

>  <SCORE.INTRA.SOLV>
0

>  <SCORE.INTRA.SOLV.lig_0>
-48.9558

>  <SCORE.INTRA.VDW>
0

>  <SCORE.INTRA.VDW.0>
0

>  <SCORE.INTRA.norm>
0

>  <SCORE.RESTR>
0

>  <SCORE.RESTR.CAVITY>
0

>  <SCORE.RESTR.norm>
0

>  <SCORE.SYSTEM>
0

>  <SCORE.SYSTEM.CONST>
0

>  <SCORE.SYSTEM.DIHEDRAL>
0

>  <SCORE.SYSTEM.SOLV>
0

>  <SCORE.SYSTEM.norm>
0

>  <SCORE.heavy>
11

>  <SCORE.norm>
-1.02379

>  <RMSD>
0.561

$$$$
ligand
 OpenBabel11021811493D
libRbt.so/2013.1/901 2013/11/27
 11 12  0  0  0  0  0  0  0  0999 V2000
   12.0071   11.6036    8.5678 N   0  0  0  0  0  0  0  0  0  0  0  0
   11.5869   12.8584    8.7959 C   0  0  0  0  0  0  0  0  0  0  0  0
   11.6179   13.3552   10.0881 N   0  0  0  0  0  0  0  0  0  0  0  0
   11.1384   13.6397    7.7998 N   0  0  0  0  0  0  0  0  0  0  0  0
   11.0955   13.1848    6.5259 C   0  0  0  0  0  0  0  0  0  0  0  0
   11.5300   11.8661    6.2385 C   0  0  0  0  0  0  0  0  0  0  0  0
   11.9973   11.0717    7.3275 C   0  0  0  0  0  0  0  0  0  0  0  0
   12.4364    9.7772    7.1243 N   0  0  0  0  0  0  0  0  0  0  0  0
   11.3775   11.6759    4.9047 N   0  0  0  0  0  0  0  0  0  0  0  0
   10.8925   12.7590    4.3664 C   0  0  0  0  0  0  0  0  0  0  0  0
   10.7025   13.7164    5.3245 N   0  0  0  0  0  0  0  0  0  0  0  0
  1  7  2  0  0  0  0
  1  2  1  0  0  0  0
  2  3  1  0  0  0  0
  2  4  2  0  0  0  0
  4  5  1  0  0  0  0
  5  6  2  0  0  0  0
  5 11  1  0  0  0  0
  6  7  1  0  0  0  0
  6  9  1  0  0  0  0
  7  8  1  0  0  0  0
  9 10  1  0  0  0  0
 10 11  2  0  0  0  0
M  END
>  <CHROM.1>
11.49403493,12.31689032,7.03035821,-1.15007265,1.18998046,-1.99464329

>  <Name>
ligand

>  <RI>
0

>  <Rbt.Current_Directory>
/home/itssahil/PROJECTS/Mol_Feturizer/New_Systems/rnas/4FEP

>  <Rbt.Executable>
rbdock ($Id: //depot/dev/client3/rdock/2013.1/src/exe/rbdock.cxx#4 $)

>  <Rbt.Library>
libRbt.so (2013.1, Build901 2013/11/27)

>  <Rbt.Parameter_File>
/export/apps/rDock/src/rDock_2013.1_src/data/scripts/dock_solv.prm

>  <Rbt.Receptor>
prm/blind_docking_100.prm

>  <SCORE>
-11.2613

>  <SCORE.INTER>
-11.2613

>  <SCORE.INTER.CONST>
1

>  <SCORE.INTER.POLAR>
0

>  <SCORE.INTER.ROT>
0

>  <SCORE.INTER.SOLV>
20.7501

>  <SCORE.INTER.VDW>
-18.0242

>  <SCORE.INTER.norm>
-1.02376

>  <SCORE.INTRA>
0

>  <SCORE.INTRA.DIHEDRAL>
0

>  <SCORE.INTRA.DIHEDRAL.0>
0

>  <SCORE.INTRA.POLAR>
0

>  <SCORE.INTRA.POLAR.0>
0

>  <SCORE.INTRA.REPUL>
0

>  <SCORE.INTRA.REPUL.0>
0

>  <SCORE.INTRA.SOLV>
0

>  <SCORE.INTRA.SOLV.lig_0>
-48.9558

>  <SCORE.INTRA.VDW>
0

>  <SCORE.INTRA.VDW.0>
0

>  <SCORE.INTRA.norm>
0

>  <SCORE.RESTR>
0

>  <SCORE.RESTR.CAVITY>
0

>  <SCORE.RESTR.norm>
0

>  <SCORE.SYSTEM>
0

>  <SCORE.SYSTEM.CONST>
0

>  <SCORE.SYSTEM.DIHEDRAL>
0

>  <SCORE.SYSTEM.SOLV>
0

>  <SCORE.SYSTEM.norm>
0

>  <SCORE.heavy>
11

>  <SCORE.norm>
-1.02376

>  <RMSD>
0.562

$$$$
ligand
 OpenBabel11021811493D
libRbt.so/2013.1/901 2013/11/27
 11 12  0  0  0  0  0  0  0  0999 V2000
   12.0183   11.6122    8.5673 N   0  0  0  0  0  0  0  0  0  0  0  0
   11.5960   12.8665    8.7942 C   0  0  0  0  0  0  0  0  0  0  0  0
   11.6294   13.3657   10.0854 N   0  0  0  0  0  0  0  0  0  0  0  0
   11.1431   13.6450    7.7980 N   0  0  0  0  0  0  0  0  0  0  0  0
   11.0978   13.1877    6.5249 C   0  0  0  0  0  0  0  0  0  0  0  0
   11.5344   11.8695    6.2388 C   0  0  0  0  0  0  0  0  0  0  0  0
   12.0063   11.0781    7.3280 C   0  0  0  0  0  0  0  0  0  0  0  0
   12.4476    9.7842    7.1259 N   0  0  0  0  0  0  0  0  0  0  0  0
   11.3787   11.6765    4.9057 N   0  0  0  0  0  0  0  0  0  0  0  0
   10.8899   12.7576    4.3668 C   0  0  0  0  0  0  0  0  0  0  0  0
   10.7005   13.7163    5.3237 N   0  0  0  0  0  0  0  0  0  0  0  0
  1  7  2  0  0  0  0
  1  2  1  0  0  0  0
  2  3  1  0  0  0  0
  2  4  2  0  0  0  0
  4  5  1  0  0  0  0
  5  6  2  0  0  0  0
  5 11  1  0  0  0  0
  6  7  1  0  0  0  0
  6  9  1  0  0  0  0
  7  8  1  0  0  0  0
  9 10  1  0  0  0  0
 10 11  2  0  0  0  0
M  END
>  <CHROM.1>
11.49956798,12.32161112,7.02990191,-1.14591252,1.18690735,-2.00031488

>  <Name>
ligand

>  <RI>
0

>  <Rbt.Current_Directory>
/home/itssahil/PROJECTS/Mol_Feturizer/New_Systems/rnas/4FEP

>  <Rbt.Executable>
rbdock ($Id: //depot/dev/client3/rdock/2013.1/src/exe/rbdock.cxx#4 $)

>  <Rbt.Library>
libRbt.so (2013.1, Build901 2013/11/27)

>  <Rbt.Parameter_File>
/export/apps/rDock/src/rDock_2013.1_src/data/scripts/dock_solv.prm

>  <Rbt.Receptor>
prm/blind_docking_60.prm

>  <SCORE>
-11.2544

>  <SCORE.INTER>
-11.2544

>  <SCORE.INTER.CONST>
1

>  <SCORE.INTER.POLAR>
0

>  <SCORE.INTER.ROT>
0

>  <SCORE.INTER.SOLV>
20.727

>  <SCORE.INTER.VDW>
-18.012

>  <SCORE.INTER.norm>
-1.02313

>  <SCORE.INTRA>
0

>  <SCORE.INTRA.DIHEDRAL>
0

>  <SCORE.INTRA.DIHEDRAL.0>
0

>  <SCORE.INTRA.POLAR>
0

>  <SCORE.INTRA.POLAR.0>
0

>  <SCORE.INTRA.REPUL>
0

>  <SCORE.INTRA.REPUL.0>
0

>  <SCORE.INTRA.SOLV>
0

>  <SCORE.INTRA.SOLV.lig_0>
-48.9558

>  <SCORE.INTRA.VDW>
0

>  <SCORE.INTRA.VDW.0>
0

>  <SCORE.INTRA.norm>
0

>  <SCORE.RESTR>
0

>  <SCORE.RESTR.CAVITY>
0

>  <SCORE.RESTR.norm>
0

>  <SCORE.SYSTEM>
0

>  <SCORE.SYSTEM.CONST>
0

>  <SCORE.SYSTEM.DIHEDRAL>
0

>  <SCORE.SYSTEM.SOLV>
0

>  <SCORE.SYSTEM.norm>
0

>  <SCORE.heavy>
11

>  <SCORE.norm>
-1.02313

>  <RMSD>
0.563

$$$$
ligand
 OpenBabel11021811493D
libRbt.so/2013.1/901 2013/11/27
 11 12  0  0  0  0  0  0  0  0999 V2000
   11.9634   11.6049    8.5866 N   0  0  0  0  0  0  0  0  0  0  0  0
   11.5724   12.8710    8.8034 C   0  0  0  0  0  0  0  0  0  0  0  0
   11.5976   13.3726   10.0939 N   0  0  0  0  0  0  0  0  0  0  0  0
   11.1584   13.6592    7.7979 N   0  0  0  0  0  0  0  0  0  0  0  0
   11.1221   13.1999    6.5253 C   0  0  0  0  0  0  0  0  0  0  0  0
   11.5266   11.8693    6.2496 C   0  0  0  0  0  0  0  0  0  0  0  0
   11.9576   11.0679    7.3484 C   0  0  0  0  0  0  0  0  0  0  0  0
   12.3661    9.7617    7.1569 N   0  0  0  0  0  0  0  0  0  0  0  0
   11.3884   11.6771    4.9145 N   0  0  0  0  0  0  0  0  0  0  0  0
   10.9392   12.7699    4.3649 C   0  0  0  0  0  0  0  0  0  0  0  0
   10.7602   13.7361    5.3162 N   0  0  0  0  0  0  0  0  0  0  0  0
  1  7  2  0  0  0  0
  1  2  1  0  0  0  0
  2  3  1  0  0  0  0
  2  4  2  0  0  0  0
  4  5  1  0  0  0  0
  5  6  2  0  0  0  0
  5 11  1  0  0  0  0
  6  7  1  0  0  0  0
  6  9  1  0  0  0  0
  7  8  1  0  0  0  0
  9 10  1  0  0  0  0
 10 11  2  0  0  0  0
M  END
>  <CHROM.1>
11.49091643,12.32429312,7.03898947,-1.15727215,1.21933547,-1.99216361

>  <Name>
ligand

>  <RI>
0

>  <Rbt.Current_Directory>
/home/itssahil/PROJECTS/Mol_Feturizer/New_Systems/rnas/4FEP

>  <Rbt.Executable>
rbdock ($Id: //depot/dev/client3/rdock/2013.1/src/exe/rbdock.cxx#4 $)

>  <Rbt.Library>
libRbt.so (2013.1, Build901 2013/11/27)

>  <Rbt.Parameter_File>
/export/apps/rDock/src/rDock_2013.1_src/data/scripts/dock_solv.prm

>  <Rbt.Receptor>
prm/pocket_docking_6.prm

>  <SCORE>
-11.2384

>  <SCORE.INTER>
-11.2384

>  <SCORE.INTER.CONST>
1

>  <SCORE.INTER.POLAR>
0

>  <SCORE.INTER.ROT>
0

>  <SCORE.INTER.SOLV>
21.0084

>  <SCORE.INTER.VDW>
-18.095

>  <SCORE.INTER.norm>
-1.02167

>  <SCORE.INTRA>
0

>  <SCORE.INTRA.DIHEDRAL>
0

>  <SCORE.INTRA.DIHEDRAL.0>
0

>  <SCORE.INTRA.POLAR>
0

>  <SCORE.INTRA.POLAR.0>
0

>  <SCORE.INTRA.REPUL>
0

>  <SCORE.INTRA.REPUL.0>
0

>  <SCORE.INTRA.SOLV>
0

>  <SCORE.INTRA.SOLV.lig_0>
-48.9558

>  <SCORE.INTRA.VDW>
0

>  <SCORE.INTRA.VDW.0>
0

>  <SCORE.INTRA.norm>
0

>  <SCORE.RESTR>
0

>  <SCORE.RESTR.CAVITY>
0

>  <SCORE.RESTR.norm>
0

>  <SCORE.SYSTEM>
0

>  <SCORE.SYSTEM.CONST>
0

>  <SCORE.SYSTEM.DIHEDRAL>
0

>  <SCORE.SYSTEM.SOLV>
0

>  <SCORE.SYSTEM.norm>
0

>  <SCORE.heavy>
11

>  <SCORE.norm>
-1.02167

>  <RMSD>
0.563

$$$$
ligand
 OpenBabel11021811493D
libRbt.so/2013.1/901 2013/11/27
 11 12  0  0  0  0  0  0  0  0999 V2000
   11.9672   11.6016    8.5840 N   0  0  0  0  0  0  0  0  0  0  0  0
   11.5723   12.8662    8.8025 C   0  0  0  0  0  0  0  0  0  0  0  0
   11.5971   13.3665   10.0935 N   0  0  0  0  0  0  0  0  0  0  0  0
   11.1547   13.6541    7.7982 N   0  0  0  0  0  0  0  0  0  0  0  0
   11.1187   13.1960    6.5252 C   0  0  0  0  0  0  0  0  0  0  0  0
   11.5273   11.8670    6.2477 C   0  0  0  0  0  0  0  0  0  0  0  0
   11.9621   11.0659    7.3453 C   0  0  0  0  0  0  0  0  0  0  0  0
   12.3747    9.7613    7.1519 N   0  0  0  0  0  0  0  0  0  0  0  0
   11.3884   11.6758    4.9125 N   0  0  0  0  0  0  0  0  0  0  0  0
   10.9351   12.7677    4.3645 C   0  0  0  0  0  0  0  0  0  0  0  0
   10.7539   13.7323    5.3170 N   0  0  0  0  0  0  0  0  0  0  0  0
  1  7  2  0  0  0  0
  1  2  1  0  0  0  0
  2  3  1  0  0  0  0
  2  4  2  0  0  0  0
  4  5  1  0  0  0  0
  5  6  2  0  0  0  0
  5 11  1  0  0  0  0
  6  7  1  0  0  0  0
  6  9  1  0  0  0  0
  7  8  1  0  0  0  0
  9 10  1  0  0  0  0
 10 11  2  0  0  0  0
M  END
>  <CHROM.1>
11.49089536,12.32108044,7.03758346,-1.15863748,1.21593217,-1.98982501

>  <Name>
ligand

>  <RI>
0

>  <Rbt.Current_Directory>
/home/itssahil/PROJECTS/Mol_Feturizer/New_Systems/rnas/4FEP

>  <Rbt.Executable>
rbdock ($Id: //depot/dev/client3/rdock/2013.1/src/exe/rbdock.cxx#4 $)

>  <Rbt.Library>
libRbt.so (2013.1, Build901 2013/11/27)

>  <Rbt.Parameter_File>
/export/apps/rDock/src/rDock_2013.1_src/data/scripts/dock_solv.prm

>  <Rbt.Receptor>
prm/pocket_docking_8.prm

>  <SCORE>
-11.2384

>  <SCORE.INTER>
-11.2384

>  <SCORE.INTER.CONST>
1

>  <SCORE.INTER.POLAR>
0

>  <SCORE.INTER.ROT>
0

>  <SCORE.INTER.SOLV>
20.9685

>  <SCORE.INTER.VDW>
-18.0818

>  <SCORE.INTER.norm>
-1.02168

>  <SCORE.INTRA>
0

>  <SCORE.INTRA.DIHEDRAL>
0

>  <SCORE.INTRA.DIHEDRAL.0>
0

>  <SCORE.INTRA.POLAR>
0

>  <SCORE.INTRA.POLAR.0>
0

>  <SCORE.INTRA.REPUL>
0

>  <SCORE.INTRA.REPUL.0>
0

>  <SCORE.INTRA.SOLV>
0

>  <SCORE.INTRA.SOLV.lig_0>
-48.9558

>  <SCORE.INTRA.VDW>
0

>  <SCORE.INTRA.VDW.0>
0

>  <SCORE.INTRA.norm>
0

>  <SCORE.RESTR>
0

>  <SCORE.RESTR.CAVITY>
0

>  <SCORE.RESTR.norm>
0

>  <SCORE.SYSTEM>
0

>  <SCORE.SYSTEM.CONST>
0

>  <SCORE.SYSTEM.DIHEDRAL>
0

>  <SCORE.SYSTEM.SOLV>
0

>  <SCORE.SYSTEM.norm>
0

>  <SCORE.heavy>
11

>  <SCORE.norm>
-1.02168

>  <RMSD>
0.563

$$$$
ligand
 OpenBabel11021811493D
libRbt.so/2013.1/901 2013/11/27
 11 12  0  0  0  0  0  0  0  0999 V2000
   11.9683   11.6052    8.5840 N   0  0  0  0  0  0  0  0  0  0  0  0
   11.5762   12.8710    8.8011 C   0  0  0  0  0  0  0  0  0  0  0  0
   11.6010   13.3723   10.0916 N   0  0  0  0  0  0  0  0  0  0  0  0
   11.1617   13.6590    7.7956 N   0  0  0  0  0  0  0  0  0  0  0  0
   11.1259   13.1999    6.5229 C   0  0  0  0  0  0  0  0  0  0  0  0
   11.5314   11.8697    6.2470 C   0  0  0  0  0  0  0  0  0  0  0  0
   11.9631   11.0685    7.3457 C   0  0  0  0  0  0  0  0  0  0  0  0
   12.3726    9.7627    7.1539 N   0  0  0  0  0  0  0  0  0  0  0  0
   11.3935   11.6776    4.9119 N   0  0  0  0  0  0  0  0  0  0  0  0
   10.9434   12.7702    4.3624 C   0  0  0  0  0  0  0  0  0  0  0  0
   10.7636   13.7361    5.3140 N   0  0  0  0  0  0  0  0  0  0  0  0
  1  7  2  0  0  0  0
  1  2  1  0  0  0  0
  2  3  1  0  0  0  0
  2  4  2  0  0  0  0
  4  5  1  0  0  0  0
  5  6  2  0  0  0  0
  5 11  1  0  0  0  0
  6  7  1  0  0  0  0
  6  9  1  0  0  0  0
  7  8  1  0  0  0  0
  9 10  1  0  0  0  0
 10 11  2  0  0  0  0
M  END
>  <CHROM.1>
11.49532548,12.32454625,7.03649975,-1.15844423,1.21860415,-1.99086793

>  <Name>
ligand

>  <RI>
0

>  <Rbt.Current_Directory>
/home/itssahil/PROJECTS/Mol_Feturizer/New_Systems/rnas/4FEP

>  <Rbt.Executable>
rbdock ($Id: //depot/dev/client3/rdock/2013.1/src/exe/rbdock.cxx#4 $)

>  <Rbt.Library>
libRbt.so (2013.1, Build901 2013/11/27)

>  <Rbt.Parameter_File>
/export/apps/rDock/src/rDock_2013.1_src/data/scripts/dock_solv.prm

>  <Rbt.Receptor>
prm/blind_docking_100.prm

>  <SCORE>
-11.2372

>  <SCORE.INTER>
-11.2372

>  <SCORE.INTER.CONST>
1

>  <SCORE.INTER.POLAR>
0

>  <SCORE.INTER.ROT>
0

>  <SCORE.INTER.SOLV>
20.9866

>  <SCORE.INTER.VDW>
-18.087

>  <SCORE.INTER.norm>
-1.02157

>  <SCORE.INTRA>
0

>  <SCORE.INTRA.DIHEDRAL>
0

>  <SCORE.INTRA.DIHEDRAL.0>
0

>  <SCORE.INTRA.POLAR>
0

>  <SCORE.INTRA.POLAR.0>
0

>  <SCORE.INTRA.REPUL>
0

>  <SCORE.INTRA.REPUL.0>
0

>  <SCORE.INTRA.SOLV>
0

>  <SCORE.INTRA.SOLV.lig_0>
-48.9558

>  <SCORE.INTRA.VDW>
0

>  <SCORE.INTRA.VDW.0>
0

>  <SCORE.INTRA.norm>
0

>  <SCORE.RESTR>
0

>  <SCORE.RESTR.CAVITY>
0

>  <SCORE.RESTR.norm>
0

>  <SCORE.SYSTEM>
0

>  <SCORE.SYSTEM.CONST>
0

>  <SCORE.SYSTEM.DIHEDRAL>
0

>  <SCORE.SYSTEM.SOLV>
0

>  <SCORE.SYSTEM.norm>
0

>  <SCORE.heavy>
11

>  <SCORE.norm>
-1.02157

>  <RMSD>
0.565

$$$$
ligand
 OpenBabel11021811493D
libRbt.so/2013.1/901 2013/11/27
 11 12  0  0  0  0  0  0  0  0999 V2000
   11.9906   11.5988    8.5691 N   0  0  0  0  0  0  0  0  0  0  0  0
   11.5941   12.8604    8.8015 C   0  0  0  0  0  0  0  0  0  0  0  0
   11.6381   13.3534   10.0948 N   0  0  0  0  0  0  0  0  0  0  0  0
   11.1568   13.6524    7.8088 N   0  0  0  0  0  0  0  0  0  0  0  0
   11.1017   13.2015    6.5339 C   0  0  0  0  0  0  0  0  0  0  0  0
   11.5112   11.8759    6.2419 C   0  0  0  0  0  0  0  0  0  0  0  0
   11.9673   11.0703    7.3275 C   0  0  0  0  0  0  0  0  0  0  0  0
   12.3820    9.7686    7.1197 N   0  0  0  0  0  0  0  0  0  0  0  0
   11.3511   11.6918    4.9081 N   0  0  0  0  0  0  0  0  0  0  0  0
   10.8843   12.7850    4.3740 C   0  0  0  0  0  0  0  0  0  0  0  0
   10.7148   13.7432    5.3351 N   0  0  0  0  0  0  0  0  0  0  0  0
  1  7  2  0  0  0  0
  1  2  1  0  0  0  0
  2  3  1  0  0  0  0
  2  4  2  0  0  0  0
  4  5  1  0  0  0  0
  5  6  2  0  0  0  0
  5 11  1  0  0  0  0
  6  7  1  0  0  0  0
  6  9  1  0  0  0  0
  7  8  1  0  0  0  0
  9 10  1  0  0  0  0
 10 11  2  0  0  0  0
M  END
>  <CHROM.1>
11.48590529,12.32522873,7.03497524,-1.12123082,1.20520176,-2.01900276

>  <Name>
ligand

>  <RI>
0

>  <Rbt.Current_Directory>
/home/itssahil/PROJECTS/Mol_Feturizer/New_Systems/rnas/4FEP

>  <Rbt.Executable>
rbdock ($Id: //depot/dev/client3/rdock/2013.1/src/exe/rbdock.cxx#4 $)

>  <Rbt.Library>
libRbt.so (2013.1, Build901 2013/11/27)

>  <Rbt.Parameter_File>
/export/apps/rDock/src/rDock_2013.1_src/data/scripts/dock_solv.prm

>  <Rbt.Receptor>
prm/blind_docking_40.prm

>  <SCORE>
-11.2524

>  <SCORE.INTER>
-11.2524

>  <SCORE.INTER.CONST>
1

>  <SCORE.INTER.POLAR>
0

>  <SCORE.INTER.ROT>
0

>  <SCORE.INTER.SOLV>
20.9095

>  <SCORE.INTER.VDW>
-18.0714

>  <SCORE.INTER.norm>
-1.02294

>  <SCORE.INTRA>
0

>  <SCORE.INTRA.DIHEDRAL>
0

>  <SCORE.INTRA.DIHEDRAL.0>
0

>  <SCORE.INTRA.POLAR>
0

>  <SCORE.INTRA.POLAR.0>
0

>  <SCORE.INTRA.REPUL>
0

>  <SCORE.INTRA.REPUL.0>
0

>  <SCORE.INTRA.SOLV>
0

>  <SCORE.INTRA.SOLV.lig_0>
-48.9558

>  <SCORE.INTRA.VDW>
0

>  <SCORE.INTRA.VDW.0>
0

>  <SCORE.INTRA.norm>
0

>  <SCORE.RESTR>
0

>  <SCORE.RESTR.CAVITY>
0

>  <SCORE.RESTR.norm>
0

>  <SCORE.SYSTEM>
0

>  <SCORE.SYSTEM.CONST>
0

>  <SCORE.SYSTEM.DIHEDRAL>
0

>  <SCORE.SYSTEM.SOLV>
0

>  <SCORE.SYSTEM.norm>
0

>  <SCORE.heavy>
11

>  <SCORE.norm>
-1.02294

>  <RMSD>
0.566

$$$$
ligand
 OpenBabel11021811493D
libRbt.so/2013.1/901 2013/11/27
 11 12  0  0  0  0  0  0  0  0999 V2000
   11.9946   11.5949    8.5665 N   0  0  0  0  0  0  0  0  0  0  0  0
   11.5937   12.8548    8.8006 C   0  0  0  0  0  0  0  0  0  0  0  0
   11.6349   13.3458   10.0947 N   0  0  0  0  0  0  0  0  0  0  0  0
   11.1548   13.6469    7.8087 N   0  0  0  0  0  0  0  0  0  0  0  0
   11.1025   13.1979    6.5330 C   0  0  0  0  0  0  0  0  0  0  0  0
   11.5166   11.8741    6.2393 C   0  0  0  0  0  0  0  0  0  0  0  0
   11.9742   11.0683    7.3241 C   0  0  0  0  0  0  0  0  0  0  0  0
   12.3934    9.7683    7.1146 N   0  0  0  0  0  0  0  0  0  0  0  0
   11.3584   11.6916    4.9051 N   0  0  0  0  0  0  0  0  0  0  0  0
   10.8886   12.7841    4.3722 C   0  0  0  0  0  0  0  0  0  0  0  0
   10.7150   13.7403    5.3347 N   0  0  0  0  0  0  0  0  0  0  0  0
  1  7  2  0  0  0  0
  1  2  1  0  0  0  0
  2  3  1  0  0  0  0
  2  4  2  0  0  0  0
  4  5  1  0  0  0  0
  5  6  2  0  0  0  0
  5 11  1  0  0  0  0
  6  7  1  0  0  0  0
  6  9  1  0  0  0  0
  7  8  1  0  0  0  0
  9 10  1  0  0  0  0
 10 11  2  0  0  0  0
M  END
>  <CHROM.1>
11.48903617,12.32209808,7.03306296,-1.12765163,1.20268667,-2.01141060

>  <Name>
ligand

>  <RI>
0

>  <Rbt.Current_Directory>
/home/itssahil/PROJECTS/Mol_Feturizer/New_Systems/rnas/4FEP

>  <Rbt.Executable>
rbdock ($Id: //depot/dev/client3/rdock/2013.1/src/exe/rbdock.cxx#4 $)

>  <Rbt.Library>
libRbt.so (2013.1, Build901 2013/11/27)

>  <Rbt.Parameter_File>
/export/apps/rDock/src/rDock_2013.1_src/data/scripts/dock_solv.prm

>  <Rbt.Receptor>
prm/blind_docking_60.prm

>  <SCORE>
-11.253

>  <SCORE.INTER>
-11.253

>  <SCORE.INTER.CONST>
1

>  <SCORE.INTER.POLAR>
0

>  <SCORE.INTER.ROT>
0

>  <SCORE.INTER.SOLV>
20.8716

>  <SCORE.INTER.VDW>
-18.0592

>  <SCORE.INTER.norm>
-1.023

>  <SCORE.INTRA>
0

>  <SCORE.INTRA.DIHEDRAL>
0

>  <SCORE.INTRA.DIHEDRAL.0>
0

>  <SCORE.INTRA.POLAR>
0

>  <SCORE.INTRA.POLAR.0>
0

>  <SCORE.INTRA.REPUL>
0

>  <SCORE.INTRA.REPUL.0>
0

>  <SCORE.INTRA.SOLV>
0

>  <SCORE.INTRA.SOLV.lig_0>
-48.9558

>  <SCORE.INTRA.VDW>
0

>  <SCORE.INTRA.VDW.0>
0

>  <SCORE.INTRA.norm>
0

>  <SCORE.RESTR>
0

>  <SCORE.RESTR.CAVITY>
0

>  <SCORE.RESTR.norm>
0

>  <SCORE.SYSTEM>
0

>  <SCORE.SYSTEM.CONST>
0

>  <SCORE.SYSTEM.DIHEDRAL>
0

>  <SCORE.SYSTEM.SOLV>
0

>  <SCORE.SYSTEM.norm>
0

>  <SCORE.heavy>
11

>  <SCORE.norm>
-1.023

>  <RMSD>
0.566

$$$$
ligand
 OpenBabel11021811493D
libRbt.so/2013.1/901 2013/11/27
 11 12  0  0  0  0  0  0  0  0999 V2000
   11.9730   11.6075    8.5841 N   0  0  0  0  0  0  0  0  0  0  0  0
   11.5813   12.8733    8.8013 C   0  0  0  0  0  0  0  0  0  0  0  0
   11.6056   13.3743   10.0920 N   0  0  0  0  0  0  0  0  0  0  0  0
   11.1674   13.6617    7.7959 N   0  0  0  0  0  0  0  0  0  0  0  0
   11.1320   13.2029    6.5230 C   0  0  0  0  0  0  0  0  0  0  0  0
   11.5373   11.8726    6.2469 C   0  0  0  0  0  0  0  0  0  0  0  0
   11.9682   11.0710    7.3457 C   0  0  0  0  0  0  0  0  0  0  0  0
   12.3775    9.7651    7.1537 N   0  0  0  0  0  0  0  0  0  0  0  0
   11.3998   11.6810    4.9117 N   0  0  0  0  0  0  0  0  0  0  0  0
   10.9504   12.7738    4.3623 C   0  0  0  0  0  0  0  0  0  0  0  0
   10.7704   13.7395    5.3140 N   0  0  0  0  0  0  0  0  0  0  0  0
  1  7  2  0  0  0  0
  1  2  1  0  0  0  0
  2  3  1  0  0  0  0
  2  4  2  0  0  0  0
  4  5  1  0  0  0  0
  5  6  2  0  0  0  0
  5 11  1  0  0  0  0
  6  7  1  0  0  0  0
  6  9  1  0  0  0  0
  7  8  1  0  0  0  0
  9 10  1  0  0  0  0
 10 11  2  0  0  0  0
M  END
>  <CHROM.1>
11.50099056,12.32730281,7.03652622,-1.15921411,1.21906399,-1.98989726

>  <Name>
ligand

>  <RI>
0

>  <Rbt.Current_Directory>
/home/itssahil/PROJECTS/Mol_Feturizer/New_Systems/rnas/4FEP

>  <Rbt.Executable>
rbdock ($Id: //depot/dev/client3/rdock/2013.1/src/exe/rbdock.cxx#4 $)

>  <Rbt.Library>
libRbt.so (2013.1, Build901 2013/11/27)

>  <Rbt.Parameter_File>
/export/apps/rDock/src/rDock_2013.1_src/data/scripts/dock_solv.prm

>  <Rbt.Receptor>
prm/pocket_docking_4.prm

>  <SCORE>
-11.2343

>  <SCORE.INTER>
-11.2343

>  <SCORE.INTER.CONST>
1

>  <SCORE.INTER.POLAR>
0

>  <SCORE.INTER.ROT>
0

>  <SCORE.INTER.SOLV>
20.9761

>  <SCORE.INTER.VDW>
-18.0815

>  <SCORE.INTER.norm>
-1.0213

>  <SCORE.INTRA>
0

>  <SCORE.INTRA.DIHEDRAL>
0

>  <SCORE.INTRA.DIHEDRAL.0>
0

>  <SCORE.INTRA.POLAR>
0

>  <SCORE.INTRA.POLAR.0>
0

>  <SCORE.INTRA.REPUL>
0

>  <SCORE.INTRA.REPUL.0>
0

>  <SCORE.INTRA.SOLV>
0

>  <SCORE.INTRA.SOLV.lig_0>
-48.9558

>  <SCORE.INTRA.VDW>
0

>  <SCORE.INTRA.VDW.0>
0

>  <SCORE.INTRA.norm>
0

>  <SCORE.RESTR>
0

>  <SCORE.RESTR.CAVITY>
0

>  <SCORE.RESTR.norm>
0

>  <SCORE.SYSTEM>
0

>  <SCORE.SYSTEM.CONST>
0

>  <SCORE.SYSTEM.DIHEDRAL>
0

>  <SCORE.SYSTEM.SOLV>
0

>  <SCORE.SYSTEM.norm>
0

>  <SCORE.heavy>
11

>  <SCORE.norm>
-1.0213

>  <RMSD>
0.566

$$$$
ligand
 OpenBabel11021811493D
libRbt.so/2013.1/901 2013/11/27
 11 12  0  0  0  0  0  0  0  0999 V2000
   12.0390   11.5997    8.5583 N   0  0  0  0  0  0  0  0  0  0  0  0
   11.6263   12.8555    8.7942 C   0  0  0  0  0  0  0  0  0  0  0  0
   11.6718   13.3481   10.0876 N   0  0  0  0  0  0  0  0  0  0  0  0
   11.1715   13.6418    7.8050 N   0  0  0  0  0  0  0  0  0  0  0  0
   11.1145   13.1911    6.5301 C   0  0  0  0  0  0  0  0  0  0  0  0
   11.5407   11.8715    6.2345 C   0  0  0  0  0  0  0  0  0  0  0  0
   12.0151   11.0717    7.3165 C   0  0  0  0  0  0  0  0  0  0  0  0
   12.4468    9.7761    7.1051 N   0  0  0  0  0  0  0  0  0  0  0  0
   11.3746   11.6861    4.9016 N   0  0  0  0  0  0  0  0  0  0  0  0
   10.8890   12.7729    4.3713 C   0  0  0  0  0  0  0  0  0  0  0  0
   10.7123   13.7281    5.3342 N   0  0  0  0  0  0  0  0  0  0  0  0
  1  7  2  0  0  0  0
  1  2  1  0  0  0  0
  2  3  1  0  0  0  0
  2  4  2  0  0  0  0
  4  5  1  0  0  0  0
  5  6  2  0  0  0  0
  5 11  1  0  0  0  0
  6  7  1  0  0  0  0
  6  9  1  0  0  0  0
  7  8  1  0  0  0  0
  9 10  1  0  0  0  0
 10 11  2  0  0  0  0
M  END
>  <CHROM.1>
11.51424008,12.31993248,7.02801100,-1.12194033,1.18971674,-2.01764475

>  <Name>
ligand

>  <RI>
0

>  <Rbt.Current_Directory>
/home/itssahil/PROJECTS/Mol_Feturizer/New_Systems/rnas/4FEP

>  <Rbt.Executable>
rbdock ($Id: //depot/dev/client3/rdock/2013.1/src/exe/rbdock.cxx#4 $)

>  <Rbt.Library>
libRbt.so (2013.1, Build901 2013/11/27)

>  <Rbt.Parameter_File>
/export/apps/rDock/src/rDock_2013.1_src/data/scripts/dock_solv.prm

>  <Rbt.Receptor>
prm/pocket_docking_3.prm

>  <SCORE>
-11.2319

>  <SCORE.INTER>
-11.2319

>  <SCORE.INTER.CONST>
1

>  <SCORE.INTER.POLAR>
0

>  <SCORE.INTER.ROT>
0

>  <SCORE.INTER.SOLV>
20.7244

>  <SCORE.INTER.VDW>
-17.9961

>  <SCORE.INTER.norm>
-1.02108

>  <SCORE.INTRA>
0

>  <SCORE.INTRA.DIHEDRAL>
0

>  <SCORE.INTRA.DIHEDRAL.0>
0

>  <SCORE.INTRA.POLAR>
0

>  <SCORE.INTRA.POLAR.0>
0

>  <SCORE.INTRA.REPUL>
0

>  <SCORE.INTRA.REPUL.0>
0

>  <SCORE.INTRA.SOLV>
0

>  <SCORE.INTRA.SOLV.lig_0>
-48.9558

>  <SCORE.INTRA.VDW>
0

>  <SCORE.INTRA.VDW.0>
0

>  <SCORE.INTRA.norm>
0

>  <SCORE.RESTR>
0

>  <SCORE.RESTR.CAVITY>
0

>  <SCORE.RESTR.norm>
0

>  <SCORE.SYSTEM>
0

>  <SCORE.SYSTEM.CONST>
0

>  <SCORE.SYSTEM.DIHEDRAL>
0

>  <SCORE.SYSTEM.SOLV>
0

>  <SCORE.SYSTEM.norm>
0

>  <SCORE.heavy>
11

>  <SCORE.norm>
-1.02108

>  <RMSD>
0.567

$$$$
ligand
 OpenBabel11021811493D
libRbt.so/2013.1/901 2013/11/27
 11 12  0  0  0  0  0  0  0  0999 V2000
   11.9968   11.6000    8.5650 N   0  0  0  0  0  0  0  0  0  0  0  0
   11.5940   12.8593    8.7987 C   0  0  0  0  0  0  0  0  0  0  0  0
   11.6345   13.3507   10.0928 N   0  0  0  0  0  0  0  0  0  0  0  0
   11.1537   13.6504    7.8067 N   0  0  0  0  0  0  0  0  0  0  0  0
   11.1019   13.2010    6.5311 C   0  0  0  0  0  0  0  0  0  0  0  0
   11.5181   11.8778    6.2377 C   0  0  0  0  0  0  0  0  0  0  0  0
   11.9771   11.0730    7.3227 C   0  0  0  0  0  0  0  0  0  0  0  0
   12.3984    9.7736    7.1135 N   0  0  0  0  0  0  0  0  0  0  0  0
   11.3601   11.6948    4.9036 N   0  0  0  0  0  0  0  0  0  0  0  0
   10.8884   12.7863    4.3705 C   0  0  0  0  0  0  0  0  0  0  0  0
   10.7134   13.7425    5.3327 N   0  0  0  0  0  0  0  0  0  0  0  0
  1  7  2  0  0  0  0
  1  2  1  0  0  0  0
  2  3  1  0  0  0  0
  2  4  2  0  0  0  0
  4  5  1  0  0  0  0
  5  6  2  0  0  0  0
  5 11  1  0  0  0  0
  6  7  1  0  0  0  0
  6  9  1  0  0  0  0
  7  8  1  0  0  0  0
  9 10  1  0  0  0  0
 10 11  2  0  0  0  0
M  END
>  <CHROM.1>
11.48992505,12.32596460,7.03139064,-1.12926201,1.20118458,-2.01016646

>  <Name>
ligand

>  <RI>
0

>  <Rbt.Current_Directory>
/home/itssahil/PROJECTS/Mol_Feturizer/New_Systems/rnas/4FEP

>  <Rbt.Executable>
rbdock ($Id: //depot/dev/client3/rdock/2013.1/src/exe/rbdock.cxx#4 $)

>  <Rbt.Library>
libRbt.so (2013.1, Build901 2013/11/27)

>  <Rbt.Parameter_File>
/export/apps/rDock/src/rDock_2013.1_src/data/scripts/dock_solv.prm

>  <Rbt.Receptor>
prm/pocket_docking_8.prm

>  <SCORE>
-11.2455

>  <SCORE.INTER>
-11.2455

>  <SCORE.INTER.CONST>
1

>  <SCORE.INTER.POLAR>
0

>  <SCORE.INTER.ROT>
0

>  <SCORE.INTER.SOLV>
20.8654

>  <SCORE.INTER.VDW>
-18.0521

>  <SCORE.INTER.norm>
-1.02231

>  <SCORE.INTRA>
0

>  <SCORE.INTRA.DIHEDRAL>
0

>  <SCORE.INTRA.DIHEDRAL.0>
0

>  <SCORE.INTRA.POLAR>
0

>  <SCORE.INTRA.POLAR.0>
0

>  <SCORE.INTRA.REPUL>
0

>  <SCORE.INTRA.REPUL.0>
0

>  <SCORE.INTRA.SOLV>
0

>  <SCORE.INTRA.SOLV.lig_0>
-48.9558

>  <SCORE.INTRA.VDW>
0

>  <SCORE.INTRA.VDW.0>
0

>  <SCORE.INTRA.norm>
0

>  <SCORE.RESTR>
0

>  <SCORE.RESTR.CAVITY>
0

>  <SCORE.RESTR.norm>
0

>  <SCORE.SYSTEM>
0

>  <SCORE.SYSTEM.CONST>
0

>  <SCORE.SYSTEM.DIHEDRAL>
0

>  <SCORE.SYSTEM.SOLV>
0

>  <SCORE.SYSTEM.norm>
0

>  <SCORE.heavy>
11

>  <SCORE.norm>
-1.02231

>  <RMSD>
0.568

$$$$
ligand
 OpenBabel11021811493D
libRbt.so/2013.1/901 2013/11/27
 11 12  0  0  0  0  0  0  0  0999 V2000
   12.0011   11.5986    8.5648 N   0  0  0  0  0  0  0  0  0  0  0  0
   11.5986   12.8602    8.7867 C   0  0  0  0  0  0  0  0  0  0  0  0
   11.6400   13.3640   10.0760 N   0  0  0  0  0  0  0  0  0  0  0  0
   11.1580   13.6419    7.7875 N   0  0  0  0  0  0  0  0  0  0  0  0
   11.1054   13.1804    6.5162 C   0  0  0  0  0  0  0  0  0  0  0  0
   11.5211   11.8543    6.2353 C   0  0  0  0  0  0  0  0  0  0  0  0
   11.9806   11.0598    7.3276 C   0  0  0  0  0  0  0  0  0  0  0  0
   12.4015    9.7584    7.1306 N   0  0  0  0  0  0  0  0  0  0  0  0
   11.3623   11.6586    4.9030 N   0  0  0  0  0  0  0  0  0  0  0  0
   10.8906   12.7451    4.3598 C   0  0  0  0  0  0  0  0  0  0  0  0
   10.7164   13.7104    5.3129 N   0  0  0  0  0  0  0  0  0  0  0  0
  1  7  2  0  0  0  0
  1  2  1  0  0  0  0
  2  3  1  0  0  0  0
  2  4  2  0  0  0  0
  4  5  1  0  0  0  0
  5  6  2  0  0  0  0
  5 11  1  0  0  0  0
  6  7  1  0  0  0  0
  6  9  1  0  0  0  0
  7  8  1  0  0  0  0
  9 10  1  0  0  0  0
 10 11  2  0  0  0  0
M  END
>  <CHROM.1>
11.49350627,12.31004031,7.02462838,-1.12761074,1.20113871,-2.02125824

>  <Name>
ligand

>  <RI>
0

>  <Rbt.Current_Directory>
/home/itssahil/PROJECTS/Mol_Feturizer/New_Systems/rnas/4FEP

>  <Rbt.Executable>
rbdock ($Id: //depot/dev/client3/rdock/2013.1/src/exe/rbdock.cxx#4 $)

>  <Rbt.Library>
libRbt.so (2013.1, Build901 2013/11/27)

>  <Rbt.Parameter_File>
/export/apps/rDock/src/rDock_2013.1_src/data/scripts/dock_solv.prm

>  <Rbt.Receptor>
prm/pocket_docking_4.prm

>  <SCORE>
-11.1945

>  <SCORE.INTER>
-11.1945

>  <SCORE.INTER.CONST>
1

>  <SCORE.INTER.POLAR>
0

>  <SCORE.INTER.ROT>
0

>  <SCORE.INTER.SOLV>
20.8544

>  <SCORE.INTER.VDW>
-18.0145

>  <SCORE.INTER.norm>
-1.01768

>  <SCORE.INTRA>
0

>  <SCORE.INTRA.DIHEDRAL>
0

>  <SCORE.INTRA.DIHEDRAL.0>
0

>  <SCORE.INTRA.POLAR>
0

>  <SCORE.INTRA.POLAR.0>
0

>  <SCORE.INTRA.REPUL>
0

>  <SCORE.INTRA.REPUL.0>
0

>  <SCORE.INTRA.SOLV>
0

>  <SCORE.INTRA.SOLV.lig_0>
-48.9558

>  <SCORE.INTRA.VDW>
0

>  <SCORE.INTRA.VDW.0>
0

>  <SCORE.INTRA.norm>
0

>  <SCORE.RESTR>
0

>  <SCORE.RESTR.CAVITY>
0

>  <SCORE.RESTR.norm>
0

>  <SCORE.SYSTEM>
0

>  <SCORE.SYSTEM.CONST>
0

>  <SCORE.SYSTEM.DIHEDRAL>
0

>  <SCORE.SYSTEM.SOLV>
0

>  <SCORE.SYSTEM.norm>
0

>  <SCORE.heavy>
11

>  <SCORE.norm>
-1.01768

>  <RMSD>
0.569

$$$$
ligand
 OpenBabel11021811493D
libRbt.so/2013.1/901 2013/11/27
 11 12  0  0  0  0  0  0  0  0999 V2000
   11.9863   11.5820    8.5784 N   0  0  0  0  0  0  0  0  0  0  0  0
   11.6296   12.8560    8.8073 C   0  0  0  0  0  0  0  0  0  0  0  0
   11.6830   13.3490   10.1002 N   0  0  0  0  0  0  0  0  0  0  0  0
   11.2230   13.6603    7.8115 N   0  0  0  0  0  0  0  0  0  0  0  0
   11.1598   13.2097    6.5368 C   0  0  0  0  0  0  0  0  0  0  0  0
   11.5277   11.8712    6.2485 C   0  0  0  0  0  0  0  0  0  0  0  0
   11.9522   11.0528    7.3373 C   0  0  0  0  0  0  0  0  0  0  0  0
   12.3258    9.7381    7.1332 N   0  0  0  0  0  0  0  0  0  0  0  0
   11.3685   11.6906    4.9141 N   0  0  0  0  0  0  0  0  0  0  0  0
   10.9398   12.7975    4.3764 C   0  0  0  0  0  0  0  0  0  0  0  0
   10.7965   13.7620    5.3354 N   0  0  0  0  0  0  0  0  0  0  0  0
  1  7  2  0  0  0  0
  1  2  1  0  0  0  0
  2  3  1  0  0  0  0
  2  4  2  0  0  0  0
  4  5  1  0  0  0  0
  5  6  2  0  0  0  0
  5 11  1  0  0  0  0
  6  7  1  0  0  0  0
  6  9  1  0  0  0  0
  7  8  1  0  0  0  0
  9 10  1  0  0  0  0
 10 11  2  0  0  0  0
M  END
>  <CHROM.1>
11.51297953,12.32220231,7.04086936,-1.09238406,1.23629460,-2.04737329

>  <Name>
ligand

>  <RI>
0

>  <Rbt.Current_Directory>
/home/itssahil/PROJECTS/Mol_Feturizer/New_Systems/rnas/4FEP

>  <Rbt.Executable>
rbdock ($Id: //depot/dev/client3/rdock/2013.1/src/exe/rbdock.cxx#4 $)

>  <Rbt.Library>
libRbt.so (2013.1, Build901 2013/11/27)

>  <Rbt.Parameter_File>
/export/apps/rDock/src/rDock_2013.1_src/data/scripts/dock_solv.prm

>  <Rbt.Receptor>
prm/pocket_docking_5.prm

>  <SCORE>
-11.2025

>  <SCORE.INTER>
-11.2025

>  <SCORE.INTER.CONST>
1

>  <SCORE.INTER.POLAR>
0

>  <SCORE.INTER.ROT>
0

>  <SCORE.INTER.SOLV>
21.138

>  <SCORE.INTER.VDW>
-18.1143

>  <SCORE.INTER.norm>
-1.01841

>  <SCORE.INTRA>
0

>  <SCORE.INTRA.DIHEDRAL>
0

>  <SCORE.INTRA.DIHEDRAL.0>
0

>  <SCORE.INTRA.POLAR>
0

>  <SCORE.INTRA.POLAR.0>
0

>  <SCORE.INTRA.REPUL>
0

>  <SCORE.INTRA.REPUL.0>
0

>  <SCORE.INTRA.SOLV>
0

>  <SCORE.INTRA.SOLV.lig_0>
-48.9558

>  <SCORE.INTRA.VDW>
0

>  <SCORE.INTRA.VDW.0>
0

>  <SCORE.INTRA.norm>
0

>  <SCORE.RESTR>
0

>  <SCORE.RESTR.CAVITY>
0

>  <SCORE.RESTR.norm>
0

>  <SCORE.SYSTEM>
0

>  <SCORE.SYSTEM.CONST>
0

>  <SCORE.SYSTEM.DIHEDRAL>
0

>  <SCORE.SYSTEM.SOLV>
0

>  <SCORE.SYSTEM.norm>
0

>  <SCORE.heavy>
11

>  <SCORE.norm>
-1.01841

>  <RMSD>
0.569

$$$$
ligand
 OpenBabel11021811493D
libRbt.so/2013.1/901 2013/11/27
 11 12  0  0  0  0  0  0  0  0999 V2000
   11.9729   11.5930    8.5745 N   0  0  0  0  0  0  0  0  0  0  0  0
   11.5856   12.8593    8.7967 C   0  0  0  0  0  0  0  0  0  0  0  0
   11.6185   13.3574   10.0883 N   0  0  0  0  0  0  0  0  0  0  0  0
   11.1678   13.6509    7.7954 N   0  0  0  0  0  0  0  0  0  0  0  0
   11.1239   13.1949    6.5218 C   0  0  0  0  0  0  0  0  0  0  0  0
   11.5244   11.8643    6.2405 C   0  0  0  0  0  0  0  0  0  0  0  0
   11.9597   11.0592    7.3350 C   0  0  0  0  0  0  0  0  0  0  0  0
   12.3646    9.7528    7.1379 N   0  0  0  0  0  0  0  0  0  0  0  0
   11.3787   11.6758    4.9057 N   0  0  0  0  0  0  0  0  0  0  0  0
   10.9288   12.7709    4.3612 C   0  0  0  0  0  0  0  0  0  0  0  0
   10.7567   13.7350    5.3161 N   0  0  0  0  0  0  0  0  0  0  0  0
  1  7  2  0  0  0  0
  1  2  1  0  0  0  0
  2  3  1  0  0  0  0
  2  4  2  0  0  0  0
  4  5  1  0  0  0  0
  5  6  2  0  0  0  0
  5 11  1  0  0  0  0
  6  7  1  0  0  0  0
  6  9  1  0  0  0  0
  7  8  1  0  0  0  0
  9 10  1  0  0  0  0
 10 11  2  0  0  0  0
M  END
>  <CHROM.1>
11.49372215,12.31730877,7.03124822,-1.14105188,1.21889520,-2.00478830

>  <Name>
ligand

>  <RI>
0

>  <Rbt.Current_Directory>
/home/itssahil/PROJECTS/Mol_Feturizer/New_Systems/rnas/4FEP

>  <Rbt.Executable>
rbdock ($Id: //depot/dev/client3/rdock/2013.1/src/exe/rbdock.cxx#4 $)

>  <Rbt.Library>
libRbt.so (2013.1, Build901 2013/11/27)

>  <Rbt.Parameter_File>
/export/apps/rDock/src/rDock_2013.1_src/data/scripts/dock_solv.prm

>  <Rbt.Receptor>
prm/pocket_docking_6.prm

>  <SCORE>
-11.269

>  <SCORE.INTER>
-11.269

>  <SCORE.INTER.CONST>
1

>  <SCORE.INTER.POLAR>
0

>  <SCORE.INTER.ROT>
0

>  <SCORE.INTER.SOLV>
20.9881

>  <SCORE.INTER.VDW>
-18.1087

>  <SCORE.INTER.norm>
-1.02445

>  <SCORE.INTRA>
0

>  <SCORE.INTRA.DIHEDRAL>
0

>  <SCORE.INTRA.DIHEDRAL.0>
0

>  <SCORE.INTRA.POLAR>
0

>  <SCORE.INTRA.POLAR.0>
0

>  <SCORE.INTRA.REPUL>
0

>  <SCORE.INTRA.REPUL.0>
0

>  <SCORE.INTRA.SOLV>
0

>  <SCORE.INTRA.SOLV.lig_0>
-48.9558

>  <SCORE.INTRA.VDW>
0

>  <SCORE.INTRA.VDW.0>
0

>  <SCORE.INTRA.norm>
0

>  <SCORE.RESTR>
0

>  <SCORE.RESTR.CAVITY>
0

>  <SCORE.RESTR.norm>
0

>  <SCORE.SYSTEM>
0

>  <SCORE.SYSTEM.CONST>
0

>  <SCORE.SYSTEM.DIHEDRAL>
0

>  <SCORE.SYSTEM.SOLV>
0

>  <SCORE.SYSTEM.norm>
0

>  <SCORE.heavy>
11

>  <SCORE.norm>
-1.02445

>  <RMSD>
0.569

$$$$
ligand
 OpenBabel11021811493D
libRbt.so/2013.1/901 2013/11/27
 11 12  0  0  0  0  0  0  0  0999 V2000
   11.9793   11.5943    8.5730 N   0  0  0  0  0  0  0  0  0  0  0  0
   11.5952   12.8614    8.7958 C   0  0  0  0  0  0  0  0  0  0  0  0
   11.6323   13.3597   10.0873 N   0  0  0  0  0  0  0  0  0  0  0  0
   11.1768   13.6537    7.7953 N   0  0  0  0  0  0  0  0  0  0  0  0
   11.1290   13.1977    6.5219 C   0  0  0  0  0  0  0  0  0  0  0  0
   11.5260   11.8661    6.2400 C   0  0  0  0  0  0  0  0  0  0  0  0
   11.9620   11.0604    7.3336 C   0  0  0  0  0  0  0  0  0  0  0  0
   12.3637    9.7530    7.1358 N   0  0  0  0  0  0  0  0  0  0  0  0
   11.3768   11.6778    4.9055 N   0  0  0  0  0  0  0  0  0  0  0  0
   10.9280   12.7738    4.3619 C   0  0  0  0  0  0  0  0  0  0  0  0
   10.7602   13.7383    5.3170 N   0  0  0  0  0  0  0  0  0  0  0  0
  1  7  2  0  0  0  0
  1  2  1  0  0  0  0
  2  3  1  0  0  0  0
  2  4  2  0  0  0  0
  4  5  1  0  0  0  0
  5  6  2  0  0  0  0
  5 11  1  0  0  0  0
  6  7  1  0  0  0  0
  6  9  1  0  0  0  0
  7  8  1  0  0  0  0
  9 10  1  0  0  0  0
 10 11  2  0  0  0  0
M  END
>  <CHROM.1>
11.49811450,12.31936552,7.03072067,-1.13227699,1.21985919,-2.01320220

>  <Name>
ligand

>  <RI>
0

>  <Rbt.Current_Directory>
/home/itssahil/PROJECTS/Mol_Feturizer/New_Systems/rnas/4FEP

>  <Rbt.Executable>
rbdock ($Id: //depot/dev/client3/rdock/2013.1/src/exe/rbdock.cxx#4 $)

>  <Rbt.Library>
libRbt.so (2013.1, Build901 2013/11/27)

>  <Rbt.Parameter_File>
/export/apps/rDock/src/rDock_2013.1_src/data/scripts/dock_solv.prm

>  <Rbt.Receptor>
prm/pocket_docking_4.prm

>  <SCORE>
-11.2659

>  <SCORE.INTER>
-11.2659

>  <SCORE.INTER.CONST>
1

>  <SCORE.INTER.POLAR>
0

>  <SCORE.INTER.ROT>
0

>  <SCORE.INTER.SOLV>
20.9924

>  <SCORE.INTER.VDW>
-18.1081

>  <SCORE.INTER.norm>
-1.02417

>  <SCORE.INTRA>
0

>  <SCORE.INTRA.DIHEDRAL>
0

>  <SCORE.INTRA.DIHEDRAL.0>
0

>  <SCORE.INTRA.POLAR>
0

>  <SCORE.INTRA.POLAR.0>
0

>  <SCORE.INTRA.REPUL>
0

>  <SCORE.INTRA.REPUL.0>
0

>  <SCORE.INTRA.SOLV>
0

>  <SCORE.INTRA.SOLV.lig_0>
-48.9558

>  <SCORE.INTRA.VDW>
0

>  <SCORE.INTRA.VDW.0>
0

>  <SCORE.INTRA.norm>
0

>  <SCORE.RESTR>
0

>  <SCORE.RESTR.CAVITY>
0

>  <SCORE.RESTR.norm>
0

>  <SCORE.SYSTEM>
0

>  <SCORE.SYSTEM.CONST>
0

>  <SCORE.SYSTEM.DIHEDRAL>
0

>  <SCORE.SYSTEM.SOLV>
0

>  <SCORE.SYSTEM.norm>
0

>  <SCORE.heavy>
11

>  <SCORE.norm>
-1.02417

>  <RMSD>
0.570

$$$$
ligand
 OpenBabel11021811493D
libRbt.so/2013.1/901 2013/11/27
 11 12  0  0  0  0  0  0  0  0999 V2000
   11.9555   11.5965    8.5775 N   0  0  0  0  0  0  0  0  0  0  0  0
   11.5674   12.8633    8.7956 C   0  0  0  0  0  0  0  0  0  0  0  0
   11.5932   13.3633   10.0867 N   0  0  0  0  0  0  0  0  0  0  0  0
   11.1558   13.6536    7.7908 N   0  0  0  0  0  0  0  0  0  0  0  0
   11.1191   13.1959    6.5176 C   0  0  0  0  0  0  0  0  0  0  0  0
   11.5206   11.8646    6.2405 C   0  0  0  0  0  0  0  0  0  0  0  0
   11.9491   11.0610    7.3387 C   0  0  0  0  0  0  0  0  0  0  0  0
   12.3546    9.7540    7.1457 N   0  0  0  0  0  0  0  0  0  0  0  0
   11.3825   11.6743    4.9051 N   0  0  0  0  0  0  0  0  0  0  0  0
   10.9362   12.7689    4.3566 C   0  0  0  0  0  0  0  0  0  0  0  0
   10.7591   13.7344    5.3090 N   0  0  0  0  0  0  0  0  0  0  0  0
  1  7  2  0  0  0  0
  1  2  1  0  0  0  0
  2  3  1  0  0  0  0
  2  4  2  0  0  0  0
  4  5  1  0  0  0  0
  5  6  2  0  0  0  0
  5 11  1  0  0  0  0
  6  7  1  0  0  0  0
  6  9  1  0  0  0  0
  7  8  1  0  0  0  0
  9 10  1  0  0  0  0
 10 11  2  0  0  0  0
M  END
>  <CHROM.1>
11.48554882,12.31881910,7.03044558,-1.15577885,1.22170094,-1.99238661

>  <Name>
ligand

>  <RI>
0

>  <Rbt.Current_Directory>
/home/itssahil/PROJECTS/Mol_Feturizer/New_Systems/rnas/4FEP

>  <Rbt.Executable>
rbdock ($Id: //depot/dev/client3/rdock/2013.1/src/exe/rbdock.cxx#4 $)

>  <Rbt.Library>
libRbt.so (2013.1, Build901 2013/11/27)

>  <Rbt.Parameter_File>
/export/apps/rDock/src/rDock_2013.1_src/data/scripts/dock_solv.prm

>  <Rbt.Receptor>
prm/blind_docking_40.prm

>  <SCORE>
-11.2701

>  <SCORE.INTER>
-11.2701

>  <SCORE.INTER.CONST>
1

>  <SCORE.INTER.POLAR>
0

>  <SCORE.INTER.ROT>
0

>  <SCORE.INTER.SOLV>
21.0346

>  <SCORE.INTER.VDW>
-18.1249

>  <SCORE.INTER.norm>
-1.02455

>  <SCORE.INTRA>
0

>  <SCORE.INTRA.DIHEDRAL>
0

>  <SCORE.INTRA.DIHEDRAL.0>
0

>  <SCORE.INTRA.POLAR>
0

>  <SCORE.INTRA.POLAR.0>
0

>  <SCORE.INTRA.REPUL>
0

>  <SCORE.INTRA.REPUL.0>
0

>  <SCORE.INTRA.SOLV>
0

>  <SCORE.INTRA.SOLV.lig_0>
-48.9558

>  <SCORE.INTRA.VDW>
0

>  <SCORE.INTRA.VDW.0>
0

>  <SCORE.INTRA.norm>
0

>  <SCORE.RESTR>
0

>  <SCORE.RESTR.CAVITY>
0

>  <SCORE.RESTR.norm>
0

>  <SCORE.SYSTEM>
0

>  <SCORE.SYSTEM.CONST>
0

>  <SCORE.SYSTEM.DIHEDRAL>
0

>  <SCORE.SYSTEM.SOLV>
0

>  <SCORE.SYSTEM.norm>
0

>  <SCORE.heavy>
11

>  <SCORE.norm>
-1.02455

>  <RMSD>
0.571

$$$$
ligand
 OpenBabel11021811493D
libRbt.so/2013.1/901 2013/11/27
 11 12  0  0  0  0  0  0  0  0999 V2000
   11.9685   11.5970    8.5752 N   0  0  0  0  0  0  0  0  0  0  0  0
   11.5838   12.8645    8.7954 C   0  0  0  0  0  0  0  0  0  0  0  0
   11.6169   13.3642   10.0865 N   0  0  0  0  0  0  0  0  0  0  0  0
   11.1687   13.6558    7.7928 N   0  0  0  0  0  0  0  0  0  0  0  0
   11.1249   13.1984    6.5197 C   0  0  0  0  0  0  0  0  0  0  0  0
   11.5225   11.8664    6.2404 C   0  0  0  0  0  0  0  0  0  0  0  0
   11.9550   11.0618    7.3363 C   0  0  0  0  0  0  0  0  0  0  0  0
   12.3571    9.7541    7.1411 N   0  0  0  0  0  0  0  0  0  0  0  0
   11.3775   11.6767    4.9057 N   0  0  0  0  0  0  0  0  0  0  0  0
   10.9306   12.7721    4.3596 C   0  0  0  0  0  0  0  0  0  0  0  0
   10.7599   13.7378    5.3131 N   0  0  0  0  0  0  0  0  0  0  0  0
  1  7  2  0  0  0  0
  1  2  1  0  0  0  0
  2  3  1  0  0  0  0
  2  4  2  0  0  0  0
  4  5  1  0  0  0  0
  5  6  2  0  0  0  0
  5 11  1  0  0  0  0
  6  7  1  0  0  0  0
  6  9  1  0  0  0  0
  7  8  1  0  0  0  0
  9 10  1  0  0  0  0
 10 11  2  0  0  0  0
M  END
>  <CHROM.1>
11.49222014,12.32053549,7.03062124,-1.14044859,1.22132575,-2.00659724

>  <Name>
ligand

>  <RI>
0

>  <Rbt.Current_Directory>
/home/itssahil/PROJECTS/Mol_Feturizer/New_Systems/rnas/4FEP

>  <Rbt.Executable>
rbdock ($Id: //depot/dev/client3/rdock/2013.1/src/exe/rbdock.cxx#4 $)

>  <Rbt.Library>
libRbt.so (2013.1, Build901 2013/11/27)

>  <Rbt.Parameter_File>
/export/apps/rDock/src/rDock_2013.1_src/data/scripts/dock_solv.prm

>  <Rbt.Receptor>
prm/pocket_docking_4.prm

>  <SCORE>
-11.2679

>  <SCORE.INTER>
-11.2679

>  <SCORE.INTER.CONST>
1

>  <SCORE.INTER.POLAR>
0

>  <SCORE.INTER.ROT>
0

>  <SCORE.INTER.SOLV>
21.0231

>  <SCORE.INTER.VDW>
-18.1196

>  <SCORE.INTER.norm>
-1.02435

>  <SCORE.INTRA>
0

>  <SCORE.INTRA.DIHEDRAL>
0

>  <SCORE.INTRA.DIHEDRAL.0>
0

>  <SCORE.INTRA.POLAR>
0

>  <SCORE.INTRA.POLAR.0>
0

>  <SCORE.INTRA.REPUL>
0

>  <SCORE.INTRA.REPUL.0>
0

>  <SCORE.INTRA.SOLV>
0

>  <SCORE.INTRA.SOLV.lig_0>
-48.9558

>  <SCORE.INTRA.VDW>
0

>  <SCORE.INTRA.VDW.0>
0

>  <SCORE.INTRA.norm>
0

>  <SCORE.RESTR>
0

>  <SCORE.RESTR.CAVITY>
0

>  <SCORE.RESTR.norm>
0

>  <SCORE.SYSTEM>
0

>  <SCORE.SYSTEM.CONST>
0

>  <SCORE.SYSTEM.DIHEDRAL>
0

>  <SCORE.SYSTEM.SOLV>
0

>  <SCORE.SYSTEM.norm>
0

>  <SCORE.heavy>
11

>  <SCORE.norm>
-1.02435

>  <RMSD>
0.571

$$$$
ligand
 OpenBabel11021811493D
libRbt.so/2013.1/901 2013/11/27
 11 12  0  0  0  0  0  0  0  0999 V2000
   11.9635   11.5970    8.5758 N   0  0  0  0  0  0  0  0  0  0  0  0
   11.5755   12.8637    8.7947 C   0  0  0  0  0  0  0  0  0  0  0  0
   11.6037   13.3638   10.0857 N   0  0  0  0  0  0  0  0  0  0  0  0
   11.1617   13.6539    7.7906 N   0  0  0  0  0  0  0  0  0  0  0  0
   11.1226   13.1962    6.5176 C   0  0  0  0  0  0  0  0  0  0  0  0
   11.5238   11.8650    6.2398 C   0  0  0  0  0  0  0  0  0  0  0  0
   11.9548   11.0615    7.3371 C   0  0  0  0  0  0  0  0  0  0  0  0
   12.3602    9.7546    7.1434 N   0  0  0  0  0  0  0  0  0  0  0  0
   11.3832   11.6746    4.9047 N   0  0  0  0  0  0  0  0  0  0  0  0
   10.9356   12.7690    4.3569 C   0  0  0  0  0  0  0  0  0  0  0  0
   10.7600   13.7345    5.3097 N   0  0  0  0  0  0  0  0  0  0  0  0
  1  7  2  0  0  0  0
  1  2  1  0  0  0  0
  2  3  1  0  0  0  0
  2  4  2  0  0  0  0
  4  5  1  0  0  0  0
  5  6  2  0  0  0  0
  5 11  1  0  0  0  0
  6  7  1  0  0  0  0
  6  9  1  0  0  0  0
  7  8  1  0  0  0  0
  9 10  1  0  0  0  0
 10 11  2  0  0  0  0
M  END
>  <CHROM.1>
11.49026950,12.31919313,7.02973880,-1.15084388,1.22064974,-1.99706973

>  <Name>
ligand

>  <RI>
0

>  <Rbt.Current_Directory>
/home/itssahil/PROJECTS/Mol_Feturizer/New_Systems/rnas/4FEP

>  <Rbt.Executable>
rbdock ($Id: //depot/dev/client3/rdock/2013.1/src/exe/rbdock.cxx#4 $)

>  <Rbt.Library>
libRbt.so (2013.1, Build901 2013/11/27)

>  <Rbt.Parameter_File>
/export/apps/rDock/src/rDock_2013.1_src/data/scripts/dock_solv.prm

>  <Rbt.Receptor>
prm/pocket_docking_6.prm

>  <SCORE>
-11.2699

>  <SCORE.INTER>
-11.2699

>  <SCORE.INTER.CONST>
1

>  <SCORE.INTER.POLAR>
0

>  <SCORE.INTER.ROT>
0

>  <SCORE.INTER.SOLV>
21.0148

>  <SCORE.INTER.VDW>
-18.1182

>  <SCORE.INTER.norm>
-1.02454

>  <SCORE.INTRA>
0

>  <SCORE.INTRA.DIHEDRAL>
0

>  <SCORE.INTRA.DIHEDRAL.0>
0

>  <SCORE.INTRA.POLAR>
0

>  <SCORE.INTRA.POLAR.0>
0

>  <SCORE.INTRA.REPUL>
0

>  <SCORE.INTRA.REPUL.0>
0

>  <SCORE.INTRA.SOLV>
0

>  <SCORE.INTRA.SOLV.lig_0>
-48.9558

>  <SCORE.INTRA.VDW>
0

>  <SCORE.INTRA.VDW.0>
0

>  <SCORE.INTRA.norm>
0

>  <SCORE.RESTR>
0

>  <SCORE.RESTR.CAVITY>
0

>  <SCORE.RESTR.norm>
0

>  <SCORE.SYSTEM>
0

>  <SCORE.SYSTEM.CONST>
0

>  <SCORE.SYSTEM.DIHEDRAL>
0

>  <SCORE.SYSTEM.SOLV>
0

>  <SCORE.SYSTEM.norm>
0

>  <SCORE.heavy>
11

>  <SCORE.norm>
-1.02454

>  <RMSD>
0.571

$$$$
ligand
 OpenBabel11021811493D
libRbt.so/2013.1/901 2013/11/27
 11 12  0  0  0  0  0  0  0  0999 V2000
   11.9614   11.5930    8.5761 N   0  0  0  0  0  0  0  0  0  0  0  0
   11.5766   12.8604    8.7961 C   0  0  0  0  0  0  0  0  0  0  0  0
   11.6057   13.3592   10.0875 N   0  0  0  0  0  0  0  0  0  0  0  0
   11.1650   13.6526    7.7927 N   0  0  0  0  0  0  0  0  0  0  0  0
   11.1249   13.1961    6.5192 C   0  0  0  0  0  0  0  0  0  0  0  0
   11.5229   11.8642    6.2402 C   0  0  0  0  0  0  0  0  0  0  0  0
   11.9516   11.0586    7.3368 C   0  0  0  0  0  0  0  0  0  0  0  0
   12.3538    9.7509    7.1421 N   0  0  0  0  0  0  0  0  0  0  0  0
   11.3821   11.6754    4.9049 N   0  0  0  0  0  0  0  0  0  0  0  0
   10.9373   12.7715    4.3581 C   0  0  0  0  0  0  0  0  0  0  0  0
   10.7640   13.7365    5.3117 N   0  0  0  0  0  0  0  0  0  0  0  0
  1  7  2  0  0  0  0
  1  2  1  0  0  0  0
  2  3  1  0  0  0  0
  2  4  2  0  0  0  0
  4  5  1  0  0  0  0
  5  6  2  0  0  0  0
  5 11  1  0  0  0  0
  6  7  1  0  0  0  0
  6  9  1  0  0  0  0
  7  8  1  0  0  0  0
  9 10  1  0  0  0  0
 10 11  2  0  0  0  0
M  END
>  <CHROM.1>
11.49030147,12.31776392,7.03058536,-1.14832571,1.22303974,-1.99849568

>  <Name>
ligand

>  <RI>
0

>  <Rbt.Current_Directory>
/home/itssahil/PROJECTS/Mol_Feturizer/New_Systems/rnas/4FEP

>  <Rbt.Executable>
rbdock ($Id: //depot/dev/client3/rdock/2013.1/src/exe/rbdock.cxx#4 $)

>  <Rbt.Library>
libRbt.so (2013.1, Build901 2013/11/27)

>  <Rbt.Parameter_File>
/export/apps/rDock/src/rDock_2013.1_src/data/scripts/dock_solv.prm

>  <Rbt.Receptor>
prm/pocket_docking_6.prm

>  <SCORE>
-11.27

>  <SCORE.INTER>
-11.27

>  <SCORE.INTER.CONST>
1

>  <SCORE.INTER.POLAR>
0

>  <SCORE.INTER.ROT>
0

>  <SCORE.INTER.SOLV>
21.0347

>  <SCORE.INTER.VDW>
-18.1249

>  <SCORE.INTER.norm>
-1.02454

>  <SCORE.INTRA>
0

>  <SCORE.INTRA.DIHEDRAL>
0

>  <SCORE.INTRA.DIHEDRAL.0>
0

>  <SCORE.INTRA.POLAR>
0

>  <SCORE.INTRA.POLAR.0>
0

>  <SCORE.INTRA.REPUL>
0

>  <SCORE.INTRA.REPUL.0>
0

>  <SCORE.INTRA.SOLV>
0

>  <SCORE.INTRA.SOLV.lig_0>
-48.9558

>  <SCORE.INTRA.VDW>
0

>  <SCORE.INTRA.VDW.0>
0

>  <SCORE.INTRA.norm>
0

>  <SCORE.RESTR>
0

>  <SCORE.RESTR.CAVITY>
0

>  <SCORE.RESTR.norm>
0

>  <SCORE.SYSTEM>
0

>  <SCORE.SYSTEM.CONST>
0

>  <SCORE.SYSTEM.DIHEDRAL>
0

>  <SCORE.SYSTEM.SOLV>
0

>  <SCORE.SYSTEM.norm>
0

>  <SCORE.heavy>
11

>  <SCORE.norm>
-1.02454

>  <RMSD>
0.571

$$$$
ligand
 OpenBabel11021811493D
libRbt.so/2013.1/901 2013/11/27
 11 12  0  0  0  0  0  0  0  0999 V2000
   11.9755   11.5934    8.5726 N   0  0  0  0  0  0  0  0  0  0  0  0
   11.5913   12.8607    8.7944 C   0  0  0  0  0  0  0  0  0  0  0  0
   11.6255   13.3591   10.0859 N   0  0  0  0  0  0  0  0  0  0  0  0
   11.1757   13.6531    7.7929 N   0  0  0  0  0  0  0  0  0  0  0  0
   11.1308   13.1970    6.5194 C   0  0  0  0  0  0  0  0  0  0  0  0
   11.5279   11.8652    6.2385 C   0  0  0  0  0  0  0  0  0  0  0  0
   11.9610   11.0594    7.3332 C   0  0  0  0  0  0  0  0  0  0  0  0
   12.3625    9.7518    7.1365 N   0  0  0  0  0  0  0  0  0  0  0  0
   11.3819   11.6768    4.9037 N   0  0  0  0  0  0  0  0  0  0  0  0
   10.9348   12.7730    4.3589 C   0  0  0  0  0  0  0  0  0  0  0  0
   10.7651   13.7377    5.3135 N   0  0  0  0  0  0  0  0  0  0  0  0
  1  7  2  0  0  0  0
  1  2  1  0  0  0  0
  2  3  1  0  0  0  0
  2  4  2  0  0  0  0
  4  5  1  0  0  0  0
  5  6  2  0  0  0  0
  5 11  1  0  0  0  0
  6  7  1  0  0  0  0
  6  9  1  0  0  0  0
  7  8  1  0  0  0  0
  9 10  1  0  0  0  0
 10 11  2  0  0  0  0
M  END
>  <CHROM.1>
11.49830107,12.31853629,7.02913783,-1.13817579,1.22127933,-2.00774010

>  <Name>
ligand

>  <RI>
0

>  <Rbt.Current_Directory>
/home/itssahil/PROJECTS/Mol_Feturizer/New_Systems/rnas/4FEP

>  <Rbt.Executable>
rbdock ($Id: //depot/dev/client3/rdock/2013.1/src/exe/rbdock.cxx#4 $)

>  <Rbt.Library>
libRbt.so (2013.1, Build901 2013/11/27)

>  <Rbt.Parameter_File>
/export/apps/rDock/src/rDock_2013.1_src/data/scripts/dock_solv.prm

>  <Rbt.Receptor>
prm/blind_docking_60.prm

>  <SCORE>
-11.2676

>  <SCORE.INTER>
-11.2676

>  <SCORE.INTER.CONST>
1

>  <SCORE.INTER.POLAR>
0

>  <SCORE.INTER.ROT>
0

>  <SCORE.INTER.SOLV>
20.9998

>  <SCORE.INTER.VDW>
-18.1117

>  <SCORE.INTER.norm>
-1.02433

>  <SCORE.INTRA>
0

>  <SCORE.INTRA.DIHEDRAL>
0

>  <SCORE.INTRA.DIHEDRAL.0>
0

>  <SCORE.INTRA.POLAR>
0

>  <SCORE.INTRA.POLAR.0>
0

>  <SCORE.INTRA.REPUL>
0

>  <SCORE.INTRA.REPUL.0>
0

>  <SCORE.INTRA.SOLV>
0

>  <SCORE.INTRA.SOLV.lig_0>
-48.9558

>  <SCORE.INTRA.VDW>
0

>  <SCORE.INTRA.VDW.0>
0

>  <SCORE.INTRA.norm>
0

>  <SCORE.RESTR>
0

>  <SCORE.RESTR.CAVITY>
0

>  <SCORE.RESTR.norm>
0

>  <SCORE.SYSTEM>
0

>  <SCORE.SYSTEM.CONST>
0

>  <SCORE.SYSTEM.DIHEDRAL>
0

>  <SCORE.SYSTEM.SOLV>
0

>  <SCORE.SYSTEM.norm>
0

>  <SCORE.heavy>
11

>  <SCORE.norm>
-1.02433

>  <RMSD>
0.572

$$$$
ligand
 OpenBabel11021811493D
libRbt.so/2013.1/901 2013/11/27
 11 12  0  0  0  0  0  0  0  0999 V2000
   11.9708   11.5972    8.5750 N   0  0  0  0  0  0  0  0  0  0  0  0
   11.5877   12.8654    8.7940 C   0  0  0  0  0  0  0  0  0  0  0  0
   11.6204   13.3661   10.0846 N   0  0  0  0  0  0  0  0  0  0  0  0
   11.1745   13.6565    7.7903 N   0  0  0  0  0  0  0  0  0  0  0  0
   11.1311   13.1981    6.5176 C   0  0  0  0  0  0  0  0  0  0  0  0
   11.5271   11.8654    6.2397 C   0  0  0  0  0  0  0  0  0  0  0  0
   11.9576   11.0610    7.3366 C   0  0  0  0  0  0  0  0  0  0  0  0
   12.3580    9.7526    7.1428 N   0  0  0  0  0  0  0  0  0  0  0  0
   11.3830   11.6748    4.9050 N   0  0  0  0  0  0  0  0  0  0  0  0
   10.9380   12.7704    4.3576 C   0  0  0  0  0  0  0  0  0  0  0  0
   10.7679   13.7371    5.3102 N   0  0  0  0  0  0  0  0  0  0  0  0
  1  7  2  0  0  0  0
  1  2  1  0  0  0  0
  2  3  1  0  0  0  0
  2  4  2  0  0  0  0
  4  5  1  0  0  0  0
  5  6  2  0  0  0  0
  5 11  1  0  0  0  0
  6  7  1  0  0  0  0
  6  9  1  0  0  0  0
  7  8  1  0  0  0  0
  9 10  1  0  0  0  0
 10 11  2  0  0  0  0
M  END
>  <CHROM.1>
11.49680512,12.32016624,7.02949710,-1.14089350,1.22293902,-2.00697967

>  <Name>
ligand

>  <RI>
0

>  <Rbt.Current_Directory>
/home/itssahil/PROJECTS/Mol_Feturizer/New_Systems/rnas/4FEP

>  <Rbt.Executable>
rbdock ($Id: //depot/dev/client3/rdock/2013.1/src/exe/rbdock.cxx#4 $)

>  <Rbt.Library>
libRbt.so (2013.1, Build901 2013/11/27)

>  <Rbt.Parameter_File>
/export/apps/rDock/src/rDock_2013.1_src/data/scripts/dock_solv.prm

>  <Rbt.Receptor>
prm/blind_docking_80.prm

>  <SCORE>
-11.2692

>  <SCORE.INTER>
-11.2692

>  <SCORE.INTER.CONST>
1

>  <SCORE.INTER.POLAR>
0

>  <SCORE.INTER.ROT>
0

>  <SCORE.INTER.SOLV>
21.0263

>  <SCORE.INTER.VDW>
-18.1216

>  <SCORE.INTER.norm>
-1.02448

>  <SCORE.INTRA>
0

>  <SCORE.INTRA.DIHEDRAL>
0

>  <SCORE.INTRA.DIHEDRAL.0>
0

>  <SCORE.INTRA.POLAR>
0

>  <SCORE.INTRA.POLAR.0>
0

>  <SCORE.INTRA.REPUL>
0

>  <SCORE.INTRA.REPUL.0>
0

>  <SCORE.INTRA.SOLV>
0

>  <SCORE.INTRA.SOLV.lig_0>
-48.9558

>  <SCORE.INTRA.VDW>
0

>  <SCORE.INTRA.VDW.0>
0

>  <SCORE.INTRA.norm>
0

>  <SCORE.RESTR>
0

>  <SCORE.RESTR.CAVITY>
0

>  <SCORE.RESTR.norm>
0

>  <SCORE.SYSTEM>
0

>  <SCORE.SYSTEM.CONST>
0

>  <SCORE.SYSTEM.DIHEDRAL>
0

>  <SCORE.SYSTEM.SOLV>
0

>  <SCORE.SYSTEM.norm>
0

>  <SCORE.heavy>
11

>  <SCORE.norm>
-1.02448

>  <RMSD>
0.572

$$$$
ligand
 OpenBabel11021811493D
libRbt.so/2013.1/901 2013/11/27
 11 12  0  0  0  0  0  0  0  0999 V2000
   11.9716   11.5939    8.5725 N   0  0  0  0  0  0  0  0  0  0  0  0
   11.5855   12.8606    8.7944 C   0  0  0  0  0  0  0  0  0  0  0  0
   11.6191   13.3591   10.0859 N   0  0  0  0  0  0  0  0  0  0  0  0
   11.1685   13.6524    7.7929 N   0  0  0  0  0  0  0  0  0  0  0  0
   11.1241   13.1962    6.5194 C   0  0  0  0  0  0  0  0  0  0  0  0
   11.5232   11.8651    6.2384 C   0  0  0  0  0  0  0  0  0  0  0  0
   11.9577   11.0599    7.3331 C   0  0  0  0  0  0  0  0  0  0  0  0
   12.3612    9.7529    7.1363 N   0  0  0  0  0  0  0  0  0  0  0  0
   11.3772   11.6765    4.9037 N   0  0  0  0  0  0  0  0  0  0  0  0
   10.9284   12.7719    4.3590 C   0  0  0  0  0  0  0  0  0  0  0  0
   10.7573   13.7364    5.3136 N   0  0  0  0  0  0  0  0  0  0  0  0
  1  7  2  0  0  0  0
  1  2  1  0  0  0  0
  2  3  1  0  0  0  0
  2  4  2  0  0  0  0
  4  5  1  0  0  0  0
  5  6  2  0  0  0  0
  5 11  1  0  0  0  0
  6  7  1  0  0  0  0
  6  9  1  0  0  0  0
  7  8  1  0  0  0  0
  9 10  1  0  0  0  0
 10 11  2  0  0  0  0
M  END
>  <CHROM.1>
11.49301305,12.31834292,7.02910603,-1.13962278,1.21980834,-2.00637028

>  <Name>
ligand

>  <RI>
0

>  <Rbt.Current_Directory>
/home/itssahil/PROJECTS/Mol_Feturizer/New_Systems/rnas/4FEP

>  <Rbt.Executable>
rbdock ($Id: //depot/dev/client3/rdock/2013.1/src/exe/rbdock.cxx#4 $)

>  <Rbt.Library>
libRbt.so (2013.1, Build901 2013/11/27)

>  <Rbt.Parameter_File>
/export/apps/rDock/src/rDock_2013.1_src/data/scripts/dock_solv.prm

>  <Rbt.Receptor>
prm/pocket_docking_3.prm

>  <SCORE>
-11.267

>  <SCORE.INTER>
-11.267

>  <SCORE.INTER.CONST>
1

>  <SCORE.INTER.POLAR>
0

>  <SCORE.INTER.ROT>
0

>  <SCORE.INTER.SOLV>
21.0008

>  <SCORE.INTER.VDW>
-18.1116

>  <SCORE.INTER.norm>
-1.02427

>  <SCORE.INTRA>
0

>  <SCORE.INTRA.DIHEDRAL>
0

>  <SCORE.INTRA.DIHEDRAL.0>
0

>  <SCORE.INTRA.POLAR>
0

>  <SCORE.INTRA.POLAR.0>
0

>  <SCORE.INTRA.REPUL>
0

>  <SCORE.INTRA.REPUL.0>
0

>  <SCORE.INTRA.SOLV>
0

>  <SCORE.INTRA.SOLV.lig_0>
-48.9558

>  <SCORE.INTRA.VDW>
0

>  <SCORE.INTRA.VDW.0>
0

>  <SCORE.INTRA.norm>
0

>  <SCORE.RESTR>
0

>  <SCORE.RESTR.CAVITY>
0

>  <SCORE.RESTR.norm>
0

>  <SCORE.SYSTEM>
0

>  <SCORE.SYSTEM.CONST>
0

>  <SCORE.SYSTEM.DIHEDRAL>
0

>  <SCORE.SYSTEM.SOLV>
0

>  <SCORE.SYSTEM.norm>
0

>  <SCORE.heavy>
11

>  <SCORE.norm>
-1.02427

>  <RMSD>
0.572

$$$$
ligand
 OpenBabel11021811493D
libRbt.so/2013.1/901 2013/11/27
 11 12  0  0  0  0  0  0  0  0999 V2000
   11.9650   11.5943    8.5751 N   0  0  0  0  0  0  0  0  0  0  0  0
   11.5805   12.8619    8.7947 C   0  0  0  0  0  0  0  0  0  0  0  0
   11.6104   13.3613   10.0859 N   0  0  0  0  0  0  0  0  0  0  0  0
   11.1685   13.6537    7.7911 N   0  0  0  0  0  0  0  0  0  0  0  0
   11.1278   13.1966    6.5178 C   0  0  0  0  0  0  0  0  0  0  0  0
   11.5253   11.8645    6.2393 C   0  0  0  0  0  0  0  0  0  0  0  0
   11.9545   11.0593    7.3361 C   0  0  0  0  0  0  0  0  0  0  0  0
   12.3563    9.7515    7.1417 N   0  0  0  0  0  0  0  0  0  0  0  0
   11.3838   11.6751    4.9042 N   0  0  0  0  0  0  0  0  0  0  0  0
   10.9389   12.7710    4.3570 C   0  0  0  0  0  0  0  0  0  0  0  0
   10.7663   13.7365    5.3103 N   0  0  0  0  0  0  0  0  0  0  0  0
  1  7  2  0  0  0  0
  1  2  1  0  0  0  0
  2  3  1  0  0  0  0
  2  4  2  0  0  0  0
  4  5  1  0  0  0  0
  5  6  2  0  0  0  0
  5 11  1  0  0  0  0
  6  7  1  0  0  0  0
  6  9  1  0  0  0  0
  7  8  1  0  0  0  0
  9 10  1  0  0  0  0
 10 11  2  0  0  0  0
M  END
>  <CHROM.1>
11.49324473,12.31843361,7.02948221,-1.14675688,1.22298360,-2.00044733

>  <Name>
ligand

>  <RI>
0

>  <Rbt.Current_Directory>
/home/itssahil/PROJECTS/Mol_Feturizer/New_Systems/rnas/4FEP

>  <Rbt.Executable>
rbdock ($Id: //depot/dev/client3/rdock/2013.1/src/exe/rbdock.cxx#4 $)

>  <Rbt.Library>
libRbt.so (2013.1, Build901 2013/11/27)

>  <Rbt.Parameter_File>
/export/apps/rDock/src/rDock_2013.1_src/data/scripts/dock_solv.prm

>  <Rbt.Receptor>
prm/pocket_docking_3.prm

>  <SCORE>
-11.27

>  <SCORE.INTER>
-11.27

>  <SCORE.INTER.CONST>
1

>  <SCORE.INTER.POLAR>
0

>  <SCORE.INTER.ROT>
0

>  <SCORE.INTER.SOLV>
21.0277

>  <SCORE.INTER.VDW>
-18.1226

>  <SCORE.INTER.norm>
-1.02455

>  <SCORE.INTRA>
0

>  <SCORE.INTRA.DIHEDRAL>
0

>  <SCORE.INTRA.DIHEDRAL.0>
0

>  <SCORE.INTRA.POLAR>
0

>  <SCORE.INTRA.POLAR.0>
0

>  <SCORE.INTRA.REPUL>
0

>  <SCORE.INTRA.REPUL.0>
0

>  <SCORE.INTRA.SOLV>
0

>  <SCORE.INTRA.SOLV.lig_0>
-48.9558

>  <SCORE.INTRA.VDW>
0

>  <SCORE.INTRA.VDW.0>
0

>  <SCORE.INTRA.norm>
0

>  <SCORE.RESTR>
0

>  <SCORE.RESTR.CAVITY>
0

>  <SCORE.RESTR.norm>
0

>  <SCORE.SYSTEM>
0

>  <SCORE.SYSTEM.CONST>
0

>  <SCORE.SYSTEM.DIHEDRAL>
0

>  <SCORE.SYSTEM.SOLV>
0

>  <SCORE.SYSTEM.norm>
0

>  <SCORE.heavy>
11

>  <SCORE.norm>
-1.02455

>  <RMSD>
0.572

$$$$
ligand
 OpenBabel11021811493D
libRbt.so/2013.1/901 2013/11/27
 11 12  0  0  0  0  0  0  0  0999 V2000
   11.9581   11.5959    8.5757 N   0  0  0  0  0  0  0  0  0  0  0  0
   11.5692   12.8624    8.7940 C   0  0  0  0  0  0  0  0  0  0  0  0
   11.5934   13.3619   10.0853 N   0  0  0  0  0  0  0  0  0  0  0  0
   11.1582   13.6529    7.7891 N   0  0  0  0  0  0  0  0  0  0  0  0
   11.1229   13.1957    6.5157 C   0  0  0  0  0  0  0  0  0  0  0  0
   11.5253   11.8648    6.2385 C   0  0  0  0  0  0  0  0  0  0  0  0
   11.9532   11.0609    7.3367 C   0  0  0  0  0  0  0  0  0  0  0  0
   12.3595    9.7542    7.1437 N   0  0  0  0  0  0  0  0  0  0  0  0
   11.3887   11.6749    4.9029 N   0  0  0  0  0  0  0  0  0  0  0  0
   10.9424   12.7695    4.3543 C   0  0  0  0  0  0  0  0  0  0  0  0
   10.7639   13.7345    5.3070 N   0  0  0  0  0  0  0  0  0  0  0  0
  1  7  2  0  0  0  0
  1  2  1  0  0  0  0
  2  3  1  0  0  0  0
  2  4  2  0  0  0  0
  4  5  1  0  0  0  0
  5  6  2  0  0  0  0
  5 11  1  0  0  0  0
  6  7  1  0  0  0  0
  6  9  1  0  0  0  0
  7  8  1  0  0  0  0
  9 10  1  0  0  0  0
 10 11  2  0  0  0  0
M  END
>  <CHROM.1>
11.48931084,12.31860227,7.02854659,-1.15901480,1.22165778,-1.98893789

>  <Name>
ligand

>  <RI>
0

>  <Rbt.Current_Directory>
/home/itssahil/PROJECTS/Mol_Feturizer/New_Systems/rnas/4FEP

>  <Rbt.Executable>
rbdock ($Id: //depot/dev/client3/rdock/2013.1/src/exe/rbdock.cxx#4 $)

>  <Rbt.Library>
libRbt.so (2013.1, Build901 2013/11/27)

>  <Rbt.Parameter_File>
/export/apps/rDock/src/rDock_2013.1_src/data/scripts/dock_solv.prm

>  <Rbt.Receptor>
prm/pocket_docking_4.prm

>  <SCORE>
-11.2695

>  <SCORE.INTER>
-11.2695

>  <SCORE.INTER.CONST>
1

>  <SCORE.INTER.POLAR>
0

>  <SCORE.INTER.ROT>
0

>  <SCORE.INTER.SOLV>
21.0185

>  <SCORE.INTER.VDW>
-18.1192

>  <SCORE.INTER.norm>
-1.0245

>  <SCORE.INTRA>
0

>  <SCORE.INTRA.DIHEDRAL>
0

>  <SCORE.INTRA.DIHEDRAL.0>
0

>  <SCORE.INTRA.POLAR>
0

>  <SCORE.INTRA.POLAR.0>
0

>  <SCORE.INTRA.REPUL>
0

>  <SCORE.INTRA.REPUL.0>
0

>  <SCORE.INTRA.SOLV>
0

>  <SCORE.INTRA.SOLV.lig_0>
-48.9558

>  <SCORE.INTRA.VDW>
0

>  <SCORE.INTRA.VDW.0>
0

>  <SCORE.INTRA.norm>
0

>  <SCORE.RESTR>
0

>  <SCORE.RESTR.CAVITY>
0

>  <SCORE.RESTR.norm>
0

>  <SCORE.SYSTEM>
0

>  <SCORE.SYSTEM.CONST>
0

>  <SCORE.SYSTEM.DIHEDRAL>
0

>  <SCORE.SYSTEM.SOLV>
0

>  <SCORE.SYSTEM.norm>
0

>  <SCORE.heavy>
11

>  <SCORE.norm>
-1.0245

>  <RMSD>
0.572

$$$$
ligand
 OpenBabel11021811493D
libRbt.so/2013.1/901 2013/11/27
 11 12  0  0  0  0  0  0  0  0999 V2000
   11.9859   11.5911    8.5685 N   0  0  0  0  0  0  0  0  0  0  0  0
   11.6017   12.8577    8.7943 C   0  0  0  0  0  0  0  0  0  0  0  0
   11.6416   13.3540   10.0865 N   0  0  0  0  0  0  0  0  0  0  0  0
   11.1805   13.6514    7.7961 N   0  0  0  0  0  0  0  0  0  0  0  0
   11.1299   13.1974    6.5221 C   0  0  0  0  0  0  0  0  0  0  0  0
   11.5268   11.8664    6.2371 C   0  0  0  0  0  0  0  0  0  0  0  0
   11.9659   11.0591    7.3284 C   0  0  0  0  0  0  0  0  0  0  0  0
   12.3677    9.7523    7.1275 N   0  0  0  0  0  0  0  0  0  0  0  0
   11.3745   11.6801    4.9027 N   0  0  0  0  0  0  0  0  0  0  0  0
   10.9238   12.7767    4.3619 C   0  0  0  0  0  0  0  0  0  0  0  0
   10.7578   13.7397    5.3189 N   0  0  0  0  0  0  0  0  0  0  0  0
  1  7  2  0  0  0  0
  1  2  1  0  0  0  0
  2  3  1  0  0  0  0
  2  4  2  0  0  0  0
  4  5  1  0  0  0  0
  5  6  2  0  0  0  0
  5 11  1  0  0  0  0
  6  7  1  0  0  0  0
  6  9  1  0  0  0  0
  7  8  1  0  0  0  0
  9 10  1  0  0  0  0
 10 11  2  0  0  0  0
M  END
>  <CHROM.1>
11.50060819,12.31839367,7.02860001,-1.12663042,1.21837263,-2.01693376

>  <Name>
ligand

>  <RI>
0

>  <Rbt.Current_Directory>
/home/itssahil/PROJECTS/Mol_Feturizer/New_Systems/rnas/4FEP

>  <Rbt.Executable>
rbdock ($Id: //depot/dev/client3/rdock/2013.1/src/exe/rbdock.cxx#4 $)

>  <Rbt.Library>
libRbt.so (2013.1, Build901 2013/11/27)

>  <Rbt.Parameter_File>
/export/apps/rDock/src/rDock_2013.1_src/data/scripts/dock_solv.prm

>  <Rbt.Receptor>
prm/pocket_docking_4.prm

>  <SCORE>
-11.2597

>  <SCORE.INTER>
-11.2597

>  <SCORE.INTER.CONST>
1

>  <SCORE.INTER.POLAR>
0

>  <SCORE.INTER.ROT>
0

>  <SCORE.INTER.SOLV>
20.9701

>  <SCORE.INTER.VDW>
-18.0965

>  <SCORE.INTER.norm>
-1.02361

>  <SCORE.INTRA>
0

>  <SCORE.INTRA.DIHEDRAL>
0

>  <SCORE.INTRA.DIHEDRAL.0>
0

>  <SCORE.INTRA.POLAR>
0

>  <SCORE.INTRA.POLAR.0>
0

>  <SCORE.INTRA.REPUL>
0

>  <SCORE.INTRA.REPUL.0>
0

>  <SCORE.INTRA.SOLV>
0

>  <SCORE.INTRA.SOLV.lig_0>
-48.9558

>  <SCORE.INTRA.VDW>
0

>  <SCORE.INTRA.VDW.0>
0

>  <SCORE.INTRA.norm>
0

>  <SCORE.RESTR>
0

>  <SCORE.RESTR.CAVITY>
0

>  <SCORE.RESTR.norm>
0

>  <SCORE.SYSTEM>
0

>  <SCORE.SYSTEM.CONST>
0

>  <SCORE.SYSTEM.DIHEDRAL>
0

>  <SCORE.SYSTEM.SOLV>
0

>  <SCORE.SYSTEM.norm>
0

>  <SCORE.heavy>
11

>  <SCORE.norm>
-1.02361

>  <RMSD>
0.572

$$$$
ligand
 OpenBabel11021811493D
libRbt.so/2013.1/901 2013/11/27
 11 12  0  0  0  0  0  0  0  0999 V2000
   11.9719   11.5939    8.5719 N   0  0  0  0  0  0  0  0  0  0  0  0
   11.5877   12.8612    8.7938 C   0  0  0  0  0  0  0  0  0  0  0  0
   11.6228   13.3599   10.0851 N   0  0  0  0  0  0  0  0  0  0  0  0
   11.1710   13.6533    7.7924 N   0  0  0  0  0  0  0  0  0  0  0  0
   11.1252   13.1969    6.5191 C   0  0  0  0  0  0  0  0  0  0  0  0
   11.5223   11.8652    6.2381 C   0  0  0  0  0  0  0  0  0  0  0  0
   11.9565   11.0596    7.3327 C   0  0  0  0  0  0  0  0  0  0  0  0
   12.3583    9.7521    7.1359 N   0  0  0  0  0  0  0  0  0  0  0  0
   11.3752   11.6764    4.9035 N   0  0  0  0  0  0  0  0  0  0  0  0
   10.9274   12.7723    4.3589 C   0  0  0  0  0  0  0  0  0  0  0  0
   10.7583   13.7372    5.3134 N   0  0  0  0  0  0  0  0  0  0  0  0
  1  7  2  0  0  0  0
  1  2  1  0  0  0  0
  2  3  1  0  0  0  0
  2  4  2  0  0  0  0
  4  5  1  0  0  0  0
  5  6  2  0  0  0  0
  5 11  1  0  0  0  0
  6  7  1  0  0  0  0
  6  9  1  0  0  0  0
  7  8  1  0  0  0  0
  9 10  1  0  0  0  0
 10 11  2  0  0  0  0
M  END
>  <CHROM.1>
11.49327804,12.31864576,7.02868264,-1.13623081,1.22069198,-2.00978722

>  <Name>
ligand

>  <RI>
0

>  <Rbt.Current_Directory>
/home/itssahil/PROJECTS/Mol_Feturizer/New_Systems/rnas/4FEP

>  <Rbt.Executable>
rbdock ($Id: //depot/dev/client3/rdock/2013.1/src/exe/rbdock.cxx#4 $)

>  <Rbt.Library>
libRbt.so (2013.1, Build901 2013/11/27)

>  <Rbt.Parameter_File>
/export/apps/rDock/src/rDock_2013.1_src/data/scripts/dock_solv.prm

>  <Rbt.Receptor>
prm/pocket_docking_5.prm

>  <SCORE>
-11.2662

>  <SCORE.INTER>
-11.2662

>  <SCORE.INTER.CONST>
1

>  <SCORE.INTER.POLAR>
0

>  <SCORE.INTER.ROT>
0

>  <SCORE.INTER.SOLV>
21.0115

>  <SCORE.INTER.VDW>
-18.1146

>  <SCORE.INTER.norm>
-1.0242

>  <SCORE.INTRA>
0

>  <SCORE.INTRA.DIHEDRAL>
0

>  <SCORE.INTRA.DIHEDRAL.0>
0

>  <SCORE.INTRA.POLAR>
0

>  <SCORE.INTRA.POLAR.0>
0

>  <SCORE.INTRA.REPUL>
0

>  <SCORE.INTRA.REPUL.0>
0

>  <SCORE.INTRA.SOLV>
0

>  <SCORE.INTRA.SOLV.lig_0>
-48.9558

>  <SCORE.INTRA.VDW>
0

>  <SCORE.INTRA.VDW.0>
0

>  <SCORE.INTRA.norm>
0

>  <SCORE.RESTR>
0

>  <SCORE.RESTR.CAVITY>
0

>  <SCORE.RESTR.norm>
0

>  <SCORE.SYSTEM>
0

>  <SCORE.SYSTEM.CONST>
0

>  <SCORE.SYSTEM.DIHEDRAL>
0

>  <SCORE.SYSTEM.SOLV>
0

>  <SCORE.SYSTEM.norm>
0

>  <SCORE.heavy>
11

>  <SCORE.norm>
-1.0242

>  <RMSD>
0.572

$$$$
ligand
 OpenBabel11021811493D
libRbt.so/2013.1/901 2013/11/27
 11 12  0  0  0  0  0  0  0  0999 V2000
   11.9728   11.5946    8.5725 N   0  0  0  0  0  0  0  0  0  0  0  0
   11.5861   12.8612    8.7937 C   0  0  0  0  0  0  0  0  0  0  0  0
   11.6185   13.3601   10.0851 N   0  0  0  0  0  0  0  0  0  0  0  0
   11.1695   13.6526    7.7917 N   0  0  0  0  0  0  0  0  0  0  0  0
   11.1262   13.1960    6.5183 C   0  0  0  0  0  0  0  0  0  0  0  0
   11.5260   11.8649    6.2380 C   0  0  0  0  0  0  0  0  0  0  0  0
   11.9600   11.0602    7.3332 C   0  0  0  0  0  0  0  0  0  0  0  0
   12.3642    9.7533    7.1371 N   0  0  0  0  0  0  0  0  0  0  0  0
   11.3812   11.6758    4.9032 N   0  0  0  0  0  0  0  0  0  0  0  0
   10.9323   12.7710    4.3579 C   0  0  0  0  0  0  0  0  0  0  0  0
   10.7602   13.7356    5.3120 N   0  0  0  0  0  0  0  0  0  0  0  0
  1  7  2  0  0  0  0
  1  2  1  0  0  0  0
  2  3  1  0  0  0  0
  2  4  2  0  0  0  0
  4  5  1  0  0  0  0
  5  6  2  0  0  0  0
  5 11  1  0  0  0  0
  6  7  1  0  0  0  0
  6  9  1  0  0  0  0
  7  8  1  0  0  0  0
  9 10  1  0  0  0  0
 10 11  2  0  0  0  0
M  END
>  <CHROM.1>
11.49510496,12.31840093,7.02850803,-1.14206693,1.21978580,-2.00437749

>  <Name>
ligand

>  <RI>
0

>  <Rbt.Current_Directory>
/home/itssahil/PROJECTS/Mol_Feturizer/New_Systems/rnas/4FEP

>  <Rbt.Executable>
rbdock ($Id: //depot/dev/client3/rdock/2013.1/src/exe/rbdock.cxx#4 $)

>  <Rbt.Library>
libRbt.so (2013.1, Build901 2013/11/27)

>  <Rbt.Parameter_File>
/export/apps/rDock/src/rDock_2013.1_src/data/scripts/dock_solv.prm

>  <Rbt.Receptor>
prm/pocket_docking_6.prm

>  <SCORE>
-11.268

>  <SCORE.INTER>
-11.268

>  <SCORE.INTER.CONST>
1

>  <SCORE.INTER.POLAR>
0

>  <SCORE.INTER.ROT>
0

>  <SCORE.INTER.SOLV>
20.9937

>  <SCORE.INTER.VDW>
-18.1099

>  <SCORE.INTER.norm>
-1.02436

>  <SCORE.INTRA>
0

>  <SCORE.INTRA.DIHEDRAL>
0

>  <SCORE.INTRA.DIHEDRAL.0>
0

>  <SCORE.INTRA.POLAR>
0

>  <SCORE.INTRA.POLAR.0>
0

>  <SCORE.INTRA.REPUL>
0

>  <SCORE.INTRA.REPUL.0>
0

>  <SCORE.INTRA.SOLV>
0

>  <SCORE.INTRA.SOLV.lig_0>
-48.9558

>  <SCORE.INTRA.VDW>
0

>  <SCORE.INTRA.VDW.0>
0

>  <SCORE.INTRA.norm>
0

>  <SCORE.RESTR>
0

>  <SCORE.RESTR.CAVITY>
0

>  <SCORE.RESTR.norm>
0

>  <SCORE.SYSTEM>
0

>  <SCORE.SYSTEM.CONST>
0

>  <SCORE.SYSTEM.DIHEDRAL>
0

>  <SCORE.SYSTEM.SOLV>
0

>  <SCORE.SYSTEM.norm>
0

>  <SCORE.heavy>
11

>  <SCORE.norm>
-1.02436

>  <RMSD>
0.572

$$$$
ligand
 OpenBabel11021811493D
libRbt.so/2013.1/901 2013/11/27
 11 12  0  0  0  0  0  0  0  0999 V2000
   11.9606   11.5980    8.5766 N   0  0  0  0  0  0  0  0  0  0  0  0
   11.5750   12.8657    8.7938 C   0  0  0  0  0  0  0  0  0  0  0  0
   11.6023   13.3668   10.0844 N   0  0  0  0  0  0  0  0  0  0  0  0
   11.1643   13.6559    7.7884 N   0  0  0  0  0  0  0  0  0  0  0  0
   11.1261   13.1970    6.5157 C   0  0  0  0  0  0  0  0  0  0  0  0
   11.5250   11.8648    6.2397 C   0  0  0  0  0  0  0  0  0  0  0  0
   11.9526   11.0613    7.3383 C   0  0  0  0  0  0  0  0  0  0  0  0
   12.3555    9.7535    7.1464 N   0  0  0  0  0  0  0  0  0  0  0  0
   11.3859   11.6735    4.9045 N   0  0  0  0  0  0  0  0  0  0  0  0
   10.9414   12.7684    4.3552 C   0  0  0  0  0  0  0  0  0  0  0  0
   10.7665   13.7351    5.3068 N   0  0  0  0  0  0  0  0  0  0  0  0
  1  7  2  0  0  0  0
  1  2  1  0  0  0  0
  2  3  1  0  0  0  0
  2  4  2  0  0  0  0
  4  5  1  0  0  0  0
  5  6  2  0  0  0  0
  5 11  1  0  0  0  0
  6  7  1  0  0  0  0
  6  9  1  0  0  0  0
  7  8  1  0  0  0  0
  9 10  1  0  0  0  0
 10 11  2  0  0  0  0
M  END
>  <CHROM.1>
11.49118541,12.31975709,7.02918619,-1.15220863,1.22320585,-1.99667018

>  <Name>
ligand

>  <RI>
0

>  <Rbt.Current_Directory>
/home/itssahil/PROJECTS/Mol_Feturizer/New_Systems/rnas/4FEP

>  <Rbt.Executable>
rbdock ($Id: //depot/dev/client3/rdock/2013.1/src/exe/rbdock.cxx#4 $)

>  <Rbt.Library>
libRbt.so (2013.1, Build901 2013/11/27)

>  <Rbt.Parameter_File>
/export/apps/rDock/src/rDock_2013.1_src/data/scripts/dock_solv.prm

>  <Rbt.Receptor>
prm/pocket_docking_6.prm

>  <SCORE>
-11.2706

>  <SCORE.INTER>
-11.2706

>  <SCORE.INTER.CONST>
1

>  <SCORE.INTER.POLAR>
0

>  <SCORE.INTER.ROT>
0

>  <SCORE.INTER.SOLV>
21.0384

>  <SCORE.INTER.VDW>
-18.1265

>  <SCORE.INTER.norm>
-1.0246

>  <SCORE.INTRA>
0

>  <SCORE.INTRA.DIHEDRAL>
0

>  <SCORE.INTRA.DIHEDRAL.0>
0

>  <SCORE.INTRA.POLAR>
0

>  <SCORE.INTRA.POLAR.0>
0

>  <SCORE.INTRA.REPUL>
0

>  <SCORE.INTRA.REPUL.0>
0

>  <SCORE.INTRA.SOLV>
0

>  <SCORE.INTRA.SOLV.lig_0>
-48.9558

>  <SCORE.INTRA.VDW>
0

>  <SCORE.INTRA.VDW.0>
0

>  <SCORE.INTRA.norm>
0

>  <SCORE.RESTR>
0

>  <SCORE.RESTR.CAVITY>
0

>  <SCORE.RESTR.norm>
0

>  <SCORE.SYSTEM>
0

>  <SCORE.SYSTEM.CONST>
0

>  <SCORE.SYSTEM.DIHEDRAL>
0

>  <SCORE.SYSTEM.SOLV>
0

>  <SCORE.SYSTEM.norm>
0

>  <SCORE.heavy>
11

>  <SCORE.norm>
-1.0246

>  <RMSD>
0.572

$$$$
ligand
 OpenBabel11021811493D
libRbt.so/2013.1/901 2013/11/27
 11 12  0  0  0  0  0  0  0  0999 V2000
   11.9738   11.5912    8.5715 N   0  0  0  0  0  0  0  0  0  0  0  0
   11.5869   12.8574    8.7947 C   0  0  0  0  0  0  0  0  0  0  0  0
   11.6190   13.3543   10.0868 N   0  0  0  0  0  0  0  0  0  0  0  0
   11.1704   13.6503    7.7938 N   0  0  0  0  0  0  0  0  0  0  0  0
   11.1275   13.1957    6.5197 C   0  0  0  0  0  0  0  0  0  0  0  0
   11.5275   11.8651    6.2374 C   0  0  0  0  0  0  0  0  0  0  0  0
   11.9613   11.0587    7.3315 C   0  0  0  0  0  0  0  0  0  0  0  0
   12.3658    9.7522    7.1334 N   0  0  0  0  0  0  0  0  0  0  0  0
   11.3829   11.6781    4.9023 N   0  0  0  0  0  0  0  0  0  0  0  0
   10.9340   12.7740    4.3586 C   0  0  0  0  0  0  0  0  0  0  0  0
   10.7616   13.7371    5.3142 N   0  0  0  0  0  0  0  0  0  0  0  0
  1  7  2  0  0  0  0
  1  2  1  0  0  0  0
  2  3  1  0  0  0  0
  2  4  2  0  0  0  0
  4  5  1  0  0  0  0
  5  6  2  0  0  0  0
  5 11  1  0  0  0  0
  6  7  1  0  0  0  0
  6  9  1  0  0  0  0
  7  8  1  0  0  0  0
  9 10  1  0  0  0  0
 10 11  2  0  0  0  0
M  END
>  <CHROM.1>
11.49633830,12.31732954,7.02861636,-1.14272741,1.21974226,-2.00220073

>  <Name>
ligand

>  <RI>
0

>  <Rbt.Current_Directory>
/home/itssahil/PROJECTS/Mol_Feturizer/New_Systems/rnas/4FEP

>  <Rbt.Executable>
rbdock ($Id: //depot/dev/client3/rdock/2013.1/src/exe/rbdock.cxx#4 $)

>  <Rbt.Library>
libRbt.so (2013.1, Build901 2013/11/27)

>  <Rbt.Parameter_File>
/export/apps/rDock/src/rDock_2013.1_src/data/scripts/dock_solv.prm

>  <Rbt.Receptor>
prm/pocket_docking_8.prm

>  <SCORE>
-11.2673

>  <SCORE.INTER>
-11.2673

>  <SCORE.INTER.CONST>
1

>  <SCORE.INTER.POLAR>
0

>  <SCORE.INTER.ROT>
0

>  <SCORE.INTER.SOLV>
20.9821

>  <SCORE.INTER.VDW>
-18.1056

>  <SCORE.INTER.norm>
-1.0243

>  <SCORE.INTRA>
0

>  <SCORE.INTRA.DIHEDRAL>
0

>  <SCORE.INTRA.DIHEDRAL.0>
0

>  <SCORE.INTRA.POLAR>
0

>  <SCORE.INTRA.POLAR.0>
0

>  <SCORE.INTRA.REPUL>
0

>  <SCORE.INTRA.REPUL.0>
0

>  <SCORE.INTRA.SOLV>
0

>  <SCORE.INTRA.SOLV.lig_0>
-48.9558

>  <SCORE.INTRA.VDW>
0

>  <SCORE.INTRA.VDW.0>
0

>  <SCORE.INTRA.norm>
0

>  <SCORE.RESTR>
0

>  <SCORE.RESTR.CAVITY>
0

>  <SCORE.RESTR.norm>
0

>  <SCORE.SYSTEM>
0

>  <SCORE.SYSTEM.CONST>
0

>  <SCORE.SYSTEM.DIHEDRAL>
0

>  <SCORE.SYSTEM.SOLV>
0

>  <SCORE.SYSTEM.norm>
0

>  <SCORE.heavy>
11

>  <SCORE.norm>
-1.0243

>  <RMSD>
0.572

$$$$
ligand
 OpenBabel11021811493D
libRbt.so/2013.1/901 2013/11/27
 11 12  0  0  0  0  0  0  0  0999 V2000
   11.9904   11.5992    8.5696 N   0  0  0  0  0  0  0  0  0  0  0  0
   11.6011   12.8648    8.7921 C   0  0  0  0  0  0  0  0  0  0  0  0
   11.6370   13.3639   10.0833 N   0  0  0  0  0  0  0  0  0  0  0  0
   11.1786   13.6549    7.7916 N   0  0  0  0  0  0  0  0  0  0  0  0
   11.1318   13.1980    6.5184 C   0  0  0  0  0  0  0  0  0  0  0  0
   11.5342   11.8680    6.2368 C   0  0  0  0  0  0  0  0  0  0  0  0
   11.9745   11.0646    7.3305 C   0  0  0  0  0  0  0  0  0  0  0  0
   12.3816    9.7589    7.1330 N   0  0  0  0  0  0  0  0  0  0  0  0
   11.3848   11.6784    4.9025 N   0  0  0  0  0  0  0  0  0  0  0  0
   10.9309   12.7722    4.3588 C   0  0  0  0  0  0  0  0  0  0  0  0
   10.7597   13.7365    5.3135 N   0  0  0  0  0  0  0  0  0  0  0  0
  1  7  2  0  0  0  0
  1  2  1  0  0  0  0
  2  3  1  0  0  0  0
  2  4  2  0  0  0  0
  4  5  1  0  0  0  0
  5  6  2  0  0  0  0
  5 11  1  0  0  0  0
  6  7  1  0  0  0  0
  6  9  1  0  0  0  0
  7  8  1  0  0  0  0
  9 10  1  0  0  0  0
 10 11  2  0  0  0  0
M  END
>  <CHROM.1>
11.50497837,12.32150041,7.02734633,-1.13561952,1.21568587,-2.01054043

>  <Name>
ligand

>  <RI>
0

>  <Rbt.Current_Directory>
/home/itssahil/PROJECTS/Mol_Feturizer/New_Systems/rnas/4FEP

>  <Rbt.Executable>
rbdock ($Id: //depot/dev/client3/rdock/2013.1/src/exe/rbdock.cxx#4 $)

>  <Rbt.Library>
libRbt.so (2013.1, Build901 2013/11/27)

>  <Rbt.Parameter_File>
/export/apps/rDock/src/rDock_2013.1_src/data/scripts/dock_solv.prm

>  <Rbt.Receptor>
prm/blind_docking_40.prm

>  <SCORE>
-11.2597

>  <SCORE.INTER>
-11.2597

>  <SCORE.INTER.CONST>
1

>  <SCORE.INTER.POLAR>
0

>  <SCORE.INTER.ROT>
0

>  <SCORE.INTER.SOLV>
20.9412

>  <SCORE.INTER.VDW>
-18.0869

>  <SCORE.INTER.norm>
-1.02361

>  <SCORE.INTRA>
0

>  <SCORE.INTRA.DIHEDRAL>
0

>  <SCORE.INTRA.DIHEDRAL.0>
0

>  <SCORE.INTRA.POLAR>
0

>  <SCORE.INTRA.POLAR.0>
0

>  <SCORE.INTRA.REPUL>
0

>  <SCORE.INTRA.REPUL.0>
0

>  <SCORE.INTRA.SOLV>
0

>  <SCORE.INTRA.SOLV.lig_0>
-48.9558

>  <SCORE.INTRA.VDW>
0

>  <SCORE.INTRA.VDW.0>
0

>  <SCORE.INTRA.norm>
0

>  <SCORE.RESTR>
0

>  <SCORE.RESTR.CAVITY>
0

>  <SCORE.RESTR.norm>
0

>  <SCORE.SYSTEM>
0

>  <SCORE.SYSTEM.CONST>
0

>  <SCORE.SYSTEM.DIHEDRAL>
0

>  <SCORE.SYSTEM.SOLV>
0

>  <SCORE.SYSTEM.norm>
0

>  <SCORE.heavy>
11

>  <SCORE.norm>
-1.02361

>  <RMSD>
0.573

$$$$
ligand
 OpenBabel11021811493D
libRbt.so/2013.1/901 2013/11/27
 11 12  0  0  0  0  0  0  0  0999 V2000
   11.9580   11.5959    8.5760 N   0  0  0  0  0  0  0  0  0  0  0  0
   11.5718   12.8633    8.7936 C   0  0  0  0  0  0  0  0  0  0  0  0
   11.5973   13.3635   10.0847 N   0  0  0  0  0  0  0  0  0  0  0  0
   11.1624   13.6543    7.7883 N   0  0  0  0  0  0  0  0  0  0  0  0
   11.1261   13.1964    6.5152 C   0  0  0  0  0  0  0  0  0  0  0  0
   11.5256   11.8645    6.2386 C   0  0  0  0  0  0  0  0  0  0  0  0
   11.9519   11.0603    7.3373 C   0  0  0  0  0  0  0  0  0  0  0  0
   12.3553    9.7526    7.1449 N   0  0  0  0  0  0  0  0  0  0  0  0
   11.3884   11.6743    4.9032 N   0  0  0  0  0  0  0  0  0  0  0  0
   10.9444   12.7695    4.3541 C   0  0  0  0  0  0  0  0  0  0  0  0
   10.7680   13.7354    5.3062 N   0  0  0  0  0  0  0  0  0  0  0  0
  1  7  2  0  0  0  0
  1  2  1  0  0  0  0
  2  3  1  0  0  0  0
  2  4  2  0  0  0  0
  4  5  1  0  0  0  0
  5  6  2  0  0  0  0
  5 11  1  0  0  0  0
  6  7  1  0  0  0  0
  6  9  1  0  0  0  0
  7  8  1  0  0  0  0
  9 10  1  0  0  0  0
 10 11  2  0  0  0  0
M  END
>  <CHROM.1>
11.49061580,12.31882723,7.02848420,-1.15618720,1.22357815,-1.99212760

>  <Name>
ligand

>  <RI>
0

>  <Rbt.Current_Directory>
/home/itssahil/PROJECTS/Mol_Feturizer/New_Systems/rnas/4FEP

>  <Rbt.Executable>
rbdock ($Id: //depot/dev/client3/rdock/2013.1/src/exe/rbdock.cxx#4 $)

>  <Rbt.Library>
libRbt.so (2013.1, Build901 2013/11/27)

>  <Rbt.Parameter_File>
/export/apps/rDock/src/rDock_2013.1_src/data/scripts/dock_solv.prm

>  <Rbt.Receptor>
prm/pocket_docking_3.prm

>  <SCORE>
-11.27

>  <SCORE.INTER>
-11.27

>  <SCORE.INTER.CONST>
1

>  <SCORE.INTER.POLAR>
0

>  <SCORE.INTER.ROT>
0

>  <SCORE.INTER.SOLV>
21.0366

>  <SCORE.INTER.VDW>
-18.1255

>  <SCORE.INTER.norm>
-1.02454

>  <SCORE.INTRA>
0

>  <SCORE.INTRA.DIHEDRAL>
0

>  <SCORE.INTRA.DIHEDRAL.0>
0

>  <SCORE.INTRA.POLAR>
0

>  <SCORE.INTRA.POLAR.0>
0

>  <SCORE.INTRA.REPUL>
0

>  <SCORE.INTRA.REPUL.0>
0

>  <SCORE.INTRA.SOLV>
0

>  <SCORE.INTRA.SOLV.lig_0>
-48.9558

>  <SCORE.INTRA.VDW>
0

>  <SCORE.INTRA.VDW.0>
0

>  <SCORE.INTRA.norm>
0

>  <SCORE.RESTR>
0

>  <SCORE.RESTR.CAVITY>
0

>  <SCORE.RESTR.norm>
0

>  <SCORE.SYSTEM>
0

>  <SCORE.SYSTEM.CONST>
0

>  <SCORE.SYSTEM.DIHEDRAL>
0

>  <SCORE.SYSTEM.SOLV>
0

>  <SCORE.SYSTEM.norm>
0

>  <SCORE.heavy>
11

>  <SCORE.norm>
-1.02454

>  <RMSD>
0.573

$$$$
ligand
 OpenBabel11021811493D
libRbt.so/2013.1/901 2013/11/27
 11 12  0  0  0  0  0  0  0  0999 V2000
   11.9570   11.5970    8.5759 N   0  0  0  0  0  0  0  0  0  0  0  0
   11.5680   12.8636    8.7933 C   0  0  0  0  0  0  0  0  0  0  0  0
   11.5915   13.3639   10.0843 N   0  0  0  0  0  0  0  0  0  0  0  0
   11.1575   13.6536    7.7877 N   0  0  0  0  0  0  0  0  0  0  0  0
   11.1230   13.1957    6.5145 C   0  0  0  0  0  0  0  0  0  0  0  0
   11.5256   11.8646    6.2383 C   0  0  0  0  0  0  0  0  0  0  0  0
   11.9528   11.0613    7.3372 C   0  0  0  0  0  0  0  0  0  0  0  0
   12.3592    9.7546    7.1451 N   0  0  0  0  0  0  0  0  0  0  0  0
   11.3897   11.6741    4.9027 N   0  0  0  0  0  0  0  0  0  0  0  0
   10.9438   12.7683    4.3533 C   0  0  0  0  0  0  0  0  0  0  0  0
   10.7647   13.7339    5.3053 N   0  0  0  0  0  0  0  0  0  0  0  0
  1  7  2  0  0  0  0
  1  2  1  0  0  0  0
  2  3  1  0  0  0  0
  2  4  2  0  0  0  0
  4  5  1  0  0  0  0
  5  6  2  0  0  0  0
  5 11  1  0  0  0  0
  6  7  1  0  0  0  0
  6  9  1  0  0  0  0
  7  8  1  0  0  0  0
  9 10  1  0  0  0  0
 10 11  2  0  0  0  0
M  END
>  <CHROM.1>
11.48910965,12.31890548,7.02809405,-1.16057155,1.22190008,-1.98803167

>  <Name>
ligand

>  <RI>
0

>  <Rbt.Current_Directory>
/home/itssahil/PROJECTS/Mol_Feturizer/New_Systems/rnas/4FEP

>  <Rbt.Executable>
rbdock ($Id: //depot/dev/client3/rdock/2013.1/src/exe/rbdock.cxx#4 $)

>  <Rbt.Library>
libRbt.so (2013.1, Build901 2013/11/27)

>  <Rbt.Parameter_File>
/export/apps/rDock/src/rDock_2013.1_src/data/scripts/dock_solv.prm

>  <Rbt.Receptor>
prm/pocket_docking_3.prm

>  <SCORE>
-11.2695

>  <SCORE.INTER>
-11.2695

>  <SCORE.INTER.CONST>
1

>  <SCORE.INTER.POLAR>
0

>  <SCORE.INTER.ROT>
0

>  <SCORE.INTER.SOLV>
21.0225

>  <SCORE.INTER.VDW>
-18.1205

>  <SCORE.INTER.norm>
-1.0245

>  <SCORE.INTRA>
0

>  <SCORE.INTRA.DIHEDRAL>
0

>  <SCORE.INTRA.DIHEDRAL.0>
0

>  <SCORE.INTRA.POLAR>
0

>  <SCORE.INTRA.POLAR.0>
0

>  <SCORE.INTRA.REPUL>
0

>  <SCORE.INTRA.REPUL.0>
0

>  <SCORE.INTRA.SOLV>
0

>  <SCORE.INTRA.SOLV.lig_0>
-48.9558

>  <SCORE.INTRA.VDW>
0

>  <SCORE.INTRA.VDW.0>
0

>  <SCORE.INTRA.norm>
0

>  <SCORE.RESTR>
0

>  <SCORE.RESTR.CAVITY>
0

>  <SCORE.RESTR.norm>
0

>  <SCORE.SYSTEM>
0

>  <SCORE.SYSTEM.CONST>
0

>  <SCORE.SYSTEM.DIHEDRAL>
0

>  <SCORE.SYSTEM.SOLV>
0

>  <SCORE.SYSTEM.norm>
0

>  <SCORE.heavy>
11

>  <SCORE.norm>
-1.0245

>  <RMSD>
0.573

$$$$
ligand
 OpenBabel11021811493D
libRbt.so/2013.1/901 2013/11/27
 11 12  0  0  0  0  0  0  0  0999 V2000
   11.9744   11.5978    8.5737 N   0  0  0  0  0  0  0  0  0  0  0  0
   11.5928   12.8662    8.7935 C   0  0  0  0  0  0  0  0  0  0  0  0
   11.6290   13.3669   10.0841 N   0  0  0  0  0  0  0  0  0  0  0  0
   11.1779   13.6576    7.7909 N   0  0  0  0  0  0  0  0  0  0  0  0
   11.1311   13.1993    6.5183 C   0  0  0  0  0  0  0  0  0  0  0  0
   11.5254   11.8663    6.2394 C   0  0  0  0  0  0  0  0  0  0  0  0
   11.9578   11.0616    7.3353 C   0  0  0  0  0  0  0  0  0  0  0  0
   12.3568    9.7529    7.1406 N   0  0  0  0  0  0  0  0  0  0  0  0
   11.3779   11.6758    4.9051 N   0  0  0  0  0  0  0  0  0  0  0  0
   10.9325   12.7718    4.3587 C   0  0  0  0  0  0  0  0  0  0  0  0
   10.7654   13.7385    5.3117 N   0  0  0  0  0  0  0  0  0  0  0  0
  1  7  2  0  0  0  0
  1  2  1  0  0  0  0
  2  3  1  0  0  0  0
  2  4  2  0  0  0  0
  4  5  1  0  0  0  0
  5  6  2  0  0  0  0
  5 11  1  0  0  0  0
  6  7  1  0  0  0  0
  6  9  1  0  0  0  0
  7  8  1  0  0  0  0
  9 10  1  0  0  0  0
 10 11  2  0  0  0  0
M  END
>  <CHROM.1>
11.49731130,12.32108602,7.02928360,-1.13361855,1.22264954,-2.01382610

>  <Name>
ligand

>  <RI>
0

>  <Rbt.Current_Directory>
/home/itssahil/PROJECTS/Mol_Feturizer/New_Systems/rnas/4FEP

>  <Rbt.Executable>
rbdock ($Id: //depot/dev/client3/rdock/2013.1/src/exe/rbdock.cxx#4 $)

>  <Rbt.Library>
libRbt.so (2013.1, Build901 2013/11/27)

>  <Rbt.Parameter_File>
/export/apps/rDock/src/rDock_2013.1_src/data/scripts/dock_solv.prm

>  <Rbt.Receptor>
prm/pocket_docking_4.prm

>  <SCORE>
-11.2669

>  <SCORE.INTER>
-11.2669

>  <SCORE.INTER.CONST>
1

>  <SCORE.INTER.POLAR>
0

>  <SCORE.INTER.ROT>
0

>  <SCORE.INTER.SOLV>
21.0279

>  <SCORE.INTER.VDW>
-18.1206

>  <SCORE.INTER.norm>
-1.02426

>  <SCORE.INTRA>
0

>  <SCORE.INTRA.DIHEDRAL>
0

>  <SCORE.INTRA.DIHEDRAL.0>
0

>  <SCORE.INTRA.POLAR>
0

>  <SCORE.INTRA.POLAR.0>
0

>  <SCORE.INTRA.REPUL>
0

>  <SCORE.INTRA.REPUL.0>
0

>  <SCORE.INTRA.SOLV>
0

>  <SCORE.INTRA.SOLV.lig_0>
-48.9558

>  <SCORE.INTRA.VDW>
0

>  <SCORE.INTRA.VDW.0>
0

>  <SCORE.INTRA.norm>
0

>  <SCORE.RESTR>
0

>  <SCORE.RESTR.CAVITY>
0

>  <SCORE.RESTR.norm>
0

>  <SCORE.SYSTEM>
0

>  <SCORE.SYSTEM.CONST>
0

>  <SCORE.SYSTEM.DIHEDRAL>
0

>  <SCORE.SYSTEM.SOLV>
0

>  <SCORE.SYSTEM.norm>
0

>  <SCORE.heavy>
11

>  <SCORE.norm>
-1.02426

>  <RMSD>
0.573

$$$$
ligand
 OpenBabel11021811493D
libRbt.so/2013.1/901 2013/11/27
 11 12  0  0  0  0  0  0  0  0999 V2000
   11.9699   11.5958    8.5736 N   0  0  0  0  0  0  0  0  0  0  0  0
   11.5874   12.8641    8.7932 C   0  0  0  0  0  0  0  0  0  0  0  0
   11.6201   13.3640   10.0841 N   0  0  0  0  0  0  0  0  0  0  0  0
   11.1749   13.6559    7.7899 N   0  0  0  0  0  0  0  0  0  0  0  0
   11.1316   13.1983    6.5169 C   0  0  0  0  0  0  0  0  0  0  0  0
   11.5270   11.8655    6.2383 C   0  0  0  0  0  0  0  0  0  0  0  0
   11.9568   11.0603    7.3348 C   0  0  0  0  0  0  0  0  0  0  0  0
   12.3566    9.7519    7.1404 N   0  0  0  0  0  0  0  0  0  0  0  0
   11.3831   11.6757    4.9035 N   0  0  0  0  0  0  0  0  0  0  0  0
   10.9388   12.7719    4.3566 C   0  0  0  0  0  0  0  0  0  0  0  0
   10.7689   13.7381    5.3097 N   0  0  0  0  0  0  0  0  0  0  0  0
  1  7  2  0  0  0  0
  1  2  1  0  0  0  0
  2  3  1  0  0  0  0
  2  4  2  0  0  0  0
  4  5  1  0  0  0  0
  5  6  2  0  0  0  0
  5 11  1  0  0  0  0
  6  7  1  0  0  0  0
  6  9  1  0  0  0  0
  7  8  1  0  0  0  0
  9 10  1  0  0  0  0
 10 11  2  0  0  0  0
M  END
>  <CHROM.1>
11.49670776,12.31988766,7.02836873,-1.14095965,1.22350788,-2.00635002

>  <Name>
ligand

>  <RI>
0

>  <Rbt.Current_Directory>
/home/itssahil/PROJECTS/Mol_Feturizer/New_Systems/rnas/4FEP

>  <Rbt.Executable>
rbdock ($Id: //depot/dev/client3/rdock/2013.1/src/exe/rbdock.cxx#4 $)

>  <Rbt.Library>
libRbt.so (2013.1, Build901 2013/11/27)

>  <Rbt.Parameter_File>
/export/apps/rDock/src/rDock_2013.1_src/data/scripts/dock_solv.prm

>  <Rbt.Receptor>
prm/pocket_docking_5.prm

>  <SCORE>
-11.2682

>  <SCORE.INTER>
-11.2682

>  <SCORE.INTER.CONST>
1

>  <SCORE.INTER.POLAR>
0

>  <SCORE.INTER.ROT>
0

>  <SCORE.INTER.SOLV>
21.029

>  <SCORE.INTER.VDW>
-18.1218

>  <SCORE.INTER.norm>
-1.02438

>  <SCORE.INTRA>
0

>  <SCORE.INTRA.DIHEDRAL>
0

>  <SCORE.INTRA.DIHEDRAL.0>
0

>  <SCORE.INTRA.POLAR>
0

>  <SCORE.INTRA.POLAR.0>
0

>  <SCORE.INTRA.REPUL>
0

>  <SCORE.INTRA.REPUL.0>
0

>  <SCORE.INTRA.SOLV>
0

>  <SCORE.INTRA.SOLV.lig_0>
-48.9558

>  <SCORE.INTRA.VDW>
0

>  <SCORE.INTRA.VDW.0>
0

>  <SCORE.INTRA.norm>
0

>  <SCORE.RESTR>
0

>  <SCORE.RESTR.CAVITY>
0

>  <SCORE.RESTR.norm>
0

>  <SCORE.SYSTEM>
0

>  <SCORE.SYSTEM.CONST>
0

>  <SCORE.SYSTEM.DIHEDRAL>
0

>  <SCORE.SYSTEM.SOLV>
0

>  <SCORE.SYSTEM.norm>
0

>  <SCORE.heavy>
11

>  <SCORE.norm>
-1.02438

>  <RMSD>
0.573

$$$$
ligand
 OpenBabel11021811493D
libRbt.so/2013.1/901 2013/11/27
 11 12  0  0  0  0  0  0  0  0999 V2000
   11.9620   11.5966    8.5749 N   0  0  0  0  0  0  0  0  0  0  0  0
   11.5751   12.8637    8.7934 C   0  0  0  0  0  0  0  0  0  0  0  0
   11.6029   13.3638   10.0844 N   0  0  0  0  0  0  0  0  0  0  0  0
   11.1628   13.6542    7.7890 N   0  0  0  0  0  0  0  0  0  0  0  0
   11.1242   13.1964    6.5159 C   0  0  0  0  0  0  0  0  0  0  0  0
   11.5243   11.8648    6.2385 C   0  0  0  0  0  0  0  0  0  0  0  0
   11.9537   11.0610    7.3362 C   0  0  0  0  0  0  0  0  0  0  0  0
   12.3579    9.7537    7.1429 N   0  0  0  0  0  0  0  0  0  0  0  0
   11.3844   11.6745    4.9033 N   0  0  0  0  0  0  0  0  0  0  0  0
   10.9383   12.7693    4.3552 C   0  0  0  0  0  0  0  0  0  0  0  0
   10.7630   13.7350    5.3077 N   0  0  0  0  0  0  0  0  0  0  0  0
  1  7  2  0  0  0  0
  1  2  1  0  0  0  0
  2  3  1  0  0  0  0
  2  4  2  0  0  0  0
  4  5  1  0  0  0  0
  5  6  2  0  0  0  0
  5 11  1  0  0  0  0
  6  7  1  0  0  0  0
  6  9  1  0  0  0  0
  7  8  1  0  0  0  0
  9 10  1  0  0  0  0
 10 11  2  0  0  0  0
M  END
>  <CHROM.1>
11.49061236,12.31912016,7.02841051,-1.15155525,1.22185524,-1.99646691

>  <Name>
ligand

>  <RI>
0

>  <Rbt.Current_Directory>
/home/itssahil/PROJECTS/Mol_Feturizer/New_Systems/rnas/4FEP

>  <Rbt.Executable>
rbdock ($Id: //depot/dev/client3/rdock/2013.1/src/exe/rbdock.cxx#4 $)

>  <Rbt.Library>
libRbt.so (2013.1, Build901 2013/11/27)

>  <Rbt.Parameter_File>
/export/apps/rDock/src/rDock_2013.1_src/data/scripts/dock_solv.prm

>  <Rbt.Receptor>
prm/pocket_docking_5.prm

>  <SCORE>
-11.2696

>  <SCORE.INTER>
-11.2696

>  <SCORE.INTER.CONST>
1

>  <SCORE.INTER.POLAR>
0

>  <SCORE.INTER.ROT>
0

>  <SCORE.INTER.SOLV>
21.0241

>  <SCORE.INTER.VDW>
-18.1211

>  <SCORE.INTER.norm>
-1.02451

>  <SCORE.INTRA>
0

>  <SCORE.INTRA.DIHEDRAL>
0

>  <SCORE.INTRA.DIHEDRAL.0>
0

>  <SCORE.INTRA.POLAR>
0

>  <SCORE.INTRA.POLAR.0>
0

>  <SCORE.INTRA.REPUL>
0

>  <SCORE.INTRA.REPUL.0>
0

>  <SCORE.INTRA.SOLV>
0

>  <SCORE.INTRA.SOLV.lig_0>
-48.9558

>  <SCORE.INTRA.VDW>
0

>  <SCORE.INTRA.VDW.0>
0

>  <SCORE.INTRA.norm>
0

>  <SCORE.RESTR>
0

>  <SCORE.RESTR.CAVITY>
0

>  <SCORE.RESTR.norm>
0

>  <SCORE.SYSTEM>
0

>  <SCORE.SYSTEM.CONST>
0

>  <SCORE.SYSTEM.DIHEDRAL>
0

>  <SCORE.SYSTEM.SOLV>
0

>  <SCORE.SYSTEM.norm>
0

>  <SCORE.heavy>
11

>  <SCORE.norm>
-1.02451

>  <RMSD>
0.573

$$$$
ligand
 OpenBabel11021811493D
libRbt.so/2013.1/901 2013/11/27
 11 12  0  0  0  0  0  0  0  0999 V2000
   11.9538   11.5992    8.5771 N   0  0  0  0  0  0  0  0  0  0  0  0
   11.5649   12.8660    8.7936 C   0  0  0  0  0  0  0  0  0  0  0  0
   11.5883   13.3670   10.0843 N   0  0  0  0  0  0  0  0  0  0  0  0
   11.1546   13.6554    7.7874 N   0  0  0  0  0  0  0  0  0  0  0  0
   11.1201   13.1966    6.5146 C   0  0  0  0  0  0  0  0  0  0  0  0
   11.5226   11.8653    6.2392 C   0  0  0  0  0  0  0  0  0  0  0  0
   11.9496   11.0627    7.3387 C   0  0  0  0  0  0  0  0  0  0  0  0
   12.3559    9.7557    7.1475 N   0  0  0  0  0  0  0  0  0  0  0  0
   11.3868   11.6739    4.9038 N   0  0  0  0  0  0  0  0  0  0  0  0
   10.9410   12.7678    4.3536 C   0  0  0  0  0  0  0  0  0  0  0  0
   10.7619   13.7340    5.3050 N   0  0  0  0  0  0  0  0  0  0  0  0
  1  7  2  0  0  0  0
  1  2  1  0  0  0  0
  2  3  1  0  0  0  0
  2  4  2  0  0  0  0
  4  5  1  0  0  0  0
  5  6  2  0  0  0  0
  5 11  1  0  0  0  0
  6  7  1  0  0  0  0
  6  9  1  0  0  0  0
  7  8  1  0  0  0  0
  9 10  1  0  0  0  0
 10 11  2  0  0  0  0
M  END
>  <CHROM.1>
11.48607548,12.32009043,7.02874061,-1.16062282,1.22202439,-1.98864098

>  <Name>
ligand

>  <RI>
0

>  <Rbt.Current_Directory>
/home/itssahil/PROJECTS/Mol_Feturizer/New_Systems/rnas/4FEP

>  <Rbt.Executable>
rbdock ($Id: //depot/dev/client3/rdock/2013.1/src/exe/rbdock.cxx#4 $)

>  <Rbt.Library>
libRbt.so (2013.1, Build901 2013/11/27)

>  <Rbt.Parameter_File>
/export/apps/rDock/src/rDock_2013.1_src/data/scripts/dock_solv.prm

>  <Rbt.Receptor>
prm/pocket_docking_6.prm

>  <SCORE>
-11.2694

>  <SCORE.INTER>
-11.2694

>  <SCORE.INTER.CONST>
1

>  <SCORE.INTER.POLAR>
0

>  <SCORE.INTER.ROT>
0

>  <SCORE.INTER.SOLV>
21.0363

>  <SCORE.INTER.VDW>
-18.125

>  <SCORE.INTER.norm>
-1.02449

>  <SCORE.INTRA>
0

>  <SCORE.INTRA.DIHEDRAL>
0

>  <SCORE.INTRA.DIHEDRAL.0>
0

>  <SCORE.INTRA.POLAR>
0

>  <SCORE.INTRA.POLAR.0>
0

>  <SCORE.INTRA.REPUL>
0

>  <SCORE.INTRA.REPUL.0>
0

>  <SCORE.INTRA.SOLV>
0

>  <SCORE.INTRA.SOLV.lig_0>
-48.9558

>  <SCORE.INTRA.VDW>
0

>  <SCORE.INTRA.VDW.0>
0

>  <SCORE.INTRA.norm>
0

>  <SCORE.RESTR>
0

>  <SCORE.RESTR.CAVITY>
0

>  <SCORE.RESTR.norm>
0

>  <SCORE.SYSTEM>
0

>  <SCORE.SYSTEM.CONST>
0

>  <SCORE.SYSTEM.DIHEDRAL>
0

>  <SCORE.SYSTEM.SOLV>
0

>  <SCORE.SYSTEM.norm>
0

>  <SCORE.heavy>
11

>  <SCORE.norm>
-1.02449

>  <RMSD>
0.573

$$$$
ligand
 OpenBabel11021811493D
libRbt.so/2013.1/901 2013/11/27
 11 12  0  0  0  0  0  0  0  0999 V2000
   11.9677   11.6000    8.5755 N   0  0  0  0  0  0  0  0  0  0  0  0
   11.5831   12.8680    8.7927 C   0  0  0  0  0  0  0  0  0  0  0  0
   11.6136   13.3700   10.0829 N   0  0  0  0  0  0  0  0  0  0  0  0
   11.1705   13.6577    7.7877 N   0  0  0  0  0  0  0  0  0  0  0  0
   11.1292   13.1980    6.5154 C   0  0  0  0  0  0  0  0  0  0  0  0
   11.5269   11.8654    6.2393 C   0  0  0  0  0  0  0  0  0  0  0  0
   11.9567   11.0626    7.3375 C   0  0  0  0  0  0  0  0  0  0  0  0
   12.3587    9.7544    7.1456 N   0  0  0  0  0  0  0  0  0  0  0  0
   11.3848   11.6734    4.9046 N   0  0  0  0  0  0  0  0  0  0  0  0
   10.9394   12.7680    4.3556 C   0  0  0  0  0  0  0  0  0  0  0  0
   10.7671   13.7354    5.3070 N   0  0  0  0  0  0  0  0  0  0  0  0
  1  7  2  0  0  0  0
  1  2  1  0  0  0  0
  2  3  1  0  0  0  0
  2  4  2  0  0  0  0
  4  5  1  0  0  0  0
  5  6  2  0  0  0  0
  5 11  1  0  0  0  0
  6  7  1  0  0  0  0
  6  9  1  0  0  0  0
  7  8  1  0  0  0  0
  9 10  1  0  0  0  0
 10 11  2  0  0  0  0
M  END
>  <CHROM.1>
11.49511501,12.32095098,7.02862642,-1.14566720,1.22262436,-2.00347200

>  <Name>
ligand

>  <RI>
0

>  <Rbt.Current_Directory>
/home/itssahil/PROJECTS/Mol_Feturizer/New_Systems/rnas/4FEP

>  <Rbt.Executable>
rbdock ($Id: //depot/dev/client3/rdock/2013.1/src/exe/rbdock.cxx#4 $)

>  <Rbt.Library>
libRbt.so (2013.1, Build901 2013/11/27)

>  <Rbt.Parameter_File>
/export/apps/rDock/src/rDock_2013.1_src/data/scripts/dock_solv.prm

>  <Rbt.Receptor>
prm/pocket_docking_7.prm

>  <SCORE>
-11.2697

>  <SCORE.INTER>
-11.2697

>  <SCORE.INTER.CONST>
1

>  <SCORE.INTER.POLAR>
0

>  <SCORE.INTER.ROT>
0

>  <SCORE.INTER.SOLV>
21.0293

>  <SCORE.INTER.VDW>
-18.1229

>  <SCORE.INTER.norm>
-1.02452

>  <SCORE.INTRA>
0

>  <SCORE.INTRA.DIHEDRAL>
0

>  <SCORE.INTRA.DIHEDRAL.0>
0

>  <SCORE.INTRA.POLAR>
0

>  <SCORE.INTRA.POLAR.0>
0

>  <SCORE.INTRA.REPUL>
0

>  <SCORE.INTRA.REPUL.0>
0

>  <SCORE.INTRA.SOLV>
0

>  <SCORE.INTRA.SOLV.lig_0>
-48.9558

>  <SCORE.INTRA.VDW>
0

>  <SCORE.INTRA.VDW.0>
0

>  <SCORE.INTRA.norm>
0

>  <SCORE.RESTR>
0

>  <SCORE.RESTR.CAVITY>
0

>  <SCORE.RESTR.norm>
0

>  <SCORE.SYSTEM>
0

>  <SCORE.SYSTEM.CONST>
0

>  <SCORE.SYSTEM.DIHEDRAL>
0

>  <SCORE.SYSTEM.SOLV>
0

>  <SCORE.SYSTEM.norm>
0

>  <SCORE.heavy>
11

>  <SCORE.norm>
-1.02452

>  <RMSD>
0.573

$$$$
ligand
 OpenBabel11021811493D
libRbt.so/2013.1/901 2013/11/27
 11 12  0  0  0  0  0  0  0  0999 V2000
   11.9856   11.6076    8.5641 N   0  0  0  0  0  0  0  0  0  0  0  0
   11.5718   12.8658    8.7847 C   0  0  0  0  0  0  0  0  0  0  0  0
   11.5989   13.3678   10.0750 N   0  0  0  0  0  0  0  0  0  0  0  0
   11.1332   13.6457    7.7831 N   0  0  0  0  0  0  0  0  0  0  0  0
   11.0944   13.1858    6.5108 C   0  0  0  0  0  0  0  0  0  0  0  0
   11.5225   11.8634    6.2312 C   0  0  0  0  0  0  0  0  0  0  0  0
   11.9792   11.0707    7.3259 C   0  0  0  0  0  0  0  0  0  0  0  0
   12.4116    9.7728    7.1304 N   0  0  0  0  0  0  0  0  0  0  0  0
   11.3759   11.6685    4.8974 N   0  0  0  0  0  0  0  0  0  0  0  0
   10.9003   12.7523    4.3520 C   0  0  0  0  0  0  0  0  0  0  0  0
   10.7110   13.7148    5.3052 N   0  0  0  0  0  0  0  0  0  0  0  0
  1  7  2  0  0  0  0
  1  2  1  0  0  0  0
  2  3  1  0  0  0  0
  2  4  2  0  0  0  0
  4  5  1  0  0  0  0
  5  6  2  0  0  0  0
  5 11  1  0  0  0  0
  6  7  1  0  0  0  0
  6  9  1  0  0  0  0
  7  8  1  0  0  0  0
  9 10  1  0  0  0  0
 10 11  2  0  0  0  0
M  END
>  <CHROM.1>
11.48501637,12.31762672,7.02094160,-1.15657391,1.19763471,-1.99271364

>  <Name>
ligand

>  <RI>
0

>  <Rbt.Current_Directory>
/home/itssahil/PROJECTS/Mol_Feturizer/New_Systems/rnas/4FEP

>  <Rbt.Executable>
rbdock ($Id: //depot/dev/client3/rdock/2013.1/src/exe/rbdock.cxx#4 $)

>  <Rbt.Library>
libRbt.so (2013.1, Build901 2013/11/27)

>  <Rbt.Parameter_File>
/export/apps/rDock/src/rDock_2013.1_src/data/scripts/dock_solv.prm

>  <Rbt.Receptor>
prm/pocket_docking_7.prm

>  <SCORE>
-11.215

>  <SCORE.INTER>
-11.215

>  <SCORE.INTER.CONST>
1

>  <SCORE.INTER.POLAR>
0

>  <SCORE.INTER.ROT>
0

>  <SCORE.INTER.SOLV>
20.8341

>  <SCORE.INTER.VDW>
-18.0214

>  <SCORE.INTER.norm>
-1.01954

>  <SCORE.INTRA>
0

>  <SCORE.INTRA.DIHEDRAL>
0

>  <SCORE.INTRA.DIHEDRAL.0>
0

>  <SCORE.INTRA.POLAR>
0

>  <SCORE.INTRA.POLAR.0>
0

>  <SCORE.INTRA.REPUL>
0

>  <SCORE.INTRA.REPUL.0>
0

>  <SCORE.INTRA.SOLV>
0

>  <SCORE.INTRA.SOLV.lig_0>
-48.9558

>  <SCORE.INTRA.VDW>
0

>  <SCORE.INTRA.VDW.0>
0

>  <SCORE.INTRA.norm>
0

>  <SCORE.RESTR>
0

>  <SCORE.RESTR.CAVITY>
0

>  <SCORE.RESTR.norm>
0

>  <SCORE.SYSTEM>
0

>  <SCORE.SYSTEM.CONST>
0

>  <SCORE.SYSTEM.DIHEDRAL>
0

>  <SCORE.SYSTEM.SOLV>
0

>  <SCORE.SYSTEM.norm>
0

>  <SCORE.heavy>
11

>  <SCORE.norm>
-1.01954

>  <RMSD>
0.573

$$$$
ligand
 OpenBabel11021811493D
libRbt.so/2013.1/901 2013/11/27
 11 12  0  0  0  0  0  0  0  0999 V2000
   11.9701   11.5980    8.5747 N   0  0  0  0  0  0  0  0  0  0  0  0
   11.5886   12.8667    8.7934 C   0  0  0  0  0  0  0  0  0  0  0  0
   11.6221   13.3676   10.0839 N   0  0  0  0  0  0  0  0  0  0  0  0
   11.1764   13.6580    7.7896 N   0  0  0  0  0  0  0  0  0  0  0  0
   11.1323   13.1994    6.5170 C   0  0  0  0  0  0  0  0  0  0  0  0
   11.5266   11.8662    6.2394 C   0  0  0  0  0  0  0  0  0  0  0  0
   11.9562   11.0615    7.3364 C   0  0  0  0  0  0  0  0  0  0  0  0
   12.3551    9.7526    7.1429 N   0  0  0  0  0  0  0  0  0  0  0  0
   11.3822   11.6754    4.9048 N   0  0  0  0  0  0  0  0  0  0  0  0
   10.9385   12.7714    4.3571 C   0  0  0  0  0  0  0  0  0  0  0  0
   10.7696   13.7385    5.3095 N   0  0  0  0  0  0  0  0  0  0  0  0
  1  7  2  0  0  0  0
  1  2  1  0  0  0  0
  2  3  1  0  0  0  0
  2  4  2  0  0  0  0
  4  5  1  0  0  0  0
  5  6  2  0  0  0  0
  5 11  1  0  0  0  0
  6  7  1  0  0  0  0
  6  9  1  0  0  0  0
  7  8  1  0  0  0  0
  9 10  1  0  0  0  0
 10 11  2  0  0  0  0
M  END
>  <CHROM.1>
11.49694150,12.32114879,7.02906090,-1.13918739,1.22401091,-2.00882316

>  <Name>
ligand

>  <RI>
0

>  <Rbt.Current_Directory>
/home/itssahil/PROJECTS/Mol_Feturizer/New_Systems/rnas/4FEP

>  <Rbt.Executable>
rbdock ($Id: //depot/dev/client3/rdock/2013.1/src/exe/rbdock.cxx#4 $)

>  <Rbt.Library>
libRbt.so (2013.1, Build901 2013/11/27)

>  <Rbt.Parameter_File>
/export/apps/rDock/src/rDock_2013.1_src/data/scripts/dock_solv.prm

>  <Rbt.Receptor>
prm/pocket_docking_8.prm

>  <SCORE>
-11.2683

>  <SCORE.INTER>
-11.2683

>  <SCORE.INTER.CONST>
1

>  <SCORE.INTER.POLAR>
0

>  <SCORE.INTER.ROT>
0

>  <SCORE.INTER.SOLV>
21.0386

>  <SCORE.INTER.VDW>
-18.1251

>  <SCORE.INTER.norm>
-1.02439

>  <SCORE.INTRA>
0

>  <SCORE.INTRA.DIHEDRAL>
0

>  <SCORE.INTRA.DIHEDRAL.0>
0

>  <SCORE.INTRA.POLAR>
0

>  <SCORE.INTRA.POLAR.0>
0

>  <SCORE.INTRA.REPUL>
0

>  <SCORE.INTRA.REPUL.0>
0

>  <SCORE.INTRA.SOLV>
0

>  <SCORE.INTRA.SOLV.lig_0>
-48.9558

>  <SCORE.INTRA.VDW>
0

>  <SCORE.INTRA.VDW.0>
0

>  <SCORE.INTRA.norm>
0

>  <SCORE.RESTR>
0

>  <SCORE.RESTR.CAVITY>
0

>  <SCORE.RESTR.norm>
0

>  <SCORE.SYSTEM>
0

>  <SCORE.SYSTEM.CONST>
0

>  <SCORE.SYSTEM.DIHEDRAL>
0

>  <SCORE.SYSTEM.SOLV>
0

>  <SCORE.SYSTEM.norm>
0

>  <SCORE.heavy>
11

>  <SCORE.norm>
-1.02439

>  <RMSD>
0.573

$$$$
ligand
 OpenBabel11021811493D
libRbt.so/2013.1/901 2013/11/27
 11 12  0  0  0  0  0  0  0  0999 V2000
   11.9705   11.5996    8.5749 N   0  0  0  0  0  0  0  0  0  0  0  0
   11.5865   12.8676    8.7934 C   0  0  0  0  0  0  0  0  0  0  0  0
   11.6188   13.3688   10.0838 N   0  0  0  0  0  0  0  0  0  0  0  0
   11.1728   13.6580    7.7894 N   0  0  0  0  0  0  0  0  0  0  0  0
   11.1297   13.1991    6.5169 C   0  0  0  0  0  0  0  0  0  0  0  0
   11.5267   11.8666    6.2395 C   0  0  0  0  0  0  0  0  0  0  0  0
   11.9577   11.0629    7.3367 C   0  0  0  0  0  0  0  0  0  0  0  0
   12.3591    9.7548    7.1434 N   0  0  0  0  0  0  0  0  0  0  0  0
   11.3827   11.6753    4.9049 N   0  0  0  0  0  0  0  0  0  0  0  0
   10.9370   12.7704    4.3570 C   0  0  0  0  0  0  0  0  0  0  0  0
   10.7661   13.7373    5.3092 N   0  0  0  0  0  0  0  0  0  0  0  0
  1  7  2  0  0  0  0
  1  2  1  0  0  0  0
  2  3  1  0  0  0  0
  2  4  2  0  0  0  0
  4  5  1  0  0  0  0
  5  6  2  0  0  0  0
  5 11  1  0  0  0  0
  6  7  1  0  0  0  0
  6  9  1  0  0  0  0
  7  8  1  0  0  0  0
  9 10  1  0  0  0  0
 10 11  2  0  0  0  0
M  END
>  <CHROM.1>
11.49604970,12.32161920,7.02911622,-1.14185343,1.22230947,-2.00647193

>  <Name>
ligand

>  <RI>
0

>  <Rbt.Current_Directory>
/home/itssahil/PROJECTS/Mol_Feturizer/New_Systems/rnas/4FEP

>  <Rbt.Executable>
rbdock ($Id: //depot/dev/client3/rdock/2013.1/src/exe/rbdock.cxx#4 $)

>  <Rbt.Library>
libRbt.so (2013.1, Build901 2013/11/27)

>  <Rbt.Parameter_File>
/export/apps/rDock/src/rDock_2013.1_src/data/scripts/dock_solv.prm

>  <Rbt.Receptor>
prm/pocket_docking_8.prm

>  <SCORE>
-11.2685

>  <SCORE.INTER>
-11.2685

>  <SCORE.INTER.CONST>
1

>  <SCORE.INTER.POLAR>
0

>  <SCORE.INTER.ROT>
0

>  <SCORE.INTER.SOLV>
21.0249

>  <SCORE.INTER.VDW>
-18.1206

>  <SCORE.INTER.norm>
-1.02441

>  <SCORE.INTRA>
0

>  <SCORE.INTRA.DIHEDRAL>
0

>  <SCORE.INTRA.DIHEDRAL.0>
0

>  <SCORE.INTRA.POLAR>
0

>  <SCORE.INTRA.POLAR.0>
0

>  <SCORE.INTRA.REPUL>
0

>  <SCORE.INTRA.REPUL.0>
0

>  <SCORE.INTRA.SOLV>
0

>  <SCORE.INTRA.SOLV.lig_0>
-48.9558

>  <SCORE.INTRA.VDW>
0

>  <SCORE.INTRA.VDW.0>
0

>  <SCORE.INTRA.norm>
0

>  <SCORE.RESTR>
0

>  <SCORE.RESTR.CAVITY>
0

>  <SCORE.RESTR.norm>
0

>  <SCORE.SYSTEM>
0

>  <SCORE.SYSTEM.CONST>
0

>  <SCORE.SYSTEM.DIHEDRAL>
0

>  <SCORE.SYSTEM.SOLV>
0

>  <SCORE.SYSTEM.norm>
0

>  <SCORE.heavy>
11

>  <SCORE.norm>
-1.02441

>  <RMSD>
0.573

$$$$
ligand
 OpenBabel11021811493D
libRbt.so/2013.1/901 2013/11/27
 11 12  0  0  0  0  0  0  0  0999 V2000
   11.9716   11.5974    8.5741 N   0  0  0  0  0  0  0  0  0  0  0  0
   11.5891   12.8656    8.7932 C   0  0  0  0  0  0  0  0  0  0  0  0
   11.6228   13.3664   10.0839 N   0  0  0  0  0  0  0  0  0  0  0  0
   11.1755   13.6568    7.7899 N   0  0  0  0  0  0  0  0  0  0  0  0
   11.1310   13.1984    6.5172 C   0  0  0  0  0  0  0  0  0  0  0  0
   11.5264   11.8656    6.2391 C   0  0  0  0  0  0  0  0  0  0  0  0
   11.9574   11.0611    7.3356 C   0  0  0  0  0  0  0  0  0  0  0  0
   12.3574    9.7526    7.1416 N   0  0  0  0  0  0  0  0  0  0  0  0
   11.3814   11.6750    4.9045 N   0  0  0  0  0  0  0  0  0  0  0  0
   10.9363   12.7707    4.3573 C   0  0  0  0  0  0  0  0  0  0  0  0
   10.7671   13.7375    5.3100 N   0  0  0  0  0  0  0  0  0  0  0  0
  1  7  2  0  0  0  0
  1  2  1  0  0  0  0
  2  3  1  0  0  0  0
  2  4  2  0  0  0  0
  4  5  1  0  0  0  0
  5  6  2  0  0  0  0
  5 11  1  0  0  0  0
  6  7  1  0  0  0  0
  6  9  1  0  0  0  0
  7  8  1  0  0  0  0
  9 10  1  0  0  0  0
 10 11  2  0  0  0  0
M  END
>  <CHROM.1>
11.49682022,12.32040022,7.02885690,-1.13873520,1.22292199,-2.00903765

>  <Name>
ligand

>  <RI>
0

>  <Rbt.Current_Directory>
/home/itssahil/PROJECTS/Mol_Feturizer/New_Systems/rnas/4FEP

>  <Rbt.Executable>
rbdock ($Id: //depot/dev/client3/rdock/2013.1/src/exe/rbdock.cxx#4 $)

>  <Rbt.Library>
libRbt.so (2013.1, Build901 2013/11/27)

>  <Rbt.Parameter_File>
/export/apps/rDock/src/rDock_2013.1_src/data/scripts/dock_solv.prm

>  <Rbt.Receptor>
prm/pocket_docking_8.prm

>  <SCORE>
-11.2684

>  <SCORE.INTER>
-11.2684

>  <SCORE.INTER.CONST>
1

>  <SCORE.INTER.POLAR>
0

>  <SCORE.INTER.ROT>
0

>  <SCORE.INTER.SOLV>
21.0277

>  <SCORE.INTER.VDW>
-18.1215

>  <SCORE.INTER.norm>
-1.0244

>  <SCORE.INTRA>
0

>  <SCORE.INTRA.DIHEDRAL>
0

>  <SCORE.INTRA.DIHEDRAL.0>
0

>  <SCORE.INTRA.POLAR>
0

>  <SCORE.INTRA.POLAR.0>
0

>  <SCORE.INTRA.REPUL>
0

>  <SCORE.INTRA.REPUL.0>
0

>  <SCORE.INTRA.SOLV>
0

>  <SCORE.INTRA.SOLV.lig_0>
-48.9558

>  <SCORE.INTRA.VDW>
0

>  <SCORE.INTRA.VDW.0>
0

>  <SCORE.INTRA.norm>
0

>  <SCORE.RESTR>
0

>  <SCORE.RESTR.CAVITY>
0

>  <SCORE.RESTR.norm>
0

>  <SCORE.SYSTEM>
0

>  <SCORE.SYSTEM.CONST>
0

>  <SCORE.SYSTEM.DIHEDRAL>
0

>  <SCORE.SYSTEM.SOLV>
0

>  <SCORE.SYSTEM.norm>
0

>  <SCORE.heavy>
11

>  <SCORE.norm>
-1.0244

>  <RMSD>
0.573

$$$$
ligand
 OpenBabel11021811493D
libRbt.so/2013.1/901 2013/11/27
 11 12  0  0  0  0  0  0  0  0999 V2000
   11.9726   11.5973    8.5717 N   0  0  0  0  0  0  0  0  0  0  0  0
   11.5860   12.8642    8.7916 C   0  0  0  0  0  0  0  0  0  0  0  0
   11.6169   13.3639   10.0827 N   0  0  0  0  0  0  0  0  0  0  0  0
   11.1708   13.6549    7.7885 N   0  0  0  0  0  0  0  0  0  0  0  0
   11.1291   13.1975    6.5154 C   0  0  0  0  0  0  0  0  0  0  0  0
   11.5289   11.8661    6.2365 C   0  0  0  0  0  0  0  0  0  0  0  0
   11.9613   11.0621    7.3328 C   0  0  0  0  0  0  0  0  0  0  0  0
   12.3655    9.7550    7.1381 N   0  0  0  0  0  0  0  0  0  0  0  0
   11.3857   11.6762    4.9016 N   0  0  0  0  0  0  0  0  0  0  0  0
   10.9378   12.7711    4.3550 C   0  0  0  0  0  0  0  0  0  0  0  0
   10.7647   13.7364    5.3083 N   0  0  0  0  0  0  0  0  0  0  0  0
  1  7  2  0  0  0  0
  1  2  1  0  0  0  0
  2  3  1  0  0  0  0
  2  4  2  0  0  0  0
  4  5  1  0  0  0  0
  5  6  2  0  0  0  0
  5 11  1  0  0  0  0
  6  7  1  0  0  0  0
  6  9  1  0  0  0  0
  7  8  1  0  0  0  0
  9 10  1  0  0  0  0
 10 11  2  0  0  0  0
M  END
>  <CHROM.1>
11.49709447,12.32015867,7.02663682,-1.14513155,1.22051487,-2.00216695

>  <Name>
ligand

>  <RI>
0

>  <Rbt.Current_Directory>
/home/itssahil/PROJECTS/Mol_Feturizer/New_Systems/rnas/4FEP

>  <Rbt.Executable>
rbdock ($Id: //depot/dev/client3/rdock/2013.1/src/exe/rbdock.cxx#4 $)

>  <Rbt.Library>
libRbt.so (2013.1, Build901 2013/11/27)

>  <Rbt.Parameter_File>
/export/apps/rDock/src/rDock_2013.1_src/data/scripts/dock_solv.prm

>  <Rbt.Receptor>
prm/blind_docking_40.prm

>  <SCORE>
-11.2671

>  <SCORE.INTER>
-11.2671

>  <SCORE.INTER.CONST>
1

>  <SCORE.INTER.POLAR>
0

>  <SCORE.INTER.ROT>
0

>  <SCORE.INTER.SOLV>
20.996

>  <SCORE.INTER.VDW>
-18.1101

>  <SCORE.INTER.norm>
-1.02429

>  <SCORE.INTRA>
0

>  <SCORE.INTRA.DIHEDRAL>
0

>  <SCORE.INTRA.DIHEDRAL.0>
0

>  <SCORE.INTRA.POLAR>
0

>  <SCORE.INTRA.POLAR.0>
0

>  <SCORE.INTRA.REPUL>
0

>  <SCORE.INTRA.REPUL.0>
0

>  <SCORE.INTRA.SOLV>
0

>  <SCORE.INTRA.SOLV.lig_0>
-48.9558

>  <SCORE.INTRA.VDW>
0

>  <SCORE.INTRA.VDW.0>
0

>  <SCORE.INTRA.norm>
0

>  <SCORE.RESTR>
0

>  <SCORE.RESTR.CAVITY>
0

>  <SCORE.RESTR.norm>
0

>  <SCORE.SYSTEM>
0

>  <SCORE.SYSTEM.CONST>
0

>  <SCORE.SYSTEM.DIHEDRAL>
0

>  <SCORE.SYSTEM.SOLV>
0

>  <SCORE.SYSTEM.norm>
0

>  <SCORE.heavy>
11

>  <SCORE.norm>
-1.02429

>  <RMSD>
0.574

$$$$
ligand
 OpenBabel11021811493D
libRbt.so/2013.1/901 2013/11/27
 11 12  0  0  0  0  0  0  0  0999 V2000
   11.9722   11.6003    8.5732 N   0  0  0  0  0  0  0  0  0  0  0  0
   11.5871   12.8678    8.7924 C   0  0  0  0  0  0  0  0  0  0  0  0
   11.6198   13.3686   10.0831 N   0  0  0  0  0  0  0  0  0  0  0  0
   11.1720   13.6582    7.7891 N   0  0  0  0  0  0  0  0  0  0  0  0
   11.1286   13.1999    6.5164 C   0  0  0  0  0  0  0  0  0  0  0  0
   11.5267   11.8678    6.2382 C   0  0  0  0  0  0  0  0  0  0  0  0
   11.9592   11.0641    7.3348 C   0  0  0  0  0  0  0  0  0  0  0  0
   12.3617    9.7565    7.1407 N   0  0  0  0  0  0  0  0  0  0  0  0
   11.3820   11.6770    4.9036 N   0  0  0  0  0  0  0  0  0  0  0  0
   10.9348   12.7719    4.3565 C   0  0  0  0  0  0  0  0  0  0  0  0
   10.7637   13.7382    5.3092 N   0  0  0  0  0  0  0  0  0  0  0  0
  1  7  2  0  0  0  0
  1  2  1  0  0  0  0
  2  3  1  0  0  0  0
  2  4  2  0  0  0  0
  4  5  1  0  0  0  0
  5  6  2  0  0  0  0
  5 11  1  0  0  0  0
  6  7  1  0  0  0  0
  6  9  1  0  0  0  0
  7  8  1  0  0  0  0
  9 10  1  0  0  0  0
 10 11  2  0  0  0  0
M  END
>  <CHROM.1>
11.49606663,12.32250943,7.02801509,-1.14139237,1.22113675,-2.00648869

>  <Name>
ligand

>  <RI>
0

>  <Rbt.Current_Directory>
/home/itssahil/PROJECTS/Mol_Feturizer/New_Systems/rnas/4FEP

>  <Rbt.Executable>
rbdock ($Id: //depot/dev/client3/rdock/2013.1/src/exe/rbdock.cxx#4 $)

>  <Rbt.Library>
libRbt.so (2013.1, Build901 2013/11/27)

>  <Rbt.Parameter_File>
/export/apps/rDock/src/rDock_2013.1_src/data/scripts/dock_solv.prm

>  <Rbt.Receptor>
prm/pocket_docking_5.prm

>  <SCORE>
-11.2665

>  <SCORE.INTER>
-11.2665

>  <SCORE.INTER.CONST>
1

>  <SCORE.INTER.POLAR>
0

>  <SCORE.INTER.ROT>
0

>  <SCORE.INTER.SOLV>
21.0132

>  <SCORE.INTER.VDW>
-18.1154

>  <SCORE.INTER.norm>
-1.02423

>  <SCORE.INTRA>
0

>  <SCORE.INTRA.DIHEDRAL>
0

>  <SCORE.INTRA.DIHEDRAL.0>
0

>  <SCORE.INTRA.POLAR>
0

>  <SCORE.INTRA.POLAR.0>
0

>  <SCORE.INTRA.REPUL>
0

>  <SCORE.INTRA.REPUL.0>
0

>  <SCORE.INTRA.SOLV>
0

>  <SCORE.INTRA.SOLV.lig_0>
-48.9558

>  <SCORE.INTRA.VDW>
0

>  <SCORE.INTRA.VDW.0>
0

>  <SCORE.INTRA.norm>
0

>  <SCORE.RESTR>
0

>  <SCORE.RESTR.CAVITY>
0

>  <SCORE.RESTR.norm>
0

>  <SCORE.SYSTEM>
0

>  <SCORE.SYSTEM.CONST>
0

>  <SCORE.SYSTEM.DIHEDRAL>
0

>  <SCORE.SYSTEM.SOLV>
0

>  <SCORE.SYSTEM.norm>
0

>  <SCORE.heavy>
11

>  <SCORE.norm>
-1.02423

>  <RMSD>
0.574

$$$$
ligand
 OpenBabel11021811493D
libRbt.so/2013.1/901 2013/11/27
 11 12  0  0  0  0  0  0  0  0999 V2000
   11.9687   11.5949    8.5737 N   0  0  0  0  0  0  0  0  0  0  0  0
   11.5900   12.8644    8.7926 C   0  0  0  0  0  0  0  0  0  0  0  0
   11.6244   13.3650   10.0833 N   0  0  0  0  0  0  0  0  0  0  0  0
   11.1795   13.6568    7.7890 N   0  0  0  0  0  0  0  0  0  0  0  0
   11.1345   13.1986    6.5163 C   0  0  0  0  0  0  0  0  0  0  0  0
   11.5259   11.8645    6.2384 C   0  0  0  0  0  0  0  0  0  0  0  0
   11.9536   11.0587    7.3353 C   0  0  0  0  0  0  0  0  0  0  0  0
   12.3496    9.7490    7.1415 N   0  0  0  0  0  0  0  0  0  0  0  0
   11.3812   11.6743    4.9037 N   0  0  0  0  0  0  0  0  0  0  0  0
   10.9399   12.7715    4.3563 C   0  0  0  0  0  0  0  0  0  0  0  0
   10.7731   13.7388    5.3088 N   0  0  0  0  0  0  0  0  0  0  0  0
  1  7  2  0  0  0  0
  1  2  1  0  0  0  0
  2  3  1  0  0  0  0
  2  4  2  0  0  0  0
  4  5  1  0  0  0  0
  5  6  2  0  0  0  0
  5 11  1  0  0  0  0
  6  7  1  0  0  0  0
  6  9  1  0  0  0  0
  7  8  1  0  0  0  0
  9 10  1  0  0  0  0
 10 11  2  0  0  0  0
M  END
>  <CHROM.1>
11.49719552,12.31941914,7.02817686,-1.13661730,1.22606078,-2.01103008

>  <Name>
ligand

>  <RI>
0

>  <Rbt.Current_Directory>
/home/itssahil/PROJECTS/Mol_Feturizer/New_Systems/rnas/4FEP

>  <Rbt.Executable>
rbdock ($Id: //depot/dev/client3/rdock/2013.1/src/exe/rbdock.cxx#4 $)

>  <Rbt.Library>
libRbt.so (2013.1, Build901 2013/11/27)

>  <Rbt.Parameter_File>
/export/apps/rDock/src/rDock_2013.1_src/data/scripts/dock_solv.prm

>  <Rbt.Receptor>
prm/pocket_docking_5.prm

>  <SCORE>
-11.2663

>  <SCORE.INTER>
-11.2663

>  <SCORE.INTER.CONST>
1

>  <SCORE.INTER.POLAR>
0

>  <SCORE.INTER.ROT>
0

>  <SCORE.INTER.SOLV>
21.0597

>  <SCORE.INTER.VDW>
-18.1308

>  <SCORE.INTER.norm>
-1.02421

>  <SCORE.INTRA>
0

>  <SCORE.INTRA.DIHEDRAL>
0

>  <SCORE.INTRA.DIHEDRAL.0>
0

>  <SCORE.INTRA.POLAR>
0

>  <SCORE.INTRA.POLAR.0>
0

>  <SCORE.INTRA.REPUL>
0

>  <SCORE.INTRA.REPUL.0>
0

>  <SCORE.INTRA.SOLV>
0

>  <SCORE.INTRA.SOLV.lig_0>
-48.9558

>  <SCORE.INTRA.VDW>
0

>  <SCORE.INTRA.VDW.0>
0

>  <SCORE.INTRA.norm>
0

>  <SCORE.RESTR>
0

>  <SCORE.RESTR.CAVITY>
0

>  <SCORE.RESTR.norm>
0

>  <SCORE.SYSTEM>
0

>  <SCORE.SYSTEM.CONST>
0

>  <SCORE.SYSTEM.DIHEDRAL>
0

>  <SCORE.SYSTEM.SOLV>
0

>  <SCORE.SYSTEM.norm>
0

>  <SCORE.heavy>
11

>  <SCORE.norm>
-1.02421

>  <RMSD>
0.574

$$$$
ligand
 OpenBabel11021811493D
libRbt.so/2013.1/901 2013/11/27
 11 12  0  0  0  0  0  0  0  0999 V2000
   11.9877   11.5987    8.5713 N   0  0  0  0  0  0  0  0  0  0  0  0
   11.6101   12.8682    8.7923 C   0  0  0  0  0  0  0  0  0  0  0  0
   11.6517   13.3688   10.0827 N   0  0  0  0  0  0  0  0  0  0  0  0
   11.1940   13.6606    7.7910 N   0  0  0  0  0  0  0  0  0  0  0  0
   11.1419   13.2023    6.5185 C   0  0  0  0  0  0  0  0  0  0  0  0
   11.5319   11.8682    6.2385 C   0  0  0  0  0  0  0  0  0  0  0  0
   11.9657   11.0625    7.3330 C   0  0  0  0  0  0  0  0  0  0  0  0
   12.3607    9.7527    7.1371 N   0  0  0  0  0  0  0  0  0  0  0  0
   11.3796   11.6780    4.9047 N   0  0  0  0  0  0  0  0  0  0  0  0
   10.9353   12.7751    4.3597 C   0  0  0  0  0  0  0  0  0  0  0  0
   10.7738   13.7424    5.3131 N   0  0  0  0  0  0  0  0  0  0  0  0
  1  7  2  0  0  0  0
  1  2  1  0  0  0  0
  2  3  1  0  0  0  0
  2  4  2  0  0  0  0
  4  5  1  0  0  0  0
  5  6  2  0  0  0  0
  5 11  1  0  0  0  0
  6  7  1  0  0  0  0
  6  9  1  0  0  0  0
  7  8  1  0  0  0  0
  9 10  1  0  0  0  0
 10 11  2  0  0  0  0
M  END
>  <CHROM.1>
11.50751555,12.32314283,7.02843345,-1.12183075,1.22358692,-2.02497154

>  <Name>
ligand

>  <RI>
0

>  <Rbt.Current_Directory>
/home/itssahil/PROJECTS/Mol_Feturizer/New_Systems/rnas/4FEP

>  <Rbt.Executable>
rbdock ($Id: //depot/dev/client3/rdock/2013.1/src/exe/rbdock.cxx#4 $)

>  <Rbt.Library>
libRbt.so (2013.1, Build901 2013/11/27)

>  <Rbt.Parameter_File>
/export/apps/rDock/src/rDock_2013.1_src/data/scripts/dock_solv.prm

>  <Rbt.Receptor>
prm/blind_docking_60.prm

>  <SCORE>
-11.2588

>  <SCORE.INTER>
-11.2588

>  <SCORE.INTER.CONST>
1

>  <SCORE.INTER.POLAR>
0

>  <SCORE.INTER.ROT>
0

>  <SCORE.INTER.SOLV>
21.0195

>  <SCORE.INTER.VDW>
-18.1124

>  <SCORE.INTER.norm>
-1.02353

>  <SCORE.INTRA>
0

>  <SCORE.INTRA.DIHEDRAL>
0

>  <SCORE.INTRA.DIHEDRAL.0>
0

>  <SCORE.INTRA.POLAR>
0

>  <SCORE.INTRA.POLAR.0>
0

>  <SCORE.INTRA.REPUL>
0

>  <SCORE.INTRA.REPUL.0>
0

>  <SCORE.INTRA.SOLV>
0

>  <SCORE.INTRA.SOLV.lig_0>
-48.9558

>  <SCORE.INTRA.VDW>
0

>  <SCORE.INTRA.VDW.0>
0

>  <SCORE.INTRA.norm>
0

>  <SCORE.RESTR>
0

>  <SCORE.RESTR.CAVITY>
0

>  <SCORE.RESTR.norm>
0

>  <SCORE.SYSTEM>
0

>  <SCORE.SYSTEM.CONST>
0

>  <SCORE.SYSTEM.DIHEDRAL>
0

>  <SCORE.SYSTEM.SOLV>
0

>  <SCORE.SYSTEM.norm>
0

>  <SCORE.heavy>
11

>  <SCORE.norm>
-1.02353

>  <RMSD>
0.575

$$$$
ligand
 OpenBabel11021811493D
libRbt.so/2013.1/901 2013/11/27
 11 12  0  0  0  0  0  0  0  0999 V2000
   11.9691   11.6023    8.5736 N   0  0  0  0  0  0  0  0  0  0  0  0
   11.5822   12.8695    8.7911 C   0  0  0  0  0  0  0  0  0  0  0  0
   11.6117   13.3712   10.0815 N   0  0  0  0  0  0  0  0  0  0  0  0
   11.1681   13.6587    7.7864 N   0  0  0  0  0  0  0  0  0  0  0  0
   11.1276   13.1993    6.5139 C   0  0  0  0  0  0  0  0  0  0  0  0
   11.5278   11.8675    6.2375 C   0  0  0  0  0  0  0  0  0  0  0  0
   11.9591   11.0652    7.3355 C   0  0  0  0  0  0  0  0  0  0  0  0
   12.3636    9.7578    7.1433 N   0  0  0  0  0  0  0  0  0  0  0  0
   11.3860   11.6755    4.9028 N   0  0  0  0  0  0  0  0  0  0  0  0
   10.9386   12.7695    4.3540 C   0  0  0  0  0  0  0  0  0  0  0  0
   10.7644   13.7363    5.3056 N   0  0  0  0  0  0  0  0  0  0  0  0
  1  7  2  0  0  0  0
  1  2  1  0  0  0  0
  2  3  1  0  0  0  0
  2  4  2  0  0  0  0
  4  5  1  0  0  0  0
  5  6  2  0  0  0  0
  5 11  1  0  0  0  0
  6  7  1  0  0  0  0
  6  9  1  0  0  0  0
  7  8  1  0  0  0  0
  9 10  1  0  0  0  0
 10 11  2  0  0  0  0
M  END
>  <CHROM.1>
11.49515743,12.32275969,7.02694155,-1.14792886,1.22089693,-2.00109909

>  <Name>
ligand

>  <RI>
0

>  <Rbt.Current_Directory>
/home/itssahil/PROJECTS/Mol_Feturizer/New_Systems/rnas/4FEP

>  <Rbt.Executable>
rbdock ($Id: //depot/dev/client3/rdock/2013.1/src/exe/rbdock.cxx#4 $)

>  <Rbt.Library>
libRbt.so (2013.1, Build901 2013/11/27)

>  <Rbt.Parameter_File>
/export/apps/rDock/src/rDock_2013.1_src/data/scripts/dock_solv.prm

>  <Rbt.Receptor>
prm/pocket_docking_3.prm

>  <SCORE>
-11.2674

>  <SCORE.INTER>
-11.2674

>  <SCORE.INTER.CONST>
1

>  <SCORE.INTER.POLAR>
0

>  <SCORE.INTER.ROT>
0

>  <SCORE.INTER.SOLV>
21.0119

>  <SCORE.INTER.VDW>
-18.1155

>  <SCORE.INTER.norm>
-1.0243

>  <SCORE.INTRA>
0

>  <SCORE.INTRA.DIHEDRAL>
0

>  <SCORE.INTRA.DIHEDRAL.0>
0

>  <SCORE.INTRA.POLAR>
0

>  <SCORE.INTRA.POLAR.0>
0

>  <SCORE.INTRA.REPUL>
0

>  <SCORE.INTRA.REPUL.0>
0

>  <SCORE.INTRA.SOLV>
0

>  <SCORE.INTRA.SOLV.lig_0>
-48.9558

>  <SCORE.INTRA.VDW>
0

>  <SCORE.INTRA.VDW.0>
0

>  <SCORE.INTRA.norm>
0

>  <SCORE.RESTR>
0

>  <SCORE.RESTR.CAVITY>
0

>  <SCORE.RESTR.norm>
0

>  <SCORE.SYSTEM>
0

>  <SCORE.SYSTEM.CONST>
0

>  <SCORE.SYSTEM.DIHEDRAL>
0

>  <SCORE.SYSTEM.SOLV>
0

>  <SCORE.SYSTEM.norm>
0

>  <SCORE.heavy>
11

>  <SCORE.norm>
-1.0243

>  <RMSD>
0.575

$$$$
ligand
 OpenBabel11021811493D
libRbt.so/2013.1/901 2013/11/27
 11 12  0  0  0  0  0  0  0  0999 V2000
   11.9718   11.5970    8.5715 N   0  0  0  0  0  0  0  0  0  0  0  0
   11.5838   12.8635    8.7914 C   0  0  0  0  0  0  0  0  0  0  0  0
   11.6125   13.3626   10.0828 N   0  0  0  0  0  0  0  0  0  0  0  0
   11.1693   13.6543    7.7882 N   0  0  0  0  0  0  0  0  0  0  0  0
   11.1296   13.1975    6.5148 C   0  0  0  0  0  0  0  0  0  0  0  0
   11.5309   11.8666    6.2358 C   0  0  0  0  0  0  0  0  0  0  0  0
   11.9626   11.0624    7.3323 C   0  0  0  0  0  0  0  0  0  0  0  0
   12.3682    9.7557    7.1375 N   0  0  0  0  0  0  0  0  0  0  0  0
   11.3896   11.6772    4.9007 N   0  0  0  0  0  0  0  0  0  0  0  0
   10.9415   12.7719    4.3540 C   0  0  0  0  0  0  0  0  0  0  0  0
   10.7663   13.7366    5.3075 N   0  0  0  0  0  0  0  0  0  0  0  0
  1  7  2  0  0  0  0
  1  2  1  0  0  0  0
  2  3  1  0  0  0  0
  2  4  2  0  0  0  0
  4  5  1  0  0  0  0
  5  6  2  0  0  0  0
  5 11  1  0  0  0  0
  6  7  1  0  0  0  0
  6  9  1  0  0  0  0
  7  8  1  0  0  0  0
  9 10  1  0  0  0  0
 10 11  2  0  0  0  0
M  END
>  <CHROM.1>
11.49768282,12.32021197,7.02614259,-1.14965671,1.22026139,-1.99744438

>  <Name>
ligand

>  <RI>
0

>  <Rbt.Current_Directory>
/home/itssahil/PROJECTS/Mol_Feturizer/New_Systems/rnas/4FEP

>  <Rbt.Executable>
rbdock ($Id: //depot/dev/client3/rdock/2013.1/src/exe/rbdock.cxx#4 $)

>  <Rbt.Library>
libRbt.so (2013.1, Build901 2013/11/27)

>  <Rbt.Parameter_File>
/export/apps/rDock/src/rDock_2013.1_src/data/scripts/dock_solv.prm

>  <Rbt.Receptor>
prm/pocket_docking_4.prm

>  <SCORE>
-11.2667

>  <SCORE.INTER>
-11.2667

>  <SCORE.INTER.CONST>
1

>  <SCORE.INTER.POLAR>
0

>  <SCORE.INTER.ROT>
0

>  <SCORE.INTER.SOLV>
20.9869

>  <SCORE.INTER.VDW>
-18.1068

>  <SCORE.INTER.norm>
-1.02425

>  <SCORE.INTRA>
0

>  <SCORE.INTRA.DIHEDRAL>
0

>  <SCORE.INTRA.DIHEDRAL.0>
0

>  <SCORE.INTRA.POLAR>
0

>  <SCORE.INTRA.POLAR.0>
0

>  <SCORE.INTRA.REPUL>
0

>  <SCORE.INTRA.REPUL.0>
0

>  <SCORE.INTRA.SOLV>
0

>  <SCORE.INTRA.SOLV.lig_0>
-48.9558

>  <SCORE.INTRA.VDW>
0

>  <SCORE.INTRA.VDW.0>
0

>  <SCORE.INTRA.norm>
0

>  <SCORE.RESTR>
0

>  <SCORE.RESTR.CAVITY>
0

>  <SCORE.RESTR.norm>
0

>  <SCORE.SYSTEM>
0

>  <SCORE.SYSTEM.CONST>
0

>  <SCORE.SYSTEM.DIHEDRAL>
0

>  <SCORE.SYSTEM.SOLV>
0

>  <SCORE.SYSTEM.norm>
0

>  <SCORE.heavy>
11

>  <SCORE.norm>
-1.02425

>  <RMSD>
0.575

$$$$
ligand
 OpenBabel11021811493D
libRbt.so/2013.1/901 2013/11/27
 11 12  0  0  0  0  0  0  0  0999 V2000
   11.9769   11.5974    8.5718 N   0  0  0  0  0  0  0  0  0  0  0  0
   11.5957   12.8661    8.7913 C   0  0  0  0  0  0  0  0  0  0  0  0
   11.6312   13.3668   10.0819 N   0  0  0  0  0  0  0  0  0  0  0  0
   11.1818   13.6576    7.7884 N   0  0  0  0  0  0  0  0  0  0  0  0
   11.1357   13.1993    6.5157 C   0  0  0  0  0  0  0  0  0  0  0  0
   11.5296   11.8661    6.2372 C   0  0  0  0  0  0  0  0  0  0  0  0
   11.9610   11.0612    7.3334 C   0  0  0  0  0  0  0  0  0  0  0  0
   12.3595    9.7524    7.1389 N   0  0  0  0  0  0  0  0  0  0  0  0
   11.3830   11.6756    4.9028 N   0  0  0  0  0  0  0  0  0  0  0  0
   10.9384   12.7718    4.3561 C   0  0  0  0  0  0  0  0  0  0  0  0
   10.7711   13.7387    5.3089 N   0  0  0  0  0  0  0  0  0  0  0  0
  1  7  2  0  0  0  0
  1  2  1  0  0  0  0
  2  3  1  0  0  0  0
  2  4  2  0  0  0  0
  4  5  1  0  0  0  0
  5  6  2  0  0  0  0
  5 11  1  0  0  0  0
  6  7  1  0  0  0  0
  6  9  1  0  0  0  0
  7  8  1  0  0  0  0
  9 10  1  0  0  0  0
 10 11  2  0  0  0  0
M  END
>  <CHROM.1>
11.50120448,12.32092669,7.02702886,-1.13490362,1.22333166,-2.01263633

>  <Name>
ligand

>  <RI>
0

>  <Rbt.Current_Directory>
/home/itssahil/PROJECTS/Mol_Feturizer/New_Systems/rnas/4FEP

>  <Rbt.Executable>
rbdock ($Id: //depot/dev/client3/rdock/2013.1/src/exe/rbdock.cxx#4 $)

>  <Rbt.Library>
libRbt.so (2013.1, Build901 2013/11/27)

>  <Rbt.Parameter_File>
/export/apps/rDock/src/rDock_2013.1_src/data/scripts/dock_solv.prm

>  <Rbt.Receptor>
prm/pocket_docking_4.prm

>  <SCORE>
-11.266

>  <SCORE.INTER>
-11.266

>  <SCORE.INTER.CONST>
1

>  <SCORE.INTER.POLAR>
0

>  <SCORE.INTER.ROT>
0

>  <SCORE.INTER.SOLV>
21.0208

>  <SCORE.INTER.VDW>
-18.1176

>  <SCORE.INTER.norm>
-1.02418

>  <SCORE.INTRA>
0

>  <SCORE.INTRA.DIHEDRAL>
0

>  <SCORE.INTRA.DIHEDRAL.0>
0

>  <SCORE.INTRA.POLAR>
0

>  <SCORE.INTRA.POLAR.0>
0

>  <SCORE.INTRA.REPUL>
0

>  <SCORE.INTRA.REPUL.0>
0

>  <SCORE.INTRA.SOLV>
0

>  <SCORE.INTRA.SOLV.lig_0>
-48.9558

>  <SCORE.INTRA.VDW>
0

>  <SCORE.INTRA.VDW.0>
0

>  <SCORE.INTRA.norm>
0

>  <SCORE.RESTR>
0

>  <SCORE.RESTR.CAVITY>
0

>  <SCORE.RESTR.norm>
0

>  <SCORE.SYSTEM>
0

>  <SCORE.SYSTEM.CONST>
0

>  <SCORE.SYSTEM.DIHEDRAL>
0

>  <SCORE.SYSTEM.SOLV>
0

>  <SCORE.SYSTEM.norm>
0

>  <SCORE.heavy>
11

>  <SCORE.norm>
-1.02418

>  <RMSD>
0.575

$$$$
ligand
 OpenBabel11021811493D
libRbt.so/2013.1/901 2013/11/27
 11 12  0  0  0  0  0  0  0  0999 V2000
   11.9467   11.5990    8.5773 N   0  0  0  0  0  0  0  0  0  0  0  0
   11.5598   12.8668    8.7914 C   0  0  0  0  0  0  0  0  0  0  0  0
   11.5801   13.3689   10.0818 N   0  0  0  0  0  0  0  0  0  0  0  0
   11.1546   13.6563    7.7833 N   0  0  0  0  0  0  0  0  0  0  0  0
   11.1233   13.1965    6.5107 C   0  0  0  0  0  0  0  0  0  0  0  0
   11.5237   11.8641    6.2378 C   0  0  0  0  0  0  0  0  0  0  0  0
   11.9454   11.0615    7.3394 C   0  0  0  0  0  0  0  0  0  0  0  0
   12.3495    9.7535    7.1506 N   0  0  0  0  0  0  0  0  0  0  0  0
   11.3919   11.6719    4.9021 N   0  0  0  0  0  0  0  0  0  0  0  0
   10.9503   12.7663    4.3495 C   0  0  0  0  0  0  0  0  0  0  0  0
   10.7702   13.7337    5.2995 N   0  0  0  0  0  0  0  0  0  0  0  0
  1  7  2  0  0  0  0
  1  2  1  0  0  0  0
  2  3  1  0  0  0  0
  2  4  2  0  0  0  0
  4  5  1  0  0  0  0
  5  6  2  0  0  0  0
  5 11  1  0  0  0  0
  6  7  1  0  0  0  0
  6  9  1  0  0  0  0
  7  8  1  0  0  0  0
  9 10  1  0  0  0  0
 10 11  2  0  0  0  0
M  END
>  <CHROM.1>
11.48562363,12.31964331,7.02681589,-1.16685764,1.22535097,-1.98360365

>  <Name>
ligand

>  <RI>
0

>  <Rbt.Current_Directory>
/home/itssahil/PROJECTS/Mol_Feturizer/New_Systems/rnas/4FEP

>  <Rbt.Executable>
rbdock ($Id: //depot/dev/client3/rdock/2013.1/src/exe/rbdock.cxx#4 $)

>  <Rbt.Library>
libRbt.so (2013.1, Build901 2013/11/27)

>  <Rbt.Parameter_File>
/export/apps/rDock/src/rDock_2013.1_src/data/scripts/dock_solv.prm

>  <Rbt.Receptor>
prm/pocket_docking_4.prm

>  <SCORE>
-11.2674

>  <SCORE.INTER>
-11.2674

>  <SCORE.INTER.CONST>
1

>  <SCORE.INTER.POLAR>
0

>  <SCORE.INTER.ROT>
0

>  <SCORE.INTER.SOLV>
21.068

>  <SCORE.INTER.VDW>
-18.1343

>  <SCORE.INTER.norm>
-1.02431

>  <SCORE.INTRA>
0

>  <SCORE.INTRA.DIHEDRAL>
0

>  <SCORE.INTRA.DIHEDRAL.0>
0

>  <SCORE.INTRA.POLAR>
0

>  <SCORE.INTRA.POLAR.0>
0

>  <SCORE.INTRA.REPUL>
0

>  <SCORE.INTRA.REPUL.0>
0

>  <SCORE.INTRA.SOLV>
0

>  <SCORE.INTRA.SOLV.lig_0>
-48.9558

>  <SCORE.INTRA.VDW>
0

>  <SCORE.INTRA.VDW.0>
0

>  <SCORE.INTRA.norm>
0

>  <SCORE.RESTR>
0

>  <SCORE.RESTR.CAVITY>
0

>  <SCORE.RESTR.norm>
0

>  <SCORE.SYSTEM>
0

>  <SCORE.SYSTEM.CONST>
0

>  <SCORE.SYSTEM.DIHEDRAL>
0

>  <SCORE.SYSTEM.SOLV>
0

>  <SCORE.SYSTEM.norm>
0

>  <SCORE.heavy>
11

>  <SCORE.norm>
-1.02431

>  <RMSD>
0.575

$$$$
ligand
 OpenBabel11021811493D
libRbt.so/2013.1/901 2013/11/27
 11 12  0  0  0  0  0  0  0  0999 V2000
   11.9816   11.5973    8.5706 N   0  0  0  0  0  0  0  0  0  0  0  0
   11.6003   12.8657    8.7915 C   0  0  0  0  0  0  0  0  0  0  0  0
   11.6384   13.3659   10.0822 N   0  0  0  0  0  0  0  0  0  0  0  0
   11.1839   13.6574    7.7897 N   0  0  0  0  0  0  0  0  0  0  0  0
   11.1352   13.1996    6.5170 C   0  0  0  0  0  0  0  0  0  0  0  0
   11.5292   11.8667    6.2371 C   0  0  0  0  0  0  0  0  0  0  0  0
   11.9633   11.0616    7.3320 C   0  0  0  0  0  0  0  0  0  0  0  0
   12.3620    9.7530    7.1362 N   0  0  0  0  0  0  0  0  0  0  0  0
   11.3798   11.6766    4.9029 N   0  0  0  0  0  0  0  0  0  0  0  0
   10.9335   12.7728    4.3576 C   0  0  0  0  0  0  0  0  0  0  0  0
   10.7677   13.7392    5.3112 N   0  0  0  0  0  0  0  0  0  0  0  0
  1  7  2  0  0  0  0
  1  2  1  0  0  0  0
  2  3  1  0  0  0  0
  2  4  2  0  0  0  0
  4  5  1  0  0  0  0
  5  6  2  0  0  0  0
  5 11  1  0  0  0  0
  6  7  1  0  0  0  0
  6  9  1  0  0  0  0
  7  8  1  0  0  0  0
  9 10  1  0  0  0  0
 10 11  2  0  0  0  0
M  END
>  <CHROM.1>
11.50223981,12.32118743,7.02716478,-1.12980420,1.22195007,-2.01704311

>  <Name>
ligand

>  <RI>
0

>  <Rbt.Current_Directory>
/home/itssahil/PROJECTS/Mol_Feturizer/New_Systems/rnas/4FEP

>  <Rbt.Executable>
rbdock ($Id: //depot/dev/client3/rdock/2013.1/src/exe/rbdock.cxx#4 $)

>  <Rbt.Library>
libRbt.so (2013.1, Build901 2013/11/27)

>  <Rbt.Parameter_File>
/export/apps/rDock/src/rDock_2013.1_src/data/scripts/dock_solv.prm

>  <Rbt.Receptor>
prm/pocket_docking_6.prm

>  <SCORE>
-11.2639

>  <SCORE.INTER>
-11.2639

>  <SCORE.INTER.CONST>
1

>  <SCORE.INTER.POLAR>
0

>  <SCORE.INTER.ROT>
0

>  <SCORE.INTER.SOLV>
21.0075

>  <SCORE.INTER.VDW>
-18.1118

>  <SCORE.INTER.norm>
-1.02399

>  <SCORE.INTRA>
0

>  <SCORE.INTRA.DIHEDRAL>
0

>  <SCORE.INTRA.DIHEDRAL.0>
0

>  <SCORE.INTRA.POLAR>
0

>  <SCORE.INTRA.POLAR.0>
0

>  <SCORE.INTRA.REPUL>
0

>  <SCORE.INTRA.REPUL.0>
0

>  <SCORE.INTRA.SOLV>
0

>  <SCORE.INTRA.SOLV.lig_0>
-48.9558

>  <SCORE.INTRA.VDW>
0

>  <SCORE.INTRA.VDW.0>
0

>  <SCORE.INTRA.norm>
0

>  <SCORE.RESTR>
0

>  <SCORE.RESTR.CAVITY>
0

>  <SCORE.RESTR.norm>
0

>  <SCORE.SYSTEM>
0

>  <SCORE.SYSTEM.CONST>
0

>  <SCORE.SYSTEM.DIHEDRAL>
0

>  <SCORE.SYSTEM.SOLV>
0

>  <SCORE.SYSTEM.norm>
0

>  <SCORE.heavy>
11

>  <SCORE.norm>
-1.02399

>  <RMSD>
0.575

$$$$
ligand
 OpenBabel11021811493D
libRbt.so/2013.1/901 2013/11/27
 11 12  0  0  0  0  0  0  0  0999 V2000
   11.9778   11.5928    8.5707 N   0  0  0  0  0  0  0  0  0  0  0  0
   11.5983   12.8615    8.7932 C   0  0  0  0  0  0  0  0  0  0  0  0
   11.6353   13.3594   10.0849 N   0  0  0  0  0  0  0  0  0  0  0  0
   11.1847   13.6556    7.7923 N   0  0  0  0  0  0  0  0  0  0  0  0
   11.1371   13.2001    6.5187 C   0  0  0  0  0  0  0  0  0  0  0  0
   11.5292   11.8670    6.2371 C   0  0  0  0  0  0  0  0  0  0  0  0
   11.9603   11.0592    7.3312 C   0  0  0  0  0  0  0  0  0  0  0  0
   12.3571    9.7503    7.1338 N   0  0  0  0  0  0  0  0  0  0  0  0
   11.3815   11.6795    4.9023 N   0  0  0  0  0  0  0  0  0  0  0  0
   10.9379   12.7774    4.3583 C   0  0  0  0  0  0  0  0  0  0  0  0
   10.7724   13.7424    5.3133 N   0  0  0  0  0  0  0  0  0  0  0  0
  1  7  2  0  0  0  0
  1  2  1  0  0  0  0
  2  3  1  0  0  0  0
  2  4  2  0  0  0  0
  4  5  1  0  0  0  0
  5  6  2  0  0  0  0
  5 11  1  0  0  0  0
  6  7  1  0  0  0  0
  6  9  1  0  0  0  0
  7  8  1  0  0  0  0
  9 10  1  0  0  0  0
 10 11  2  0  0  0  0
M  END
>  <CHROM.1>
11.50190443,12.32015702,7.02787115,-1.13153655,1.22415307,-2.01368492

>  <Name>
ligand

>  <RI>
0

>  <Rbt.Current_Directory>
/home/itssahil/PROJECTS/Mol_Feturizer/New_Systems/rnas/4FEP

>  <Rbt.Executable>
rbdock ($Id: //depot/dev/client3/rdock/2013.1/src/exe/rbdock.cxx#4 $)

>  <Rbt.Library>
libRbt.so (2013.1, Build901 2013/11/27)

>  <Rbt.Parameter_File>
/export/apps/rDock/src/rDock_2013.1_src/data/scripts/dock_solv.prm

>  <Rbt.Receptor>
prm/pocket_docking_6.prm

>  <SCORE>
-11.2635

>  <SCORE.INTER>
-11.2635

>  <SCORE.INTER.CONST>
1

>  <SCORE.INTER.POLAR>
0

>  <SCORE.INTER.ROT>
0

>  <SCORE.INTER.SOLV>
21.0206

>  <SCORE.INTER.VDW>
-18.1159

>  <SCORE.INTER.norm>
-1.02396

>  <SCORE.INTRA>
0

>  <SCORE.INTRA.DIHEDRAL>
0

>  <SCORE.INTRA.DIHEDRAL.0>
0

>  <SCORE.INTRA.POLAR>
0

>  <SCORE.INTRA.POLAR.0>
0

>  <SCORE.INTRA.REPUL>
0

>  <SCORE.INTRA.REPUL.0>
0

>  <SCORE.INTRA.SOLV>
0

>  <SCORE.INTRA.SOLV.lig_0>
-48.9558

>  <SCORE.INTRA.VDW>
0

>  <SCORE.INTRA.VDW.0>
0

>  <SCORE.INTRA.norm>
0

>  <SCORE.RESTR>
0

>  <SCORE.RESTR.CAVITY>
0

>  <SCORE.RESTR.norm>
0

>  <SCORE.SYSTEM>
0

>  <SCORE.SYSTEM.CONST>
0

>  <SCORE.SYSTEM.DIHEDRAL>
0

>  <SCORE.SYSTEM.SOLV>
0

>  <SCORE.SYSTEM.norm>
0

>  <SCORE.heavy>
11

>  <SCORE.norm>
-1.02396

>  <RMSD>
0.575

$$$$
ligand
 OpenBabel11021811493D
libRbt.so/2013.1/901 2013/11/27
 11 12  0  0  0  0  0  0  0  0999 V2000
   11.9925   11.5956    8.5676 N   0  0  0  0  0  0  0  0  0  0  0  0
   11.6121   12.8637    8.7911 C   0  0  0  0  0  0  0  0  0  0  0  0
   11.6556   13.3630   10.0820 N   0  0  0  0  0  0  0  0  0  0  0  0
   11.1913   13.6562    7.7917 N   0  0  0  0  0  0  0  0  0  0  0  0
   11.1372   13.1993    6.5189 C   0  0  0  0  0  0  0  0  0  0  0  0
   11.5301   11.8666    6.2363 C   0  0  0  0  0  0  0  0  0  0  0  0
   11.9689   11.0607    7.3287 C   0  0  0  0  0  0  0  0  0  0  0  0
   12.3669    9.7523    7.1303 N   0  0  0  0  0  0  0  0  0  0  0  0
   11.3750   11.6775    4.9026 N   0  0  0  0  0  0  0  0  0  0  0  0
   10.9262   12.7741    4.3601 C   0  0  0  0  0  0  0  0  0  0  0  0
   10.7645   13.7397    5.3150 N   0  0  0  0  0  0  0  0  0  0  0  0
  1  7  2  0  0  0  0
  1  2  1  0  0  0  0
  2  3  1  0  0  0  0
  2  4  2  0  0  0  0
  4  5  1  0  0  0  0
  5  6  2  0  0  0  0
  5 11  1  0  0  0  0
  6  7  1  0  0  0  0
  6  9  1  0  0  0  0
  7  8  1  0  0  0  0
  9 10  1  0  0  0  0
 10 11  2  0  0  0  0
M  END
>  <CHROM.1>
11.50647867,12.32050000,7.02680985,-1.11868159,1.22000893,-2.02674821

>  <Name>
ligand

>  <RI>
0

>  <Rbt.Current_Directory>
/home/itssahil/PROJECTS/Mol_Feturizer/New_Systems/rnas/4FEP

>  <Rbt.Executable>
rbdock ($Id: //depot/dev/client3/rdock/2013.1/src/exe/rbdock.cxx#4 $)

>  <Rbt.Library>
libRbt.so (2013.1, Build901 2013/11/27)

>  <Rbt.Parameter_File>
/export/apps/rDock/src/rDock_2013.1_src/data/scripts/dock_solv.prm

>  <Rbt.Receptor>
prm/pocket_docking_7.prm

>  <SCORE>
-11.2576

>  <SCORE.INTER>
-11.2576

>  <SCORE.INTER.CONST>
1

>  <SCORE.INTER.POLAR>
0

>  <SCORE.INTER.ROT>
0

>  <SCORE.INTER.SOLV>
20.9826

>  <SCORE.INTER.VDW>
-18.0993

>  <SCORE.INTER.norm>
-1.02342

>  <SCORE.INTRA>
0

>  <SCORE.INTRA.DIHEDRAL>
0

>  <SCORE.INTRA.DIHEDRAL.0>
0

>  <SCORE.INTRA.POLAR>
0

>  <SCORE.INTRA.POLAR.0>
0

>  <SCORE.INTRA.REPUL>
0

>  <SCORE.INTRA.REPUL.0>
0

>  <SCORE.INTRA.SOLV>
0

>  <SCORE.INTRA.SOLV.lig_0>
-48.9558

>  <SCORE.INTRA.VDW>
0

>  <SCORE.INTRA.VDW.0>
0

>  <SCORE.INTRA.norm>
0

>  <SCORE.RESTR>
0

>  <SCORE.RESTR.CAVITY>
0

>  <SCORE.RESTR.norm>
0

>  <SCORE.SYSTEM>
0

>  <SCORE.SYSTEM.CONST>
0

>  <SCORE.SYSTEM.DIHEDRAL>
0

>  <SCORE.SYSTEM.SOLV>
0

>  <SCORE.SYSTEM.norm>
0

>  <SCORE.heavy>
11

>  <SCORE.norm>
-1.02342

>  <RMSD>
0.575

$$$$
ligand
 OpenBabel11021811493D
libRbt.so/2013.1/901 2013/11/27
 11 12  0  0  0  0  0  0  0  0999 V2000
   11.9694   11.6035    8.5738 N   0  0  0  0  0  0  0  0  0  0  0  0
   11.5825   12.8710    8.7899 C   0  0  0  0  0  0  0  0  0  0  0  0
   11.6109   13.3737   10.0799 N   0  0  0  0  0  0  0  0  0  0  0  0
   11.1695   13.6594    7.7842 N   0  0  0  0  0  0  0  0  0  0  0  0
   11.1303   13.1990    6.5120 C   0  0  0  0  0  0  0  0  0  0  0  0
   11.5304   11.8669    6.2371 C   0  0  0  0  0  0  0  0  0  0  0  0
   11.9605   11.0653    7.3362 C   0  0  0  0  0  0  0  0  0  0  0  0
   12.3648    9.7577    7.1454 N   0  0  0  0  0  0  0  0  0  0  0  0
   11.3898   11.6738    4.9024 N   0  0  0  0  0  0  0  0  0  0  0  0
   10.9432   12.7675    4.3523 C   0  0  0  0  0  0  0  0  0  0  0  0
   10.7684   13.7351    5.3030 N   0  0  0  0  0  0  0  0  0  0  0  0
  1  7  2  0  0  0  0
  1  2  1  0  0  0  0
  2  3  1  0  0  0  0
  2  4  2  0  0  0  0
  4  5  1  0  0  0  0
  5  6  2  0  0  0  0
  5 11  1  0  0  0  0
  6  7  1  0  0  0  0
  6  9  1  0  0  0  0
  7  8  1  0  0  0  0
  9 10  1  0  0  0  0
 10 11  2  0  0  0  0
M  END
>  <CHROM.1>
11.49708133,12.32279181,7.02611635,-1.15026228,1.22152254,-1.99971254

>  <Name>
ligand

>  <RI>
0

>  <Rbt.Current_Directory>
/home/itssahil/PROJECTS/Mol_Feturizer/New_Systems/rnas/4FEP

>  <Rbt.Executable>
rbdock ($Id: //depot/dev/client3/rdock/2013.1/src/exe/rbdock.cxx#4 $)

>  <Rbt.Library>
libRbt.so (2013.1, Build901 2013/11/27)

>  <Rbt.Parameter_File>
/export/apps/rDock/src/rDock_2013.1_src/data/scripts/dock_solv.prm

>  <Rbt.Receptor>
prm/pocket_docking_7.prm

>  <SCORE>
-11.267

>  <SCORE.INTER>
-11.267

>  <SCORE.INTER.CONST>
1

>  <SCORE.INTER.POLAR>
0

>  <SCORE.INTER.ROT>
0

>  <SCORE.INTER.SOLV>
21.0144

>  <SCORE.INTER.VDW>
-18.1162

>  <SCORE.INTER.norm>
-1.02428

>  <SCORE.INTRA>
0

>  <SCORE.INTRA.DIHEDRAL>
0

>  <SCORE.INTRA.DIHEDRAL.0>
0

>  <SCORE.INTRA.POLAR>
0

>  <SCORE.INTRA.POLAR.0>
0

>  <SCORE.INTRA.REPUL>
0

>  <SCORE.INTRA.REPUL.0>
0

>  <SCORE.INTRA.SOLV>
0

>  <SCORE.INTRA.SOLV.lig_0>
-48.9558

>  <SCORE.INTRA.VDW>
0

>  <SCORE.INTRA.VDW.0>
0

>  <SCORE.INTRA.norm>
0

>  <SCORE.RESTR>
0

>  <SCORE.RESTR.CAVITY>
0

>  <SCORE.RESTR.norm>
0

>  <SCORE.SYSTEM>
0

>  <SCORE.SYSTEM.CONST>
0

>  <SCORE.SYSTEM.DIHEDRAL>
0

>  <SCORE.SYSTEM.SOLV>
0

>  <SCORE.SYSTEM.norm>
0

>  <SCORE.heavy>
11

>  <SCORE.norm>
-1.02428

>  <RMSD>
0.575

$$$$
ligand
 OpenBabel11021811493D
libRbt.so/2013.1/901 2013/11/27
 11 12  0  0  0  0  0  0  0  0999 V2000
   11.9794   11.5964    8.5709 N   0  0  0  0  0  0  0  0  0  0  0  0
   11.5992   12.8651    8.7917 C   0  0  0  0  0  0  0  0  0  0  0  0
   11.6374   13.3653   10.0824 N   0  0  0  0  0  0  0  0  0  0  0  0
   11.1837   13.6573    7.7899 N   0  0  0  0  0  0  0  0  0  0  0  0
   11.1349   13.1995    6.5172 C   0  0  0  0  0  0  0  0  0  0  0  0
   11.5278   11.8662    6.2373 C   0  0  0  0  0  0  0  0  0  0  0  0
   11.9609   11.0607    7.3323 C   0  0  0  0  0  0  0  0  0  0  0  0
   12.3585    9.7517    7.1366 N   0  0  0  0  0  0  0  0  0  0  0  0
   11.3785   11.6763    4.9031 N   0  0  0  0  0  0  0  0  0  0  0  0
   10.9333   12.7729    4.3577 C   0  0  0  0  0  0  0  0  0  0  0  0
   10.7682   13.7394    5.3113 N   0  0  0  0  0  0  0  0  0  0  0  0
  1  7  2  0  0  0  0
  1  2  1  0  0  0  0
  2  3  1  0  0  0  0
  2  4  2  0  0  0  0
  4  5  1  0  0  0  0
  5  6  2  0  0  0  0
  5 11  1  0  0  0  0
  6  7  1  0  0  0  0
  6  9  1  0  0  0  0
  7  8  1  0  0  0  0
  9 10  1  0  0  0  0
 10 11  2  0  0  0  0
M  END
>  <CHROM.1>
11.50106501,12.32071723,7.02739424,-1.12925438,1.22287757,-2.01754762

>  <Name>
ligand

>  <RI>
0

>  <Rbt.Current_Directory>
/home/itssahil/PROJECTS/Mol_Feturizer/New_Systems/rnas/4FEP

>  <Rbt.Executable>
rbdock ($Id: //depot/dev/client3/rdock/2013.1/src/exe/rbdock.cxx#4 $)

>  <Rbt.Library>
libRbt.so (2013.1, Build901 2013/11/27)

>  <Rbt.Parameter_File>
/export/apps/rDock/src/rDock_2013.1_src/data/scripts/dock_solv.prm

>  <Rbt.Receptor>
prm/pocket_docking_8.prm

>  <SCORE>
-11.2645

>  <SCORE.INTER>
-11.2645

>  <SCORE.INTER.CONST>
1

>  <SCORE.INTER.POLAR>
0

>  <SCORE.INTER.ROT>
0

>  <SCORE.INTER.SOLV>
21.0192

>  <SCORE.INTER.VDW>
-18.1161

>  <SCORE.INTER.norm>
-1.02405

>  <SCORE.INTRA>
0

>  <SCORE.INTRA.DIHEDRAL>
0

>  <SCORE.INTRA.DIHEDRAL.0>
0

>  <SCORE.INTRA.POLAR>
0

>  <SCORE.INTRA.POLAR.0>
0

>  <SCORE.INTRA.REPUL>
0

>  <SCORE.INTRA.REPUL.0>
0

>  <SCORE.INTRA.SOLV>
0

>  <SCORE.INTRA.SOLV.lig_0>
-48.9558

>  <SCORE.INTRA.VDW>
0

>  <SCORE.INTRA.VDW.0>
0

>  <SCORE.INTRA.norm>
0

>  <SCORE.RESTR>
0

>  <SCORE.RESTR.CAVITY>
0

>  <SCORE.RESTR.norm>
0

>  <SCORE.SYSTEM>
0

>  <SCORE.SYSTEM.CONST>
0

>  <SCORE.SYSTEM.DIHEDRAL>
0

>  <SCORE.SYSTEM.SOLV>
0

>  <SCORE.SYSTEM.norm>
0

>  <SCORE.heavy>
11

>  <SCORE.norm>
-1.02405

>  <RMSD>
0.575

$$$$
ligand
 OpenBabel11021811493D
libRbt.so/2013.1/901 2013/11/27
 11 12  0  0  0  0  0  0  0  0999 V2000
   11.9534   11.5867    8.5730 N   0  0  0  0  0  0  0  0  0  0  0  0
   11.5842   12.8583    8.7956 C   0  0  0  0  0  0  0  0  0  0  0  0
   11.6227   13.3550   10.0877 N   0  0  0  0  0  0  0  0  0  0  0  0
   11.1794   13.6567    7.7944 N   0  0  0  0  0  0  0  0  0  0  0  0
   11.1306   13.2025    6.5204 C   0  0  0  0  0  0  0  0  0  0  0  0
   11.5120   11.8663    6.2386 C   0  0  0  0  0  0  0  0  0  0  0  0
   11.9340   11.0542    7.3330 C   0  0  0  0  0  0  0  0  0  0  0  0
   12.3201    9.7421    7.1354 N   0  0  0  0  0  0  0  0  0  0  0  0
   11.3654   11.6811    4.9034 N   0  0  0  0  0  0  0  0  0  0  0  0
   10.9322   12.7830    4.3592 C   0  0  0  0  0  0  0  0  0  0  0  0
   10.7729   13.7488    5.3146 N   0  0  0  0  0  0  0  0  0  0  0  0
  1  7  2  0  0  0  0
  1  2  1  0  0  0  0
  2  3  1  0  0  0  0
  2  4  2  0  0  0  0
  4  5  1  0  0  0  0
  5  6  2  0  0  0  0
  5 11  1  0  0  0  0
  6  7  1  0  0  0  0
  6  9  1  0  0  0  0
  7  8  1  0  0  0  0
  9 10  1  0  0  0  0
 10 11  2  0  0  0  0
M  END
>  <CHROM.1>
11.48687673,12.31915014,7.02965510,-1.12628514,1.23266050,-2.01790088

>  <Name>
ligand

>  <RI>
0

>  <Rbt.Current_Directory>
/home/itssahil/PROJECTS/Mol_Feturizer/New_Systems/rnas/4FEP

>  <Rbt.Executable>
rbdock ($Id: //depot/dev/client3/rdock/2013.1/src/exe/rbdock.cxx#4 $)

>  <Rbt.Library>
libRbt.so (2013.1, Build901 2013/11/27)

>  <Rbt.Parameter_File>
/export/apps/rDock/src/rDock_2013.1_src/data/scripts/dock_solv.prm

>  <Rbt.Receptor>
prm/blind_docking_40.prm

>  <SCORE>
-11.2851

>  <SCORE.INTER>
-11.2851

>  <SCORE.INTER.CONST>
1

>  <SCORE.INTER.POLAR>
0

>  <SCORE.INTER.ROT>
0

>  <SCORE.INTER.SOLV>
21.171

>  <SCORE.INTER.VDW>
-18.1804

>  <SCORE.INTER.norm>
-1.02591

>  <SCORE.INTRA>
0

>  <SCORE.INTRA.DIHEDRAL>
0

>  <SCORE.INTRA.DIHEDRAL.0>
0

>  <SCORE.INTRA.POLAR>
0

>  <SCORE.INTRA.POLAR.0>
0

>  <SCORE.INTRA.REPUL>
0

>  <SCORE.INTRA.REPUL.0>
0

>  <SCORE.INTRA.SOLV>
0

>  <SCORE.INTRA.SOLV.lig_0>
-48.9558

>  <SCORE.INTRA.VDW>
0

>  <SCORE.INTRA.VDW.0>
0

>  <SCORE.INTRA.norm>
0

>  <SCORE.RESTR>
0

>  <SCORE.RESTR.CAVITY>
0

>  <SCORE.RESTR.norm>
0

>  <SCORE.SYSTEM>
0

>  <SCORE.SYSTEM.CONST>
0

>  <SCORE.SYSTEM.DIHEDRAL>
0

>  <SCORE.SYSTEM.SOLV>
0

>  <SCORE.SYSTEM.norm>
0

>  <SCORE.heavy>
11

>  <SCORE.norm>
-1.02591

>  <RMSD>
0.576

$$$$
ligand
 OpenBabel11021811493D
libRbt.so/2013.1/901 2013/11/27
 11 12  0  0  0  0  0  0  0  0999 V2000
   11.9500   11.5873    8.5740 N   0  0  0  0  0  0  0  0  0  0  0  0
   11.5817   12.8595    8.7950 C   0  0  0  0  0  0  0  0  0  0  0  0
   11.6186   13.3572   10.0867 N   0  0  0  0  0  0  0  0  0  0  0  0
   11.1794   13.6575    7.7924 N   0  0  0  0  0  0  0  0  0  0  0  0
   11.1322   13.2023    6.5187 C   0  0  0  0  0  0  0  0  0  0  0  0
   11.5127   11.8655    6.2386 C   0  0  0  0  0  0  0  0  0  0  0  0
   11.9321   11.0538    7.3344 C   0  0  0  0  0  0  0  0  0  0  0  0
   12.3172    9.7412    7.1385 N   0  0  0  0  0  0  0  0  0  0  0  0
   11.3682   11.6793    4.9034 N   0  0  0  0  0  0  0  0  0  0  0  0
   10.9370   12.7813    4.3576 C   0  0  0  0  0  0  0  0  0  0  0  0
   10.7771   13.7479    5.3119 N   0  0  0  0  0  0  0  0  0  0  0  0
  1  7  2  0  0  0  0
  1  2  1  0  0  0  0
  2  3  1  0  0  0  0
  2  4  2  0  0  0  0
  4  5  1  0  0  0  0
  5  6  2  0  0  0  0
  5 11  1  0  0  0  0
  6  7  1  0  0  0  0
  6  9  1  0  0  0  0
  7  8  1  0  0  0  0
  9 10  1  0  0  0  0
 10 11  2  0  0  0  0
M  END
>  <CHROM.1>
11.48676873,12.31899308,7.02931449,-1.12945721,1.23428551,-2.01572098

>  <Name>
ligand

>  <RI>
0

>  <Rbt.Current_Directory>
/home/itssahil/PROJECTS/Mol_Feturizer/New_Systems/rnas/4FEP

>  <Rbt.Executable>
rbdock ($Id: //depot/dev/client3/rdock/2013.1/src/exe/rbdock.cxx#4 $)

>  <Rbt.Library>
libRbt.so (2013.1, Build901 2013/11/27)

>  <Rbt.Parameter_File>
/export/apps/rDock/src/rDock_2013.1_src/data/scripts/dock_solv.prm

>  <Rbt.Receptor>
prm/blind_docking_100.prm

>  <SCORE>
-11.2864

>  <SCORE.INTER>
-11.2864

>  <SCORE.INTER.CONST>
1

>  <SCORE.INTER.POLAR>
0

>  <SCORE.INTER.ROT>
0

>  <SCORE.INTER.SOLV>
21.1882

>  <SCORE.INTER.VDW>
-18.187

>  <SCORE.INTER.norm>
-1.02604

>  <SCORE.INTRA>
0

>  <SCORE.INTRA.DIHEDRAL>
0

>  <SCORE.INTRA.DIHEDRAL.0>
0

>  <SCORE.INTRA.POLAR>
0

>  <SCORE.INTRA.POLAR.0>
0

>  <SCORE.INTRA.REPUL>
0

>  <SCORE.INTRA.REPUL.0>
0

>  <SCORE.INTRA.SOLV>
0

>  <SCORE.INTRA.SOLV.lig_0>
-48.9558

>  <SCORE.INTRA.VDW>
0

>  <SCORE.INTRA.VDW.0>
0

>  <SCORE.INTRA.norm>
0

>  <SCORE.RESTR>
0

>  <SCORE.RESTR.CAVITY>
0

>  <SCORE.RESTR.norm>
0

>  <SCORE.SYSTEM>
0

>  <SCORE.SYSTEM.CONST>
0

>  <SCORE.SYSTEM.DIHEDRAL>
0

>  <SCORE.SYSTEM.SOLV>
0

>  <SCORE.SYSTEM.norm>
0

>  <SCORE.heavy>
11

>  <SCORE.norm>
-1.02604

>  <RMSD>
0.577

$$$$
ligand
 OpenBabel11021811493D
libRbt.so/2013.1/901 2013/11/27
 11 12  0  0  0  0  0  0  0  0999 V2000
   11.9382   11.5893    8.5753 N   0  0  0  0  0  0  0  0  0  0  0  0
   11.5669   12.8607    8.7952 C   0  0  0  0  0  0  0  0  0  0  0  0
   11.5995   13.3586   10.0869 N   0  0  0  0  0  0  0  0  0  0  0  0
   11.1655   13.6578    7.7915 N   0  0  0  0  0  0  0  0  0  0  0  0
   11.1226   13.2024    6.5177 C   0  0  0  0  0  0  0  0  0  0  0  0
   11.5064   11.8663    6.2388 C   0  0  0  0  0  0  0  0  0  0  0  0
   11.9245   11.0556    7.3357 C   0  0  0  0  0  0  0  0  0  0  0  0
   12.3127    9.7437    7.1410 N   0  0  0  0  0  0  0  0  0  0  0  0
   11.3656   11.6796    4.9032 N   0  0  0  0  0  0  0  0  0  0  0  0
   10.9337   12.7807    4.3562 C   0  0  0  0  0  0  0  0  0  0  0  0
   10.7694   13.7472    5.3099 N   0  0  0  0  0  0  0  0  0  0  0  0
  1  7  2  0  0  0  0
  1  2  1  0  0  0  0
  2  3  1  0  0  0  0
  2  4  2  0  0  0  0
  4  5  1  0  0  0  0
  5  6  2  0  0  0  0
  5 11  1  0  0  0  0
  6  7  1  0  0  0  0
  6  9  1  0  0  0  0
  7  8  1  0  0  0  0
  9 10  1  0  0  0  0
 10 11  2  0  0  0  0
M  END
>  <CHROM.1>
11.47749690,12.31982654,7.02931927,-1.13899452,1.23361100,-2.00683804

>  <Name>
ligand

>  <RI>
0

>  <Rbt.Current_Directory>
/home/itssahil/PROJECTS/Mol_Feturizer/New_Systems/rnas/4FEP

>  <Rbt.Executable>
rbdock ($Id: //depot/dev/client3/rdock/2013.1/src/exe/rbdock.cxx#4 $)

>  <Rbt.Library>
libRbt.so (2013.1, Build901 2013/11/27)

>  <Rbt.Parameter_File>
/export/apps/rDock/src/rDock_2013.1_src/data/scripts/dock_solv.prm

>  <Rbt.Receptor>
prm/blind_docking_80.prm

>  <SCORE>
-11.2831

>  <SCORE.INTER>
-11.2831

>  <SCORE.INTER.CONST>
1

>  <SCORE.INTER.POLAR>
0

>  <SCORE.INTER.ROT>
0

>  <SCORE.INTER.SOLV>
21.2087

>  <SCORE.INTER.VDW>
-18.1916

>  <SCORE.INTER.norm>
-1.02573

>  <SCORE.INTRA>
0

>  <SCORE.INTRA.DIHEDRAL>
0

>  <SCORE.INTRA.DIHEDRAL.0>
0

>  <SCORE.INTRA.POLAR>
0

>  <SCORE.INTRA.POLAR.0>
0

>  <SCORE.INTRA.REPUL>
0

>  <SCORE.INTRA.REPUL.0>
0

>  <SCORE.INTRA.SOLV>
0

>  <SCORE.INTRA.SOLV.lig_0>
-48.9558

>  <SCORE.INTRA.VDW>
0

>  <SCORE.INTRA.VDW.0>
0

>  <SCORE.INTRA.norm>
0

>  <SCORE.RESTR>
0

>  <SCORE.RESTR.CAVITY>
0

>  <SCORE.RESTR.norm>
0

>  <SCORE.SYSTEM>
0

>  <SCORE.SYSTEM.CONST>
0

>  <SCORE.SYSTEM.DIHEDRAL>
0

>  <SCORE.SYSTEM.SOLV>
0

>  <SCORE.SYSTEM.norm>
0

>  <SCORE.heavy>
11

>  <SCORE.norm>
-1.02573

>  <RMSD>
0.577

$$$$
ligand
 OpenBabel11021811493D
libRbt.so/2013.1/901 2013/11/27
 11 12  0  0  0  0  0  0  0  0999 V2000
   11.9528   11.5854    8.5718 N   0  0  0  0  0  0  0  0  0  0  0  0
   11.5831   12.8570    8.7937 C   0  0  0  0  0  0  0  0  0  0  0  0
   11.6203   13.3541   10.0857 N   0  0  0  0  0  0  0  0  0  0  0  0
   11.1790   13.6550    7.7919 N   0  0  0  0  0  0  0  0  0  0  0  0
   11.1315   13.2003    6.5180 C   0  0  0  0  0  0  0  0  0  0  0  0
   11.5134   11.8642    6.2369 C   0  0  0  0  0  0  0  0  0  0  0  0
   11.9347   11.0525    7.3320 C   0  0  0  0  0  0  0  0  0  0  0  0
   12.3213    9.7405    7.1351 N   0  0  0  0  0  0  0  0  0  0  0  0
   11.3681   11.6785    4.9017 N   0  0  0  0  0  0  0  0  0  0  0  0
   10.9351   12.7802    4.3568 C   0  0  0  0  0  0  0  0  0  0  0  0
   10.7747   13.7462    5.3117 N   0  0  0  0  0  0  0  0  0  0  0  0
  1  7  2  0  0  0  0
  1  2  1  0  0  0  0
  2  3  1  0  0  0  0
  2  4  2  0  0  0  0
  4  5  1  0  0  0  0
  5  6  2  0  0  0  0
  5 11  1  0  0  0  0
  6  7  1  0  0  0  0
  6  9  1  0  0  0  0
  7  8  1  0  0  0  0
  9 10  1  0  0  0  0
 10 11  2  0  0  0  0
M  END
>  <CHROM.1>
11.48749600,12.31725717,7.02783654,-1.12905165,1.23280866,-2.01559976

>  <Name>
ligand

>  <RI>
0

>  <Rbt.Current_Directory>
/home/itssahil/PROJECTS/Mol_Feturizer/New_Systems/rnas/4FEP

>  <Rbt.Executable>
rbdock ($Id: //depot/dev/client3/rdock/2013.1/src/exe/rbdock.cxx#4 $)

>  <Rbt.Library>
libRbt.so (2013.1, Build901 2013/11/27)

>  <Rbt.Parameter_File>
/export/apps/rDock/src/rDock_2013.1_src/data/scripts/dock_solv.prm

>  <Rbt.Receptor>
prm/pocket_docking_5.prm

>  <SCORE>
-11.2873

>  <SCORE.INTER>
-11.2873

>  <SCORE.INTER.CONST>
1

>  <SCORE.INTER.POLAR>
0

>  <SCORE.INTER.ROT>
0

>  <SCORE.INTER.SOLV>
21.1665

>  <SCORE.INTER.VDW>
-18.1804

>  <SCORE.INTER.norm>
-1.02612

>  <SCORE.INTRA>
0

>  <SCORE.INTRA.DIHEDRAL>
0

>  <SCORE.INTRA.DIHEDRAL.0>
0

>  <SCORE.INTRA.POLAR>
0

>  <SCORE.INTRA.POLAR.0>
0

>  <SCORE.INTRA.REPUL>
0

>  <SCORE.INTRA.REPUL.0>
0

>  <SCORE.INTRA.SOLV>
0

>  <SCORE.INTRA.SOLV.lig_0>
-48.9558

>  <SCORE.INTRA.VDW>
0

>  <SCORE.INTRA.VDW.0>
0

>  <SCORE.INTRA.norm>
0

>  <SCORE.RESTR>
0

>  <SCORE.RESTR.CAVITY>
0

>  <SCORE.RESTR.norm>
0

>  <SCORE.SYSTEM>
0

>  <SCORE.SYSTEM.CONST>
0

>  <SCORE.SYSTEM.DIHEDRAL>
0

>  <SCORE.SYSTEM.SOLV>
0

>  <SCORE.SYSTEM.norm>
0

>  <SCORE.heavy>
11

>  <SCORE.norm>
-1.02612

>  <RMSD>
0.577

$$$$
ligand
 OpenBabel11021811493D
libRbt.so/2013.1/901 2013/11/27
 11 12  0  0  0  0  0  0  0  0999 V2000
   11.9735   11.5899    8.5649 N   0  0  0  0  0  0  0  0  0  0  0  0
   11.6012   12.8594    8.7945 C   0  0  0  0  0  0  0  0  0  0  0  0
   11.6513   13.3533   10.0872 N   0  0  0  0  0  0  0  0  0  0  0  0
   11.1823   13.6583    7.7994 N   0  0  0  0  0  0  0  0  0  0  0  0
   11.1220   13.2067    6.5249 C   0  0  0  0  0  0  0  0  0  0  0  0
   11.5062   11.8729    6.2360 C   0  0  0  0  0  0  0  0  0  0  0  0
   11.9433   11.0601    7.3240 C   0  0  0  0  0  0  0  0  0  0  0  0
   12.3330    9.7502    7.1193 N   0  0  0  0  0  0  0  0  0  0  0  0
   11.3462   11.6900    4.9021 N   0  0  0  0  0  0  0  0  0  0  0  0
   10.9025   12.7913    4.3651 C   0  0  0  0  0  0  0  0  0  0  0  0
   10.7492   13.7542    5.3243 N   0  0  0  0  0  0  0  0  0  0  0  0
  1  7  2  0  0  0  0
  1  2  1  0  0  0  0
  2  3  1  0  0  0  0
  2  4  2  0  0  0  0
  4  5  1  0  0  0  0
  5  6  2  0  0  0  0
  5 11  1  0  0  0  0
  6  7  1  0  0  0  0
  6  9  1  0  0  0  0
  7  8  1  0  0  0  0
  9 10  1  0  0  0  0
 10 11  2  0  0  0  0
M  END
>  <CHROM.1>
11.48747775,12.32379255,7.02837328,-1.10363250,1.22407650,-2.03695043

>  <Name>
ligand

>  <RI>
0

>  <Rbt.Current_Directory>
/home/itssahil/PROJECTS/Mol_Feturizer/New_Systems/rnas/4FEP

>  <Rbt.Executable>
rbdock ($Id: //depot/dev/client3/rdock/2013.1/src/exe/rbdock.cxx#4 $)

>  <Rbt.Library>
libRbt.so (2013.1, Build901 2013/11/27)

>  <Rbt.Parameter_File>
/export/apps/rDock/src/rDock_2013.1_src/data/scripts/dock_solv.prm

>  <Rbt.Receptor>
prm/pocket_docking_7.prm

>  <SCORE>
-11.2614

>  <SCORE.INTER>
-11.2614

>  <SCORE.INTER.CONST>
1

>  <SCORE.INTER.POLAR>
0

>  <SCORE.INTER.ROT>
0

>  <SCORE.INTER.SOLV>
21.0973

>  <SCORE.INTER.VDW>
-18.1401

>  <SCORE.INTER.norm>
-1.02377

>  <SCORE.INTRA>
0

>  <SCORE.INTRA.DIHEDRAL>
0

>  <SCORE.INTRA.DIHEDRAL.0>
0

>  <SCORE.INTRA.POLAR>
0

>  <SCORE.INTRA.POLAR.0>
0

>  <SCORE.INTRA.REPUL>
0

>  <SCORE.INTRA.REPUL.0>
0

>  <SCORE.INTRA.SOLV>
0

>  <SCORE.INTRA.SOLV.lig_0>
-48.9558

>  <SCORE.INTRA.VDW>
0

>  <SCORE.INTRA.VDW.0>
0

>  <SCORE.INTRA.norm>
0

>  <SCORE.RESTR>
0

>  <SCORE.RESTR.CAVITY>
0

>  <SCORE.RESTR.norm>
0

>  <SCORE.SYSTEM>
0

>  <SCORE.SYSTEM.CONST>
0

>  <SCORE.SYSTEM.DIHEDRAL>
0

>  <SCORE.SYSTEM.SOLV>
0

>  <SCORE.SYSTEM.norm>
0

>  <SCORE.heavy>
11

>  <SCORE.norm>
-1.02377

>  <RMSD>
0.577

$$$$
ligand
 OpenBabel11021811493D
libRbt.so/2013.1/901 2013/11/27
 11 12  0  0  0  0  0  0  0  0999 V2000
   11.9771   11.6049    8.5695 N   0  0  0  0  0  0  0  0  0  0  0  0
   11.5913   12.8723    8.7879 C   0  0  0  0  0  0  0  0  0  0  0  0
   11.6248   13.3743   10.0781 N   0  0  0  0  0  0  0  0  0  0  0  0
   11.1746   13.6615    7.7842 N   0  0  0  0  0  0  0  0  0  0  0  0
   11.1303   13.2019    6.5120 C   0  0  0  0  0  0  0  0  0  0  0  0
   11.5291   11.8698    6.2347 C   0  0  0  0  0  0  0  0  0  0  0  0
   11.9632   11.0675    7.3316 C   0  0  0  0  0  0  0  0  0  0  0  0
   12.3665    9.7599    7.1384 N   0  0  0  0  0  0  0  0  0  0  0  0
   11.3834   11.6776    4.9004 N   0  0  0  0  0  0  0  0  0  0  0  0
   10.9349   12.7717    4.3527 C   0  0  0  0  0  0  0  0  0  0  0  0
   10.7639   13.7388    5.3046 N   0  0  0  0  0  0  0  0  0  0  0  0
  1  7  2  0  0  0  0
  1  2  1  0  0  0  0
  2  3  1  0  0  0  0
  2  4  2  0  0  0  0
  4  5  1  0  0  0  0
  5  6  2  0  0  0  0
  5 11  1  0  0  0  0
  6  7  1  0  0  0  0
  6  9  1  0  0  0  0
  7  8  1  0  0  0  0
  9 10  1  0  0  0  0
 10 11  2  0  0  0  0
M  END
>  <CHROM.1>
11.49895818,12.32526752,7.02410916,-1.13978336,1.22010095,-2.00894865

>  <Name>
ligand

>  <RI>
0

>  <Rbt.Current_Directory>
/home/itssahil/PROJECTS/Mol_Feturizer/New_Systems/rnas/4FEP

>  <Rbt.Executable>
rbdock ($Id: //depot/dev/client3/rdock/2013.1/src/exe/rbdock.cxx#4 $)

>  <Rbt.Library>
libRbt.so (2013.1, Build901 2013/11/27)

>  <Rbt.Parameter_File>
/export/apps/rDock/src/rDock_2013.1_src/data/scripts/dock_solv.prm

>  <Rbt.Receptor>
prm/blind_docking_40.prm

>  <SCORE>
-11.2604

>  <SCORE.INTER>
-11.2604

>  <SCORE.INTER.CONST>
1

>  <SCORE.INTER.POLAR>
0

>  <SCORE.INTER.ROT>
0

>  <SCORE.INTER.SOLV>
21.0054

>  <SCORE.INTER.VDW>
-18.1088

>  <SCORE.INTER.norm>
-1.02367

>  <SCORE.INTRA>
0

>  <SCORE.INTRA.DIHEDRAL>
0

>  <SCORE.INTRA.DIHEDRAL.0>
0

>  <SCORE.INTRA.POLAR>
0

>  <SCORE.INTRA.POLAR.0>
0

>  <SCORE.INTRA.REPUL>
0

>  <SCORE.INTRA.REPUL.0>
0

>  <SCORE.INTRA.SOLV>
0

>  <SCORE.INTRA.SOLV.lig_0>
-48.9558

>  <SCORE.INTRA.VDW>
0

>  <SCORE.INTRA.VDW.0>
0

>  <SCORE.INTRA.norm>
0

>  <SCORE.RESTR>
0

>  <SCORE.RESTR.CAVITY>
0

>  <SCORE.RESTR.norm>
0

>  <SCORE.SYSTEM>
0

>  <SCORE.SYSTEM.CONST>
0

>  <SCORE.SYSTEM.DIHEDRAL>
0

>  <SCORE.SYSTEM.SOLV>
0

>  <SCORE.SYSTEM.norm>
0

>  <SCORE.heavy>
11

>  <SCORE.norm>
-1.02367

>  <RMSD>
0.578

$$$$
ligand
 OpenBabel11021811493D
libRbt.so/2013.1/901 2013/11/27
 11 12  0  0  0  0  0  0  0  0999 V2000
   11.9520   11.5778    8.5660 N   0  0  0  0  0  0  0  0  0  0  0  0
   11.5741   12.8464    8.7911 C   0  0  0  0  0  0  0  0  0  0  0  0
   11.6055   13.3396   10.0847 N   0  0  0  0  0  0  0  0  0  0  0  0
   11.1672   13.6450    7.7909 N   0  0  0  0  0  0  0  0  0  0  0  0
   11.1251   13.1940    6.5155 C   0  0  0  0  0  0  0  0  0  0  0  0
   11.5159   11.8611    6.2311 C   0  0  0  0  0  0  0  0  0  0  0  0
   11.9398   11.0486    7.3245 C   0  0  0  0  0  0  0  0  0  0  0  0
   12.3349    9.7396    7.1244 N   0  0  0  0  0  0  0  0  0  0  0  0
   11.3745   11.6787    4.8950 N   0  0  0  0  0  0  0  0  0  0  0  0
   10.9359   12.7794    4.3526 C   0  0  0  0  0  0  0  0  0  0  0  0
   10.7676   13.7414    5.3102 N   0  0  0  0  0  0  0  0  0  0  0  0
  1  7  2  0  0  0  0
  1  2  1  0  0  0  0
  2  3  1  0  0  0  0
  2  4  2  0  0  0  0
  4  5  1  0  0  0  0
  5  6  2  0  0  0  0
  5 11  1  0  0  0  0
  6  7  1  0  0  0  0
  6  9  1  0  0  0  0
  7  8  1  0  0  0  0
  9 10  1  0  0  0  0
 10 11  2  0  0  0  0
M  END
>  <CHROM.1>
11.48549749,12.31155059,7.02337649,-1.14257224,1.22814860,-1.99974387

>  <Name>
ligand

>  <RI>
0

>  <Rbt.Current_Directory>
/home/itssahil/PROJECTS/Mol_Feturizer/New_Systems/rnas/4FEP

>  <Rbt.Executable>
rbdock ($Id: //depot/dev/client3/rdock/2013.1/src/exe/rbdock.cxx#4 $)

>  <Rbt.Library>
libRbt.so (2013.1, Build901 2013/11/27)

>  <Rbt.Parameter_File>
/export/apps/rDock/src/rDock_2013.1_src/data/scripts/dock_solv.prm

>  <Rbt.Receptor>
prm/pocket_docking_7.prm

>  <SCORE>
-11.2476

>  <SCORE.INTER>
-11.2476

>  <SCORE.INTER.CONST>
1

>  <SCORE.INTER.POLAR>
0

>  <SCORE.INTER.ROT>
0

>  <SCORE.INTER.SOLV>
21.0994

>  <SCORE.INTER.VDW>
-18.1315

>  <SCORE.INTER.norm>
-1.02251

>  <SCORE.INTRA>
0

>  <SCORE.INTRA.DIHEDRAL>
0

>  <SCORE.INTRA.DIHEDRAL.0>
0

>  <SCORE.INTRA.POLAR>
0

>  <SCORE.INTRA.POLAR.0>
0

>  <SCORE.INTRA.REPUL>
0

>  <SCORE.INTRA.REPUL.0>
0

>  <SCORE.INTRA.SOLV>
0

>  <SCORE.INTRA.SOLV.lig_0>
-48.9558

>  <SCORE.INTRA.VDW>
0

>  <SCORE.INTRA.VDW.0>
0

>  <SCORE.INTRA.norm>
0

>  <SCORE.RESTR>
0

>  <SCORE.RESTR.CAVITY>
0

>  <SCORE.RESTR.norm>
0

>  <SCORE.SYSTEM>
0

>  <SCORE.SYSTEM.CONST>
0

>  <SCORE.SYSTEM.DIHEDRAL>
0

>  <SCORE.SYSTEM.SOLV>
0

>  <SCORE.SYSTEM.norm>
0

>  <SCORE.heavy>
11

>  <SCORE.norm>
-1.02251

>  <RMSD>
0.578

$$$$
ligand
 OpenBabel11021811493D
libRbt.so/2013.1/901 2013/11/27
 11 12  0  0  0  0  0  0  0  0999 V2000
   11.9540   11.5849    8.5710 N   0  0  0  0  0  0  0  0  0  0  0  0
   11.5850   12.8567    8.7931 C   0  0  0  0  0  0  0  0  0  0  0  0
   11.6223   13.3535   10.0852 N   0  0  0  0  0  0  0  0  0  0  0  0
   11.1816   13.6551    7.7914 N   0  0  0  0  0  0  0  0  0  0  0  0
   11.1340   13.2008    6.5174 C   0  0  0  0  0  0  0  0  0  0  0  0
   11.5152   11.8644    6.2361 C   0  0  0  0  0  0  0  0  0  0  0  0
   11.9358   11.0523    7.3311 C   0  0  0  0  0  0  0  0  0  0  0  0
   12.3216    9.7400    7.1340 N   0  0  0  0  0  0  0  0  0  0  0  0
   11.3700   11.6791    4.9008 N   0  0  0  0  0  0  0  0  0  0  0  0
   10.9378   12.7812    4.3561 C   0  0  0  0  0  0  0  0  0  0  0  0
   10.7778   13.7470    5.3111 N   0  0  0  0  0  0  0  0  0  0  0  0
  1  7  2  0  0  0  0
  1  2  1  0  0  0  0
  2  3  1  0  0  0  0
  2  4  2  0  0  0  0
  4  5  1  0  0  0  0
  5  6  2  0  0  0  0
  5 11  1  0  0  0  0
  6  7  1  0  0  0  0
  6  9  1  0  0  0  0
  7  8  1  0  0  0  0
  9 10  1  0  0  0  0
 10 11  2  0  0  0  0
M  END
>  <CHROM.1>
11.48940358,12.31736959,7.02710989,-1.12871644,1.23343238,-2.01571538

>  <Name>
ligand

>  <RI>
0

>  <Rbt.Current_Directory>
/home/itssahil/PROJECTS/Mol_Feturizer/New_Systems/rnas/4FEP

>  <Rbt.Executable>
rbdock ($Id: //depot/dev/client3/rdock/2013.1/src/exe/rbdock.cxx#4 $)

>  <Rbt.Library>
libRbt.so (2013.1, Build901 2013/11/27)

>  <Rbt.Parameter_File>
/export/apps/rDock/src/rDock_2013.1_src/data/scripts/dock_solv.prm

>  <Rbt.Receptor>
prm/pocket_docking_8.prm

>  <SCORE>
-11.2867

>  <SCORE.INTER>
-11.2867

>  <SCORE.INTER.CONST>
1

>  <SCORE.INTER.POLAR>
0

>  <SCORE.INTER.ROT>
0

>  <SCORE.INTER.SOLV>
21.1658

>  <SCORE.INTER.VDW>
-18.1798

>  <SCORE.INTER.norm>
-1.02607

>  <SCORE.INTRA>
0

>  <SCORE.INTRA.DIHEDRAL>
0

>  <SCORE.INTRA.DIHEDRAL.0>
0

>  <SCORE.INTRA.POLAR>
0

>  <SCORE.INTRA.POLAR.0>
0

>  <SCORE.INTRA.REPUL>
0

>  <SCORE.INTRA.REPUL.0>
0

>  <SCORE.INTRA.SOLV>
0

>  <SCORE.INTRA.SOLV.lig_0>
-48.9558

>  <SCORE.INTRA.VDW>
0

>  <SCORE.INTRA.VDW.0>
0

>  <SCORE.INTRA.norm>
0

>  <SCORE.RESTR>
0

>  <SCORE.RESTR.CAVITY>
0

>  <SCORE.RESTR.norm>
0

>  <SCORE.SYSTEM>
0

>  <SCORE.SYSTEM.CONST>
0

>  <SCORE.SYSTEM.DIHEDRAL>
0

>  <SCORE.SYSTEM.SOLV>
0

>  <SCORE.SYSTEM.norm>
0

>  <SCORE.heavy>
11

>  <SCORE.norm>
-1.02607

>  <RMSD>
0.578

$$$$
ligand
 OpenBabel11021811493D
libRbt.so/2013.1/901 2013/11/27
 11 12  0  0  0  0  0  0  0  0999 V2000
   11.9522   11.5863    8.5715 N   0  0  0  0  0  0  0  0  0  0  0  0
   11.5833   12.8581    8.7934 C   0  0  0  0  0  0  0  0  0  0  0  0
   11.6186   13.3545   10.0856 N   0  0  0  0  0  0  0  0  0  0  0  0
   11.1817   13.6569    7.7912 N   0  0  0  0  0  0  0  0  0  0  0  0
   11.1361   13.2030    6.5170 C   0  0  0  0  0  0  0  0  0  0  0  0
   11.5174   11.8666    6.2360 C   0  0  0  0  0  0  0  0  0  0  0  0
   11.9358   11.0540    7.3314 C   0  0  0  0  0  0  0  0  0  0  0  0
   12.3216    9.7417    7.1346 N   0  0  0  0  0  0  0  0  0  0  0  0
   11.3743   11.6817    4.9004 N   0  0  0  0  0  0  0  0  0  0  0  0
   10.9434   12.7840    4.3552 C   0  0  0  0  0  0  0  0  0  0  0  0
   10.7821   13.7497    5.3103 N   0  0  0  0  0  0  0  0  0  0  0  0
  1  7  2  0  0  0  0
  1  2  1  0  0  0  0
  2  3  1  0  0  0  0
  2  4  2  0  0  0  0
  4  5  1  0  0  0  0
  5  6  2  0  0  0  0
  5 11  1  0  0  0  0
  6  7  1  0  0  0  0
  6  9  1  0  0  0  0
  7  8  1  0  0  0  0
  9 10  1  0  0  0  0
 10 11  2  0  0  0  0
M  END
>  <CHROM.1>
11.49039325,12.31930175,7.02707416,-1.13282489,1.23445352,-2.01155774

>  <Name>
ligand

>  <RI>
0

>  <Rbt.Current_Directory>
/home/itssahil/PROJECTS/Mol_Feturizer/New_Systems/rnas/4FEP

>  <Rbt.Executable>
rbdock ($Id: //depot/dev/client3/rdock/2013.1/src/exe/rbdock.cxx#4 $)

>  <Rbt.Library>
libRbt.so (2013.1, Build901 2013/11/27)

>  <Rbt.Parameter_File>
/export/apps/rDock/src/rDock_2013.1_src/data/scripts/dock_solv.prm

>  <Rbt.Receptor>
prm/blind_docking_80.prm

>  <SCORE>
-11.2855

>  <SCORE.INTER>
-11.2855

>  <SCORE.INTER.CONST>
1

>  <SCORE.INTER.POLAR>
0

>  <SCORE.INTER.ROT>
0

>  <SCORE.INTER.SOLV>
21.1703

>  <SCORE.INTER.VDW>
-18.1804

>  <SCORE.INTER.norm>
-1.02595

>  <SCORE.INTRA>
0

>  <SCORE.INTRA.DIHEDRAL>
0

>  <SCORE.INTRA.DIHEDRAL.0>
0

>  <SCORE.INTRA.POLAR>
0

>  <SCORE.INTRA.POLAR.0>
0

>  <SCORE.INTRA.REPUL>
0

>  <SCORE.INTRA.REPUL.0>
0

>  <SCORE.INTRA.SOLV>
0

>  <SCORE.INTRA.SOLV.lig_0>
-48.9558

>  <SCORE.INTRA.VDW>
0

>  <SCORE.INTRA.VDW.0>
0

>  <SCORE.INTRA.norm>
0

>  <SCORE.RESTR>
0

>  <SCORE.RESTR.CAVITY>
0

>  <SCORE.RESTR.norm>
0

>  <SCORE.SYSTEM>
0

>  <SCORE.SYSTEM.CONST>
0

>  <SCORE.SYSTEM.DIHEDRAL>
0

>  <SCORE.SYSTEM.SOLV>
0

>  <SCORE.SYSTEM.norm>
0

>  <SCORE.heavy>
11

>  <SCORE.norm>
-1.02595

>  <RMSD>
0.579

$$$$
ligand
 OpenBabel11021811493D
libRbt.so/2013.1/901 2013/11/27
 11 12  0  0  0  0  0  0  0  0999 V2000
   11.9548   11.5883    8.5667 N   0  0  0  0  0  0  0  0  0  0  0  0
   11.5803   12.8578    8.7926 C   0  0  0  0  0  0  0  0  0  0  0  0
   11.6179   13.3517   10.0858 N   0  0  0  0  0  0  0  0  0  0  0  0
   11.1710   13.6567    7.7936 N   0  0  0  0  0  0  0  0  0  0  0  0
   11.1230   13.2051    6.5186 C   0  0  0  0  0  0  0  0  0  0  0  0
   11.5099   11.8712    6.2334 C   0  0  0  0  0  0  0  0  0  0  0  0
   11.9365   11.0585    7.3256 C   0  0  0  0  0  0  0  0  0  0  0  0
   12.3281    9.7485    7.1247 N   0  0  0  0  0  0  0  0  0  0  0  0
   11.3628   11.6883    4.8980 N   0  0  0  0  0  0  0  0  0  0  0  0
   10.9243   12.7896    4.3567 C   0  0  0  0  0  0  0  0  0  0  0  0
   10.7618   13.7525    5.3144 N   0  0  0  0  0  0  0  0  0  0  0  0
  1  7  2  0  0  0  0
  1  2  1  0  0  0  0
  2  3  1  0  0  0  0
  2  4  2  0  0  0  0
  4  5  1  0  0  0  0
  5  6  2  0  0  0  0
  5 11  1  0  0  0  0
  6  7  1  0  0  0  0
  6  9  1  0  0  0  0
  7  8  1  0  0  0  0
  9 10  1  0  0  0  0
 10 11  2  0  0  0  0
M  END
>  <CHROM.1>
11.48359904,12.32217550,7.02553130,-1.12923938,1.22831527,-2.01286932

>  <Name>
ligand

>  <RI>
0

>  <Rbt.Current_Directory>
/home/itssahil/PROJECTS/Mol_Feturizer/New_Systems/rnas/4FEP

>  <Rbt.Executable>
rbdock ($Id: //depot/dev/client3/rdock/2013.1/src/exe/rbdock.cxx#4 $)

>  <Rbt.Library>
libRbt.so (2013.1, Build901 2013/11/27)

>  <Rbt.Parameter_File>
/export/apps/rDock/src/rDock_2013.1_src/data/scripts/dock_solv.prm

>  <Rbt.Receptor>
prm/pocket_docking_3.prm

>  <SCORE>
-11.2764

>  <SCORE.INTER>
-11.2764

>  <SCORE.INTER.CONST>
1

>  <SCORE.INTER.POLAR>
0

>  <SCORE.INTER.ROT>
0

>  <SCORE.INTER.SOLV>
21.1297

>  <SCORE.INTER.VDW>
-18.1608

>  <SCORE.INTER.norm>
-1.02512

>  <SCORE.INTRA>
0

>  <SCORE.INTRA.DIHEDRAL>
0

>  <SCORE.INTRA.DIHEDRAL.0>
0

>  <SCORE.INTRA.POLAR>
0

>  <SCORE.INTRA.POLAR.0>
0

>  <SCORE.INTRA.REPUL>
0

>  <SCORE.INTRA.REPUL.0>
0

>  <SCORE.INTRA.SOLV>
0

>  <SCORE.INTRA.SOLV.lig_0>
-48.9558

>  <SCORE.INTRA.VDW>
0

>  <SCORE.INTRA.VDW.0>
0

>  <SCORE.INTRA.norm>
0

>  <SCORE.RESTR>
0

>  <SCORE.RESTR.CAVITY>
0

>  <SCORE.RESTR.norm>
0

>  <SCORE.SYSTEM>
0

>  <SCORE.SYSTEM.CONST>
0

>  <SCORE.SYSTEM.DIHEDRAL>
0

>  <SCORE.SYSTEM.SOLV>
0

>  <SCORE.SYSTEM.norm>
0

>  <SCORE.heavy>
11

>  <SCORE.norm>
-1.02512

>  <RMSD>
0.579

$$$$
ligand
 OpenBabel11021811493D
libRbt.so/2013.1/901 2013/11/27
 11 12  0  0  0  0  0  0  0  0999 V2000
   11.9599   11.5861    8.5673 N   0  0  0  0  0  0  0  0  0  0  0  0
   11.5891   12.8572    8.7902 C   0  0  0  0  0  0  0  0  0  0  0  0
   11.6295   13.3543   10.0821 N   0  0  0  0  0  0  0  0  0  0  0  0
   11.1810   13.6545    7.7895 N   0  0  0  0  0  0  0  0  0  0  0  0
   11.1304   13.1998    6.5158 C   0  0  0  0  0  0  0  0  0  0  0  0
   11.5133   11.8641    6.2337 C   0  0  0  0  0  0  0  0  0  0  0  0
   11.9389   11.0531    7.3276 C   0  0  0  0  0  0  0  0  0  0  0  0
   12.3267    9.7415    7.1296 N   0  0  0  0  0  0  0  0  0  0  0  0
   11.3643   11.6781    4.8989 N   0  0  0  0  0  0  0  0  0  0  0  0
   10.9283   12.7792    4.3552 C   0  0  0  0  0  0  0  0  0  0  0  0
   10.7694   13.7450    5.3106 N   0  0  0  0  0  0  0  0  0  0  0  0
  1  7  2  0  0  0  0
  1  2  1  0  0  0  0
  2  3  1  0  0  0  0
  2  4  2  0  0  0  0
  4  5  1  0  0  0  0
  5  6  2  0  0  0  0
  5 11  1  0  0  0  0
  6  7  1  0  0  0  0
  6  9  1  0  0  0  0
  7  8  1  0  0  0  0
  9 10  1  0  0  0  0
 10 11  2  0  0  0  0
M  END
>  <CHROM.1>
11.48908418,12.31719721,7.02466976,-1.12287354,1.23033344,-2.02147535

>  <Name>
ligand

>  <RI>
0

>  <Rbt.Current_Directory>
/home/itssahil/PROJECTS/Mol_Feturizer/New_Systems/rnas/4FEP

>  <Rbt.Executable>
rbdock ($Id: //depot/dev/client3/rdock/2013.1/src/exe/rbdock.cxx#4 $)

>  <Rbt.Library>
libRbt.so (2013.1, Build901 2013/11/27)

>  <Rbt.Parameter_File>
/export/apps/rDock/src/rDock_2013.1_src/data/scripts/dock_solv.prm

>  <Rbt.Receptor>
prm/pocket_docking_6.prm

>  <SCORE>
-11.2848

>  <SCORE.INTER>
-11.2848

>  <SCORE.INTER.CONST>
1

>  <SCORE.INTER.POLAR>
0

>  <SCORE.INTER.ROT>
0

>  <SCORE.INTER.SOLV>
21.1399

>  <SCORE.INTER.VDW>
-18.1698

>  <SCORE.INTER.norm>
-1.02589

>  <SCORE.INTRA>
0

>  <SCORE.INTRA.DIHEDRAL>
0

>  <SCORE.INTRA.DIHEDRAL.0>
0

>  <SCORE.INTRA.POLAR>
0

>  <SCORE.INTRA.POLAR.0>
0

>  <SCORE.INTRA.REPUL>
0

>  <SCORE.INTRA.REPUL.0>
0

>  <SCORE.INTRA.SOLV>
0

>  <SCORE.INTRA.SOLV.lig_0>
-48.9558

>  <SCORE.INTRA.VDW>
0

>  <SCORE.INTRA.VDW.0>
0

>  <SCORE.INTRA.norm>
0

>  <SCORE.RESTR>
0

>  <SCORE.RESTR.CAVITY>
0

>  <SCORE.RESTR.norm>
0

>  <SCORE.SYSTEM>
0

>  <SCORE.SYSTEM.CONST>
0

>  <SCORE.SYSTEM.DIHEDRAL>
0

>  <SCORE.SYSTEM.SOLV>
0

>  <SCORE.SYSTEM.norm>
0

>  <SCORE.heavy>
11

>  <SCORE.norm>
-1.02589

>  <RMSD>
0.579

$$$$
ligand
 OpenBabel11021811493D
libRbt.so/2013.1/901 2013/11/27
 11 12  0  0  0  0  0  0  0  0999 V2000
   11.9558   11.5851    8.5711 N   0  0  0  0  0  0  0  0  0  0  0  0
   11.5888   12.8578    8.7912 C   0  0  0  0  0  0  0  0  0  0  0  0
   11.6258   13.3562   10.0827 N   0  0  0  0  0  0  0  0  0  0  0  0
   11.1876   13.6556    7.7881 N   0  0  0  0  0  0  0  0  0  0  0  0
   11.1403   13.1997    6.5146 C   0  0  0  0  0  0  0  0  0  0  0  0
   11.5196   11.8624    6.2354 C   0  0  0  0  0  0  0  0  0  0  0  0
   11.9378   11.0509    7.3318 C   0  0  0  0  0  0  0  0  0  0  0  0
   12.3217    9.7378    7.1368 N   0  0  0  0  0  0  0  0  0  0  0  0
   11.3752   11.6755    4.9002 N   0  0  0  0  0  0  0  0  0  0  0  0
   10.9454   12.7776    4.3537 C   0  0  0  0  0  0  0  0  0  0  0  0
   10.7861   13.7450    5.3074 N   0  0  0  0  0  0  0  0  0  0  0  0
  1  7  2  0  0  0  0
  1  2  1  0  0  0  0
  2  3  1  0  0  0  0
  2  4  2  0  0  0  0
  4  5  1  0  0  0  0
  5  6  2  0  0  0  0
  5 11  1  0  0  0  0
  6  7  1  0  0  0  0
  6  9  1  0  0  0  0
  7  8  1  0  0  0  0
  9 10  1  0  0  0  0
 10 11  2  0  0  0  0
M  END
>  <CHROM.1>
11.49383415,12.31634959,7.02582796,-1.12896980,1.23532495,-2.01676128

>  <Name>
ligand

>  <RI>
0

>  <Rbt.Current_Directory>
/home/itssahil/PROJECTS/Mol_Feturizer/New_Systems/rnas/4FEP

>  <Rbt.Executable>
rbdock ($Id: //depot/dev/client3/rdock/2013.1/src/exe/rbdock.cxx#4 $)

>  <Rbt.Library>
libRbt.so (2013.1, Build901 2013/11/27)

>  <Rbt.Parameter_File>
/export/apps/rDock/src/rDock_2013.1_src/data/scripts/dock_solv.prm

>  <Rbt.Receptor>
prm/pocket_docking_8.prm

>  <SCORE>
-11.2886

>  <SCORE.INTER>
-11.2886

>  <SCORE.INTER.CONST>
1

>  <SCORE.INTER.POLAR>
0

>  <SCORE.INTER.ROT>
0

>  <SCORE.INTER.SOLV>
21.1718

>  <SCORE.INTER.VDW>
-18.183

>  <SCORE.INTER.norm>
-1.02624

>  <SCORE.INTRA>
0

>  <SCORE.INTRA.DIHEDRAL>
0

>  <SCORE.INTRA.DIHEDRAL.0>
0

>  <SCORE.INTRA.POLAR>
0

>  <SCORE.INTRA.POLAR.0>
0

>  <SCORE.INTRA.REPUL>
0

>  <SCORE.INTRA.REPUL.0>
0

>  <SCORE.INTRA.SOLV>
0

>  <SCORE.INTRA.SOLV.lig_0>
-48.9558

>  <SCORE.INTRA.VDW>
0

>  <SCORE.INTRA.VDW.0>
0

>  <SCORE.INTRA.norm>
0

>  <SCORE.RESTR>
0

>  <SCORE.RESTR.CAVITY>
0

>  <SCORE.RESTR.norm>
0

>  <SCORE.SYSTEM>
0

>  <SCORE.SYSTEM.CONST>
0

>  <SCORE.SYSTEM.DIHEDRAL>
0

>  <SCORE.SYSTEM.SOLV>
0

>  <SCORE.SYSTEM.norm>
0

>  <SCORE.heavy>
11

>  <SCORE.norm>
-1.02624

>  <RMSD>
0.579

$$$$
ligand
 OpenBabel11021811493D
libRbt.so/2013.1/901 2013/11/27
 11 12  0  0  0  0  0  0  0  0999 V2000
   11.9657   11.5828    8.5674 N   0  0  0  0  0  0  0  0  0  0  0  0
   11.5974   12.8546    8.7909 C   0  0  0  0  0  0  0  0  0  0  0  0
   11.6387   13.3512   10.0829 N   0  0  0  0  0  0  0  0  0  0  0  0
   11.1909   13.6531    7.7905 N   0  0  0  0  0  0  0  0  0  0  0  0
   11.1394   13.1990    6.5166 C   0  0  0  0  0  0  0  0  0  0  0  0
   11.5198   11.8627    6.2340 C   0  0  0  0  0  0  0  0  0  0  0  0
   11.9437   11.0504    7.3275 C   0  0  0  0  0  0  0  0  0  0  0  0
   12.3290    9.7382    7.1291 N   0  0  0  0  0  0  0  0  0  0  0  0
   11.3704   11.6775    4.8991 N   0  0  0  0  0  0  0  0  0  0  0  0
   10.9365   12.7797    4.3558 C   0  0  0  0  0  0  0  0  0  0  0  0
   10.7794   13.7454    5.3115 N   0  0  0  0  0  0  0  0  0  0  0  0
  1  7  2  0  0  0  0
  1  2  1  0  0  0  0
  2  3  1  0  0  0  0
  2  4  2  0  0  0  0
  4  5  1  0  0  0  0
  5  6  2  0  0  0  0
  5 11  1  0  0  0  0
  6  7  1  0  0  0  0
  6  9  1  0  0  0  0
  7  8  1  0  0  0  0
  9 10  1  0  0  0  0
 10 11  2  0  0  0  0
M  END
>  <CHROM.1>
11.49637776,12.31548845,7.02510823,-1.12039988,1.23207264,-2.02341562

>  <Name>
ligand

>  <RI>
0

>  <Rbt.Current_Directory>
/home/itssahil/PROJECTS/Mol_Feturizer/New_Systems/rnas/4FEP

>  <Rbt.Executable>
rbdock ($Id: //depot/dev/client3/rdock/2013.1/src/exe/rbdock.cxx#4 $)

>  <Rbt.Library>
libRbt.so (2013.1, Build901 2013/11/27)

>  <Rbt.Parameter_File>
/export/apps/rDock/src/rDock_2013.1_src/data/scripts/dock_solv.prm

>  <Rbt.Receptor>
prm/pocket_docking_8.prm

>  <SCORE>
-11.2871

>  <SCORE.INTER>
-11.2871

>  <SCORE.INTER.CONST>
1

>  <SCORE.INTER.POLAR>
0

>  <SCORE.INTER.ROT>
0

>  <SCORE.INTER.SOLV>
21.1301

>  <SCORE.INTER.VDW>
-18.1681

>  <SCORE.INTER.norm>
-1.0261

>  <SCORE.INTRA>
0

>  <SCORE.INTRA.DIHEDRAL>
0

>  <SCORE.INTRA.DIHEDRAL.0>
0

>  <SCORE.INTRA.POLAR>
0

>  <SCORE.INTRA.POLAR.0>
0

>  <SCORE.INTRA.REPUL>
0

>  <SCORE.INTRA.REPUL.0>
0

>  <SCORE.INTRA.SOLV>
0

>  <SCORE.INTRA.SOLV.lig_0>
-48.9558

>  <SCORE.INTRA.VDW>
0

>  <SCORE.INTRA.VDW.0>
0

>  <SCORE.INTRA.norm>
0

>  <SCORE.RESTR>
0

>  <SCORE.RESTR.CAVITY>
0

>  <SCORE.RESTR.norm>
0

>  <SCORE.SYSTEM>
0

>  <SCORE.SYSTEM.CONST>
0

>  <SCORE.SYSTEM.DIHEDRAL>
0

>  <SCORE.SYSTEM.SOLV>
0

>  <SCORE.SYSTEM.norm>
0

>  <SCORE.heavy>
11

>  <SCORE.norm>
-1.0261

>  <RMSD>
0.579

$$$$
ligand
 OpenBabel11021811493D
libRbt.so/2013.1/901 2013/11/27
 11 12  0  0  0  0  0  0  0  0999 V2000
   11.9531   11.5848    8.5710 N   0  0  0  0  0  0  0  0  0  0  0  0
   11.5845   12.8570    8.7915 C   0  0  0  0  0  0  0  0  0  0  0  0
   11.6204   13.3548   10.0832 N   0  0  0  0  0  0  0  0  0  0  0  0
   11.1829   13.6547    7.7885 N   0  0  0  0  0  0  0  0  0  0  0  0
   11.1367   13.1993    6.5148 C   0  0  0  0  0  0  0  0  0  0  0  0
   11.5176   11.8625    6.2353 C   0  0  0  0  0  0  0  0  0  0  0  0
   11.9362   11.0511    7.3315 C   0  0  0  0  0  0  0  0  0  0  0  0
   12.3216    9.7384    7.1361 N   0  0  0  0  0  0  0  0  0  0  0  0
   11.3741   11.6760    4.8999 N   0  0  0  0  0  0  0  0  0  0  0  0
   10.9432   12.7779    4.3536 C   0  0  0  0  0  0  0  0  0  0  0  0
   10.7825   13.7447    5.3077 N   0  0  0  0  0  0  0  0  0  0  0  0
  1  7  2  0  0  0  0
  1  2  1  0  0  0  0
  2  3  1  0  0  0  0
  2  4  2  0  0  0  0
  4  5  1  0  0  0  0
  5  6  2  0  0  0  0
  5 11  1  0  0  0  0
  6  7  1  0  0  0  0
  6  9  1  0  0  0  0
  7  8  1  0  0  0  0
  9 10  1  0  0  0  0
 10 11  2  0  0  0  0
M  END
>  <CHROM.1>
11.49097959,12.31610739,7.02584477,-1.13167871,1.23451150,-2.01379869

>  <Name>
ligand

>  <RI>
0

>  <Rbt.Current_Directory>
/home/itssahil/PROJECTS/Mol_Feturizer/New_Systems/rnas/4FEP

>  <Rbt.Executable>
rbdock ($Id: //depot/dev/client3/rdock/2013.1/src/exe/rbdock.cxx#4 $)

>  <Rbt.Library>
libRbt.so (2013.1, Build901 2013/11/27)

>  <Rbt.Parameter_File>
/export/apps/rDock/src/rDock_2013.1_src/data/scripts/dock_solv.prm

>  <Rbt.Receptor>
prm/pocket_docking_8.prm

>  <SCORE>
-11.2889

>  <SCORE.INTER>
-11.2889

>  <SCORE.INTER.CONST>
1

>  <SCORE.INTER.POLAR>
0

>  <SCORE.INTER.ROT>
0

>  <SCORE.INTER.SOLV>
21.1698

>  <SCORE.INTER.VDW>
-18.1825

>  <SCORE.INTER.norm>
-1.02626

>  <SCORE.INTRA>
0

>  <SCORE.INTRA.DIHEDRAL>
0

>  <SCORE.INTRA.DIHEDRAL.0>
0

>  <SCORE.INTRA.POLAR>
0

>  <SCORE.INTRA.POLAR.0>
0

>  <SCORE.INTRA.REPUL>
0

>  <SCORE.INTRA.REPUL.0>
0

>  <SCORE.INTRA.SOLV>
0

>  <SCORE.INTRA.SOLV.lig_0>
-48.9558

>  <SCORE.INTRA.VDW>
0

>  <SCORE.INTRA.VDW.0>
0

>  <SCORE.INTRA.norm>
0

>  <SCORE.RESTR>
0

>  <SCORE.RESTR.CAVITY>
0

>  <SCORE.RESTR.norm>
0

>  <SCORE.SYSTEM>
0

>  <SCORE.SYSTEM.CONST>
0

>  <SCORE.SYSTEM.DIHEDRAL>
0

>  <SCORE.SYSTEM.SOLV>
0

>  <SCORE.SYSTEM.norm>
0

>  <SCORE.heavy>
11

>  <SCORE.norm>
-1.02626

>  <RMSD>
0.579

$$$$
ligand
 OpenBabel11021811493D
libRbt.so/2013.1/901 2013/11/27
 11 12  0  0  0  0  0  0  0  0999 V2000
   11.9529   11.5869    8.5717 N   0  0  0  0  0  0  0  0  0  0  0  0
   11.5860   12.8596    8.7918 C   0  0  0  0  0  0  0  0  0  0  0  0
   11.6218   13.3577   10.0834 N   0  0  0  0  0  0  0  0  0  0  0  0
   11.1860   13.6578    7.7885 N   0  0  0  0  0  0  0  0  0  0  0  0
   11.1400   13.2022    6.5148 C   0  0  0  0  0  0  0  0  0  0  0  0
   11.5192   11.8648    6.2357 C   0  0  0  0  0  0  0  0  0  0  0  0
   11.9360   11.0530    7.3323 C   0  0  0  0  0  0  0  0  0  0  0  0
   12.3197    9.7398    7.1374 N   0  0  0  0  0  0  0  0  0  0  0  0
   11.3761   11.6783    4.9003 N   0  0  0  0  0  0  0  0  0  0  0  0
   10.9471   12.7807    4.3536 C   0  0  0  0  0  0  0  0  0  0  0  0
   10.7872   13.7479    5.3074 N   0  0  0  0  0  0  0  0  0  0  0  0
  1  7  2  0  0  0  0
  1  2  1  0  0  0  0
  2  3  1  0  0  0  0
  2  4  2  0  0  0  0
  4  5  1  0  0  0  0
  5  6  2  0  0  0  0
  5 11  1  0  0  0  0
  6  7  1  0  0  0  0
  6  9  1  0  0  0  0
  7  8  1  0  0  0  0
  9 10  1  0  0  0  0
 10 11  2  0  0  0  0
M  END
>  <CHROM.1>
11.49271752,12.31861990,7.02617908,-1.13142625,1.23600898,-2.01420040

>  <Name>
ligand

>  <RI>
0

>  <Rbt.Current_Directory>
/home/itssahil/PROJECTS/Mol_Feturizer/New_Systems/rnas/4FEP

>  <Rbt.Executable>
rbdock ($Id: //depot/dev/client3/rdock/2013.1/src/exe/rbdock.cxx#4 $)

>  <Rbt.Library>
libRbt.so (2013.1, Build901 2013/11/27)

>  <Rbt.Parameter_File>
/export/apps/rDock/src/rDock_2013.1_src/data/scripts/dock_solv.prm

>  <Rbt.Receptor>
prm/blind_docking_100.prm

>  <SCORE>
-11.2864

>  <SCORE.INTER>
-11.2864

>  <SCORE.INTER.CONST>
1

>  <SCORE.INTER.POLAR>
0

>  <SCORE.INTER.ROT>
0

>  <SCORE.INTER.SOLV>
21.1827

>  <SCORE.INTER.VDW>
-18.1851

>  <SCORE.INTER.norm>
-1.02603

>  <SCORE.INTRA>
0

>  <SCORE.INTRA.DIHEDRAL>
0

>  <SCORE.INTRA.DIHEDRAL.0>
0

>  <SCORE.INTRA.POLAR>
0

>  <SCORE.INTRA.POLAR.0>
0

>  <SCORE.INTRA.REPUL>
0

>  <SCORE.INTRA.REPUL.0>
0

>  <SCORE.INTRA.SOLV>
0

>  <SCORE.INTRA.SOLV.lig_0>
-48.9558

>  <SCORE.INTRA.VDW>
0

>  <SCORE.INTRA.VDW.0>
0

>  <SCORE.INTRA.norm>
0

>  <SCORE.RESTR>
0

>  <SCORE.RESTR.CAVITY>
0

>  <SCORE.RESTR.norm>
0

>  <SCORE.SYSTEM>
0

>  <SCORE.SYSTEM.CONST>
0

>  <SCORE.SYSTEM.DIHEDRAL>
0

>  <SCORE.SYSTEM.SOLV>
0

>  <SCORE.SYSTEM.norm>
0

>  <SCORE.heavy>
11

>  <SCORE.norm>
-1.02603

>  <RMSD>
0.580

$$$$
ligand
 OpenBabel11021811493D
libRbt.so/2013.1/901 2013/11/27
 11 12  0  0  0  0  0  0  0  0999 V2000
   11.9650   11.5876    8.5677 N   0  0  0  0  0  0  0  0  0  0  0  0
   11.5975   12.8597    8.7907 C   0  0  0  0  0  0  0  0  0  0  0  0
   11.6403   13.3571   10.0823 N   0  0  0  0  0  0  0  0  0  0  0  0
   11.1903   13.6577    7.7902 N   0  0  0  0  0  0  0  0  0  0  0  0
   11.1373   13.2027    6.5166 C   0  0  0  0  0  0  0  0  0  0  0  0
   11.5168   11.8661    6.2345 C   0  0  0  0  0  0  0  0  0  0  0  0
   11.9415   11.0543    7.3282 C   0  0  0  0  0  0  0  0  0  0  0  0
   12.3260    9.7418    7.1302 N   0  0  0  0  0  0  0  0  0  0  0  0
   11.3660   11.6800    4.8999 N   0  0  0  0  0  0  0  0  0  0  0  0
   10.9320   12.7820    4.3563 C   0  0  0  0  0  0  0  0  0  0  0  0
   10.7763   13.7485    5.3116 N   0  0  0  0  0  0  0  0  0  0  0  0
  1  7  2  0  0  0  0
  1  2  1  0  0  0  0
  2  3  1  0  0  0  0
  2  4  2  0  0  0  0
  4  5  1  0  0  0  0
  5  6  2  0  0  0  0
  5 11  1  0  0  0  0
  6  7  1  0  0  0  0
  6  9  1  0  0  0  0
  7  8  1  0  0  0  0
  9 10  1  0  0  0  0
 10 11  2  0  0  0  0
M  END
>  <CHROM.1>
11.49439532,12.31941257,7.02536286,-1.11701306,1.23201685,-2.02729495

>  <Name>
ligand

>  <RI>
0

>  <Rbt.Current_Directory>
/home/itssahil/PROJECTS/Mol_Feturizer/New_Systems/rnas/4FEP

>  <Rbt.Executable>
rbdock ($Id: //depot/dev/client3/rdock/2013.1/src/exe/rbdock.cxx#4 $)

>  <Rbt.Library>
libRbt.so (2013.1, Build901 2013/11/27)

>  <Rbt.Parameter_File>
/export/apps/rDock/src/rDock_2013.1_src/data/scripts/dock_solv.prm

>  <Rbt.Receptor>
prm/blind_docking_100.prm

>  <SCORE>
-11.2829

>  <SCORE.INTER>
-11.2829

>  <SCORE.INTER.CONST>
1

>  <SCORE.INTER.POLAR>
0

>  <SCORE.INTER.ROT>
0

>  <SCORE.INTER.SOLV>
21.1465

>  <SCORE.INTER.VDW>
-18.1708

>  <SCORE.INTER.norm>
-1.02572

>  <SCORE.INTRA>
0

>  <SCORE.INTRA.DIHEDRAL>
0

>  <SCORE.INTRA.DIHEDRAL.0>
0

>  <SCORE.INTRA.POLAR>
0

>  <SCORE.INTRA.POLAR.0>
0

>  <SCORE.INTRA.REPUL>
0

>  <SCORE.INTRA.REPUL.0>
0

>  <SCORE.INTRA.SOLV>
0

>  <SCORE.INTRA.SOLV.lig_0>
-48.9558

>  <SCORE.INTRA.VDW>
0

>  <SCORE.INTRA.VDW.0>
0

>  <SCORE.INTRA.norm>
0

>  <SCORE.RESTR>
0

>  <SCORE.RESTR.CAVITY>
0

>  <SCORE.RESTR.norm>
0

>  <SCORE.SYSTEM>
0

>  <SCORE.SYSTEM.CONST>
0

>  <SCORE.SYSTEM.DIHEDRAL>
0

>  <SCORE.SYSTEM.SOLV>
0

>  <SCORE.SYSTEM.norm>
0

>  <SCORE.heavy>
11

>  <SCORE.norm>
-1.02572

>  <RMSD>
0.580

$$$$
ligand
 OpenBabel11021811493D
libRbt.so/2013.1/901 2013/11/27
 11 12  0  0  0  0  0  0  0  0999 V2000
   11.9465   11.5868    8.5711 N   0  0  0  0  0  0  0  0  0  0  0  0
   11.5783   12.8593    8.7903 C   0  0  0  0  0  0  0  0  0  0  0  0
   11.6126   13.3580   10.0816 N   0  0  0  0  0  0  0  0  0  0  0  0
   11.1785   13.6566    7.7862 N   0  0  0  0  0  0  0  0  0  0  0  0
   11.1340   13.2003    6.5127 C   0  0  0  0  0  0  0  0  0  0  0  0
   11.5146   11.8632    6.2346 C   0  0  0  0  0  0  0  0  0  0  0  0
   11.9312   11.0523    7.3320 C   0  0  0  0  0  0  0  0  0  0  0  0
   12.3162    9.7393    7.1380 N   0  0  0  0  0  0  0  0  0  0  0  0
   11.3729   11.6759    4.8992 N   0  0  0  0  0  0  0  0  0  0  0  0
   10.9434   12.7776    4.3515 C   0  0  0  0  0  0  0  0  0  0  0  0
   10.7817   13.7451    5.3047 N   0  0  0  0  0  0  0  0  0  0  0  0
  1  7  2  0  0  0  0
  1  2  1  0  0  0  0
  2  3  1  0  0  0  0
  2  4  2  0  0  0  0
  4  5  1  0  0  0  0
  5  6  2  0  0  0  0
  5 11  1  0  0  0  0
  6  7  1  0  0  0  0
  6  9  1  0  0  0  0
  7  8  1  0  0  0  0
  9 10  1  0  0  0  0
 10 11  2  0  0  0  0
M  END
>  <CHROM.1>
11.48703860,12.31735351,7.02482679,-1.13496117,1.23559869,-2.01136348

>  <Name>
ligand

>  <RI>
0

>  <Rbt.Current_Directory>
/home/itssahil/PROJECTS/Mol_Feturizer/New_Systems/rnas/4FEP

>  <Rbt.Executable>
rbdock ($Id: //depot/dev/client3/rdock/2013.1/src/exe/rbdock.cxx#4 $)

>  <Rbt.Library>
libRbt.so (2013.1, Build901 2013/11/27)

>  <Rbt.Parameter_File>
/export/apps/rDock/src/rDock_2013.1_src/data/scripts/dock_solv.prm

>  <Rbt.Receptor>
prm/blind_docking_60.prm

>  <SCORE>
-11.2865

>  <SCORE.INTER>
-11.2865

>  <SCORE.INTER.CONST>
1

>  <SCORE.INTER.POLAR>
0

>  <SCORE.INTER.ROT>
0

>  <SCORE.INTER.SOLV>
21.1968

>  <SCORE.INTER.VDW>
-18.1899

>  <SCORE.INTER.norm>
-1.02604

>  <SCORE.INTRA>
0

>  <SCORE.INTRA.DIHEDRAL>
0

>  <SCORE.INTRA.DIHEDRAL.0>
0

>  <SCORE.INTRA.POLAR>
0

>  <SCORE.INTRA.POLAR.0>
0

>  <SCORE.INTRA.REPUL>
0

>  <SCORE.INTRA.REPUL.0>
0

>  <SCORE.INTRA.SOLV>
0

>  <SCORE.INTRA.SOLV.lig_0>
-48.9558

>  <SCORE.INTRA.VDW>
0

>  <SCORE.INTRA.VDW.0>
0

>  <SCORE.INTRA.norm>
0

>  <SCORE.RESTR>
0

>  <SCORE.RESTR.CAVITY>
0

>  <SCORE.RESTR.norm>
0

>  <SCORE.SYSTEM>
0

>  <SCORE.SYSTEM.CONST>
0

>  <SCORE.SYSTEM.DIHEDRAL>
0

>  <SCORE.SYSTEM.SOLV>
0

>  <SCORE.SYSTEM.norm>
0

>  <SCORE.heavy>
11

>  <SCORE.norm>
-1.02604

>  <RMSD>
0.580

$$$$
ligand
 OpenBabel11021811493D
libRbt.so/2013.1/901 2013/11/27
 11 12  0  0  0  0  0  0  0  0999 V2000
   11.9543   11.5858    8.5700 N   0  0  0  0  0  0  0  0  0  0  0  0
   11.5864   12.8581    8.7907 C   0  0  0  0  0  0  0  0  0  0  0  0
   11.6235   13.3562   10.0822 N   0  0  0  0  0  0  0  0  0  0  0  0
   11.1840   13.6558    7.7879 N   0  0  0  0  0  0  0  0  0  0  0  0
   11.1366   13.2002    6.5144 C   0  0  0  0  0  0  0  0  0  0  0  0
   11.5168   11.8633    6.2347 C   0  0  0  0  0  0  0  0  0  0  0  0
   11.9362   11.0519    7.3307 C   0  0  0  0  0  0  0  0  0  0  0  0
   12.3210    9.7391    7.1351 N   0  0  0  0  0  0  0  0  0  0  0  0
   11.3721   11.6767    4.8995 N   0  0  0  0  0  0  0  0  0  0  0  0
   10.9410   12.7785    4.3534 C   0  0  0  0  0  0  0  0  0  0  0  0
   10.7814   13.7455    5.3074 N   0  0  0  0  0  0  0  0  0  0  0  0
  1  7  2  0  0  0  0
  1  2  1  0  0  0  0
  2  3  1  0  0  0  0
  2  4  2  0  0  0  0
  4  5  1  0  0  0  0
  5  6  2  0  0  0  0
  5 11  1  0  0  0  0
  6  7  1  0  0  0  0
  6  9  1  0  0  0  0
  7  8  1  0  0  0  0
  9 10  1  0  0  0  0
 10 11  2  0  0  0  0
M  END
>  <CHROM.1>
11.49106767,12.31701956,7.02518842,-1.12883121,1.23439954,-2.01663199

>  <Name>
ligand

>  <RI>
0

>  <Rbt.Current_Directory>
/home/itssahil/PROJECTS/Mol_Feturizer/New_Systems/rnas/4FEP

>  <Rbt.Executable>
rbdock ($Id: //depot/dev/client3/rdock/2013.1/src/exe/rbdock.cxx#4 $)

>  <Rbt.Library>
libRbt.so (2013.1, Build901 2013/11/27)

>  <Rbt.Parameter_File>
/export/apps/rDock/src/rDock_2013.1_src/data/scripts/dock_solv.prm

>  <Rbt.Receptor>
prm/pocket_docking_3.prm

>  <SCORE>
-11.2872

>  <SCORE.INTER>
-11.2872

>  <SCORE.INTER.CONST>
1

>  <SCORE.INTER.POLAR>
0

>  <SCORE.INTER.ROT>
0

>  <SCORE.INTER.SOLV>
21.1724

>  <SCORE.INTER.VDW>
-18.1823

>  <SCORE.INTER.norm>
-1.02611

>  <SCORE.INTRA>
0

>  <SCORE.INTRA.DIHEDRAL>
0

>  <SCORE.INTRA.DIHEDRAL.0>
0

>  <SCORE.INTRA.POLAR>
0

>  <SCORE.INTRA.POLAR.0>
0

>  <SCORE.INTRA.REPUL>
0

>  <SCORE.INTRA.REPUL.0>
0

>  <SCORE.INTRA.SOLV>
0

>  <SCORE.INTRA.SOLV.lig_0>
-48.9558

>  <SCORE.INTRA.VDW>
0

>  <SCORE.INTRA.VDW.0>
0

>  <SCORE.INTRA.norm>
0

>  <SCORE.RESTR>
0

>  <SCORE.RESTR.CAVITY>
0

>  <SCORE.RESTR.norm>
0

>  <SCORE.SYSTEM>
0

>  <SCORE.SYSTEM.CONST>
0

>  <SCORE.SYSTEM.DIHEDRAL>
0

>  <SCORE.SYSTEM.SOLV>
0

>  <SCORE.SYSTEM.norm>
0

>  <SCORE.heavy>
11

>  <SCORE.norm>
-1.02611

>  <RMSD>
0.580

$$$$
ligand
 OpenBabel11021811493D
libRbt.so/2013.1/901 2013/11/27
 11 12  0  0  0  0  0  0  0  0999 V2000
   11.9612   11.5870    8.5690 N   0  0  0  0  0  0  0  0  0  0  0  0
   11.5941   12.8594    8.7909 C   0  0  0  0  0  0  0  0  0  0  0  0
   11.6340   13.3569   10.0826 N   0  0  0  0  0  0  0  0  0  0  0  0
   11.1900   13.6577    7.7893 N   0  0  0  0  0  0  0  0  0  0  0  0
   11.1399   13.2025    6.5156 C   0  0  0  0  0  0  0  0  0  0  0  0
   11.5191   11.8656    6.2347 C   0  0  0  0  0  0  0  0  0  0  0  0
   11.9404   11.0536    7.3295 C   0  0  0  0  0  0  0  0  0  0  0  0
   12.3244    9.7408    7.1327 N   0  0  0  0  0  0  0  0  0  0  0  0
   11.3716   11.6795    4.8997 N   0  0  0  0  0  0  0  0  0  0  0  0
   10.9399   12.7818    4.3549 C   0  0  0  0  0  0  0  0  0  0  0  0
   10.7825   13.7485    5.3096 N   0  0  0  0  0  0  0  0  0  0  0  0
  1  7  2  0  0  0  0
  1  2  1  0  0  0  0
  2  3  1  0  0  0  0
  2  4  2  0  0  0  0
  4  5  1  0  0  0  0
  5  6  2  0  0  0  0
  5 11  1  0  0  0  0
  6  7  1  0  0  0  0
  6  9  1  0  0  0  0
  7  8  1  0  0  0  0
  9 10  1  0  0  0  0
 10 11  2  0  0  0  0
M  END
>  <CHROM.1>
11.49510147,12.31904679,7.02541021,-1.12293257,1.23382785,-2.02181154

>  <Name>
ligand

>  <RI>
0

>  <Rbt.Current_Directory>
/home/itssahil/PROJECTS/Mol_Feturizer/New_Systems/rnas/4FEP

>  <Rbt.Executable>
rbdock ($Id: //depot/dev/client3/rdock/2013.1/src/exe/rbdock.cxx#4 $)

>  <Rbt.Library>
libRbt.so (2013.1, Build901 2013/11/27)

>  <Rbt.Parameter_File>
/export/apps/rDock/src/rDock_2013.1_src/data/scripts/dock_solv.prm

>  <Rbt.Receptor>
prm/pocket_docking_5.prm

>  <SCORE>
-11.285

>  <SCORE.INTER>
-11.285

>  <SCORE.INTER.CONST>
1

>  <SCORE.INTER.POLAR>
0

>  <SCORE.INTER.ROT>
0

>  <SCORE.INTER.SOLV>
21.1574

>  <SCORE.INTER.VDW>
-18.1758

>  <SCORE.INTER.norm>
-1.02591

>  <SCORE.INTRA>
0

>  <SCORE.INTRA.DIHEDRAL>
0

>  <SCORE.INTRA.DIHEDRAL.0>
0

>  <SCORE.INTRA.POLAR>
0

>  <SCORE.INTRA.POLAR.0>
0

>  <SCORE.INTRA.REPUL>
0

>  <SCORE.INTRA.REPUL.0>
0

>  <SCORE.INTRA.SOLV>
0

>  <SCORE.INTRA.SOLV.lig_0>
-48.9558

>  <SCORE.INTRA.VDW>
0

>  <SCORE.INTRA.VDW.0>
0

>  <SCORE.INTRA.norm>
0

>  <SCORE.RESTR>
0

>  <SCORE.RESTR.CAVITY>
0

>  <SCORE.RESTR.norm>
0

>  <SCORE.SYSTEM>
0

>  <SCORE.SYSTEM.CONST>
0

>  <SCORE.SYSTEM.DIHEDRAL>
0

>  <SCORE.SYSTEM.SOLV>
0

>  <SCORE.SYSTEM.norm>
0

>  <SCORE.heavy>
11

>  <SCORE.norm>
-1.02591

>  <RMSD>
0.580

$$$$
ligand
 OpenBabel11021811493D
libRbt.so/2013.1/901 2013/11/27
 11 12  0  0  0  0  0  0  0  0999 V2000
   11.9692   11.5856    8.5670 N   0  0  0  0  0  0  0  0  0  0  0  0
   11.6025   12.8580    8.7896 C   0  0  0  0  0  0  0  0  0  0  0  0
   11.6460   13.3558   10.0810 N   0  0  0  0  0  0  0  0  0  0  0  0
   11.1956   13.6560    7.7889 N   0  0  0  0  0  0  0  0  0  0  0  0
   11.1420   13.2006    6.5155 C   0  0  0  0  0  0  0  0  0  0  0  0
   11.5205   11.8636    6.2338 C   0  0  0  0  0  0  0  0  0  0  0  0
   11.9450   11.0519    7.3276 C   0  0  0  0  0  0  0  0  0  0  0  0
   12.3286    9.7391    7.1300 N   0  0  0  0  0  0  0  0  0  0  0  0
   11.3693   11.6772    4.8993 N   0  0  0  0  0  0  0  0  0  0  0  0
   10.9359   12.7793    4.3554 C   0  0  0  0  0  0  0  0  0  0  0  0
   10.7811   13.7462    5.3104 N   0  0  0  0  0  0  0  0  0  0  0  0
  1  7  2  0  0  0  0
  1  2  1  0  0  0  0
  2  3  1  0  0  0  0
  2  4  2  0  0  0  0
  4  5  1  0  0  0  0
  5  6  2  0  0  0  0
  5 11  1  0  0  0  0
  6  7  1  0  0  0  0
  6  9  1  0  0  0  0
  7  8  1  0  0  0  0
  9 10  1  0  0  0  0
 10 11  2  0  0  0  0
M  END
>  <CHROM.1>
11.49864035,12.31723160,7.02447303,-1.11552145,1.23250412,-2.02902912

>  <Name>
ligand

>  <RI>
0

>  <Rbt.Current_Directory>
/home/itssahil/PROJECTS/Mol_Feturizer/New_Systems/rnas/4FEP

>  <Rbt.Executable>
rbdock ($Id: //depot/dev/client3/rdock/2013.1/src/exe/rbdock.cxx#4 $)

>  <Rbt.Library>
libRbt.so (2013.1, Build901 2013/11/27)

>  <Rbt.Parameter_File>
/export/apps/rDock/src/rDock_2013.1_src/data/scripts/dock_solv.prm

>  <Rbt.Receptor>
prm/pocket_docking_5.prm

>  <SCORE>
-11.2851

>  <SCORE.INTER>
-11.2851

>  <SCORE.INTER.CONST>
1

>  <SCORE.INTER.POLAR>
0

>  <SCORE.INTER.ROT>
0

>  <SCORE.INTER.SOLV>
21.1356

>  <SCORE.INTER.VDW>
-18.1686

>  <SCORE.INTER.norm>
-1.02591

>  <SCORE.INTRA>
0

>  <SCORE.INTRA.DIHEDRAL>
0

>  <SCORE.INTRA.DIHEDRAL.0>
0

>  <SCORE.INTRA.POLAR>
0

>  <SCORE.INTRA.POLAR.0>
0

>  <SCORE.INTRA.REPUL>
0

>  <SCORE.INTRA.REPUL.0>
0

>  <SCORE.INTRA.SOLV>
0

>  <SCORE.INTRA.SOLV.lig_0>
-48.9558

>  <SCORE.INTRA.VDW>
0

>  <SCORE.INTRA.VDW.0>
0

>  <SCORE.INTRA.norm>
0

>  <SCORE.RESTR>
0

>  <SCORE.RESTR.CAVITY>
0

>  <SCORE.RESTR.norm>
0

>  <SCORE.SYSTEM>
0

>  <SCORE.SYSTEM.CONST>
0

>  <SCORE.SYSTEM.DIHEDRAL>
0

>  <SCORE.SYSTEM.SOLV>
0

>  <SCORE.SYSTEM.norm>
0

>  <SCORE.heavy>
11

>  <SCORE.norm>
-1.02591

>  <RMSD>
0.580

$$$$
ligand
 OpenBabel11021811493D
libRbt.so/2013.1/901 2013/11/27
 11 12  0  0  0  0  0  0  0  0999 V2000
   11.9485   11.5864    8.5724 N   0  0  0  0  0  0  0  0  0  0  0  0
   11.5829   12.8598    8.7905 C   0  0  0  0  0  0  0  0  0  0  0  0
   11.6175   13.3594   10.0815 N   0  0  0  0  0  0  0  0  0  0  0  0
   11.1853   13.6573    7.7856 N   0  0  0  0  0  0  0  0  0  0  0  0
   11.1405   13.2002    6.5124 C   0  0  0  0  0  0  0  0  0  0  0  0
   11.5183   11.8620    6.2355 C   0  0  0  0  0  0  0  0  0  0  0  0
   11.9327   11.0510    7.3336 C   0  0  0  0  0  0  0  0  0  0  0  0
   12.3149    9.7371    7.1408 N   0  0  0  0  0  0  0  0  0  0  0  0
   11.3770   11.6741    4.9001 N   0  0  0  0  0  0  0  0  0  0  0  0
   10.9501   12.7764    4.3514 C   0  0  0  0  0  0  0  0  0  0  0  0
   10.7900   13.7449    5.3038 N   0  0  0  0  0  0  0  0  0  0  0  0
  1  7  2  0  0  0  0
  1  2  1  0  0  0  0
  2  3  1  0  0  0  0
  2  4  2  0  0  0  0
  4  5  1  0  0  0  0
  5  6  2  0  0  0  0
  5 11  1  0  0  0  0
  6  7  1  0  0  0  0
  6  9  1  0  0  0  0
  7  8  1  0  0  0  0
  9 10  1  0  0  0  0
 10 11  2  0  0  0  0
M  END
>  <CHROM.1>
11.49137523,12.31681781,7.02535539,-1.13363023,1.23776401,-2.01332493

>  <Name>
ligand

>  <RI>
0

>  <Rbt.Current_Directory>
/home/itssahil/PROJECTS/Mol_Feturizer/New_Systems/rnas/4FEP

>  <Rbt.Executable>
rbdock ($Id: //depot/dev/client3/rdock/2013.1/src/exe/rbdock.cxx#4 $)

>  <Rbt.Library>
libRbt.so (2013.1, Build901 2013/11/27)

>  <Rbt.Parameter_File>
/export/apps/rDock/src/rDock_2013.1_src/data/scripts/dock_solv.prm

>  <Rbt.Receptor>
prm/pocket_docking_7.prm

>  <SCORE>
-11.2871

>  <SCORE.INTER>
-11.2871

>  <SCORE.INTER.CONST>
1

>  <SCORE.INTER.POLAR>
0

>  <SCORE.INTER.ROT>
0

>  <SCORE.INTER.SOLV>
21.2064

>  <SCORE.INTER.VDW>
-18.1936

>  <SCORE.INTER.norm>
-1.0261

>  <SCORE.INTRA>
0

>  <SCORE.INTRA.DIHEDRAL>
0

>  <SCORE.INTRA.DIHEDRAL.0>
0

>  <SCORE.INTRA.POLAR>
0

>  <SCORE.INTRA.POLAR.0>
0

>  <SCORE.INTRA.REPUL>
0

>  <SCORE.INTRA.REPUL.0>
0

>  <SCORE.INTRA.SOLV>
0

>  <SCORE.INTRA.SOLV.lig_0>
-48.9558

>  <SCORE.INTRA.VDW>
0

>  <SCORE.INTRA.VDW.0>
0

>  <SCORE.INTRA.norm>
0

>  <SCORE.RESTR>
0

>  <SCORE.RESTR.CAVITY>
0

>  <SCORE.RESTR.norm>
0

>  <SCORE.SYSTEM>
0

>  <SCORE.SYSTEM.CONST>
0

>  <SCORE.SYSTEM.DIHEDRAL>
0

>  <SCORE.SYSTEM.SOLV>
0

>  <SCORE.SYSTEM.norm>
0

>  <SCORE.heavy>
11

>  <SCORE.norm>
-1.0261

>  <RMSD>
0.580

$$$$
ligand
 OpenBabel11021811493D
libRbt.so/2013.1/901 2013/11/27
 11 12  0  0  0  0  0  0  0  0999 V2000
   11.9607   11.5889    8.5669 N   0  0  0  0  0  0  0  0  0  0  0  0
   11.5901   12.8597    8.7924 C   0  0  0  0  0  0  0  0  0  0  0  0
   11.6296   13.3539   10.0854 N   0  0  0  0  0  0  0  0  0  0  0  0
   11.1831   13.6594    7.7932 N   0  0  0  0  0  0  0  0  0  0  0  0
   11.1333   13.2075    6.5184 C   0  0  0  0  0  0  0  0  0  0  0  0
   11.5161   11.8723    6.2336 C   0  0  0  0  0  0  0  0  0  0  0  0
   11.9405   11.0587    7.3260 C   0  0  0  0  0  0  0  0  0  0  0  0
   12.3280    9.7475    7.1255 N   0  0  0  0  0  0  0  0  0  0  0  0
   11.3681   11.6894    4.8983 N   0  0  0  0  0  0  0  0  0  0  0  0
   10.9329   12.7919    4.3567 C   0  0  0  0  0  0  0  0  0  0  0  0
   10.7735   13.7556    5.3141 N   0  0  0  0  0  0  0  0  0  0  0  0
  1  7  2  0  0  0  0
  1  2  1  0  0  0  0
  2  3  1  0  0  0  0
  2  4  2  0  0  0  0
  4  5  1  0  0  0  0
  5  6  2  0  0  0  0
  5 11  1  0  0  0  0
  6  7  1  0  0  0  0
  6  9  1  0  0  0  0
  7  8  1  0  0  0  0
  9 10  1  0  0  0  0
 10 11  2  0  0  0  0
M  END
>  <CHROM.1>
11.49134972,12.32365967,7.02557097,-1.12466163,1.23098197,-2.01755180

>  <Name>
ligand

>  <RI>
0

>  <Rbt.Current_Directory>
/home/itssahil/PROJECTS/Mol_Feturizer/New_Systems/rnas/4FEP

>  <Rbt.Executable>
rbdock ($Id: //depot/dev/client3/rdock/2013.1/src/exe/rbdock.cxx#4 $)

>  <Rbt.Library>
libRbt.so (2013.1, Build901 2013/11/27)

>  <Rbt.Parameter_File>
/export/apps/rDock/src/rDock_2013.1_src/data/scripts/dock_solv.prm

>  <Rbt.Receptor>
prm/blind_docking_40.prm

>  <SCORE>
-11.2775

>  <SCORE.INTER>
-11.2775

>  <SCORE.INTER.CONST>
1

>  <SCORE.INTER.POLAR>
0

>  <SCORE.INTER.ROT>
0

>  <SCORE.INTER.SOLV>
21.1362

>  <SCORE.INTER.VDW>
-18.1637

>  <SCORE.INTER.norm>
-1.02522

>  <SCORE.INTRA>
0

>  <SCORE.INTRA.DIHEDRAL>
0

>  <SCORE.INTRA.DIHEDRAL.0>
0

>  <SCORE.INTRA.POLAR>
0

>  <SCORE.INTRA.POLAR.0>
0

>  <SCORE.INTRA.REPUL>
0

>  <SCORE.INTRA.REPUL.0>
0

>  <SCORE.INTRA.SOLV>
0

>  <SCORE.INTRA.SOLV.lig_0>
-48.9558

>  <SCORE.INTRA.VDW>
0

>  <SCORE.INTRA.VDW.0>
0

>  <SCORE.INTRA.norm>
0

>  <SCORE.RESTR>
0

>  <SCORE.RESTR.CAVITY>
0

>  <SCORE.RESTR.norm>
0

>  <SCORE.SYSTEM>
0

>  <SCORE.SYSTEM.CONST>
0

>  <SCORE.SYSTEM.DIHEDRAL>
0

>  <SCORE.SYSTEM.SOLV>
0

>  <SCORE.SYSTEM.norm>
0

>  <SCORE.heavy>
11

>  <SCORE.norm>
-1.02522

>  <RMSD>
0.581

$$$$
ligand
 OpenBabel11021811493D
libRbt.so/2013.1/901 2013/11/27
 11 12  0  0  0  0  0  0  0  0999 V2000
   11.9672   11.5855    8.5650 N   0  0  0  0  0  0  0  0  0  0  0  0
   11.5982   12.8572    8.7876 C   0  0  0  0  0  0  0  0  0  0  0  0
   11.6403   13.3551   10.0791 N   0  0  0  0  0  0  0  0  0  0  0  0
   11.1902   13.6545    7.7868 N   0  0  0  0  0  0  0  0  0  0  0  0
   11.1379   13.1991    6.5133 C   0  0  0  0  0  0  0  0  0  0  0  0
   11.5190   11.8628    6.2317 C   0  0  0  0  0  0  0  0  0  0  0  0
   11.9444   11.0519    7.3257 C   0  0  0  0  0  0  0  0  0  0  0  0
   12.3304    9.7397    7.1282 N   0  0  0  0  0  0  0  0  0  0  0  0
   11.3686   11.6762    4.8971 N   0  0  0  0  0  0  0  0  0  0  0  0
   10.9334   12.7776    4.3532 C   0  0  0  0  0  0  0  0  0  0  0  0
   10.7765   13.7441    5.3081 N   0  0  0  0  0  0  0  0  0  0  0  0
  1  7  2  0  0  0  0
  1  2  1  0  0  0  0
  2  3  1  0  0  0  0
  2  4  2  0  0  0  0
  4  5  1  0  0  0  0
  5  6  2  0  0  0  0
  5 11  1  0  0  0  0
  6  7  1  0  0  0  0
  6  9  1  0  0  0  0
  7  8  1  0  0  0  0
  9 10  1  0  0  0  0
 10 11  2  0  0  0  0
M  END
>  <CHROM.1>
11.49596172,12.31637567,7.02241420,-1.11892106,1.23107255,-2.02577969

>  <Name>
ligand

>  <RI>
0

>  <Rbt.Current_Directory>
/home/itssahil/PROJECTS/Mol_Feturizer/New_Systems/rnas/4FEP

>  <Rbt.Executable>
rbdock ($Id: //depot/dev/client3/rdock/2013.1/src/exe/rbdock.cxx#4 $)

>  <Rbt.Library>
libRbt.so (2013.1, Build901 2013/11/27)

>  <Rbt.Parameter_File>
/export/apps/rDock/src/rDock_2013.1_src/data/scripts/dock_solv.prm

>  <Rbt.Receptor>
prm/pocket_docking_3.prm

>  <SCORE>
-11.2859

>  <SCORE.INTER>
-11.2859

>  <SCORE.INTER.CONST>
1

>  <SCORE.INTER.POLAR>
0

>  <SCORE.INTER.ROT>
0

>  <SCORE.INTER.SOLV>
21.1261

>  <SCORE.INTER.VDW>
-18.1659

>  <SCORE.INTER.norm>
-1.02599

>  <SCORE.INTRA>
0

>  <SCORE.INTRA.DIHEDRAL>
0

>  <SCORE.INTRA.DIHEDRAL.0>
0

>  <SCORE.INTRA.POLAR>
0

>  <SCORE.INTRA.POLAR.0>
0

>  <SCORE.INTRA.REPUL>
0

>  <SCORE.INTRA.REPUL.0>
0

>  <SCORE.INTRA.SOLV>
0

>  <SCORE.INTRA.SOLV.lig_0>
-48.9558

>  <SCORE.INTRA.VDW>
0

>  <SCORE.INTRA.VDW.0>
0

>  <SCORE.INTRA.norm>
0

>  <SCORE.RESTR>
0

>  <SCORE.RESTR.CAVITY>
0

>  <SCORE.RESTR.norm>
0

>  <SCORE.SYSTEM>
0

>  <SCORE.SYSTEM.CONST>
0

>  <SCORE.SYSTEM.DIHEDRAL>
0

>  <SCORE.SYSTEM.SOLV>
0

>  <SCORE.SYSTEM.norm>
0

>  <SCORE.heavy>
11

>  <SCORE.norm>
-1.02599

>  <RMSD>
0.581

$$$$
ligand
 OpenBabel11021811493D
libRbt.so/2013.1/901 2013/11/27
 11 12  0  0  0  0  0  0  0  0999 V2000
   11.9631   11.5840    8.5665 N   0  0  0  0  0  0  0  0  0  0  0  0
   11.5945   12.8559    8.7889 C   0  0  0  0  0  0  0  0  0  0  0  0
   11.6333   13.3528   10.0808 N   0  0  0  0  0  0  0  0  0  0  0  0
   11.1900   13.6542    7.7874 N   0  0  0  0  0  0  0  0  0  0  0  0
   11.1410   13.1996    6.5135 C   0  0  0  0  0  0  0  0  0  0  0  0
   11.5217   11.8632    6.2321 C   0  0  0  0  0  0  0  0  0  0  0  0
   11.9434   11.0512    7.3267 C   0  0  0  0  0  0  0  0  0  0  0  0
   12.3289    9.7389    7.1294 N   0  0  0  0  0  0  0  0  0  0  0  0
   11.3750   11.6777    4.8970 N   0  0  0  0  0  0  0  0  0  0  0  0
   10.9423   12.7797    4.3525 C   0  0  0  0  0  0  0  0  0  0  0  0
   10.7835   13.7458    5.3076 N   0  0  0  0  0  0  0  0  0  0  0  0
  1  7  2  0  0  0  0
  1  2  1  0  0  0  0
  2  3  1  0  0  0  0
  2  4  2  0  0  0  0
  4  5  1  0  0  0  0
  5  6  2  0  0  0  0
  5 11  1  0  0  0  0
  6  7  1  0  0  0  0
  6  9  1  0  0  0  0
  7  8  1  0  0  0  0
  9 10  1  0  0  0  0
 10 11  2  0  0  0  0
M  END
>  <CHROM.1>
11.49685835,12.31627553,7.02304561,-1.12557212,1.23304925,-2.01883501

>  <Name>
ligand

>  <RI>
0

>  <Rbt.Current_Directory>
/home/itssahil/PROJECTS/Mol_Feturizer/New_Systems/rnas/4FEP

>  <Rbt.Executable>
rbdock ($Id: //depot/dev/client3/rdock/2013.1/src/exe/rbdock.cxx#4 $)

>  <Rbt.Library>
libRbt.so (2013.1, Build901 2013/11/27)

>  <Rbt.Parameter_File>
/export/apps/rDock/src/rDock_2013.1_src/data/scripts/dock_solv.prm

>  <Rbt.Receptor>
prm/pocket_docking_4.prm

>  <SCORE>
-11.2866

>  <SCORE.INTER>
-11.2866

>  <SCORE.INTER.CONST>
1

>  <SCORE.INTER.POLAR>
0

>  <SCORE.INTER.ROT>
0

>  <SCORE.INTER.SOLV>
21.1353

>  <SCORE.INTER.VDW>
-18.1695

>  <SCORE.INTER.norm>
-1.02606

>  <SCORE.INTRA>
0

>  <SCORE.INTRA.DIHEDRAL>
0

>  <SCORE.INTRA.DIHEDRAL.0>
0

>  <SCORE.INTRA.POLAR>
0

>  <SCORE.INTRA.POLAR.0>
0

>  <SCORE.INTRA.REPUL>
0

>  <SCORE.INTRA.REPUL.0>
0

>  <SCORE.INTRA.SOLV>
0

>  <SCORE.INTRA.SOLV.lig_0>
-48.9558

>  <SCORE.INTRA.VDW>
0

>  <SCORE.INTRA.VDW.0>
0

>  <SCORE.INTRA.norm>
0

>  <SCORE.RESTR>
0

>  <SCORE.RESTR.CAVITY>
0

>  <SCORE.RESTR.norm>
0

>  <SCORE.SYSTEM>
0

>  <SCORE.SYSTEM.CONST>
0

>  <SCORE.SYSTEM.DIHEDRAL>
0

>  <SCORE.SYSTEM.SOLV>
0

>  <SCORE.SYSTEM.norm>
0

>  <SCORE.heavy>
11

>  <SCORE.norm>
-1.02606

>  <RMSD>
0.581

$$$$
ligand
 OpenBabel11021811493D
libRbt.so/2013.1/901 2013/11/27
 11 12  0  0  0  0  0  0  0  0999 V2000
   11.9517   11.5873    8.5688 N   0  0  0  0  0  0  0  0  0  0  0  0
   11.5818   12.8591    8.7893 C   0  0  0  0  0  0  0  0  0  0  0  0
   11.6181   13.3574   10.0808 N   0  0  0  0  0  0  0  0  0  0  0  0
   11.1784   13.6561    7.7864 N   0  0  0  0  0  0  0  0  0  0  0  0
   11.1318   13.2002    6.5129 C   0  0  0  0  0  0  0  0  0  0  0  0
   11.5140   11.8638    6.2334 C   0  0  0  0  0  0  0  0  0  0  0  0
   11.9344   11.0532    7.3295 C   0  0  0  0  0  0  0  0  0  0  0  0
   12.3212    9.7409    7.1342 N   0  0  0  0  0  0  0  0  0  0  0  0
   11.3696   11.6768    4.8982 N   0  0  0  0  0  0  0  0  0  0  0  0
   10.9370   12.7780    4.3520 C   0  0  0  0  0  0  0  0  0  0  0  0
   10.7759   13.7449    5.3058 N   0  0  0  0  0  0  0  0  0  0  0  0
  1  7  2  0  0  0  0
  1  2  1  0  0  0  0
  2  3  1  0  0  0  0
  2  4  2  0  0  0  0
  4  5  1  0  0  0  0
  5  6  2  0  0  0  0
  5 11  1  0  0  0  0
  6  7  1  0  0  0  0
  6  9  1  0  0  0  0
  7  8  1  0  0  0  0
  9 10  1  0  0  0  0
 10 11  2  0  0  0  0
M  END
>  <CHROM.1>
11.48745618,12.31763993,7.02386328,-1.13101469,1.23311206,-2.01471115

>  <Name>
ligand

>  <RI>
0

>  <Rbt.Current_Directory>
/home/itssahil/PROJECTS/Mol_Feturizer/New_Systems/rnas/4FEP

>  <Rbt.Executable>
rbdock ($Id: //depot/dev/client3/rdock/2013.1/src/exe/rbdock.cxx#4 $)

>  <Rbt.Library>
libRbt.so (2013.1, Build901 2013/11/27)

>  <Rbt.Parameter_File>
/export/apps/rDock/src/rDock_2013.1_src/data/scripts/dock_solv.prm

>  <Rbt.Receptor>
prm/pocket_docking_4.prm

>  <SCORE>
-11.2862

>  <SCORE.INTER>
-11.2862

>  <SCORE.INTER.CONST>
1

>  <SCORE.INTER.POLAR>
0

>  <SCORE.INTER.ROT>
0

>  <SCORE.INTER.SOLV>
21.1711

>  <SCORE.INTER.VDW>
-18.1812

>  <SCORE.INTER.norm>
-1.02602

>  <SCORE.INTRA>
0

>  <SCORE.INTRA.DIHEDRAL>
0

>  <SCORE.INTRA.DIHEDRAL.0>
0

>  <SCORE.INTRA.POLAR>
0

>  <SCORE.INTRA.POLAR.0>
0

>  <SCORE.INTRA.REPUL>
0

>  <SCORE.INTRA.REPUL.0>
0

>  <SCORE.INTRA.SOLV>
0

>  <SCORE.INTRA.SOLV.lig_0>
-48.9558

>  <SCORE.INTRA.VDW>
0

>  <SCORE.INTRA.VDW.0>
0

>  <SCORE.INTRA.norm>
0

>  <SCORE.RESTR>
0

>  <SCORE.RESTR.CAVITY>
0

>  <SCORE.RESTR.norm>
0

>  <SCORE.SYSTEM>
0

>  <SCORE.SYSTEM.CONST>
0

>  <SCORE.SYSTEM.DIHEDRAL>
0

>  <SCORE.SYSTEM.SOLV>
0

>  <SCORE.SYSTEM.norm>
0

>  <SCORE.heavy>
11

>  <SCORE.norm>
-1.02602

>  <RMSD>
0.581

$$$$
ligand
 OpenBabel11021811493D
libRbt.so/2013.1/901 2013/11/27
 11 12  0  0  0  0  0  0  0  0999 V2000
   11.9496   11.5876    8.5692 N   0  0  0  0  0  0  0  0  0  0  0  0
   11.5794   12.8594    8.7888 C   0  0  0  0  0  0  0  0  0  0  0  0
   11.6145   13.3583   10.0801 N   0  0  0  0  0  0  0  0  0  0  0  0
   11.1767   13.6559    7.7852 N   0  0  0  0  0  0  0  0  0  0  0  0
   11.1313   13.1994    6.5119 C   0  0  0  0  0  0  0  0  0  0  0  0
   11.5139   11.8630    6.2333 C   0  0  0  0  0  0  0  0  0  0  0  0
   11.9335   11.0529    7.3302 C   0  0  0  0  0  0  0  0  0  0  0  0
   12.3207    9.7406    7.1358 N   0  0  0  0  0  0  0  0  0  0  0  0
   11.3707   11.6753    4.8981 N   0  0  0  0  0  0  0  0  0  0  0  0
   10.9384   12.7762    4.3510 C   0  0  0  0  0  0  0  0  0  0  0  0
   10.7763   13.7435    5.3043 N   0  0  0  0  0  0  0  0  0  0  0  0
  1  7  2  0  0  0  0
  1  2  1  0  0  0  0
  2  3  1  0  0  0  0
  2  4  2  0  0  0  0
  4  5  1  0  0  0  0
  5  6  2  0  0  0  0
  5 11  1  0  0  0  0
  6  7  1  0  0  0  0
  6  9  1  0  0  0  0
  7  8  1  0  0  0  0
  9 10  1  0  0  0  0
 10 11  2  0  0  0  0
M  END
>  <CHROM.1>
11.48663779,12.31714451,7.02354036,-1.13351350,1.23333928,-2.01280971

>  <Name>
ligand

>  <RI>
0

>  <Rbt.Current_Directory>
/home/itssahil/PROJECTS/Mol_Feturizer/New_Systems/rnas/4FEP

>  <Rbt.Executable>
rbdock ($Id: //depot/dev/client3/rdock/2013.1/src/exe/rbdock.cxx#4 $)

>  <Rbt.Library>
libRbt.so (2013.1, Build901 2013/11/27)

>  <Rbt.Parameter_File>
/export/apps/rDock/src/rDock_2013.1_src/data/scripts/dock_solv.prm

>  <Rbt.Receptor>
prm/pocket_docking_6.prm

>  <SCORE>
-11.2873

>  <SCORE.INTER>
-11.2873

>  <SCORE.INTER.CONST>
1

>  <SCORE.INTER.POLAR>
0

>  <SCORE.INTER.ROT>
0

>  <SCORE.INTER.SOLV>
21.1751

>  <SCORE.INTER.VDW>
-18.1832

>  <SCORE.INTER.norm>
-1.02612

>  <SCORE.INTRA>
0

>  <SCORE.INTRA.DIHEDRAL>
0

>  <SCORE.INTRA.DIHEDRAL.0>
0

>  <SCORE.INTRA.POLAR>
0

>  <SCORE.INTRA.POLAR.0>
0

>  <SCORE.INTRA.REPUL>
0

>  <SCORE.INTRA.REPUL.0>
0

>  <SCORE.INTRA.SOLV>
0

>  <SCORE.INTRA.SOLV.lig_0>
-48.9558

>  <SCORE.INTRA.VDW>
0

>  <SCORE.INTRA.VDW.0>
0

>  <SCORE.INTRA.norm>
0

>  <SCORE.RESTR>
0

>  <SCORE.RESTR.CAVITY>
0

>  <SCORE.RESTR.norm>
0

>  <SCORE.SYSTEM>
0

>  <SCORE.SYSTEM.CONST>
0

>  <SCORE.SYSTEM.DIHEDRAL>
0

>  <SCORE.SYSTEM.SOLV>
0

>  <SCORE.SYSTEM.norm>
0

>  <SCORE.heavy>
11

>  <SCORE.norm>
-1.02612

>  <RMSD>
0.581

$$$$
ligand
 OpenBabel11021811493D
libRbt.so/2013.1/901 2013/11/27
 11 12  0  0  0  0  0  0  0  0999 V2000
   11.9587   11.5876    8.5680 N   0  0  0  0  0  0  0  0  0  0  0  0
   11.5908   12.8597    8.7897 C   0  0  0  0  0  0  0  0  0  0  0  0
   11.6313   13.3579   10.0811 N   0  0  0  0  0  0  0  0  0  0  0  0
   11.1854   13.6572    7.7880 N   0  0  0  0  0  0  0  0  0  0  0  0
   11.1347   13.2015    6.5145 C   0  0  0  0  0  0  0  0  0  0  0  0
   11.5147   11.8648    6.2339 C   0  0  0  0  0  0  0  0  0  0  0  0
   11.9375   11.0536    7.3287 C   0  0  0  0  0  0  0  0  0  0  0  0
   12.3224    9.7410    7.1322 N   0  0  0  0  0  0  0  0  0  0  0  0
   11.3664   11.6780    4.8991 N   0  0  0  0  0  0  0  0  0  0  0  0
   10.9334   12.7797    4.3542 C   0  0  0  0  0  0  0  0  0  0  0  0
   10.7760   13.7467    5.3086 N   0  0  0  0  0  0  0  0  0  0  0  0
  1  7  2  0  0  0  0
  1  2  1  0  0  0  0
  2  3  1  0  0  0  0
  2  4  2  0  0  0  0
  4  5  1  0  0  0  0
  5  6  2  0  0  0  0
  5 11  1  0  0  0  0
  6  7  1  0  0  0  0
  6  9  1  0  0  0  0
  7  8  1  0  0  0  0
  9 10  1  0  0  0  0
 10 11  2  0  0  0  0
M  END
>  <CHROM.1>
11.49093079,12.31854774,7.02444379,-1.12199162,1.23281257,-2.02313101

>  <Name>
ligand

>  <RI>
0

>  <Rbt.Current_Directory>
/home/itssahil/PROJECTS/Mol_Feturizer/New_Systems/rnas/4FEP

>  <Rbt.Executable>
rbdock ($Id: //depot/dev/client3/rdock/2013.1/src/exe/rbdock.cxx#4 $)

>  <Rbt.Library>
libRbt.so (2013.1, Build901 2013/11/27)

>  <Rbt.Parameter_File>
/export/apps/rDock/src/rDock_2013.1_src/data/scripts/dock_solv.prm

>  <Rbt.Receptor>
prm/pocket_docking_7.prm

>  <SCORE>
-11.2841

>  <SCORE.INTER>
-11.2841

>  <SCORE.INTER.CONST>
1

>  <SCORE.INTER.POLAR>
0

>  <SCORE.INTER.ROT>
0

>  <SCORE.INTER.SOLV>
21.1642

>  <SCORE.INTER.VDW>
-18.1775

>  <SCORE.INTER.norm>
-1.02583

>  <SCORE.INTRA>
0

>  <SCORE.INTRA.DIHEDRAL>
0

>  <SCORE.INTRA.DIHEDRAL.0>
0

>  <SCORE.INTRA.POLAR>
0

>  <SCORE.INTRA.POLAR.0>
0

>  <SCORE.INTRA.REPUL>
0

>  <SCORE.INTRA.REPUL.0>
0

>  <SCORE.INTRA.SOLV>
0

>  <SCORE.INTRA.SOLV.lig_0>
-48.9558

>  <SCORE.INTRA.VDW>
0

>  <SCORE.INTRA.VDW.0>
0

>  <SCORE.INTRA.norm>
0

>  <SCORE.RESTR>
0

>  <SCORE.RESTR.CAVITY>
0

>  <SCORE.RESTR.norm>
0

>  <SCORE.SYSTEM>
0

>  <SCORE.SYSTEM.CONST>
0

>  <SCORE.SYSTEM.DIHEDRAL>
0

>  <SCORE.SYSTEM.SOLV>
0

>  <SCORE.SYSTEM.norm>
0

>  <SCORE.heavy>
11

>  <SCORE.norm>
-1.02583

>  <RMSD>
0.581

$$$$
ligand
 OpenBabel11021811493D
libRbt.so/2013.1/901 2013/11/27
 11 12  0  0  0  0  0  0  0  0999 V2000
   11.9675   11.5868    8.5668 N   0  0  0  0  0  0  0  0  0  0  0  0
   11.6005   12.8589    8.7903 C   0  0  0  0  0  0  0  0  0  0  0  0
   11.6431   13.3556   10.0822 N   0  0  0  0  0  0  0  0  0  0  0  0
   11.1939   13.6576    7.7901 N   0  0  0  0  0  0  0  0  0  0  0  0
   11.1411   13.2033    6.5162 C   0  0  0  0  0  0  0  0  0  0  0  0
   11.5202   11.8667    6.2336 C   0  0  0  0  0  0  0  0  0  0  0  0
   11.9442   11.0542    7.3269 C   0  0  0  0  0  0  0  0  0  0  0  0
   12.3282    9.7416    7.1284 N   0  0  0  0  0  0  0  0  0  0  0  0
   11.3698   11.6815    4.8988 N   0  0  0  0  0  0  0  0  0  0  0  0
   10.9364   12.7839    4.3557 C   0  0  0  0  0  0  0  0  0  0  0  0
   10.7809   13.7499    5.3114 N   0  0  0  0  0  0  0  0  0  0  0  0
  1  7  2  0  0  0  0
  1  2  1  0  0  0  0
  2  3  1  0  0  0  0
  2  4  2  0  0  0  0
  4  5  1  0  0  0  0
  5  6  2  0  0  0  0
  5 11  1  0  0  0  0
  6  7  1  0  0  0  0
  6  9  1  0  0  0  0
  7  8  1  0  0  0  0
  9 10  1  0  0  0  0
 10 11  2  0  0  0  0
M  END
>  <CHROM.1>
11.49773252,12.31963108,7.02465675,-1.11734660,1.23256028,-2.02644328

>  <Name>
ligand

>  <RI>
0

>  <Rbt.Current_Directory>
/home/itssahil/PROJECTS/Mol_Feturizer/New_Systems/rnas/4FEP

>  <Rbt.Executable>
rbdock ($Id: //depot/dev/client3/rdock/2013.1/src/exe/rbdock.cxx#4 $)

>  <Rbt.Library>
libRbt.so (2013.1, Build901 2013/11/27)

>  <Rbt.Parameter_File>
/export/apps/rDock/src/rDock_2013.1_src/data/scripts/dock_solv.prm

>  <Rbt.Receptor>
prm/pocket_docking_7.prm

>  <SCORE>
-11.2824

>  <SCORE.INTER>
-11.2824

>  <SCORE.INTER.CONST>
1

>  <SCORE.INTER.POLAR>
0

>  <SCORE.INTER.ROT>
0

>  <SCORE.INTER.SOLV>
21.1377

>  <SCORE.INTER.VDW>
-18.1675

>  <SCORE.INTER.norm>
-1.02567

>  <SCORE.INTRA>
0

>  <SCORE.INTRA.DIHEDRAL>
0

>  <SCORE.INTRA.DIHEDRAL.0>
0

>  <SCORE.INTRA.POLAR>
0

>  <SCORE.INTRA.POLAR.0>
0

>  <SCORE.INTRA.REPUL>
0

>  <SCORE.INTRA.REPUL.0>
0

>  <SCORE.INTRA.SOLV>
0

>  <SCORE.INTRA.SOLV.lig_0>
-48.9558

>  <SCORE.INTRA.VDW>
0

>  <SCORE.INTRA.VDW.0>
0

>  <SCORE.INTRA.norm>
0

>  <SCORE.RESTR>
0

>  <SCORE.RESTR.CAVITY>
0

>  <SCORE.RESTR.norm>
0

>  <SCORE.SYSTEM>
0

>  <SCORE.SYSTEM.CONST>
0

>  <SCORE.SYSTEM.DIHEDRAL>
0

>  <SCORE.SYSTEM.SOLV>
0

>  <SCORE.SYSTEM.norm>
0

>  <SCORE.heavy>
11

>  <SCORE.norm>
-1.02567

>  <RMSD>
0.581

$$$$
ligand
 OpenBabel11021811493D
libRbt.so/2013.1/901 2013/11/27
 11 12  0  0  0  0  0  0  0  0999 V2000
   11.9652   11.5893    8.5678 N   0  0  0  0  0  0  0  0  0  0  0  0
   11.5999   12.8624    8.7886 C   0  0  0  0  0  0  0  0  0  0  0  0
   11.6429   13.3617   10.0795 N   0  0  0  0  0  0  0  0  0  0  0  0
   11.1947   13.6596    7.7867 N   0  0  0  0  0  0  0  0  0  0  0  0
   11.1416   13.2028    6.5138 C   0  0  0  0  0  0  0  0  0  0  0  0
   11.5188   11.8651    6.2339 C   0  0  0  0  0  0  0  0  0  0  0  0
   11.9414   11.0542    7.3290 C   0  0  0  0  0  0  0  0  0  0  0  0
   12.3236    9.7407    7.1333 N   0  0  0  0  0  0  0  0  0  0  0  0
   11.3684   11.6773    4.8995 N   0  0  0  0  0  0  0  0  0  0  0  0
   10.9367   12.7793    4.3540 C   0  0  0  0  0  0  0  0  0  0  0  0
   10.7823   13.7474    5.3077 N   0  0  0  0  0  0  0  0  0  0  0  0
  1  7  2  0  0  0  0
  1  2  1  0  0  0  0
  2  3  1  0  0  0  0
  2  4  2  0  0  0  0
  4  5  1  0  0  0  0
  5  6  2  0  0  0  0
  5 11  1  0  0  0  0
  6  7  1  0  0  0  0
  6  9  1  0  0  0  0
  7  8  1  0  0  0  0
  9 10  1  0  0  0  0
 10 11  2  0  0  0  0
M  END
>  <CHROM.1>
11.49678187,12.31964093,7.02406726,-1.11609374,1.23391846,-2.02966182

>  <Name>
ligand

>  <RI>
0

>  <Rbt.Current_Directory>
/home/itssahil/PROJECTS/Mol_Feturizer/New_Systems/rnas/4FEP

>  <Rbt.Executable>
rbdock ($Id: //depot/dev/client3/rdock/2013.1/src/exe/rbdock.cxx#4 $)

>  <Rbt.Library>
libRbt.so (2013.1, Build901 2013/11/27)

>  <Rbt.Parameter_File>
/export/apps/rDock/src/rDock_2013.1_src/data/scripts/dock_solv.prm

>  <Rbt.Receptor>
prm/pocket_docking_8.prm

>  <SCORE>
-11.2833

>  <SCORE.INTER>
-11.2833

>  <SCORE.INTER.CONST>
1

>  <SCORE.INTER.POLAR>
0

>  <SCORE.INTER.ROT>
0

>  <SCORE.INTER.SOLV>
21.1634

>  <SCORE.INTER.VDW>
-18.1767

>  <SCORE.INTER.norm>
-1.02575

>  <SCORE.INTRA>
0

>  <SCORE.INTRA.DIHEDRAL>
0

>  <SCORE.INTRA.DIHEDRAL.0>
0

>  <SCORE.INTRA.POLAR>
0

>  <SCORE.INTRA.POLAR.0>
0

>  <SCORE.INTRA.REPUL>
0

>  <SCORE.INTRA.REPUL.0>
0

>  <SCORE.INTRA.SOLV>
0

>  <SCORE.INTRA.SOLV.lig_0>
-48.9558

>  <SCORE.INTRA.VDW>
0

>  <SCORE.INTRA.VDW.0>
0

>  <SCORE.INTRA.norm>
0

>  <SCORE.RESTR>
0

>  <SCORE.RESTR.CAVITY>
0

>  <SCORE.RESTR.norm>
0

>  <SCORE.SYSTEM>
0

>  <SCORE.SYSTEM.CONST>
0

>  <SCORE.SYSTEM.DIHEDRAL>
0

>  <SCORE.SYSTEM.SOLV>
0

>  <SCORE.SYSTEM.norm>
0

>  <SCORE.heavy>
11

>  <SCORE.norm>
-1.02575

>  <RMSD>
0.581

$$$$
ligand
 OpenBabel11021811493D
libRbt.so/2013.1/901 2013/11/27
 11 12  0  0  0  0  0  0  0  0999 V2000
   11.9605   11.5852    8.5661 N   0  0  0  0  0  0  0  0  0  0  0  0
   11.5914   12.8571    8.7874 C   0  0  0  0  0  0  0  0  0  0  0  0
   11.6289   13.3547   10.0791 N   0  0  0  0  0  0  0  0  0  0  0  0
   11.1877   13.6548    7.7852 N   0  0  0  0  0  0  0  0  0  0  0  0
   11.1399   13.1995    6.5115 C   0  0  0  0  0  0  0  0  0  0  0  0
   11.5212   11.8631    6.2311 C   0  0  0  0  0  0  0  0  0  0  0  0
   11.9421   11.0517    7.3265 C   0  0  0  0  0  0  0  0  0  0  0  0
   12.3281    9.7394    7.1303 N   0  0  0  0  0  0  0  0  0  0  0  0
   11.3758   11.6768    4.8959 N   0  0  0  0  0  0  0  0  0  0  0  0
   10.9433   12.7784    4.3505 C   0  0  0  0  0  0  0  0  0  0  0  0
   10.7834   13.7450    5.3050 N   0  0  0  0  0  0  0  0  0  0  0  0
  1  7  2  0  0  0  0
  1  2  1  0  0  0  0
  2  3  1  0  0  0  0
  2  4  2  0  0  0  0
  4  5  1  0  0  0  0
  5  6  2  0  0  0  0
  5 11  1  0  0  0  0
  6  7  1  0  0  0  0
  6  9  1  0  0  0  0
  7  8  1  0  0  0  0
  9 10  1  0  0  0  0
 10 11  2  0  0  0  0
M  END
>  <CHROM.1>
11.49553010,12.31651743,7.02177943,-1.12834383,1.23324505,-2.01674080

>  <Name>
ligand

>  <RI>
0

>  <Rbt.Current_Directory>
/home/itssahil/PROJECTS/Mol_Feturizer/New_Systems/rnas/4FEP

>  <Rbt.Executable>
rbdock ($Id: //depot/dev/client3/rdock/2013.1/src/exe/rbdock.cxx#4 $)

>  <Rbt.Library>
libRbt.so (2013.1, Build901 2013/11/27)

>  <Rbt.Parameter_File>
/export/apps/rDock/src/rDock_2013.1_src/data/scripts/dock_solv.prm

>  <Rbt.Receptor>
prm/blind_docking_40.prm

>  <SCORE>
-11.2867

>  <SCORE.INTER>
-11.2867

>  <SCORE.INTER.CONST>
1

>  <SCORE.INTER.POLAR>
0

>  <SCORE.INTER.ROT>
0

>  <SCORE.INTER.SOLV>
21.1416

>  <SCORE.INTER.VDW>
-18.1716

>  <SCORE.INTER.norm>
-1.02606

>  <SCORE.INTRA>
0

>  <SCORE.INTRA.DIHEDRAL>
0

>  <SCORE.INTRA.DIHEDRAL.0>
0

>  <SCORE.INTRA.POLAR>
0

>  <SCORE.INTRA.POLAR.0>
0

>  <SCORE.INTRA.REPUL>
0

>  <SCORE.INTRA.REPUL.0>
0

>  <SCORE.INTRA.SOLV>
0

>  <SCORE.INTRA.SOLV.lig_0>
-48.9558

>  <SCORE.INTRA.VDW>
0

>  <SCORE.INTRA.VDW.0>
0

>  <SCORE.INTRA.norm>
0

>  <SCORE.RESTR>
0

>  <SCORE.RESTR.CAVITY>
0

>  <SCORE.RESTR.norm>
0

>  <SCORE.SYSTEM>
0

>  <SCORE.SYSTEM.CONST>
0

>  <SCORE.SYSTEM.DIHEDRAL>
0

>  <SCORE.SYSTEM.SOLV>
0

>  <SCORE.SYSTEM.norm>
0

>  <SCORE.heavy>
11

>  <SCORE.norm>
-1.02606

>  <RMSD>
0.582

$$$$
ligand
 OpenBabel11021811493D
libRbt.so/2013.1/901 2013/11/27
 11 12  0  0  0  0  0  0  0  0999 V2000
   11.9499   11.5873    8.5683 N   0  0  0  0  0  0  0  0  0  0  0  0
   11.5800   12.8591    8.7883 C   0  0  0  0  0  0  0  0  0  0  0  0
   11.6155   13.3577   10.0797 N   0  0  0  0  0  0  0  0  0  0  0  0
   11.1772   13.6559    7.7850 N   0  0  0  0  0  0  0  0  0  0  0  0
   11.1313   13.1998    6.5115 C   0  0  0  0  0  0  0  0  0  0  0  0
   11.5137   11.8633    6.2326 C   0  0  0  0  0  0  0  0  0  0  0  0
   11.9335   11.0529    7.3291 C   0  0  0  0  0  0  0  0  0  0  0  0
   12.3203    9.7406    7.1343 N   0  0  0  0  0  0  0  0  0  0  0  0
   11.3701   11.6760    4.8973 N   0  0  0  0  0  0  0  0  0  0  0  0
   10.9379   12.7771    4.3506 C   0  0  0  0  0  0  0  0  0  0  0  0
   10.7762   13.7442    5.3042 N   0  0  0  0  0  0  0  0  0  0  0  0
  1  7  2  0  0  0  0
  1  2  1  0  0  0  0
  2  3  1  0  0  0  0
  2  4  2  0  0  0  0
  4  5  1  0  0  0  0
  5  6  2  0  0  0  0
  5 11  1  0  0  0  0
  6  7  1  0  0  0  0
  6  9  1  0  0  0  0
  7  8  1  0  0  0  0
  9 10  1  0  0  0  0
 10 11  2  0  0  0  0
M  END
>  <CHROM.1>
11.48668116,12.31731920,7.02291560,-1.13265413,1.23338762,-2.01337349

>  <Name>
ligand

>  <RI>
0

>  <Rbt.Current_Directory>
/home/itssahil/PROJECTS/Mol_Feturizer/New_Systems/rnas/4FEP

>  <Rbt.Executable>
rbdock ($Id: //depot/dev/client3/rdock/2013.1/src/exe/rbdock.cxx#4 $)

>  <Rbt.Library>
libRbt.so (2013.1, Build901 2013/11/27)

>  <Rbt.Parameter_File>
/export/apps/rDock/src/rDock_2013.1_src/data/scripts/dock_solv.prm

>  <Rbt.Receptor>
prm/blind_docking_60.prm

>  <SCORE>
-11.286

>  <SCORE.INTER>
-11.286

>  <SCORE.INTER.CONST>
1

>  <SCORE.INTER.POLAR>
0

>  <SCORE.INTER.ROT>
0

>  <SCORE.INTER.SOLV>
21.1757

>  <SCORE.INTER.VDW>
-18.1826

>  <SCORE.INTER.norm>
-1.026

>  <SCORE.INTRA>
0

>  <SCORE.INTRA.DIHEDRAL>
0

>  <SCORE.INTRA.DIHEDRAL.0>
0

>  <SCORE.INTRA.POLAR>
0

>  <SCORE.INTRA.POLAR.0>
0

>  <SCORE.INTRA.REPUL>
0

>  <SCORE.INTRA.REPUL.0>
0

>  <SCORE.INTRA.SOLV>
0

>  <SCORE.INTRA.SOLV.lig_0>
-48.9558

>  <SCORE.INTRA.VDW>
0

>  <SCORE.INTRA.VDW.0>
0

>  <SCORE.INTRA.norm>
0

>  <SCORE.RESTR>
0

>  <SCORE.RESTR.CAVITY>
0

>  <SCORE.RESTR.norm>
0

>  <SCORE.SYSTEM>
0

>  <SCORE.SYSTEM.CONST>
0

>  <SCORE.SYSTEM.DIHEDRAL>
0

>  <SCORE.SYSTEM.SOLV>
0

>  <SCORE.SYSTEM.norm>
0

>  <SCORE.heavy>
11

>  <SCORE.norm>
-1.026

>  <RMSD>
0.582

$$$$
ligand
 OpenBabel11021811493D
libRbt.so/2013.1/901 2013/11/27
 11 12  0  0  0  0  0  0  0  0999 V2000
   11.9603   11.5885    8.5665 N   0  0  0  0  0  0  0  0  0  0  0  0
   11.5919   12.8606    8.7876 C   0  0  0  0  0  0  0  0  0  0  0  0
   11.6326   13.3594   10.0788 N   0  0  0  0  0  0  0  0  0  0  0  0
   11.1856   13.6573    7.7856 N   0  0  0  0  0  0  0  0  0  0  0  0
   11.1347   13.2009    6.5125 C   0  0  0  0  0  0  0  0  0  0  0  0
   11.5153   11.8642    6.2324 C   0  0  0  0  0  0  0  0  0  0  0  0
   11.9388   11.0538    7.3275 C   0  0  0  0  0  0  0  0  0  0  0  0
   12.3243    9.7413    7.1316 N   0  0  0  0  0  0  0  0  0  0  0  0
   11.3665   11.6766    4.8978 N   0  0  0  0  0  0  0  0  0  0  0  0
   10.9328   12.7778    4.3524 C   0  0  0  0  0  0  0  0  0  0  0  0
   10.7752   13.7452    5.3064 N   0  0  0  0  0  0  0  0  0  0  0  0
  1  7  2  0  0  0  0
  1  2  1  0  0  0  0
  2  3  1  0  0  0  0
  2  4  2  0  0  0  0
  4  5  1  0  0  0  0
  5  6  2  0  0  0  0
  5 11  1  0  0  0  0
  6  7  1  0  0  0  0
  6  9  1  0  0  0  0
  7  8  1  0  0  0  0
  9 10  1  0  0  0  0
 10 11  2  0  0  0  0
M  END
>  <CHROM.1>
11.49155880,12.31836467,7.02272713,-1.12158811,1.23220013,-2.02404998

>  <Name>
ligand

>  <RI>
0

>  <Rbt.Current_Directory>
/home/itssahil/PROJECTS/Mol_Feturizer/New_Systems/rnas/4FEP

>  <Rbt.Executable>
rbdock ($Id: //depot/dev/client3/rdock/2013.1/src/exe/rbdock.cxx#4 $)

>  <Rbt.Library>
libRbt.so (2013.1, Build901 2013/11/27)

>  <Rbt.Parameter_File>
/export/apps/rDock/src/rDock_2013.1_src/data/scripts/dock_solv.prm

>  <Rbt.Receptor>
prm/pocket_docking_3.prm

>  <SCORE>
-11.2844

>  <SCORE.INTER>
-11.2844

>  <SCORE.INTER.CONST>
1

>  <SCORE.INTER.POLAR>
0

>  <SCORE.INTER.ROT>
0

>  <SCORE.INTER.SOLV>
21.1569

>  <SCORE.INTER.VDW>
-18.1752

>  <SCORE.INTER.norm>
-1.02585

>  <SCORE.INTRA>
0

>  <SCORE.INTRA.DIHEDRAL>
0

>  <SCORE.INTRA.DIHEDRAL.0>
0

>  <SCORE.INTRA.POLAR>
0

>  <SCORE.INTRA.POLAR.0>
0

>  <SCORE.INTRA.REPUL>
0

>  <SCORE.INTRA.REPUL.0>
0

>  <SCORE.INTRA.SOLV>
0

>  <SCORE.INTRA.SOLV.lig_0>
-48.9558

>  <SCORE.INTRA.VDW>
0

>  <SCORE.INTRA.VDW.0>
0

>  <SCORE.INTRA.norm>
0

>  <SCORE.RESTR>
0

>  <SCORE.RESTR.CAVITY>
0

>  <SCORE.RESTR.norm>
0

>  <SCORE.SYSTEM>
0

>  <SCORE.SYSTEM.CONST>
0

>  <SCORE.SYSTEM.DIHEDRAL>
0

>  <SCORE.SYSTEM.SOLV>
0

>  <SCORE.SYSTEM.norm>
0

>  <SCORE.heavy>
11

>  <SCORE.norm>
-1.02585

>  <RMSD>
0.582

$$$$
ligand
 OpenBabel11021811493D
libRbt.so/2013.1/901 2013/11/27
 11 12  0  0  0  0  0  0  0  0999 V2000
   11.9520   11.5876    8.5682 N   0  0  0  0  0  0  0  0  0  0  0  0
   11.5819   12.8594    8.7880 C   0  0  0  0  0  0  0  0  0  0  0  0
   11.6176   13.3583   10.0793 N   0  0  0  0  0  0  0  0  0  0  0  0
   11.1789   13.6560    7.7846 N   0  0  0  0  0  0  0  0  0  0  0  0
   11.1330   13.1996    6.5112 C   0  0  0  0  0  0  0  0  0  0  0  0
   11.5154   11.8631    6.2325 C   0  0  0  0  0  0  0  0  0  0  0  0
   11.9354   11.0530    7.3291 C   0  0  0  0  0  0  0  0  0  0  0  0
   12.3224    9.7407    7.1345 N   0  0  0  0  0  0  0  0  0  0  0  0
   11.3717   11.6756    4.8973 N   0  0  0  0  0  0  0  0  0  0  0  0
   10.9393   12.7765    4.3504 C   0  0  0  0  0  0  0  0  0  0  0  0
   10.7776   13.7437    5.3038 N   0  0  0  0  0  0  0  0  0  0  0  0
  1  7  2  0  0  0  0
  1  2  1  0  0  0  0
  2  3  1  0  0  0  0
  2  4  2  0  0  0  0
  4  5  1  0  0  0  0
  5  6  2  0  0  0  0
  5 11  1  0  0  0  0
  6  7  1  0  0  0  0
  6  9  1  0  0  0  0
  7  8  1  0  0  0  0
  9 10  1  0  0  0  0
 10 11  2  0  0  0  0
M  END
>  <CHROM.1>
11.48848380,12.31726536,7.02272106,-1.13241317,1.23324236,-2.01379642

>  <Name>
ligand

>  <RI>
0

>  <Rbt.Current_Directory>
/home/itssahil/PROJECTS/Mol_Feturizer/New_Systems/rnas/4FEP

>  <Rbt.Executable>
rbdock ($Id: //depot/dev/client3/rdock/2013.1/src/exe/rbdock.cxx#4 $)

>  <Rbt.Library>
libRbt.so (2013.1, Build901 2013/11/27)

>  <Rbt.Parameter_File>
/export/apps/rDock/src/rDock_2013.1_src/data/scripts/dock_solv.prm

>  <Rbt.Receptor>
prm/pocket_docking_3.prm

>  <SCORE>
-11.2871

>  <SCORE.INTER>
-11.2871

>  <SCORE.INTER.CONST>
1

>  <SCORE.INTER.POLAR>
0

>  <SCORE.INTER.ROT>
0

>  <SCORE.INTER.SOLV>
21.168

>  <SCORE.INTER.VDW>
-18.1808

>  <SCORE.INTER.norm>
-1.0261

>  <SCORE.INTRA>
0

>  <SCORE.INTRA.DIHEDRAL>
0

>  <SCORE.INTRA.DIHEDRAL.0>
0

>  <SCORE.INTRA.POLAR>
0

>  <SCORE.INTRA.POLAR.0>
0

>  <SCORE.INTRA.REPUL>
0

>  <SCORE.INTRA.REPUL.0>
0

>  <SCORE.INTRA.SOLV>
0

>  <SCORE.INTRA.SOLV.lig_0>
-48.9558

>  <SCORE.INTRA.VDW>
0

>  <SCORE.INTRA.VDW.0>
0

>  <SCORE.INTRA.norm>
0

>  <SCORE.RESTR>
0

>  <SCORE.RESTR.CAVITY>
0

>  <SCORE.RESTR.norm>
0

>  <SCORE.SYSTEM>
0

>  <SCORE.SYSTEM.CONST>
0

>  <SCORE.SYSTEM.DIHEDRAL>
0

>  <SCORE.SYSTEM.SOLV>
0

>  <SCORE.SYSTEM.norm>
0

>  <SCORE.heavy>
11

>  <SCORE.norm>
-1.0261

>  <RMSD>
0.582

$$$$
ligand
 OpenBabel11021811493D
libRbt.so/2013.1/901 2013/11/27
 11 12  0  0  0  0  0  0  0  0999 V2000
   11.9668   11.5845    8.5652 N   0  0  0  0  0  0  0  0  0  0  0  0
   11.5993   12.8567    8.7875 C   0  0  0  0  0  0  0  0  0  0  0  0
   11.6418   13.3546   10.0790 N   0  0  0  0  0  0  0  0  0  0  0  0
   11.1926   13.6544    7.7865 N   0  0  0  0  0  0  0  0  0  0  0  0
   11.1400   13.1989    6.5131 C   0  0  0  0  0  0  0  0  0  0  0  0
   11.5194   11.8621    6.2317 C   0  0  0  0  0  0  0  0  0  0  0  0
   11.9436   11.0507    7.3258 C   0  0  0  0  0  0  0  0  0  0  0  0
   12.3280    9.7381    7.1285 N   0  0  0  0  0  0  0  0  0  0  0  0
   11.3691   11.6756    4.8971 N   0  0  0  0  0  0  0  0  0  0  0  0
   10.9355   12.7775    4.3530 C   0  0  0  0  0  0  0  0  0  0  0  0
   10.7796   13.7443    5.3078 N   0  0  0  0  0  0  0  0  0  0  0  0
  1  7  2  0  0  0  0
  1  2  1  0  0  0  0
  2  3  1  0  0  0  0
  2  4  2  0  0  0  0
  4  5  1  0  0  0  0
  5  6  2  0  0  0  0
  5 11  1  0  0  0  0
  6  7  1  0  0  0  0
  6  9  1  0  0  0  0
  7  8  1  0  0  0  0
  9 10  1  0  0  0  0
 10 11  2  0  0  0  0
M  END
>  <CHROM.1>
11.49681458,12.31578028,7.02235263,-1.11783548,1.23231846,-2.02688947

>  <Name>
ligand

>  <RI>
0

>  <Rbt.Current_Directory>
/home/itssahil/PROJECTS/Mol_Feturizer/New_Systems/rnas/4FEP

>  <Rbt.Executable>
rbdock ($Id: //depot/dev/client3/rdock/2013.1/src/exe/rbdock.cxx#4 $)

>  <Rbt.Library>
libRbt.so (2013.1, Build901 2013/11/27)

>  <Rbt.Parameter_File>
/export/apps/rDock/src/rDock_2013.1_src/data/scripts/dock_solv.prm

>  <Rbt.Receptor>
prm/pocket_docking_6.prm

>  <SCORE>
-11.2853

>  <SCORE.INTER>
-11.2853

>  <SCORE.INTER.CONST>
1

>  <SCORE.INTER.POLAR>
0

>  <SCORE.INTER.ROT>
0

>  <SCORE.INTER.SOLV>
21.1369

>  <SCORE.INTER.VDW>
-18.1692

>  <SCORE.INTER.norm>
-1.02594

>  <SCORE.INTRA>
0

>  <SCORE.INTRA.DIHEDRAL>
0

>  <SCORE.INTRA.DIHEDRAL.0>
0

>  <SCORE.INTRA.POLAR>
0

>  <SCORE.INTRA.POLAR.0>
0

>  <SCORE.INTRA.REPUL>
0

>  <SCORE.INTRA.REPUL.0>
0

>  <SCORE.INTRA.SOLV>
0

>  <SCORE.INTRA.SOLV.lig_0>
-48.9558

>  <SCORE.INTRA.VDW>
0

>  <SCORE.INTRA.VDW.0>
0

>  <SCORE.INTRA.norm>
0

>  <SCORE.RESTR>
0

>  <SCORE.RESTR.CAVITY>
0

>  <SCORE.RESTR.norm>
0

>  <SCORE.SYSTEM>
0

>  <SCORE.SYSTEM.CONST>
0

>  <SCORE.SYSTEM.DIHEDRAL>
0

>  <SCORE.SYSTEM.SOLV>
0

>  <SCORE.SYSTEM.norm>
0

>  <SCORE.heavy>
11

>  <SCORE.norm>
-1.02594

>  <RMSD>
0.582

$$$$
ligand
 OpenBabel11021811493D
libRbt.so/2013.1/901 2013/11/27
 11 12  0  0  0  0  0  0  0  0999 V2000
   11.9608   11.5860    8.5662 N   0  0  0  0  0  0  0  0  0  0  0  0
   11.5917   12.8579    8.7874 C   0  0  0  0  0  0  0  0  0  0  0  0
   11.6303   13.3561   10.0788 N   0  0  0  0  0  0  0  0  0  0  0  0
   11.1868   13.6551    7.7852 N   0  0  0  0  0  0  0  0  0  0  0  0
   11.1379   13.1994    6.5117 C   0  0  0  0  0  0  0  0  0  0  0  0
   11.5192   11.8629    6.2315 C   0  0  0  0  0  0  0  0  0  0  0  0
   11.9413   11.0520    7.3269 C   0  0  0  0  0  0  0  0  0  0  0  0
   12.3274    9.7397    7.1308 N   0  0  0  0  0  0  0  0  0  0  0  0
   11.3725   11.6760    4.8966 N   0  0  0  0  0  0  0  0  0  0  0  0
   10.9393   12.7773    4.3511 C   0  0  0  0  0  0  0  0  0  0  0  0
   10.7801   13.7442    5.3054 N   0  0  0  0  0  0  0  0  0  0  0  0
  1  7  2  0  0  0  0
  1  2  1  0  0  0  0
  2  3  1  0  0  0  0
  2  4  2  0  0  0  0
  4  5  1  0  0  0  0
  5  6  2  0  0  0  0
  5 11  1  0  0  0  0
  6  7  1  0  0  0  0
  6  9  1  0  0  0  0
  7  8  1  0  0  0  0
  9 10  1  0  0  0  0
 10 11  2  0  0  0  0
M  END
>  <CHROM.1>
11.49416097,12.31664188,7.02204696,-1.12597116,1.23263209,-2.01939650

>  <Name>
ligand

>  <RI>
0

>  <Rbt.Current_Directory>
/home/itssahil/PROJECTS/Mol_Feturizer/New_Systems/rnas/4FEP

>  <Rbt.Executable>
rbdock ($Id: //depot/dev/client3/rdock/2013.1/src/exe/rbdock.cxx#4 $)

>  <Rbt.Library>
libRbt.so (2013.1, Build901 2013/11/27)

>  <Rbt.Parameter_File>
/export/apps/rDock/src/rDock_2013.1_src/data/scripts/dock_solv.prm

>  <Rbt.Receptor>
prm/pocket_docking_6.prm

>  <SCORE>
-11.2869

>  <SCORE.INTER>
-11.2869

>  <SCORE.INTER.CONST>
1

>  <SCORE.INTER.POLAR>
0

>  <SCORE.INTER.ROT>
0

>  <SCORE.INTER.SOLV>
21.144

>  <SCORE.INTER.VDW>
-18.1726

>  <SCORE.INTER.norm>
-1.02608

>  <SCORE.INTRA>
0

>  <SCORE.INTRA.DIHEDRAL>
0

>  <SCORE.INTRA.DIHEDRAL.0>
0

>  <SCORE.INTRA.POLAR>
0

>  <SCORE.INTRA.POLAR.0>
0

>  <SCORE.INTRA.REPUL>
0

>  <SCORE.INTRA.REPUL.0>
0

>  <SCORE.INTRA.SOLV>
0

>  <SCORE.INTRA.SOLV.lig_0>
-48.9558

>  <SCORE.INTRA.VDW>
0

>  <SCORE.INTRA.VDW.0>
0

>  <SCORE.INTRA.norm>
0

>  <SCORE.RESTR>
0

>  <SCORE.RESTR.CAVITY>
0

>  <SCORE.RESTR.norm>
0

>  <SCORE.SYSTEM>
0

>  <SCORE.SYSTEM.CONST>
0

>  <SCORE.SYSTEM.DIHEDRAL>
0

>  <SCORE.SYSTEM.SOLV>
0

>  <SCORE.SYSTEM.norm>
0

>  <SCORE.heavy>
11

>  <SCORE.norm>
-1.02608

>  <RMSD>
0.582

$$$$
ligand
 OpenBabel11021811493D
libRbt.so/2013.1/901 2013/11/27
 11 12  0  0  0  0  0  0  0  0999 V2000
   11.9644   11.5920    8.5691 N   0  0  0  0  0  0  0  0  0  0  0  0
   11.6016   12.8661    8.7884 C   0  0  0  0  0  0  0  0  0  0  0  0
   11.6451   13.3667   10.0788 N   0  0  0  0  0  0  0  0  0  0  0  0
   11.1985   13.6631    7.7854 N   0  0  0  0  0  0  0  0  0  0  0  0
   11.1449   13.2050    6.5130 C   0  0  0  0  0  0  0  0  0  0  0  0
   11.5195   11.8662    6.2348 C   0  0  0  0  0  0  0  0  0  0  0  0
   11.9399   11.0556    7.3309 C   0  0  0  0  0  0  0  0  0  0  0  0
   12.3195    9.7411    7.1368 N   0  0  0  0  0  0  0  0  0  0  0  0
   11.3693   11.6773    4.9005 N   0  0  0  0  0  0  0  0  0  0  0  0
   10.9401   12.7795    4.3537 C   0  0  0  0  0  0  0  0  0  0  0  0
   10.7873   13.7491    5.3062 N   0  0  0  0  0  0  0  0  0  0  0  0
  1  7  2  0  0  0  0
  1  2  1  0  0  0  0
  2  3  1  0  0  0  0
  2  4  2  0  0  0  0
  4  5  1  0  0  0  0
  5  6  2  0  0  0  0
  5 11  1  0  0  0  0
  6  7  1  0  0  0  0
  6  9  1  0  0  0  0
  7  8  1  0  0  0  0
  9 10  1  0  0  0  0
 10 11  2  0  0  0  0
M  END
>  <CHROM.1>
11.49811803,12.32164985,7.02441543,-1.11443471,1.23597233,-2.03231748

>  <Name>
ligand

>  <RI>
0

>  <Rbt.Current_Directory>
/home/itssahil/PROJECTS/Mol_Feturizer/New_Systems/rnas/4FEP

>  <Rbt.Executable>
rbdock ($Id: //depot/dev/client3/rdock/2013.1/src/exe/rbdock.cxx#4 $)

>  <Rbt.Library>
libRbt.so (2013.1, Build901 2013/11/27)

>  <Rbt.Parameter_File>
/export/apps/rDock/src/rDock_2013.1_src/data/scripts/dock_solv.prm

>  <Rbt.Receptor>
prm/pocket_docking_6.prm

>  <SCORE>
-11.2804

>  <SCORE.INTER>
-11.2804

>  <SCORE.INTER.CONST>
1

>  <SCORE.INTER.POLAR>
0

>  <SCORE.INTER.ROT>
0

>  <SCORE.INTER.SOLV>
21.1891

>  <SCORE.INTER.VDW>
-18.1833

>  <SCORE.INTER.norm>
-1.02549

>  <SCORE.INTRA>
0

>  <SCORE.INTRA.DIHEDRAL>
0

>  <SCORE.INTRA.DIHEDRAL.0>
0

>  <SCORE.INTRA.POLAR>
0

>  <SCORE.INTRA.POLAR.0>
0

>  <SCORE.INTRA.REPUL>
0

>  <SCORE.INTRA.REPUL.0>
0

>  <SCORE.INTRA.SOLV>
0

>  <SCORE.INTRA.SOLV.lig_0>
-48.9558

>  <SCORE.INTRA.VDW>
0

>  <SCORE.INTRA.VDW.0>
0

>  <SCORE.INTRA.norm>
0

>  <SCORE.RESTR>
0

>  <SCORE.RESTR.CAVITY>
0

>  <SCORE.RESTR.norm>
0

>  <SCORE.SYSTEM>
0

>  <SCORE.SYSTEM.CONST>
0

>  <SCORE.SYSTEM.DIHEDRAL>
0

>  <SCORE.SYSTEM.SOLV>
0

>  <SCORE.SYSTEM.norm>
0

>  <SCORE.heavy>
11

>  <SCORE.norm>
-1.02549

>  <RMSD>
0.582

$$$$
ligand
 OpenBabel11021811493D
libRbt.so/2013.1/901 2013/11/27
 11 12  0  0  0  0  0  0  0  0999 V2000
   11.9547   11.5901    8.5699 N   0  0  0  0  0  0  0  0  0  0  0  0
   11.5891   12.8635    8.7880 C   0  0  0  0  0  0  0  0  0  0  0  0
   11.6270   13.3640   10.0786 N   0  0  0  0  0  0  0  0  0  0  0  0
   11.1883   13.6600    7.7836 N   0  0  0  0  0  0  0  0  0  0  0  0
   11.1402   13.2020    6.5109 C   0  0  0  0  0  0  0  0  0  0  0  0
   11.5180   11.8638    6.2339 C   0  0  0  0  0  0  0  0  0  0  0  0
   11.9358   11.0538    7.3315 C   0  0  0  0  0  0  0  0  0  0  0  0
   12.3182    9.7399    7.1386 N   0  0  0  0  0  0  0  0  0  0  0  0
   11.3730   11.6749    4.8991 N   0  0  0  0  0  0  0  0  0  0  0  0
   10.9441   12.7765    4.3508 C   0  0  0  0  0  0  0  0  0  0  0  0
   10.7862   13.7456    5.3029 N   0  0  0  0  0  0  0  0  0  0  0  0
  1  7  2  0  0  0  0
  1  2  1  0  0  0  0
  2  3  1  0  0  0  0
  2  4  2  0  0  0  0
  4  5  1  0  0  0  0
  5  6  2  0  0  0  0
  5 11  1  0  0  0  0
  6  7  1  0  0  0  0
  6  9  1  0  0  0  0
  7  8  1  0  0  0  0
  9 10  1  0  0  0  0
 10 11  2  0  0  0  0
M  END
>  <CHROM.1>
11.49297411,12.31916369,7.02353621,-1.12669871,1.23610637,-2.02060199

>  <Name>
ligand

>  <RI>
0

>  <Rbt.Current_Directory>
/home/itssahil/PROJECTS/Mol_Feturizer/New_Systems/rnas/4FEP

>  <Rbt.Executable>
rbdock ($Id: //depot/dev/client3/rdock/2013.1/src/exe/rbdock.cxx#4 $)

>  <Rbt.Library>
libRbt.so (2013.1, Build901 2013/11/27)

>  <Rbt.Parameter_File>
/export/apps/rDock/src/rDock_2013.1_src/data/scripts/dock_solv.prm

>  <Rbt.Receptor>
prm/pocket_docking_8.prm

>  <SCORE>
-11.2858

>  <SCORE.INTER>
-11.2858

>  <SCORE.INTER.CONST>
1

>  <SCORE.INTER.POLAR>
0

>  <SCORE.INTER.ROT>
0

>  <SCORE.INTER.SOLV>
21.1934

>  <SCORE.INTER.VDW>
-18.1883

>  <SCORE.INTER.norm>
-1.02598

>  <SCORE.INTRA>
0

>  <SCORE.INTRA.DIHEDRAL>
0

>  <SCORE.INTRA.DIHEDRAL.0>
0

>  <SCORE.INTRA.POLAR>
0

>  <SCORE.INTRA.POLAR.0>
0

>  <SCORE.INTRA.REPUL>
0

>  <SCORE.INTRA.REPUL.0>
0

>  <SCORE.INTRA.SOLV>
0

>  <SCORE.INTRA.SOLV.lig_0>
-48.9558

>  <SCORE.INTRA.VDW>
0

>  <SCORE.INTRA.VDW.0>
0

>  <SCORE.INTRA.norm>
0

>  <SCORE.RESTR>
0

>  <SCORE.RESTR.CAVITY>
0

>  <SCORE.RESTR.norm>
0

>  <SCORE.SYSTEM>
0

>  <SCORE.SYSTEM.CONST>
0

>  <SCORE.SYSTEM.DIHEDRAL>
0

>  <SCORE.SYSTEM.SOLV>
0

>  <SCORE.SYSTEM.norm>
0

>  <SCORE.heavy>
11

>  <SCORE.norm>
-1.02598

>  <RMSD>
0.582

$$$$
ligand
 OpenBabel11021811493D
libRbt.so/2013.1/901 2013/11/27
 11 12  0  0  0  0  0  0  0  0999 V2000
   11.9691   11.5884    8.5594 N   0  0  0  0  0  0  0  0  0  0  0  0
   11.5937   12.8571    8.7883 C   0  0  0  0  0  0  0  0  0  0  0  0
   11.6363   13.3497   10.0818 N   0  0  0  0  0  0  0  0  0  0  0  0
   11.1789   13.6564    7.7919 N   0  0  0  0  0  0  0  0  0  0  0  0
   11.1260   13.2062    6.5166 C   0  0  0  0  0  0  0  0  0  0  0  0
   11.5136   11.8732    6.2284 C   0  0  0  0  0  0  0  0  0  0  0  0
   11.9462   11.0599    7.3178 C   0  0  0  0  0  0  0  0  0  0  0  0
   12.3388    9.7507    7.1138 N   0  0  0  0  0  0  0  0  0  0  0  0
   11.3610   11.6915    4.8934 N   0  0  0  0  0  0  0  0  0  0  0  0
   10.9185   12.7927    4.3552 C   0  0  0  0  0  0  0  0  0  0  0  0
   10.7587   13.7543    5.3146 N   0  0  0  0  0  0  0  0  0  0  0  0
  1  7  2  0  0  0  0
  1  2  1  0  0  0  0
  2  3  1  0  0  0  0
  2  4  2  0  0  0  0
  4  5  1  0  0  0  0
  5  6  2  0  0  0  0
  5 11  1  0  0  0  0
  6  7  1  0  0  0  0
  6  9  1  0  0  0  0
  7  8  1  0  0  0  0
  9 10  1  0  0  0  0
 10 11  2  0  0  0  0
M  END
>  <CHROM.1>
11.49010213,12.32323166,7.02107704,-1.11946401,1.22510966,-2.02100671

>  <Name>
ligand

>  <RI>
0

>  <Rbt.Current_Directory>
/home/itssahil/PROJECTS/Mol_Feturizer/New_Systems/rnas/4FEP

>  <Rbt.Executable>
rbdock ($Id: //depot/dev/client3/rdock/2013.1/src/exe/rbdock.cxx#4 $)

>  <Rbt.Library>
libRbt.so (2013.1, Build901 2013/11/27)

>  <Rbt.Parameter_File>
/export/apps/rDock/src/rDock_2013.1_src/data/scripts/dock_solv.prm

>  <Rbt.Receptor>
prm/blind_docking_40.prm

>  <SCORE>
-11.2702

>  <SCORE.INTER>
-11.2702

>  <SCORE.INTER.CONST>
1

>  <SCORE.INTER.POLAR>
0

>  <SCORE.INTER.ROT>
0

>  <SCORE.INTER.SOLV>
21.0777

>  <SCORE.INTER.VDW>
-18.1394

>  <SCORE.INTER.norm>
-1.02456

>  <SCORE.INTRA>
0

>  <SCORE.INTRA.DIHEDRAL>
0

>  <SCORE.INTRA.DIHEDRAL.0>
0

>  <SCORE.INTRA.POLAR>
0

>  <SCORE.INTRA.POLAR.0>
0

>  <SCORE.INTRA.REPUL>
0

>  <SCORE.INTRA.REPUL.0>
0

>  <SCORE.INTRA.SOLV>
0

>  <SCORE.INTRA.SOLV.lig_0>
-48.9558

>  <SCORE.INTRA.VDW>
0

>  <SCORE.INTRA.VDW.0>
0

>  <SCORE.INTRA.norm>
0

>  <SCORE.RESTR>
0

>  <SCORE.RESTR.CAVITY>
0

>  <SCORE.RESTR.norm>
0

>  <SCORE.SYSTEM>
0

>  <SCORE.SYSTEM.CONST>
0

>  <SCORE.SYSTEM.DIHEDRAL>
0

>  <SCORE.SYSTEM.SOLV>
0

>  <SCORE.SYSTEM.norm>
0

>  <SCORE.heavy>
11

>  <SCORE.norm>
-1.02456

>  <RMSD>
0.583

$$$$
ligand
 OpenBabel11021811493D
libRbt.so/2013.1/901 2013/11/27
 11 12  0  0  0  0  0  0  0  0999 V2000
   11.9632   11.5872    8.5649 N   0  0  0  0  0  0  0  0  0  0  0  0
   11.5938   12.8587    8.7878 C   0  0  0  0  0  0  0  0  0  0  0  0
   11.6331   13.3554   10.0798 N   0  0  0  0  0  0  0  0  0  0  0  0
   11.1878   13.6570    7.7869 N   0  0  0  0  0  0  0  0  0  0  0  0
   11.1382   13.2027    6.5129 C   0  0  0  0  0  0  0  0  0  0  0  0
   11.5198   11.8667    6.2308 C   0  0  0  0  0  0  0  0  0  0  0  0
   11.9430   11.0547    7.3249 C   0  0  0  0  0  0  0  0  0  0  0  0
   12.3295    9.7428    7.1270 N   0  0  0  0  0  0  0  0  0  0  0  0
   11.3723   11.6813    4.8958 N   0  0  0  0  0  0  0  0  0  0  0  0
   10.9382   12.7832    4.3520 C   0  0  0  0  0  0  0  0  0  0  0  0
   10.7794   13.7488    5.3074 N   0  0  0  0  0  0  0  0  0  0  0  0
  1  7  2  0  0  0  0
  1  2  1  0  0  0  0
  2  3  1  0  0  0  0
  2  4  2  0  0  0  0
  4  5  1  0  0  0  0
  5  6  2  0  0  0  0
  5 11  1  0  0  0  0
  6  7  1  0  0  0  0
  6  9  1  0  0  0  0
  7  8  1  0  0  0  0
  9 10  1  0  0  0  0
 10 11  2  0  0  0  0
M  END
>  <CHROM.1>
11.49520088,12.31950630,7.02193208,-1.12456127,1.23198523,-2.01953632

>  <Name>
ligand

>  <RI>
0

>  <Rbt.Current_Directory>
/home/itssahil/PROJECTS/Mol_Feturizer/New_Systems/rnas/4FEP

>  <Rbt.Executable>
rbdock ($Id: //depot/dev/client3/rdock/2013.1/src/exe/rbdock.cxx#4 $)

>  <Rbt.Library>
libRbt.so (2013.1, Build901 2013/11/27)

>  <Rbt.Parameter_File>
/export/apps/rDock/src/rDock_2013.1_src/data/scripts/dock_solv.prm

>  <Rbt.Receptor>
prm/pocket_docking_3.prm

>  <SCORE>
-11.2829

>  <SCORE.INTER>
-11.2829

>  <SCORE.INTER.CONST>
1

>  <SCORE.INTER.POLAR>
0

>  <SCORE.INTER.ROT>
0

>  <SCORE.INTER.SOLV>
21.1337

>  <SCORE.INTER.VDW>
-18.1665

>  <SCORE.INTER.norm>
-1.02572

>  <SCORE.INTRA>
0

>  <SCORE.INTRA.DIHEDRAL>
0

>  <SCORE.INTRA.DIHEDRAL.0>
0

>  <SCORE.INTRA.POLAR>
0

>  <SCORE.INTRA.POLAR.0>
0

>  <SCORE.INTRA.REPUL>
0

>  <SCORE.INTRA.REPUL.0>
0

>  <SCORE.INTRA.SOLV>
0

>  <SCORE.INTRA.SOLV.lig_0>
-48.9558

>  <SCORE.INTRA.VDW>
0

>  <SCORE.INTRA.VDW.0>
0

>  <SCORE.INTRA.norm>
0

>  <SCORE.RESTR>
0

>  <SCORE.RESTR.CAVITY>
0

>  <SCORE.RESTR.norm>
0

>  <SCORE.SYSTEM>
0

>  <SCORE.SYSTEM.CONST>
0

>  <SCORE.SYSTEM.DIHEDRAL>
0

>  <SCORE.SYSTEM.SOLV>
0

>  <SCORE.SYSTEM.norm>
0

>  <SCORE.heavy>
11

>  <SCORE.norm>
-1.02572

>  <RMSD>
0.583

$$$$
ligand
 OpenBabel11021811493D
libRbt.so/2013.1/901 2013/11/27
 11 12  0  0  0  0  0  0  0  0999 V2000
   11.9618   11.5863    8.5654 N   0  0  0  0  0  0  0  0  0  0  0  0
   11.5926   12.8582    8.7866 C   0  0  0  0  0  0  0  0  0  0  0  0
   11.6317   13.3565   10.0780 N   0  0  0  0  0  0  0  0  0  0  0  0
   11.1873   13.6552    7.7845 N   0  0  0  0  0  0  0  0  0  0  0  0
   11.1380   13.1993    6.5111 C   0  0  0  0  0  0  0  0  0  0  0  0
   11.5194   11.8628    6.2308 C   0  0  0  0  0  0  0  0  0  0  0  0
   11.9420   11.0522    7.3261 C   0  0  0  0  0  0  0  0  0  0  0  0
   12.3282    9.7399    7.1301 N   0  0  0  0  0  0  0  0  0  0  0  0
   11.3723   11.6758    4.8960 N   0  0  0  0  0  0  0  0  0  0  0  0
   10.9387   12.7771    4.3506 C   0  0  0  0  0  0  0  0  0  0  0  0
   10.7797   13.7440    5.3047 N   0  0  0  0  0  0  0  0  0  0  0  0
  1  7  2  0  0  0  0
  1  2  1  0  0  0  0
  2  3  1  0  0  0  0
  2  4  2  0  0  0  0
  4  5  1  0  0  0  0
  5  6  2  0  0  0  0
  5 11  1  0  0  0  0
  6  7  1  0  0  0  0
  6  9  1  0  0  0  0
  7  8  1  0  0  0  0
  9 10  1  0  0  0  0
 10 11  2  0  0  0  0
M  END
>  <CHROM.1>
11.49459157,12.31669506,7.02134026,-1.12522041,1.23237487,-2.02020541

>  <Name>
ligand

>  <RI>
0

>  <Rbt.Current_Directory>
/home/itssahil/PROJECTS/Mol_Feturizer/New_Systems/rnas/4FEP

>  <Rbt.Executable>
rbdock ($Id: //depot/dev/client3/rdock/2013.1/src/exe/rbdock.cxx#4 $)

>  <Rbt.Library>
libRbt.so (2013.1, Build901 2013/11/27)

>  <Rbt.Parameter_File>
/export/apps/rDock/src/rDock_2013.1_src/data/scripts/dock_solv.prm

>  <Rbt.Receptor>
prm/pocket_docking_3.prm

>  <SCORE>
-11.2865

>  <SCORE.INTER>
-11.2865

>  <SCORE.INTER.CONST>
1

>  <SCORE.INTER.POLAR>
0

>  <SCORE.INTER.ROT>
0

>  <SCORE.INTER.SOLV>
21.1406

>  <SCORE.INTER.VDW>
-18.1712

>  <SCORE.INTER.norm>
-1.02605

>  <SCORE.INTRA>
0

>  <SCORE.INTRA.DIHEDRAL>
0

>  <SCORE.INTRA.DIHEDRAL.0>
0

>  <SCORE.INTRA.POLAR>
0

>  <SCORE.INTRA.POLAR.0>
0

>  <SCORE.INTRA.REPUL>
0

>  <SCORE.INTRA.REPUL.0>
0

>  <SCORE.INTRA.SOLV>
0

>  <SCORE.INTRA.SOLV.lig_0>
-48.9558

>  <SCORE.INTRA.VDW>
0

>  <SCORE.INTRA.VDW.0>
0

>  <SCORE.INTRA.norm>
0

>  <SCORE.RESTR>
0

>  <SCORE.RESTR.CAVITY>
0

>  <SCORE.RESTR.norm>
0

>  <SCORE.SYSTEM>
0

>  <SCORE.SYSTEM.CONST>
0

>  <SCORE.SYSTEM.DIHEDRAL>
0

>  <SCORE.SYSTEM.SOLV>
0

>  <SCORE.SYSTEM.norm>
0

>  <SCORE.heavy>
11

>  <SCORE.norm>
-1.02605

>  <RMSD>
0.583

$$$$
ligand
 OpenBabel11021811493D
libRbt.so/2013.1/901 2013/11/27
 11 12  0  0  0  0  0  0  0  0999 V2000
   11.9741   11.5854    8.5608 N   0  0  0  0  0  0  0  0  0  0  0  0
   11.6035   12.8564    8.7848 C   0  0  0  0  0  0  0  0  0  0  0  0
   11.6483   13.3539   10.0763 N   0  0  0  0  0  0  0  0  0  0  0  0
   11.1914   13.6534    7.7854 N   0  0  0  0  0  0  0  0  0  0  0  0
   11.1363   13.1983    6.5119 C   0  0  0  0  0  0  0  0  0  0  0  0
   11.5189   11.8628    6.2288 C   0  0  0  0  0  0  0  0  0  0  0  0
   11.9488   11.0522    7.3213 C   0  0  0  0  0  0  0  0  0  0  0  0
   12.3365    9.7408    7.1222 N   0  0  0  0  0  0  0  0  0  0  0  0
   11.3652   11.6764    4.8946 N   0  0  0  0  0  0  0  0  0  0  0  0
   10.9266   12.7772    4.3522 C   0  0  0  0  0  0  0  0  0  0  0  0
   10.7707   13.7431    5.3079 N   0  0  0  0  0  0  0  0  0  0  0  0
  1  7  2  0  0  0  0
  1  2  1  0  0  0  0
  2  3  1  0  0  0  0
  2  4  2  0  0  0  0
  4  5  1  0  0  0  0
  5  6  2  0  0  0  0
  5 11  1  0  0  0  0
  6  7  1  0  0  0  0
  6  9  1  0  0  0  0
  7  8  1  0  0  0  0
  9 10  1  0  0  0  0
 10 11  2  0  0  0  0
M  END
>  <CHROM.1>
11.49733117,12.31600807,7.01971713,-1.11374515,1.22830642,-2.03030671

>  <Name>
ligand

>  <RI>
0

>  <Rbt.Current_Directory>
/home/itssahil/PROJECTS/Mol_Feturizer/New_Systems/rnas/4FEP

>  <Rbt.Executable>
rbdock ($Id: //depot/dev/client3/rdock/2013.1/src/exe/rbdock.cxx#4 $)

>  <Rbt.Library>
libRbt.so (2013.1, Build901 2013/11/27)

>  <Rbt.Parameter_File>
/export/apps/rDock/src/rDock_2013.1_src/data/scripts/dock_solv.prm

>  <Rbt.Receptor>
prm/pocket_docking_3.prm

>  <SCORE>
-11.2829

>  <SCORE.INTER>
-11.2829

>  <SCORE.INTER.CONST>
1

>  <SCORE.INTER.POLAR>
0

>  <SCORE.INTER.ROT>
0

>  <SCORE.INTER.SOLV>
21.0947

>  <SCORE.INTER.VDW>
-18.1535

>  <SCORE.INTER.norm>
-1.02572

>  <SCORE.INTRA>
0

>  <SCORE.INTRA.DIHEDRAL>
0

>  <SCORE.INTRA.DIHEDRAL.0>
0

>  <SCORE.INTRA.POLAR>
0

>  <SCORE.INTRA.POLAR.0>
0

>  <SCORE.INTRA.REPUL>
0

>  <SCORE.INTRA.REPUL.0>
0

>  <SCORE.INTRA.SOLV>
0

>  <SCORE.INTRA.SOLV.lig_0>
-48.9558

>  <SCORE.INTRA.VDW>
0

>  <SCORE.INTRA.VDW.0>
0

>  <SCORE.INTRA.norm>
0

>  <SCORE.RESTR>
0

>  <SCORE.RESTR.CAVITY>
0

>  <SCORE.RESTR.norm>
0

>  <SCORE.SYSTEM>
0

>  <SCORE.SYSTEM.CONST>
0

>  <SCORE.SYSTEM.DIHEDRAL>
0

>  <SCORE.SYSTEM.SOLV>
0

>  <SCORE.SYSTEM.norm>
0

>  <SCORE.heavy>
11

>  <SCORE.norm>
-1.02572

>  <RMSD>
0.583

$$$$
ligand
 OpenBabel11021811493D
libRbt.so/2013.1/901 2013/11/27
 11 12  0  0  0  0  0  0  0  0999 V2000
   11.9636   11.5868    8.5644 N   0  0  0  0  0  0  0  0  0  0  0  0
   11.5947   12.8588    8.7854 C   0  0  0  0  0  0  0  0  0  0  0  0
   11.6348   13.3575   10.0767 N   0  0  0  0  0  0  0  0  0  0  0  0
   11.1887   13.6556    7.7834 N   0  0  0  0  0  0  0  0  0  0  0  0
   11.1384   13.1993    6.5102 C   0  0  0  0  0  0  0  0  0  0  0  0
   11.5194   11.8627    6.2301 C   0  0  0  0  0  0  0  0  0  0  0  0
   11.9427   11.0523    7.3253 C   0  0  0  0  0  0  0  0  0  0  0  0
   12.3285    9.7399    7.1294 N   0  0  0  0  0  0  0  0  0  0  0  0
   11.3712   11.6753    4.8954 N   0  0  0  0  0  0  0  0  0  0  0  0
   10.9374   12.7764    4.3500 C   0  0  0  0  0  0  0  0  0  0  0  0
   10.7793   13.7437    5.3040 N   0  0  0  0  0  0  0  0  0  0  0  0
  1  7  2  0  0  0  0
  1  2  1  0  0  0  0
  2  3  1  0  0  0  0
  2  4  2  0  0  0  0
  4  5  1  0  0  0  0
  5  6  2  0  0  0  0
  5 11  1  0  0  0  0
  6  7  1  0  0  0  0
  6  9  1  0  0  0  0
  7  8  1  0  0  0  0
  9 10  1  0  0  0  0
 10 11  2  0  0  0  0
M  END
>  <CHROM.1>
11.49523125,12.31679222,7.02046294,-1.12293070,1.23217153,-2.02267976

>  <Name>
ligand

>  <RI>
0

>  <Rbt.Current_Directory>
/home/itssahil/PROJECTS/Mol_Feturizer/New_Systems/rnas/4FEP

>  <Rbt.Executable>
rbdock ($Id: //depot/dev/client3/rdock/2013.1/src/exe/rbdock.cxx#4 $)

>  <Rbt.Library>
libRbt.so (2013.1, Build901 2013/11/27)

>  <Rbt.Parameter_File>
/export/apps/rDock/src/rDock_2013.1_src/data/scripts/dock_solv.prm

>  <Rbt.Receptor>
prm/pocket_docking_4.prm

>  <SCORE>
-11.2857

>  <SCORE.INTER>
-11.2857

>  <SCORE.INTER.CONST>
1

>  <SCORE.INTER.POLAR>
0

>  <SCORE.INTER.ROT>
0

>  <SCORE.INTER.SOLV>
21.1392

>  <SCORE.INTER.VDW>
-18.1702

>  <SCORE.INTER.norm>
-1.02598

>  <SCORE.INTRA>
0

>  <SCORE.INTRA.DIHEDRAL>
0

>  <SCORE.INTRA.DIHEDRAL.0>
0

>  <SCORE.INTRA.POLAR>
0

>  <SCORE.INTRA.POLAR.0>
0

>  <SCORE.INTRA.REPUL>
0

>  <SCORE.INTRA.REPUL.0>
0

>  <SCORE.INTRA.SOLV>
0

>  <SCORE.INTRA.SOLV.lig_0>
-48.9558

>  <SCORE.INTRA.VDW>
0

>  <SCORE.INTRA.VDW.0>
0

>  <SCORE.INTRA.norm>
0

>  <SCORE.RESTR>
0

>  <SCORE.RESTR.CAVITY>
0

>  <SCORE.RESTR.norm>
0

>  <SCORE.SYSTEM>
0

>  <SCORE.SYSTEM.CONST>
0

>  <SCORE.SYSTEM.DIHEDRAL>
0

>  <SCORE.SYSTEM.SOLV>
0

>  <SCORE.SYSTEM.norm>
0

>  <SCORE.heavy>
11

>  <SCORE.norm>
-1.02598

>  <RMSD>
0.583

$$$$
ligand
 OpenBabel11021811493D
libRbt.so/2013.1/901 2013/11/27
 11 12  0  0  0  0  0  0  0  0999 V2000
   11.9534   11.5886    8.5667 N   0  0  0  0  0  0  0  0  0  0  0  0
   11.5849   12.8612    8.7850 C   0  0  0  0  0  0  0  0  0  0  0  0
   11.6204   13.3613   10.0758 N   0  0  0  0  0  0  0  0  0  0  0  0
   11.1835   13.6573    7.7805 N   0  0  0  0  0  0  0  0  0  0  0  0
   11.1377   13.1997    6.5076 C   0  0  0  0  0  0  0  0  0  0  0  0
   11.5186   11.8624    6.2304 C   0  0  0  0  0  0  0  0  0  0  0  0
   11.9369   11.0528    7.3282 C   0  0  0  0  0  0  0  0  0  0  0  0
   12.3223    9.7398    7.1351 N   0  0  0  0  0  0  0  0  0  0  0  0
   11.3755   11.6737    4.8953 N   0  0  0  0  0  0  0  0  0  0  0  0
   10.9448   12.7746    4.3471 C   0  0  0  0  0  0  0  0  0  0  0  0
   10.7838   13.7430    5.2994 N   0  0  0  0  0  0  0  0  0  0  0  0
  1  7  2  0  0  0  0
  1  2  1  0  0  0  0
  2  3  1  0  0  0  0
  2  4  2  0  0  0  0
  4  5  1  0  0  0  0
  5  6  2  0  0  0  0
  5 11  1  0  0  0  0
  6  7  1  0  0  0  0
  6  9  1  0  0  0  0
  7  8  1  0  0  0  0
  9 10  1  0  0  0  0
 10 11  2  0  0  0  0
M  END
>  <CHROM.1>
11.49180127,12.31736955,7.02019336,-1.13241922,1.23467297,-2.01480069

>  <Name>
ligand

>  <RI>
0

>  <Rbt.Current_Directory>
/home/itssahil/PROJECTS/Mol_Feturizer/New_Systems/rnas/4FEP

>  <Rbt.Executable>
rbdock ($Id: //depot/dev/client3/rdock/2013.1/src/exe/rbdock.cxx#4 $)

>  <Rbt.Library>
libRbt.so (2013.1, Build901 2013/11/27)

>  <Rbt.Parameter_File>
/export/apps/rDock/src/rDock_2013.1_src/data/scripts/dock_solv.prm

>  <Rbt.Receptor>
prm/pocket_docking_3.prm

>  <SCORE>
-11.2865

>  <SCORE.INTER>
-11.2865

>  <SCORE.INTER.CONST>
1

>  <SCORE.INTER.POLAR>
0

>  <SCORE.INTER.ROT>
0

>  <SCORE.INTER.SOLV>
21.1738

>  <SCORE.INTER.VDW>
-18.1822

>  <SCORE.INTER.norm>
-1.02604

>  <SCORE.INTRA>
0

>  <SCORE.INTRA.DIHEDRAL>
0

>  <SCORE.INTRA.DIHEDRAL.0>
0

>  <SCORE.INTRA.POLAR>
0

>  <SCORE.INTRA.POLAR.0>
0

>  <SCORE.INTRA.REPUL>
0

>  <SCORE.INTRA.REPUL.0>
0

>  <SCORE.INTRA.SOLV>
0

>  <SCORE.INTRA.SOLV.lig_0>
-48.9558

>  <SCORE.INTRA.VDW>
0

>  <SCORE.INTRA.VDW.0>
0

>  <SCORE.INTRA.norm>
0

>  <SCORE.RESTR>
0

>  <SCORE.RESTR.CAVITY>
0

>  <SCORE.RESTR.norm>
0

>  <SCORE.SYSTEM>
0

>  <SCORE.SYSTEM.CONST>
0

>  <SCORE.SYSTEM.DIHEDRAL>
0

>  <SCORE.SYSTEM.SOLV>
0

>  <SCORE.SYSTEM.norm>
0

>  <SCORE.heavy>
11

>  <SCORE.norm>
-1.02604

>  <RMSD>
0.584

$$$$
ligand
 OpenBabel11021811493D
libRbt.so/2013.1/901 2013/11/27
 11 12  0  0  0  0  0  0  0  0999 V2000
   11.9669   11.5888    8.5657 N   0  0  0  0  0  0  0  0  0  0  0  0
   11.6017   12.8619    8.7862 C   0  0  0  0  0  0  0  0  0  0  0  0
   11.6440   13.3613   10.0771 N   0  0  0  0  0  0  0  0  0  0  0  0
   11.1974   13.6592    7.7839 N   0  0  0  0  0  0  0  0  0  0  0  0
   11.1450   13.2024    6.5110 C   0  0  0  0  0  0  0  0  0  0  0  0
   11.5221   11.8645    6.2315 C   0  0  0  0  0  0  0  0  0  0  0  0
   11.9438   11.0536    7.3269 C   0  0  0  0  0  0  0  0  0  0  0  0
   12.3259    9.7400    7.1315 N   0  0  0  0  0  0  0  0  0  0  0  0
   11.3727   11.6767    4.8970 N   0  0  0  0  0  0  0  0  0  0  0  0
   10.9416   12.7787    4.3512 C   0  0  0  0  0  0  0  0  0  0  0  0
   10.7867   13.7470    5.3047 N   0  0  0  0  0  0  0  0  0  0  0  0
  1  7  2  0  0  0  0
  1  2  1  0  0  0  0
  2  3  1  0  0  0  0
  2  4  2  0  0  0  0
  4  5  1  0  0  0  0
  5  6  2  0  0  0  0
  5 11  1  0  0  0  0
  6  7  1  0  0  0  0
  6  9  1  0  0  0  0
  7  8  1  0  0  0  0
  9 10  1  0  0  0  0
 10 11  2  0  0  0  0
M  END
>  <CHROM.1>
11.49972744,12.31913114,7.02159802,-1.11767274,1.23441809,-2.02821891

>  <Name>
ligand

>  <RI>
0

>  <Rbt.Current_Directory>
/home/itssahil/PROJECTS/Mol_Feturizer/New_Systems/rnas/4FEP

>  <Rbt.Executable>
rbdock ($Id: //depot/dev/client3/rdock/2013.1/src/exe/rbdock.cxx#4 $)

>  <Rbt.Library>
libRbt.so (2013.1, Build901 2013/11/27)

>  <Rbt.Parameter_File>
/export/apps/rDock/src/rDock_2013.1_src/data/scripts/dock_solv.prm

>  <Rbt.Receptor>
prm/pocket_docking_3.prm

>  <SCORE>
-11.2827

>  <SCORE.INTER>
-11.2827

>  <SCORE.INTER.CONST>
1

>  <SCORE.INTER.POLAR>
0

>  <SCORE.INTER.ROT>
0

>  <SCORE.INTER.SOLV>
21.1554

>  <SCORE.INTER.VDW>
-18.1736

>  <SCORE.INTER.norm>
-1.0257

>  <SCORE.INTRA>
0

>  <SCORE.INTRA.DIHEDRAL>
0

>  <SCORE.INTRA.DIHEDRAL.0>
0

>  <SCORE.INTRA.POLAR>
0

>  <SCORE.INTRA.POLAR.0>
0

>  <SCORE.INTRA.REPUL>
0

>  <SCORE.INTRA.REPUL.0>
0

>  <SCORE.INTRA.SOLV>
0

>  <SCORE.INTRA.SOLV.lig_0>
-48.9558

>  <SCORE.INTRA.VDW>
0

>  <SCORE.INTRA.VDW.0>
0

>  <SCORE.INTRA.norm>
0

>  <SCORE.RESTR>
0

>  <SCORE.RESTR.CAVITY>
0

>  <SCORE.RESTR.norm>
0

>  <SCORE.SYSTEM>
0

>  <SCORE.SYSTEM.CONST>
0

>  <SCORE.SYSTEM.DIHEDRAL>
0

>  <SCORE.SYSTEM.SOLV>
0

>  <SCORE.SYSTEM.norm>
0

>  <SCORE.heavy>
11

>  <SCORE.norm>
-1.0257

>  <RMSD>
0.584

$$$$
ligand
 OpenBabel11021811493D
libRbt.so/2013.1/901 2013/11/27
 11 12  0  0  0  0  0  0  0  0999 V2000
   11.9683   11.5893    8.5631 N   0  0  0  0  0  0  0  0  0  0  0  0
   11.6016   12.8617    8.7856 C   0  0  0  0  0  0  0  0  0  0  0  0
   11.6467   13.3602   10.0767 N   0  0  0  0  0  0  0  0  0  0  0  0
   11.1930   13.6590    7.7851 N   0  0  0  0  0  0  0  0  0  0  0  0
   11.1378   13.2029    6.5120 C   0  0  0  0  0  0  0  0  0  0  0  0
   11.5164   11.8659    6.2304 C   0  0  0  0  0  0  0  0  0  0  0  0
   11.9426   11.0550    7.3241 C   0  0  0  0  0  0  0  0  0  0  0  0
   12.3263    9.7421    7.1266 N   0  0  0  0  0  0  0  0  0  0  0  0
   11.3634   11.6788    4.8962 N   0  0  0  0  0  0  0  0  0  0  0  0
   10.9289   12.7805    4.3524 C   0  0  0  0  0  0  0  0  0  0  0  0
   10.7751   13.7478    5.3071 N   0  0  0  0  0  0  0  0  0  0  0  0
  1  7  2  0  0  0  0
  1  2  1  0  0  0  0
  2  3  1  0  0  0  0
  2  4  2  0  0  0  0
  4  5  1  0  0  0  0
  5  6  2  0  0  0  0
  5 11  1  0  0  0  0
  6  7  1  0  0  0  0
  6  9  1  0  0  0  0
  7  8  1  0  0  0  0
  9 10  1  0  0  0  0
 10 11  2  0  0  0  0
M  END
>  <CHROM.1>
11.49545023,12.31995510,7.02091275,-1.11223338,1.23161198,-2.03264830

>  <Name>
ligand

>  <RI>
0

>  <Rbt.Current_Directory>
/home/itssahil/PROJECTS/Mol_Feturizer/New_Systems/rnas/4FEP

>  <Rbt.Executable>
rbdock ($Id: //depot/dev/client3/rdock/2013.1/src/exe/rbdock.cxx#4 $)

>  <Rbt.Library>
libRbt.so (2013.1, Build901 2013/11/27)

>  <Rbt.Parameter_File>
/export/apps/rDock/src/rDock_2013.1_src/data/scripts/dock_solv.prm

>  <Rbt.Receptor>
prm/pocket_docking_5.prm

>  <SCORE>
-11.2785

>  <SCORE.INTER>
-11.2785

>  <SCORE.INTER.CONST>
1

>  <SCORE.INTER.POLAR>
0

>  <SCORE.INTER.ROT>
0

>  <SCORE.INTER.SOLV>
21.1459

>  <SCORE.INTER.VDW>
-18.1676

>  <SCORE.INTER.norm>
-1.02532

>  <SCORE.INTRA>
0

>  <SCORE.INTRA.DIHEDRAL>
0

>  <SCORE.INTRA.DIHEDRAL.0>
0

>  <SCORE.INTRA.POLAR>
0

>  <SCORE.INTRA.POLAR.0>
0

>  <SCORE.INTRA.REPUL>
0

>  <SCORE.INTRA.REPUL.0>
0

>  <SCORE.INTRA.SOLV>
0

>  <SCORE.INTRA.SOLV.lig_0>
-48.9558

>  <SCORE.INTRA.VDW>
0

>  <SCORE.INTRA.VDW.0>
0

>  <SCORE.INTRA.norm>
0

>  <SCORE.RESTR>
0

>  <SCORE.RESTR.CAVITY>
0

>  <SCORE.RESTR.norm>
0

>  <SCORE.SYSTEM>
0

>  <SCORE.SYSTEM.CONST>
0

>  <SCORE.SYSTEM.DIHEDRAL>
0

>  <SCORE.SYSTEM.SOLV>
0

>  <SCORE.SYSTEM.norm>
0

>  <SCORE.heavy>
11

>  <SCORE.norm>
-1.02532

>  <RMSD>
0.584

$$$$
ligand
 OpenBabel11021811493D
libRbt.so/2013.1/901 2013/11/27
 11 12  0  0  0  0  0  0  0  0999 V2000
   11.9746   11.5881    8.5612 N   0  0  0  0  0  0  0  0  0  0  0  0
   11.6073   12.8602    8.7840 C   0  0  0  0  0  0  0  0  0  0  0  0
   11.6519   13.3583   10.0753 N   0  0  0  0  0  0  0  0  0  0  0  0
   11.1986   13.6577    7.7837 N   0  0  0  0  0  0  0  0  0  0  0  0
   11.1439   13.2020    6.5104 C   0  0  0  0  0  0  0  0  0  0  0  0
   11.5231   11.8653    6.2285 C   0  0  0  0  0  0  0  0  0  0  0  0
   11.9494   11.0541    7.3220 C   0  0  0  0  0  0  0  0  0  0  0  0
   12.3337    9.7415    7.1242 N   0  0  0  0  0  0  0  0  0  0  0  0
   11.3705   11.6786    4.8942 N   0  0  0  0  0  0  0  0  0  0  0  0
   10.9356   12.7802    4.3507 C   0  0  0  0  0  0  0  0  0  0  0  0
   10.7812   13.7472    5.3056 N   0  0  0  0  0  0  0  0  0  0  0  0
  1  7  2  0  0  0  0
  1  2  1  0  0  0  0
  2  3  1  0  0  0  0
  2  4  2  0  0  0  0
  4  5  1  0  0  0  0
  5  6  2  0  0  0  0
  5 11  1  0  0  0  0
  6  7  1  0  0  0  0
  6  9  1  0  0  0  0
  7  8  1  0  0  0  0
  9 10  1  0  0  0  0
 10 11  2  0  0  0  0
M  END
>  <CHROM.1>
11.50176979,12.31905180,7.01912048,-1.11338440,1.23134403,-2.03122353

>  <Name>
ligand

>  <RI>
0

>  <Rbt.Current_Directory>
/home/itssahil/PROJECTS/Mol_Feturizer/New_Systems/rnas/4FEP

>  <Rbt.Executable>
rbdock ($Id: //depot/dev/client3/rdock/2013.1/src/exe/rbdock.cxx#4 $)

>  <Rbt.Library>
libRbt.so (2013.1, Build901 2013/11/27)

>  <Rbt.Parameter_File>
/export/apps/rDock/src/rDock_2013.1_src/data/scripts/dock_solv.prm

>  <Rbt.Receptor>
prm/blind_docking_60.prm

>  <SCORE>
-11.2801

>  <SCORE.INTER>
-11.2801

>  <SCORE.INTER.CONST>
1

>  <SCORE.INTER.POLAR>
0

>  <SCORE.INTER.ROT>
0

>  <SCORE.INTER.SOLV>
21.1156

>  <SCORE.INTER.VDW>
-18.1586

>  <SCORE.INTER.norm>
-1.02546

>  <SCORE.INTRA>
0

>  <SCORE.INTRA.DIHEDRAL>
0

>  <SCORE.INTRA.DIHEDRAL.0>
0

>  <SCORE.INTRA.POLAR>
0

>  <SCORE.INTRA.POLAR.0>
0

>  <SCORE.INTRA.REPUL>
0

>  <SCORE.INTRA.REPUL.0>
0

>  <SCORE.INTRA.SOLV>
0

>  <SCORE.INTRA.SOLV.lig_0>
-48.9558

>  <SCORE.INTRA.VDW>
0

>  <SCORE.INTRA.VDW.0>
0

>  <SCORE.INTRA.norm>
0

>  <SCORE.RESTR>
0

>  <SCORE.RESTR.CAVITY>
0

>  <SCORE.RESTR.norm>
0

>  <SCORE.SYSTEM>
0

>  <SCORE.SYSTEM.CONST>
0

>  <SCORE.SYSTEM.DIHEDRAL>
0

>  <SCORE.SYSTEM.SOLV>
0

>  <SCORE.SYSTEM.norm>
0

>  <SCORE.heavy>
11

>  <SCORE.norm>
-1.02546

>  <RMSD>
0.585

$$$$
ligand
 OpenBabel11021811493D
libRbt.so/2013.1/901 2013/11/27
 11 12  0  0  0  0  0  0  0  0999 V2000
   11.9590   11.5952    8.5638 N   0  0  0  0  0  0  0  0  0  0  0  0
   11.5894   12.8669    8.7854 C   0  0  0  0  0  0  0  0  0  0  0  0
   11.6307   13.3655   10.0766 N   0  0  0  0  0  0  0  0  0  0  0  0
   11.1816   13.6634    7.7840 N   0  0  0  0  0  0  0  0  0  0  0  0
   11.1300   13.2072    6.5108 C   0  0  0  0  0  0  0  0  0  0  0  0
   11.5117   11.8708    6.2301 C   0  0  0  0  0  0  0  0  0  0  0  0
   11.9370   11.0607    7.3248 C   0  0  0  0  0  0  0  0  0  0  0  0
   12.3237    9.7486    7.1283 N   0  0  0  0  0  0  0  0  0  0  0  0
   11.3620   11.6834    4.8956 N   0  0  0  0  0  0  0  0  0  0  0  0
   10.9267   12.7842    4.3508 C   0  0  0  0  0  0  0  0  0  0  0  0
   10.7690   13.7513    5.3050 N   0  0  0  0  0  0  0  0  0  0  0  0
  1  7  2  0  0  0  0
  1  2  1  0  0  0  0
  2  3  1  0  0  0  0
  2  4  2  0  0  0  0
  4  5  1  0  0  0  0
  5  6  2  0  0  0  0
  5 11  1  0  0  0  0
  6  7  1  0  0  0  0
  6  9  1  0  0  0  0
  7  8  1  0  0  0  0
  9 10  1  0  0  0  0
 10 11  2  0  0  0  0
M  END
>  <CHROM.1>
11.48820236,12.32488067,7.02055679,-1.12064444,1.23091080,-2.02476944

>  <Name>
ligand

>  <RI>
0

>  <Rbt.Current_Directory>
/home/itssahil/PROJECTS/Mol_Feturizer/New_Systems/rnas/4FEP

>  <Rbt.Executable>
rbdock ($Id: //depot/dev/client3/rdock/2013.1/src/exe/rbdock.cxx#4 $)

>  <Rbt.Library>
libRbt.so (2013.1, Build901 2013/11/27)

>  <Rbt.Parameter_File>
/export/apps/rDock/src/rDock_2013.1_src/data/scripts/dock_solv.prm

>  <Rbt.Receptor>
prm/pocket_docking_3.prm

>  <SCORE>
-11.2749

>  <SCORE.INTER>
-11.2749

>  <SCORE.INTER.CONST>
1

>  <SCORE.INTER.POLAR>
0

>  <SCORE.INTER.ROT>
0

>  <SCORE.INTER.SOLV>
21.1629

>  <SCORE.INTER.VDW>
-18.1709

>  <SCORE.INTER.norm>
-1.02499

>  <SCORE.INTRA>
0

>  <SCORE.INTRA.DIHEDRAL>
0

>  <SCORE.INTRA.DIHEDRAL.0>
0

>  <SCORE.INTRA.POLAR>
0

>  <SCORE.INTRA.POLAR.0>
0

>  <SCORE.INTRA.REPUL>
0

>  <SCORE.INTRA.REPUL.0>
0

>  <SCORE.INTRA.SOLV>
0

>  <SCORE.INTRA.SOLV.lig_0>
-48.9558

>  <SCORE.INTRA.VDW>
0

>  <SCORE.INTRA.VDW.0>
0

>  <SCORE.INTRA.norm>
0

>  <SCORE.RESTR>
0

>  <SCORE.RESTR.CAVITY>
0

>  <SCORE.RESTR.norm>
0

>  <SCORE.SYSTEM>
0

>  <SCORE.SYSTEM.CONST>
0

>  <SCORE.SYSTEM.DIHEDRAL>
0

>  <SCORE.SYSTEM.SOLV>
0

>  <SCORE.SYSTEM.norm>
0

>  <SCORE.heavy>
11

>  <SCORE.norm>
-1.02499

>  <RMSD>
0.585

$$$$
ligand
 OpenBabel11021811493D
libRbt.so/2013.1/901 2013/11/27
 11 12  0  0  0  0  0  0  0  0999 V2000
   11.9686   11.5863    8.5607 N   0  0  0  0  0  0  0  0  0  0  0  0
   11.5984   12.8576    8.7834 C   0  0  0  0  0  0  0  0  0  0  0  0
   11.6402   13.3554   10.0749 N   0  0  0  0  0  0  0  0  0  0  0  0
   11.1895   13.6546    7.7827 N   0  0  0  0  0  0  0  0  0  0  0  0
   11.1375   13.1992    6.5093 C   0  0  0  0  0  0  0  0  0  0  0  0
   11.5197   11.8633    6.2274 C   0  0  0  0  0  0  0  0  0  0  0  0
   11.9462   11.0527    7.3213 C   0  0  0  0  0  0  0  0  0  0  0  0
   12.3334    9.7409    7.1236 N   0  0  0  0  0  0  0  0  0  0  0  0
   11.3693   11.6767    4.8929 N   0  0  0  0  0  0  0  0  0  0  0  0
   10.9330   12.7776    4.3491 C   0  0  0  0  0  0  0  0  0  0  0  0
   10.7754   13.7440    5.3041 N   0  0  0  0  0  0  0  0  0  0  0  0
  1  7  2  0  0  0  0
  1  2  1  0  0  0  0
  2  3  1  0  0  0  0
  2  4  2  0  0  0  0
  4  5  1  0  0  0  0
  5  6  2  0  0  0  0
  5 11  1  0  0  0  0
  6  7  1  0  0  0  0
  6  9  1  0  0  0  0
  7  8  1  0  0  0  0
  9 10  1  0  0  0  0
 10 11  2  0  0  0  0
M  END
>  <CHROM.1>
11.49643789,12.31677028,7.01821082,-1.11975603,1.23014269,-2.02491166

>  <Name>
ligand

>  <RI>
0

>  <Rbt.Current_Directory>
/home/itssahil/PROJECTS/Mol_Feturizer/New_Systems/rnas/4FEP

>  <Rbt.Executable>
rbdock ($Id: //depot/dev/client3/rdock/2013.1/src/exe/rbdock.cxx#4 $)

>  <Rbt.Library>
libRbt.so (2013.1, Build901 2013/11/27)

>  <Rbt.Parameter_File>
/export/apps/rDock/src/rDock_2013.1_src/data/scripts/dock_solv.prm

>  <Rbt.Receptor>
prm/pocket_docking_5.prm

>  <SCORE>
-11.2833

>  <SCORE.INTER>
-11.2833

>  <SCORE.INTER.CONST>
1

>  <SCORE.INTER.POLAR>
0

>  <SCORE.INTER.ROT>
0

>  <SCORE.INTER.SOLV>
21.1133

>  <SCORE.INTER.VDW>
-18.16

>  <SCORE.INTER.norm>
-1.02575

>  <SCORE.INTRA>
0

>  <SCORE.INTRA.DIHEDRAL>
0

>  <SCORE.INTRA.DIHEDRAL.0>
0

>  <SCORE.INTRA.POLAR>
0

>  <SCORE.INTRA.POLAR.0>
0

>  <SCORE.INTRA.REPUL>
0

>  <SCORE.INTRA.REPUL.0>
0

>  <SCORE.INTRA.SOLV>
0

>  <SCORE.INTRA.SOLV.lig_0>
-48.9558

>  <SCORE.INTRA.VDW>
0

>  <SCORE.INTRA.VDW.0>
0

>  <SCORE.INTRA.norm>
0

>  <SCORE.RESTR>
0

>  <SCORE.RESTR.CAVITY>
0

>  <SCORE.RESTR.norm>
0

>  <SCORE.SYSTEM>
0

>  <SCORE.SYSTEM.CONST>
0

>  <SCORE.SYSTEM.DIHEDRAL>
0

>  <SCORE.SYSTEM.SOLV>
0

>  <SCORE.SYSTEM.norm>
0

>  <SCORE.heavy>
11

>  <SCORE.norm>
-1.02575

>  <RMSD>
0.585

$$$$
ligand
 OpenBabel11021811493D
libRbt.so/2013.1/901 2013/11/27
 11 12  0  0  0  0  0  0  0  0999 V2000
   11.9684   11.5938    8.5648 N   0  0  0  0  0  0  0  0  0  0  0  0
   11.6028   12.8664    8.7880 C   0  0  0  0  0  0  0  0  0  0  0  0
   11.6469   13.3636   10.0797 N   0  0  0  0  0  0  0  0  0  0  0  0
   11.1963   13.6651    7.7878 N   0  0  0  0  0  0  0  0  0  0  0  0
   11.1422   13.2104    6.5142 C   0  0  0  0  0  0  0  0  0  0  0  0
   11.5197   11.8732    6.2318 C   0  0  0  0  0  0  0  0  0  0  0  0
   11.9437   11.0607    7.3252 C   0  0  0  0  0  0  0  0  0  0  0  0
   12.3262    9.7477    7.1269 N   0  0  0  0  0  0  0  0  0  0  0  0
   11.3681   11.6876    4.8972 N   0  0  0  0  0  0  0  0  0  0  0  0
   10.9355   12.7903    4.3539 C   0  0  0  0  0  0  0  0  0  0  0  0
   10.7816   13.7568    5.3094 N   0  0  0  0  0  0  0  0  0  0  0  0
  1  7  2  0  0  0  0
  1  2  1  0  0  0  0
  2  3  1  0  0  0  0
  2  4  2  0  0  0  0
  4  5  1  0  0  0  0
  5  6  2  0  0  0  0
  5 11  1  0  0  0  0
  6  7  1  0  0  0  0
  6  9  1  0  0  0  0
  7  8  1  0  0  0  0
  9 10  1  0  0  0  0
 10 11  2  0  0  0  0
M  END
>  <CHROM.1>
11.49827357,12.32649508,7.02268615,-1.11409333,1.23313291,-2.02991090

>  <Name>
ligand

>  <RI>
0

>  <Rbt.Current_Directory>
/home/itssahil/PROJECTS/Mol_Feturizer/New_Systems/rnas/4FEP

>  <Rbt.Executable>
rbdock ($Id: //depot/dev/client3/rdock/2013.1/src/exe/rbdock.cxx#4 $)

>  <Rbt.Library>
libRbt.so (2013.1, Build901 2013/11/27)

>  <Rbt.Parameter_File>
/export/apps/rDock/src/rDock_2013.1_src/data/scripts/dock_solv.prm

>  <Rbt.Receptor>
prm/pocket_docking_6.prm

>  <SCORE>
-11.273

>  <SCORE.INTER>
-11.273

>  <SCORE.INTER.CONST>
1

>  <SCORE.INTER.POLAR>
0

>  <SCORE.INTER.ROT>
0

>  <SCORE.INTER.SOLV>
21.1538

>  <SCORE.INTER.VDW>
-18.1666

>  <SCORE.INTER.norm>
-1.02481

>  <SCORE.INTRA>
0

>  <SCORE.INTRA.DIHEDRAL>
0

>  <SCORE.INTRA.DIHEDRAL.0>
0

>  <SCORE.INTRA.POLAR>
0

>  <SCORE.INTRA.POLAR.0>
0

>  <SCORE.INTRA.REPUL>
0

>  <SCORE.INTRA.REPUL.0>
0

>  <SCORE.INTRA.SOLV>
0

>  <SCORE.INTRA.SOLV.lig_0>
-48.9558

>  <SCORE.INTRA.VDW>
0

>  <SCORE.INTRA.VDW.0>
0

>  <SCORE.INTRA.norm>
0

>  <SCORE.RESTR>
0

>  <SCORE.RESTR.CAVITY>
0

>  <SCORE.RESTR.norm>
0

>  <SCORE.SYSTEM>
0

>  <SCORE.SYSTEM.CONST>
0

>  <SCORE.SYSTEM.DIHEDRAL>
0

>  <SCORE.SYSTEM.SOLV>
0

>  <SCORE.SYSTEM.norm>
0

>  <SCORE.heavy>
11

>  <SCORE.norm>
-1.02481

>  <RMSD>
0.585

$$$$
ligand
 OpenBabel11021811493D
libRbt.so/2013.1/901 2013/11/27
 11 12  0  0  0  0  0  0  0  0999 V2000
   11.9550   11.5896    8.5658 N   0  0  0  0  0  0  0  0  0  0  0  0
   11.5870   12.8623    8.7843 C   0  0  0  0  0  0  0  0  0  0  0  0
   11.6231   13.3623   10.0752 N   0  0  0  0  0  0  0  0  0  0  0  0
   11.1854   13.6586    7.7801 N   0  0  0  0  0  0  0  0  0  0  0  0
   11.1390   13.2010    6.5071 C   0  0  0  0  0  0  0  0  0  0  0  0
   11.5193   11.8637    6.2297 C   0  0  0  0  0  0  0  0  0  0  0  0
   11.9378   11.0539    7.3273 C   0  0  0  0  0  0  0  0  0  0  0  0
   12.3228    9.7408    7.1340 N   0  0  0  0  0  0  0  0  0  0  0  0
   11.3756   11.6751    4.8947 N   0  0  0  0  0  0  0  0  0  0  0  0
   10.9450   12.7762    4.3467 C   0  0  0  0  0  0  0  0  0  0  0  0
   10.7847   13.7446    5.2991 N   0  0  0  0  0  0  0  0  0  0  0  0
  1  7  2  0  0  0  0
  1  2  1  0  0  0  0
  2  3  1  0  0  0  0
  2  4  2  0  0  0  0
  4  5  1  0  0  0  0
  5  6  2  0  0  0  0
  5 11  1  0  0  0  0
  6  7  1  0  0  0  0
  6  9  1  0  0  0  0
  7  8  1  0  0  0  0
  9 10  1  0  0  0  0
 10 11  2  0  0  0  0
M  END
>  <CHROM.1>
11.49298930,12.31859762,7.01956311,-1.13086751,1.23477254,-2.01620486

>  <Name>
ligand

>  <RI>
0

>  <Rbt.Current_Directory>
/home/itssahil/PROJECTS/Mol_Feturizer/New_Systems/rnas/4FEP

>  <Rbt.Executable>
rbdock ($Id: //depot/dev/client3/rdock/2013.1/src/exe/rbdock.cxx#4 $)

>  <Rbt.Library>
libRbt.so (2013.1, Build901 2013/11/27)

>  <Rbt.Parameter_File>
/export/apps/rDock/src/rDock_2013.1_src/data/scripts/dock_solv.prm

>  <Rbt.Receptor>
prm/pocket_docking_6.prm

>  <SCORE>
-11.2848

>  <SCORE.INTER>
-11.2848

>  <SCORE.INTER.CONST>
1

>  <SCORE.INTER.POLAR>
0

>  <SCORE.INTER.ROT>
0

>  <SCORE.INTER.SOLV>
21.1728

>  <SCORE.INTER.VDW>
-18.1808

>  <SCORE.INTER.norm>
-1.02589

>  <SCORE.INTRA>
0

>  <SCORE.INTRA.DIHEDRAL>
0

>  <SCORE.INTRA.DIHEDRAL.0>
0

>  <SCORE.INTRA.POLAR>
0

>  <SCORE.INTRA.POLAR.0>
0

>  <SCORE.INTRA.REPUL>
0

>  <SCORE.INTRA.REPUL.0>
0

>  <SCORE.INTRA.SOLV>
0

>  <SCORE.INTRA.SOLV.lig_0>
-48.9558

>  <SCORE.INTRA.VDW>
0

>  <SCORE.INTRA.VDW.0>
0

>  <SCORE.INTRA.norm>
0

>  <SCORE.RESTR>
0

>  <SCORE.RESTR.CAVITY>
0

>  <SCORE.RESTR.norm>
0

>  <SCORE.SYSTEM>
0

>  <SCORE.SYSTEM.CONST>
0

>  <SCORE.SYSTEM.DIHEDRAL>
0

>  <SCORE.SYSTEM.SOLV>
0

>  <SCORE.SYSTEM.norm>
0

>  <SCORE.heavy>
11

>  <SCORE.norm>
-1.02589

>  <RMSD>
0.585

$$$$
ligand
 OpenBabel11021811493D
libRbt.so/2013.1/901 2013/11/27
 11 12  0  0  0  0  0  0  0  0999 V2000
   11.9608   11.5886    8.5661 N   0  0  0  0  0  0  0  0  0  0  0  0
   11.5956   12.8620    8.7853 C   0  0  0  0  0  0  0  0  0  0  0  0
   11.6338   13.3614   10.0763 N   0  0  0  0  0  0  0  0  0  0  0  0
   11.1951   13.6595    7.7816 N   0  0  0  0  0  0  0  0  0  0  0  0
   11.1468   13.2026    6.5086 C   0  0  0  0  0  0  0  0  0  0  0  0
   11.5240   11.8645    6.2304 C   0  0  0  0  0  0  0  0  0  0  0  0
   11.9415   11.0534    7.3273 C   0  0  0  0  0  0  0  0  0  0  0  0
   12.3235    9.7395    7.1332 N   0  0  0  0  0  0  0  0  0  0  0  0
   11.3789   11.6767    4.8954 N   0  0  0  0  0  0  0  0  0  0  0  0
   10.9504   12.7790    4.3481 C   0  0  0  0  0  0  0  0  0  0  0  0
   10.7929   13.7474    5.3010 N   0  0  0  0  0  0  0  0  0  0  0  0
  1  7  2  0  0  0  0
  1  2  1  0  0  0  0
  2  3  1  0  0  0  0
  2  4  2  0  0  0  0
  4  5  1  0  0  0  0
  5  6  2  0  0  0  0
  5 11  1  0  0  0  0
  6  7  1  0  0  0  0
  6  9  1  0  0  0  0
  7  8  1  0  0  0  0
  9 10  1  0  0  0  0
 10 11  2  0  0  0  0
M  END
>  <CHROM.1>
11.49922746,12.31916520,7.02039043,-1.12608256,1.23642444,-2.02032465

>  <Name>
ligand

>  <RI>
0

>  <Rbt.Current_Directory>
/home/itssahil/PROJECTS/Mol_Feturizer/New_Systems/rnas/4FEP

>  <Rbt.Executable>
rbdock ($Id: //depot/dev/client3/rdock/2013.1/src/exe/rbdock.cxx#4 $)

>  <Rbt.Library>
libRbt.so (2013.1, Build901 2013/11/27)

>  <Rbt.Parameter_File>
/export/apps/rDock/src/rDock_2013.1_src/data/scripts/dock_solv.prm

>  <Rbt.Receptor>
prm/pocket_docking_8.prm

>  <SCORE>
-11.2822

>  <SCORE.INTER>
-11.2822

>  <SCORE.INTER.CONST>
1

>  <SCORE.INTER.POLAR>
0

>  <SCORE.INTER.ROT>
0

>  <SCORE.INTER.SOLV>
21.1708

>  <SCORE.INTER.VDW>
-18.1784

>  <SCORE.INTER.norm>
-1.02565

>  <SCORE.INTRA>
0

>  <SCORE.INTRA.DIHEDRAL>
0

>  <SCORE.INTRA.DIHEDRAL.0>
0

>  <SCORE.INTRA.POLAR>
0

>  <SCORE.INTRA.POLAR.0>
0

>  <SCORE.INTRA.REPUL>
0

>  <SCORE.INTRA.REPUL.0>
0

>  <SCORE.INTRA.SOLV>
0

>  <SCORE.INTRA.SOLV.lig_0>
-48.9558

>  <SCORE.INTRA.VDW>
0

>  <SCORE.INTRA.VDW.0>
0

>  <SCORE.INTRA.norm>
0

>  <SCORE.RESTR>
0

>  <SCORE.RESTR.CAVITY>
0

>  <SCORE.RESTR.norm>
0

>  <SCORE.SYSTEM>
0

>  <SCORE.SYSTEM.CONST>
0

>  <SCORE.SYSTEM.DIHEDRAL>
0

>  <SCORE.SYSTEM.SOLV>
0

>  <SCORE.SYSTEM.norm>
0

>  <SCORE.heavy>
11

>  <SCORE.norm>
-1.02565

>  <RMSD>
0.585

$$$$
ligand
 OpenBabel11021811493D
libRbt.so/2013.1/901 2013/11/27
 11 12  0  0  0  0  0  0  0  0999 V2000
   11.9563   11.5884    8.5642 N   0  0  0  0  0  0  0  0  0  0  0  0
   11.5872   12.8605    8.7842 C   0  0  0  0  0  0  0  0  0  0  0  0
   11.6220   13.3587   10.0758 N   0  0  0  0  0  0  0  0  0  0  0  0
   11.1858   13.6579    7.7808 N   0  0  0  0  0  0  0  0  0  0  0  0
   11.1407   13.2022    6.5072 C   0  0  0  0  0  0  0  0  0  0  0  0
   11.5222   11.8655    6.2281 C   0  0  0  0  0  0  0  0  0  0  0  0
   11.9404   11.0545    7.3248 C   0  0  0  0  0  0  0  0  0  0  0  0
   12.3264    9.7419    7.1300 N   0  0  0  0  0  0  0  0  0  0  0  0
   11.3796   11.6787    4.8928 N   0  0  0  0  0  0  0  0  0  0  0  0
   10.9486   12.7803    4.3460 C   0  0  0  0  0  0  0  0  0  0  0  0
   10.7870   13.7472    5.2997 N   0  0  0  0  0  0  0  0  0  0  0  0
  1  7  2  0  0  0  0
  1  2  1  0  0  0  0
  2  3  1  0  0  0  0
  2  4  2  0  0  0  0
  4  5  1  0  0  0  0
  5  6  2  0  0  0  0
  5 11  1  0  0  0  0
  6  7  1  0  0  0  0
  6  9  1  0  0  0  0
  7  8  1  0  0  0  0
  9 10  1  0  0  0  0
 10 11  2  0  0  0  0
M  END
>  <CHROM.1>
11.49491419,12.31928525,7.01860049,-1.13383593,1.23445904,-2.01197855

>  <Name>
ligand

>  <RI>
0

>  <Rbt.Current_Directory>
/home/itssahil/PROJECTS/Mol_Feturizer/New_Systems/rnas/4FEP

>  <Rbt.Executable>
rbdock ($Id: //depot/dev/client3/rdock/2013.1/src/exe/rbdock.cxx#4 $)

>  <Rbt.Library>
libRbt.so (2013.1, Build901 2013/11/27)

>  <Rbt.Parameter_File>
/export/apps/rDock/src/rDock_2013.1_src/data/scripts/dock_solv.prm

>  <Rbt.Receptor>
prm/blind_docking_100.prm

>  <SCORE>
-11.2824

>  <SCORE.INTER>
-11.2824

>  <SCORE.INTER.CONST>
1

>  <SCORE.INTER.POLAR>
0

>  <SCORE.INTER.ROT>
0

>  <SCORE.INTER.SOLV>
21.1557

>  <SCORE.INTER.VDW>
-18.1735

>  <SCORE.INTER.norm>
-1.02568

>  <SCORE.INTRA>
0

>  <SCORE.INTRA.DIHEDRAL>
0

>  <SCORE.INTRA.DIHEDRAL.0>
0

>  <SCORE.INTRA.POLAR>
0

>  <SCORE.INTRA.POLAR.0>
0

>  <SCORE.INTRA.REPUL>
0

>  <SCORE.INTRA.REPUL.0>
0

>  <SCORE.INTRA.SOLV>
0

>  <SCORE.INTRA.SOLV.lig_0>
-48.9558

>  <SCORE.INTRA.VDW>
0

>  <SCORE.INTRA.VDW.0>
0

>  <SCORE.INTRA.norm>
0

>  <SCORE.RESTR>
0

>  <SCORE.RESTR.CAVITY>
0

>  <SCORE.RESTR.norm>
0

>  <SCORE.SYSTEM>
0

>  <SCORE.SYSTEM.CONST>
0

>  <SCORE.SYSTEM.DIHEDRAL>
0

>  <SCORE.SYSTEM.SOLV>
0

>  <SCORE.SYSTEM.norm>
0

>  <SCORE.heavy>
11

>  <SCORE.norm>
-1.02568

>  <RMSD>
0.586

$$$$
ligand
 OpenBabel11021811493D
libRbt.so/2013.1/901 2013/11/27
 11 12  0  0  0  0  0  0  0  0999 V2000
   11.9693   11.5893    8.5563 N   0  0  0  0  0  0  0  0  0  0  0  0
   11.5927   12.8577    8.7845 C   0  0  0  0  0  0  0  0  0  0  0  0
   11.6343   13.3509   10.0778 N   0  0  0  0  0  0  0  0  0  0  0  0
   11.1775   13.6562    7.7876 N   0  0  0  0  0  0  0  0  0  0  0  0
   11.1254   13.2054    6.5125 C   0  0  0  0  0  0  0  0  0  0  0  0
   11.5144   11.8726    6.2250 C   0  0  0  0  0  0  0  0  0  0  0  0
   11.9473   11.0602    7.3149 C   0  0  0  0  0  0  0  0  0  0  0  0
   12.3413    9.7513    7.1115 N   0  0  0  0  0  0  0  0  0  0  0  0
   11.3624   11.6902    4.8900 N   0  0  0  0  0  0  0  0  0  0  0  0
   10.9190   12.7908    4.3512 C   0  0  0  0  0  0  0  0  0  0  0  0
   10.7580   13.7527    5.3102 N   0  0  0  0  0  0  0  0  0  0  0  0
  1  7  2  0  0  0  0
  1  2  1  0  0  0  0
  2  3  1  0  0  0  0
  2  4  2  0  0  0  0
  4  5  1  0  0  0  0
  5  6  2  0  0  0  0
  5 11  1  0  0  0  0
  6  7  1  0  0  0  0
  6  9  1  0  0  0  0
  7  8  1  0  0  0  0
  9 10  1  0  0  0  0
 10 11  2  0  0  0  0
M  END
>  <CHROM.1>
11.49016813,12.32299868,7.01747067,-1.12153935,1.22442039,-2.01947370

>  <Name>
ligand

>  <RI>
0

>  <Rbt.Current_Directory>
/home/itssahil/PROJECTS/Mol_Feturizer/New_Systems/rnas/4FEP

>  <Rbt.Executable>
rbdock ($Id: //depot/dev/client3/rdock/2013.1/src/exe/rbdock.cxx#4 $)

>  <Rbt.Library>
libRbt.so (2013.1, Build901 2013/11/27)

>  <Rbt.Parameter_File>
/export/apps/rDock/src/rDock_2013.1_src/data/scripts/dock_solv.prm

>  <Rbt.Receptor>
prm/blind_docking_40.prm

>  <SCORE>
-11.2689

>  <SCORE.INTER>
-11.2689

>  <SCORE.INTER.CONST>
1

>  <SCORE.INTER.POLAR>
0

>  <SCORE.INTER.ROT>
0

>  <SCORE.INTER.SOLV>
21.0709

>  <SCORE.INTER.VDW>
-18.1362

>  <SCORE.INTER.norm>
-1.02444

>  <SCORE.INTRA>
0

>  <SCORE.INTRA.DIHEDRAL>
0

>  <SCORE.INTRA.DIHEDRAL.0>
0

>  <SCORE.INTRA.POLAR>
0

>  <SCORE.INTRA.POLAR.0>
0

>  <SCORE.INTRA.REPUL>
0

>  <SCORE.INTRA.REPUL.0>
0

>  <SCORE.INTRA.SOLV>
0

>  <SCORE.INTRA.SOLV.lig_0>
-48.9558

>  <SCORE.INTRA.VDW>
0

>  <SCORE.INTRA.VDW.0>
0

>  <SCORE.INTRA.norm>
0

>  <SCORE.RESTR>
0

>  <SCORE.RESTR.CAVITY>
0

>  <SCORE.RESTR.norm>
0

>  <SCORE.SYSTEM>
0

>  <SCORE.SYSTEM.CONST>
0

>  <SCORE.SYSTEM.DIHEDRAL>
0

>  <SCORE.SYSTEM.SOLV>
0

>  <SCORE.SYSTEM.norm>
0

>  <SCORE.heavy>
11

>  <SCORE.norm>
-1.02444

>  <RMSD>
0.586

$$$$
ligand
 OpenBabel11021811493D
libRbt.so/2013.1/901 2013/11/27
 11 12  0  0  0  0  0  0  0  0999 V2000
   11.9742   11.6282    8.5714 N   0  0  0  0  0  0  0  0  0  0  0  0
   11.5948   12.8989    8.7819 C   0  0  0  0  0  0  0  0  0  0  0  0
   11.6312   13.4088   10.0689 N   0  0  0  0  0  0  0  0  0  0  0  0
   11.1817   13.6838    7.7734 N   0  0  0  0  0  0  0  0  0  0  0  0
   11.1347   13.2163    6.5041 C   0  0  0  0  0  0  0  0  0  0  0  0
   11.5268   11.8806    6.2351 C   0  0  0  0  0  0  0  0  0  0  0  0
   11.9573   11.0831    7.3369 C   0  0  0  0  0  0  0  0  0  0  0  0
   12.3540    9.7723    7.1519 N   0  0  0  0  0  0  0  0  0  0  0  0
   11.3796   11.6807    4.9021 N   0  0  0  0  0  0  0  0  0  0  0  0
   10.9364   12.7735    4.3476 C   0  0  0  0  0  0  0  0  0  0  0  0
   10.7706   13.7475    5.2935 N   0  0  0  0  0  0  0  0  0  0  0  0
  1  7  2  0  0  0  0
  1  2  1  0  0  0  0
  2  3  1  0  0  0  0
  2  4  2  0  0  0  0
  4  5  1  0  0  0  0
  5  6  2  0  0  0  0
  5 11  1  0  0  0  0
  6  7  1  0  0  0  0
  6  9  1  0  0  0  0
  7  8  1  0  0  0  0
  9 10  1  0  0  0  0
 10 11  2  0  0  0  0
M  END
>  <CHROM.1>
11.49914104,12.34116913,7.02164342,-1.13264455,1.22445056,-2.02196349

>  <Name>
ligand

>  <RI>
0

>  <Rbt.Current_Directory>
/home/itssahil/PROJECTS/Mol_Feturizer/New_Systems/rnas/4FEP

>  <Rbt.Executable>
rbdock ($Id: //depot/dev/client3/rdock/2013.1/src/exe/rbdock.cxx#4 $)

>  <Rbt.Library>
libRbt.so (2013.1, Build901 2013/11/27)

>  <Rbt.Parameter_File>
/export/apps/rDock/src/rDock_2013.1_src/data/scripts/dock_solv.prm

>  <Rbt.Receptor>
prm/pocket_docking_6.prm

>  <SCORE>
-11.1993

>  <SCORE.INTER>
-11.1993

>  <SCORE.INTER.CONST>
1

>  <SCORE.INTER.POLAR>
0

>  <SCORE.INTER.ROT>
0

>  <SCORE.INTER.SOLV>
21.1074

>  <SCORE.INTER.VDW>
-18.102

>  <SCORE.INTER.norm>
-1.01812

>  <SCORE.INTRA>
0

>  <SCORE.INTRA.DIHEDRAL>
0

>  <SCORE.INTRA.DIHEDRAL.0>
0

>  <SCORE.INTRA.POLAR>
0

>  <SCORE.INTRA.POLAR.0>
0

>  <SCORE.INTRA.REPUL>
0

>  <SCORE.INTRA.REPUL.0>
0

>  <SCORE.INTRA.SOLV>
0

>  <SCORE.INTRA.SOLV.lig_0>
-48.9558

>  <SCORE.INTRA.VDW>
0

>  <SCORE.INTRA.VDW.0>
0

>  <SCORE.INTRA.norm>
0

>  <SCORE.RESTR>
0

>  <SCORE.RESTR.CAVITY>
0

>  <SCORE.RESTR.norm>
0

>  <SCORE.SYSTEM>
0

>  <SCORE.SYSTEM.CONST>
0

>  <SCORE.SYSTEM.DIHEDRAL>
0

>  <SCORE.SYSTEM.SOLV>
0

>  <SCORE.SYSTEM.norm>
0

>  <SCORE.heavy>
11

>  <SCORE.norm>
-1.01812

>  <RMSD>
0.586

$$$$
ligand
 OpenBabel11021811493D
libRbt.so/2013.1/901 2013/11/27
 11 12  0  0  0  0  0  0  0  0999 V2000
   11.9600   11.5894    8.5601 N   0  0  0  0  0  0  0  0  0  0  0  0
   11.5884   12.8608    8.7804 C   0  0  0  0  0  0  0  0  0  0  0  0
   11.6254   13.3597   10.0716 N   0  0  0  0  0  0  0  0  0  0  0  0
   11.1827   13.6567    7.7776 N   0  0  0  0  0  0  0  0  0  0  0  0
   11.1354   13.2002    6.5043 C   0  0  0  0  0  0  0  0  0  0  0  0
   11.5193   11.8643    6.2250 C   0  0  0  0  0  0  0  0  0  0  0  0
   11.9422   11.0548    7.3211 C   0  0  0  0  0  0  0  0  0  0  0  0
   12.3307    9.7430    7.1259 N   0  0  0  0  0  0  0  0  0  0  0  0
   11.3738   11.6765    4.8901 N   0  0  0  0  0  0  0  0  0  0  0  0
   10.9389   12.7767    4.3438 C   0  0  0  0  0  0  0  0  0  0  0  0
   10.7774   13.7438    5.2974 N   0  0  0  0  0  0  0  0  0  0  0  0
  1  7  2  0  0  0  0
  1  2  1  0  0  0  0
  2  3  1  0  0  0  0
  2  4  2  0  0  0  0
  4  5  1  0  0  0  0
  5  6  2  0  0  0  0
  5 11  1  0  0  0  0
  6  7  1  0  0  0  0
  6  9  1  0  0  0  0
  7  8  1  0  0  0  0
  9 10  1  0  0  0  0
 10 11  2  0  0  0  0
M  END
>  <CHROM.1>
11.49297665,12.31840449,7.01530078,-1.12997588,1.23128227,-2.01613410

>  <Name>
ligand

>  <RI>
0

>  <Rbt.Current_Directory>
/home/itssahil/PROJECTS/Mol_Feturizer/New_Systems/rnas/4FEP

>  <Rbt.Executable>
rbdock ($Id: //depot/dev/client3/rdock/2013.1/src/exe/rbdock.cxx#4 $)

>  <Rbt.Library>
libRbt.so (2013.1, Build901 2013/11/27)

>  <Rbt.Parameter_File>
/export/apps/rDock/src/rDock_2013.1_src/data/scripts/dock_solv.prm

>  <Rbt.Receptor>
prm/pocket_docking_4.prm

>  <SCORE>
-11.2829

>  <SCORE.INTER>
-11.2829

>  <SCORE.INTER.CONST>
1

>  <SCORE.INTER.POLAR>
0

>  <SCORE.INTER.ROT>
0

>  <SCORE.INTER.SOLV>
21.1329

>  <SCORE.INTER.VDW>
-18.1662

>  <SCORE.INTER.norm>
-1.02571

>  <SCORE.INTRA>
0

>  <SCORE.INTRA.DIHEDRAL>
0

>  <SCORE.INTRA.DIHEDRAL.0>
0

>  <SCORE.INTRA.POLAR>
0

>  <SCORE.INTRA.POLAR.0>
0

>  <SCORE.INTRA.REPUL>
0

>  <SCORE.INTRA.REPUL.0>
0

>  <SCORE.INTRA.SOLV>
0

>  <SCORE.INTRA.SOLV.lig_0>
-48.9558

>  <SCORE.INTRA.VDW>
0

>  <SCORE.INTRA.VDW.0>
0

>  <SCORE.INTRA.norm>
0

>  <SCORE.RESTR>
0

>  <SCORE.RESTR.CAVITY>
0

>  <SCORE.RESTR.norm>
0

>  <SCORE.SYSTEM>
0

>  <SCORE.SYSTEM.CONST>
0

>  <SCORE.SYSTEM.DIHEDRAL>
0

>  <SCORE.SYSTEM.SOLV>
0

>  <SCORE.SYSTEM.norm>
0

>  <SCORE.heavy>
11

>  <SCORE.norm>
-1.02571

>  <RMSD>
0.588

$$$$
ligand
 OpenBabel11021811493D
libRbt.so/2013.1/901 2013/11/27
 11 12  0  0  0  0  0  0  0  0999 V2000
   12.0320   11.5845    8.5548 N   0  0  0  0  0  0  0  0  0  0  0  0
   11.6826   12.8601    8.7865 C   0  0  0  0  0  0  0  0  0  0  0  0
   11.7574   13.3556   10.0774 N   0  0  0  0  0  0  0  0  0  0  0  0
   11.2632   13.6635    7.7953 N   0  0  0  0  0  0  0  0  0  0  0  0
   11.1791   13.2105    6.5227 C   0  0  0  0  0  0  0  0  0  0  0  0
   11.5386   11.8703    6.2316 C   0  0  0  0  0  0  0  0  0  0  0  0
   11.9772   11.0529    7.3155 C   0  0  0  0  0  0  0  0  0  0  0  0
   12.3437    9.7366    7.1085 N   0  0  0  0  0  0  0  0  0  0  0  0
   11.3583   11.6874    4.9002 N   0  0  0  0  0  0  0  0  0  0  0  0
   10.9247   12.7945    4.3668 C   0  0  0  0  0  0  0  0  0  0  0  0
   10.7991   13.7615    5.3259 N   0  0  0  0  0  0  0  0  0  0  0  0
  1  7  2  0  0  0  0
  1  2  1  0  0  0  0
  2  3  1  0  0  0  0
  2  4  2  0  0  0  0
  4  5  1  0  0  0  0
  5  6  2  0  0  0  0
  5 11  1  0  0  0  0
  6  7  1  0  0  0  0
  6  9  1  0  0  0  0
  7  8  1  0  0  0  0
  9 10  1  0  0  0  0
 10 11  2  0  0  0  0
M  END
>  <CHROM.1>
11.53732507,12.32297965,7.02318258,-1.04721528,1.23159730,-2.09209053

>  <Name>
ligand

>  <RI>
0

>  <Rbt.Current_Directory>
/home/itssahil/PROJECTS/Mol_Feturizer/New_Systems/rnas/4FEP

>  <Rbt.Executable>
rbdock ($Id: //depot/dev/client3/rdock/2013.1/src/exe/rbdock.cxx#4 $)

>  <Rbt.Library>
libRbt.so (2013.1, Build901 2013/11/27)

>  <Rbt.Parameter_File>
/export/apps/rDock/src/rDock_2013.1_src/data/scripts/dock_solv.prm

>  <Rbt.Receptor>
prm/pocket_docking_4.prm

>  <SCORE>
-11.2233

>  <SCORE.INTER>
-11.2233

>  <SCORE.INTER.CONST>
1

>  <SCORE.INTER.POLAR>
0

>  <SCORE.INTER.ROT>
0

>  <SCORE.INTER.SOLV>
21.0538

>  <SCORE.INTER.VDW>
-18.1001

>  <SCORE.INTER.norm>
-1.0203

>  <SCORE.INTRA>
0

>  <SCORE.INTRA.DIHEDRAL>
0

>  <SCORE.INTRA.DIHEDRAL.0>
0

>  <SCORE.INTRA.POLAR>
0

>  <SCORE.INTRA.POLAR.0>
0

>  <SCORE.INTRA.REPUL>
0

>  <SCORE.INTRA.REPUL.0>
0

>  <SCORE.INTRA.SOLV>
0

>  <SCORE.INTRA.SOLV.lig_0>
-48.9558

>  <SCORE.INTRA.VDW>
0

>  <SCORE.INTRA.VDW.0>
0

>  <SCORE.INTRA.norm>
0

>  <SCORE.RESTR>
0

>  <SCORE.RESTR.CAVITY>
0

>  <SCORE.RESTR.norm>
0

>  <SCORE.SYSTEM>
0

>  <SCORE.SYSTEM.CONST>
0

>  <SCORE.SYSTEM.DIHEDRAL>
0

>  <SCORE.SYSTEM.SOLV>
0

>  <SCORE.SYSTEM.norm>
0

>  <SCORE.heavy>
11

>  <SCORE.norm>
-1.0203

>  <RMSD>
0.588

$$$$
ligand
 OpenBabel11021811493D
libRbt.so/2013.1/901 2013/11/27
 11 12  0  0  0  0  0  0  0  0999 V2000
   11.9520   11.5947    8.5606 N   0  0  0  0  0  0  0  0  0  0  0  0
   11.5791   12.8658    8.7805 C   0  0  0  0  0  0  0  0  0  0  0  0
   11.6145   13.3648   10.0718 N   0  0  0  0  0  0  0  0  0  0  0  0
   11.1735   13.6613    7.7773 N   0  0  0  0  0  0  0  0  0  0  0  0
   11.1277   13.2047    6.5041 C   0  0  0  0  0  0  0  0  0  0  0  0
   11.5130   11.8690    6.2252 C   0  0  0  0  0  0  0  0  0  0  0  0
   11.9357   11.0600    7.3216 C   0  0  0  0  0  0  0  0  0  0  0  0
   12.3256    9.7486    7.1269 N   0  0  0  0  0  0  0  0  0  0  0  0
   11.3688   11.6810    4.8901 N   0  0  0  0  0  0  0  0  0  0  0  0
   10.9334   12.7809    4.3434 C   0  0  0  0  0  0  0  0  0  0  0  0
   10.7702   13.7478    5.2969 N   0  0  0  0  0  0  0  0  0  0  0  0
  1  7  2  0  0  0  0
  1  2  1  0  0  0  0
  2  3  1  0  0  0  0
  2  4  2  0  0  0  0
  4  5  1  0  0  0  0
  5  6  2  0  0  0  0
  5 11  1  0  0  0  0
  6  7  1  0  0  0  0
  6  9  1  0  0  0  0
  7  8  1  0  0  0  0
  9 10  1  0  0  0  0
 10 11  2  0  0  0  0
M  END
>  <CHROM.1>
11.48560478,12.32318627,7.01540871,-1.13344459,1.23082748,-2.01292009

>  <Name>
ligand

>  <RI>
0

>  <Rbt.Current_Directory>
/home/itssahil/PROJECTS/Mol_Feturizer/New_Systems/rnas/4FEP

>  <Rbt.Executable>
rbdock ($Id: //depot/dev/client3/rdock/2013.1/src/exe/rbdock.cxx#4 $)

>  <Rbt.Library>
libRbt.so (2013.1, Build901 2013/11/27)

>  <Rbt.Parameter_File>
/export/apps/rDock/src/rDock_2013.1_src/data/scripts/dock_solv.prm

>  <Rbt.Receptor>
prm/pocket_docking_3.prm

>  <SCORE>
-11.277

>  <SCORE.INTER>
-11.277

>  <SCORE.INTER.CONST>
1

>  <SCORE.INTER.POLAR>
0

>  <SCORE.INTER.ROT>
0

>  <SCORE.INTER.SOLV>
21.1575

>  <SCORE.INTER.VDW>
-18.1705

>  <SCORE.INTER.norm>
-1.02518

>  <SCORE.INTRA>
0

>  <SCORE.INTRA.DIHEDRAL>
0

>  <SCORE.INTRA.DIHEDRAL.0>
0

>  <SCORE.INTRA.POLAR>
0

>  <SCORE.INTRA.POLAR.0>
0

>  <SCORE.INTRA.REPUL>
0

>  <SCORE.INTRA.REPUL.0>
0

>  <SCORE.INTRA.SOLV>
0

>  <SCORE.INTRA.SOLV.lig_0>
-48.9558

>  <SCORE.INTRA.VDW>
0

>  <SCORE.INTRA.VDW.0>
0

>  <SCORE.INTRA.norm>
0

>  <SCORE.RESTR>
0

>  <SCORE.RESTR.CAVITY>
0

>  <SCORE.RESTR.norm>
0

>  <SCORE.SYSTEM>
0

>  <SCORE.SYSTEM.CONST>
0

>  <SCORE.SYSTEM.DIHEDRAL>
0

>  <SCORE.SYSTEM.SOLV>
0

>  <SCORE.SYSTEM.norm>
0

>  <SCORE.heavy>
11

>  <SCORE.norm>
-1.02518

>  <RMSD>
0.589

$$$$
ligand
 OpenBabel11021811493D
libRbt.so/2013.1/901 2013/11/27
 11 12  0  0  0  0  0  0  0  0999 V2000
   11.9664   11.5919    8.5570 N   0  0  0  0  0  0  0  0  0  0  0  0
   11.5939   12.8623    8.7812 C   0  0  0  0  0  0  0  0  0  0  0  0
   11.6334   13.3582   10.0735 N   0  0  0  0  0  0  0  0  0  0  0  0
   11.1848   13.6601    7.7812 N   0  0  0  0  0  0  0  0  0  0  0  0
   11.1350   13.2064    6.5070 C   0  0  0  0  0  0  0  0  0  0  0  0
   11.5197   11.8716    6.2237 C   0  0  0  0  0  0  0  0  0  0  0  0
   11.9462   11.0600    7.3168 C   0  0  0  0  0  0  0  0  0  0  0  0
   12.3358    9.7492    7.1176 N   0  0  0  0  0  0  0  0  0  0  0  0
   11.3711   11.6867    4.8887 N   0  0  0  0  0  0  0  0  0  0  0  0
   10.9337   12.7877    4.3460 C   0  0  0  0  0  0  0  0  0  0  0  0
   10.7734   13.7524    5.3022 N   0  0  0  0  0  0  0  0  0  0  0  0
  1  7  2  0  0  0  0
  1  2  1  0  0  0  0
  2  3  1  0  0  0  0
  2  4  2  0  0  0  0
  4  5  1  0  0  0  0
  5  6  2  0  0  0  0
  5 11  1  0  0  0  0
  6  7  1  0  0  0  0
  6  9  1  0  0  0  0
  7  8  1  0  0  0  0
  9 10  1  0  0  0  0
 10 11  2  0  0  0  0
M  END
>  <CHROM.1>
11.49478985,12.32385924,7.01505743,-1.12490575,1.22918150,-2.01859571

>  <Name>
ligand

>  <RI>
0

>  <Rbt.Current_Directory>
/home/itssahil/PROJECTS/Mol_Feturizer/New_Systems/rnas/4FEP

>  <Rbt.Executable>
rbdock ($Id: //depot/dev/client3/rdock/2013.1/src/exe/rbdock.cxx#4 $)

>  <Rbt.Library>
libRbt.so (2013.1, Build901 2013/11/27)

>  <Rbt.Parameter_File>
/export/apps/rDock/src/rDock_2013.1_src/data/scripts/dock_solv.prm

>  <Rbt.Receptor>
prm/pocket_docking_7.prm

>  <SCORE>
-11.2741

>  <SCORE.INTER>
-11.2741

>  <SCORE.INTER.CONST>
1

>  <SCORE.INTER.POLAR>
0

>  <SCORE.INTER.ROT>
0

>  <SCORE.INTER.SOLV>
21.1068

>  <SCORE.INTER.VDW>
-18.1517

>  <SCORE.INTER.norm>
-1.02492

>  <SCORE.INTRA>
0

>  <SCORE.INTRA.DIHEDRAL>
0

>  <SCORE.INTRA.DIHEDRAL.0>
0

>  <SCORE.INTRA.POLAR>
0

>  <SCORE.INTRA.POLAR.0>
0

>  <SCORE.INTRA.REPUL>
0

>  <SCORE.INTRA.REPUL.0>
0

>  <SCORE.INTRA.SOLV>
0

>  <SCORE.INTRA.SOLV.lig_0>
-48.9558

>  <SCORE.INTRA.VDW>
0

>  <SCORE.INTRA.VDW.0>
0

>  <SCORE.INTRA.norm>
0

>  <SCORE.RESTR>
0

>  <SCORE.RESTR.CAVITY>
0

>  <SCORE.RESTR.norm>
0

>  <SCORE.SYSTEM>
0

>  <SCORE.SYSTEM.CONST>
0

>  <SCORE.SYSTEM.DIHEDRAL>
0

>  <SCORE.SYSTEM.SOLV>
0

>  <SCORE.SYSTEM.norm>
0

>  <SCORE.heavy>
11

>  <SCORE.norm>
-1.02492

>  <RMSD>
0.590

$$$$
ligand
 OpenBabel11021811493D
libRbt.so/2013.1/901 2013/11/27
 11 12  0  0  0  0  0  0  0  0999 V2000
   11.8203   11.5391    8.4277 N   0  0  0  0  0  0  0  0  0  0  0  0
   12.4111   10.5702    7.7101 C   0  0  0  0  0  0  0  0  0  0  0  0
   13.1064    9.5711    8.3704 N   0  0  0  0  0  0  0  0  0  0  0  0
   12.3424   10.5495    6.3690 N   0  0  0  0  0  0  0  0  0  0  0  0
   11.6705   11.5107    5.6932 C   0  0  0  0  0  0  0  0  0  0  0  0
   11.0306   12.5531    6.4101 C   0  0  0  0  0  0  0  0  0  0  0  0
   11.1309   12.5355    7.8331 C   0  0  0  0  0  0  0  0  0  0  0  0
   10.5334   13.5186    8.5988 N   0  0  0  0  0  0  0  0  0  0  0  0
   10.4448   13.3663    5.4969 N   0  0  0  0  0  0  0  0  0  0  0  0
   10.6740   12.9069    4.2992 C   0  0  0  0  0  0  0  0  0  0  0  0
   11.4243   11.7654    4.3685 N   0  0  0  0  0  0  0  0  0  0  0  0
  1  7  2  0  0  0  0
  1  2  1  0  0  0  0
  2  3  1  0  0  0  0
  2  4  2  0  0  0  0
  4  5  1  0  0  0  0
  5  6  2  0  0  0  0
  5 11  1  0  0  0  0
  6  7  1  0  0  0  0
  6  9  1  0  0  0  0
  7  8  1  0  0  0  0
  9 10  1  0  0  0  0
 10 11  2  0  0  0  0
M  END
>  <CHROM.1>
11.51669580,11.84209434,6.70955236,0.77997092,-0.98884649,1.47810459

>  <Name>
ligand

>  <RI>
0

>  <Rbt.Current_Directory>
/home/itssahil/PROJECTS/Mol_Feturizer/New_Systems/rnas/4FEP

>  <Rbt.Executable>
rbdock ($Id: //depot/dev/client3/rdock/2013.1/src/exe/rbdock.cxx#4 $)

>  <Rbt.Library>
libRbt.so (2013.1, Build901 2013/11/27)

>  <Rbt.Parameter_File>
/export/apps/rDock/src/rDock_2013.1_src/data/scripts/dock_solv.prm

>  <Rbt.Receptor>
prm/blind_docking_20.prm

>  <SCORE>
-6.60613

>  <SCORE.INTER>
-6.60613

>  <SCORE.INTER.CONST>
1

>  <SCORE.INTER.POLAR>
0

>  <SCORE.INTER.ROT>
0

>  <SCORE.INTER.SOLV>
20.1156

>  <SCORE.INTER.VDW>
-14.7093

>  <SCORE.INTER.norm>
-0.600557

>  <SCORE.INTRA>
0

>  <SCORE.INTRA.DIHEDRAL>
0

>  <SCORE.INTRA.DIHEDRAL.0>
0

>  <SCORE.INTRA.POLAR>
0

>  <SCORE.INTRA.POLAR.0>
0

>  <SCORE.INTRA.REPUL>
0

>  <SCORE.INTRA.REPUL.0>
0

>  <SCORE.INTRA.SOLV>
0

>  <SCORE.INTRA.SOLV.lig_0>
-48.9558

>  <SCORE.INTRA.VDW>
0

>  <SCORE.INTRA.VDW.0>
0

>  <SCORE.INTRA.norm>
0

>  <SCORE.RESTR>
0

>  <SCORE.RESTR.CAVITY>
0

>  <SCORE.RESTR.norm>
0

>  <SCORE.SYSTEM>
0

>  <SCORE.SYSTEM.CONST>
0

>  <SCORE.SYSTEM.DIHEDRAL>
0

>  <SCORE.SYSTEM.SOLV>
0

>  <SCORE.SYSTEM.norm>
0

>  <SCORE.heavy>
11

>  <SCORE.norm>
-0.600557

>  <RMSD>
2.745

$$$$
ligand
 OpenBabel11021811493D
libRbt.so/2013.1/901 2013/11/27
 11 12  0  0  0  0  0  0  0  0999 V2000
   11.8694   10.9032    8.6898 N   0  0  0  0  0  0  0  0  0  0  0  0
   12.0843   10.1415    7.6050 C   0  0  0  0  0  0  0  0  0  0  0  0
   12.4644    8.8207    7.7734 N   0  0  0  0  0  0  0  0  0  0  0  0
   11.9387   10.6324    6.3634 N   0  0  0  0  0  0  0  0  0  0  0  0
   11.5679   11.9187    6.1642 C   0  0  0  0  0  0  0  0  0  0  0  0
   11.3297   12.7594    7.2807 C   0  0  0  0  0  0  0  0  0  0  0  0
   11.4976   12.1959    8.5806 C   0  0  0  0  0  0  0  0  0  0  0  0
   11.2835   12.9544    9.7158 N   0  0  0  0  0  0  0  0  0  0  0  0
   10.9807   13.9774    6.7978 N   0  0  0  0  0  0  0  0  0  0  0  0
   10.9871   13.9437    5.4951 C   0  0  0  0  0  0  0  0  0  0  0  0
   11.3419   12.6971    5.0582 N   0  0  0  0  0  0  0  0  0  0  0  0
  1  7  2  0  0  0  0
  1  2  1  0  0  0  0
  2  3  1  0  0  0  0
  2  4  2  0  0  0  0
  4  5  1  0  0  0  0
  5  6  2  0  0  0  0
  5 11  1  0  0  0  0
  6  7  1  0  0  0  0
  6  9  1  0  0  0  0
  7  8  1  0  0  0  0
  9 10  1  0  0  0  0
 10 11  2  0  0  0  0
M  END
>  <CHROM.1>
11.58261477,11.88410672,7.24358984,0.47050990,-1.29122500,1.55924995

>  <Name>
ligand

>  <RI>
0

>  <Rbt.Current_Directory>
/home/itssahil/PROJECTS/Mol_Feturizer/New_Systems/rnas/4FEP

>  <Rbt.Executable>
rbdock ($Id: //depot/dev/client3/rdock/2013.1/src/exe/rbdock.cxx#4 $)

>  <Rbt.Library>
libRbt.so (2013.1, Build901 2013/11/27)

>  <Rbt.Parameter_File>
/export/apps/rDock/src/rDock_2013.1_src/data/scripts/dock_solv.prm

>  <Rbt.Receptor>
prm/pocket_docking_3.prm

>  <SCORE>
-9.51364

>  <SCORE.INTER>
-9.51364

>  <SCORE.INTER.CONST>
1

>  <SCORE.INTER.POLAR>
0

>  <SCORE.INTER.ROT>
0

>  <SCORE.INTER.SOLV>
20.6385

>  <SCORE.INTER.VDW>
-16.8219

>  <SCORE.INTER.norm>
-0.864876

>  <SCORE.INTRA>
0

>  <SCORE.INTRA.DIHEDRAL>
0

>  <SCORE.INTRA.DIHEDRAL.0>
0

>  <SCORE.INTRA.POLAR>
0

>  <SCORE.INTRA.POLAR.0>
0

>  <SCORE.INTRA.REPUL>
0

>  <SCORE.INTRA.REPUL.0>
0

>  <SCORE.INTRA.SOLV>
0

>  <SCORE.INTRA.SOLV.lig_0>
-48.9558

>  <SCORE.INTRA.VDW>
0

>  <SCORE.INTRA.VDW.0>
0

>  <SCORE.INTRA.norm>
0

>  <SCORE.RESTR>
0

>  <SCORE.RESTR.CAVITY>
0

>  <SCORE.RESTR.norm>
0

>  <SCORE.SYSTEM>
0

>  <SCORE.SYSTEM.CONST>
0

>  <SCORE.SYSTEM.DIHEDRAL>
0

>  <SCORE.SYSTEM.SOLV>
0

>  <SCORE.SYSTEM.norm>
0

>  <SCORE.heavy>
11

>  <SCORE.norm>
-0.864876

>  <RMSD>
2.801

$$$$
ligand
 OpenBabel11021811493D
libRbt.so/2013.1/901 2013/11/27
 11 12  0  0  0  0  0  0  0  0999 V2000
   11.8701   10.9024    8.6715 N   0  0  0  0  0  0  0  0  0  0  0  0
   12.0862   10.1412    7.5867 C   0  0  0  0  0  0  0  0  0  0  0  0
   12.4626    8.8193    7.7551 N   0  0  0  0  0  0  0  0  0  0  0  0
   11.9454   10.6335    6.3451 N   0  0  0  0  0  0  0  0  0  0  0  0
   11.5783   11.9209    6.1459 C   0  0  0  0  0  0  0  0  0  0  0  0
   11.3390   12.7612    7.2625 C   0  0  0  0  0  0  0  0  0  0  0  0
   11.5018   12.1962    8.5624 C   0  0  0  0  0  0  0  0  0  0  0  0
   11.2864   12.9543    9.6976 N   0  0  0  0  0  0  0  0  0  0  0  0
   10.9945   13.9805    6.7796 N   0  0  0  0  0  0  0  0  0  0  0  0
   11.0045   13.9479    5.4770 C   0  0  0  0  0  0  0  0  0  0  0  0
   11.3574   12.7008    5.0400 N   0  0  0  0  0  0  0  0  0  0  0  0
  1  7  2  0  0  0  0
  1  2  1  0  0  0  0
  2  3  1  0  0  0  0
  2  4  2  0  0  0  0
  4  5  1  0  0  0  0
  5  6  2  0  0  0  0
  5 11  1  0  0  0  0
  6  7  1  0  0  0  0
  6  9  1  0  0  0  0
  7  8  1  0  0  0  0
  9 10  1  0  0  0  0
 10 11  2  0  0  0  0
M  END
>  <CHROM.1>
11.58989832,11.88533908,7.22537187,0.48086390,-1.29372045,1.57006347

>  <Name>
ligand

>  <RI>
0

>  <Rbt.Current_Directory>
/home/itssahil/PROJECTS/Mol_Feturizer/New_Systems/rnas/4FEP

>  <Rbt.Executable>
rbdock ($Id: //depot/dev/client3/rdock/2013.1/src/exe/rbdock.cxx#4 $)

>  <Rbt.Library>
libRbt.so (2013.1, Build901 2013/11/27)

>  <Rbt.Parameter_File>
/export/apps/rDock/src/rDock_2013.1_src/data/scripts/dock_solv.prm

>  <Rbt.Receptor>
prm/pocket_docking_6.prm

>  <SCORE>
-9.44023

>  <SCORE.INTER>
-9.44023

>  <SCORE.INTER.CONST>
1

>  <SCORE.INTER.POLAR>
0

>  <SCORE.INTER.ROT>
0

>  <SCORE.INTER.SOLV>
20.576

>  <SCORE.INTER.VDW>
-16.7521

>  <SCORE.INTER.norm>
-0.858203

>  <SCORE.INTRA>
0

>  <SCORE.INTRA.DIHEDRAL>
0

>  <SCORE.INTRA.DIHEDRAL.0>
0

>  <SCORE.INTRA.POLAR>
0

>  <SCORE.INTRA.POLAR.0>
0

>  <SCORE.INTRA.REPUL>
0

>  <SCORE.INTRA.REPUL.0>
0

>  <SCORE.INTRA.SOLV>
0

>  <SCORE.INTRA.SOLV.lig_0>
-48.9558

>  <SCORE.INTRA.VDW>
0

>  <SCORE.INTRA.VDW.0>
0

>  <SCORE.INTRA.norm>
0

>  <SCORE.RESTR>
0

>  <SCORE.RESTR.CAVITY>
0

>  <SCORE.RESTR.norm>
0

>  <SCORE.SYSTEM>
0

>  <SCORE.SYSTEM.CONST>
0

>  <SCORE.SYSTEM.DIHEDRAL>
0

>  <SCORE.SYSTEM.SOLV>
0

>  <SCORE.SYSTEM.norm>
0

>  <SCORE.heavy>
11

>  <SCORE.norm>
-0.858203

>  <RMSD>
2.804

$$$$
ligand
 OpenBabel11021811493D
libRbt.so/2013.1/901 2013/11/27
 11 12  0  0  0  0  0  0  0  0999 V2000
   11.9260   10.8811    8.6860 N   0  0  0  0  0  0  0  0  0  0  0  0
   12.1356   10.1218    7.5986 C   0  0  0  0  0  0  0  0  0  0  0  0
   12.5298    8.8044    7.7623 N   0  0  0  0  0  0  0  0  0  0  0  0
   11.9715   10.6116    6.3589 N   0  0  0  0  0  0  0  0  0  0  0  0
   11.5867   11.8945    6.1644 C   0  0  0  0  0  0  0  0  0  0  0  0
   11.3534   12.7327    7.2838 C   0  0  0  0  0  0  0  0  0  0  0  0
   11.5412   12.1705    8.5815 C   0  0  0  0  0  0  0  0  0  0  0  0
   11.3329   12.9267    9.7193 N   0  0  0  0  0  0  0  0  0  0  0  0
   10.9879   13.9476    6.8053 N   0  0  0  0  0  0  0  0  0  0  0  0
   10.9798   13.9143    5.5026 C   0  0  0  0  0  0  0  0  0  0  0  0
   11.3411   12.6712    5.0613 N   0  0  0  0  0  0  0  0  0  0  0  0
  1  7  2  0  0  0  0
  1  2  1  0  0  0  0
  2  3  1  0  0  0  0
  2  4  2  0  0  0  0
  4  5  1  0  0  0  0
  5  6  2  0  0  0  0
  5 11  1  0  0  0  0
  6  7  1  0  0  0  0
  6  9  1  0  0  0  0
  7  8  1  0  0  0  0
  9 10  1  0  0  0  0
 10 11  2  0  0  0  0
M  END
>  <CHROM.1>
11.61394077,11.85978223,7.24354342,0.43131805,-1.28170419,1.52194653

>  <Name>
ligand

>  <RI>
0

>  <Rbt.Current_Directory>
/home/itssahil/PROJECTS/Mol_Feturizer/New_Systems/rnas/4FEP

>  <Rbt.Executable>
rbdock ($Id: //depot/dev/client3/rdock/2013.1/src/exe/rbdock.cxx#4 $)

>  <Rbt.Library>
libRbt.so (2013.1, Build901 2013/11/27)

>  <Rbt.Parameter_File>
/export/apps/rDock/src/rDock_2013.1_src/data/scripts/dock_solv.prm

>  <Rbt.Receptor>
prm/pocket_docking_8.prm

>  <SCORE>
-9.49607

>  <SCORE.INTER>
-9.49607

>  <SCORE.INTER.CONST>
1

>  <SCORE.INTER.POLAR>
0

>  <SCORE.INTER.ROT>
0

>  <SCORE.INTER.SOLV>
20.3202

>  <SCORE.INTER.VDW>
-16.7041

>  <SCORE.INTER.norm>
-0.863279

>  <SCORE.INTRA>
0

>  <SCORE.INTRA.DIHEDRAL>
0

>  <SCORE.INTRA.DIHEDRAL.0>
0

>  <SCORE.INTRA.POLAR>
0

>  <SCORE.INTRA.POLAR.0>
0

>  <SCORE.INTRA.REPUL>
0

>  <SCORE.INTRA.REPUL.0>
0

>  <SCORE.INTRA.SOLV>
0

>  <SCORE.INTRA.SOLV.lig_0>
-48.9558

>  <SCORE.INTRA.VDW>
0

>  <SCORE.INTRA.VDW.0>
0

>  <SCORE.INTRA.norm>
0

>  <SCORE.RESTR>
0

>  <SCORE.RESTR.CAVITY>
0

>  <SCORE.RESTR.norm>
0

>  <SCORE.SYSTEM>
0

>  <SCORE.SYSTEM.CONST>
0

>  <SCORE.SYSTEM.DIHEDRAL>
0

>  <SCORE.SYSTEM.SOLV>
0

>  <SCORE.SYSTEM.norm>
0

>  <SCORE.heavy>
11

>  <SCORE.norm>
-0.863279

>  <RMSD>
2.804

$$$$
ligand
 OpenBabel11021811493D
libRbt.so/2013.1/901 2013/11/27
 11 12  0  0  0  0  0  0  0  0999 V2000
   11.8595   10.8968    8.6763 N   0  0  0  0  0  0  0  0  0  0  0  0
   12.0772   10.1395    7.5891 C   0  0  0  0  0  0  0  0  0  0  0  0
   12.4550    8.8174    7.7532 N   0  0  0  0  0  0  0  0  0  0  0  0
   11.9368   10.6359    6.3490 N   0  0  0  0  0  0  0  0  0  0  0  0
   11.5685   11.9235    6.1540 C   0  0  0  0  0  0  0  0  0  0  0  0
   11.3275   12.7598    7.2732 C   0  0  0  0  0  0  0  0  0  0  0  0
   11.4899   12.1906    8.5713 C   0  0  0  0  0  0  0  0  0  0  0  0
   11.2728   12.9446    9.7089 N   0  0  0  0  0  0  0  0  0  0  0  0
   10.9819   13.9804    6.7942 N   0  0  0  0  0  0  0  0  0  0  0  0
   10.9929   13.9522    5.4914 C   0  0  0  0  0  0  0  0  0  0  0  0
   11.3476   12.7070    5.0505 N   0  0  0  0  0  0  0  0  0  0  0  0
  1  7  2  0  0  0  0
  1  2  1  0  0  0  0
  2  3  1  0  0  0  0
  2  4  2  0  0  0  0
  4  5  1  0  0  0  0
  5  6  2  0  0  0  0
  5 11  1  0  0  0  0
  6  7  1  0  0  0  0
  6  9  1  0  0  0  0
  7  8  1  0  0  0  0
  9 10  1  0  0  0  0
 10 11  2  0  0  0  0
M  END
>  <CHROM.1>
11.57931843,11.88434317,7.23327896,0.48352649,-1.29264239,1.57602041

>  <Name>
ligand

>  <RI>
0

>  <Rbt.Current_Directory>
/home/itssahil/PROJECTS/Mol_Feturizer/New_Systems/rnas/4FEP

>  <Rbt.Executable>
rbdock ($Id: //depot/dev/client3/rdock/2013.1/src/exe/rbdock.cxx#4 $)

>  <Rbt.Library>
libRbt.so (2013.1, Build901 2013/11/27)

>  <Rbt.Parameter_File>
/export/apps/rDock/src/rDock_2013.1_src/data/scripts/dock_solv.prm

>  <Rbt.Receptor>
prm/blind_docking_100.prm

>  <SCORE>
-9.49388

>  <SCORE.INTER>
-9.49388

>  <SCORE.INTER.CONST>
1

>  <SCORE.INTER.POLAR>
0

>  <SCORE.INTER.ROT>
0

>  <SCORE.INTER.SOLV>
20.6207

>  <SCORE.INTER.VDW>
-16.8028

>  <SCORE.INTER.norm>
-0.86308

>  <SCORE.INTRA>
0

>  <SCORE.INTRA.DIHEDRAL>
0

>  <SCORE.INTRA.DIHEDRAL.0>
0

>  <SCORE.INTRA.POLAR>
0

>  <SCORE.INTRA.POLAR.0>
0

>  <SCORE.INTRA.REPUL>
0

>  <SCORE.INTRA.REPUL.0>
0

>  <SCORE.INTRA.SOLV>
0

>  <SCORE.INTRA.SOLV.lig_0>
-48.9558

>  <SCORE.INTRA.VDW>
0

>  <SCORE.INTRA.VDW.0>
0

>  <SCORE.INTRA.norm>
0

>  <SCORE.RESTR>
0

>  <SCORE.RESTR.CAVITY>
0

>  <SCORE.RESTR.norm>
0

>  <SCORE.SYSTEM>
0

>  <SCORE.SYSTEM.CONST>
0

>  <SCORE.SYSTEM.DIHEDRAL>
0

>  <SCORE.SYSTEM.SOLV>
0

>  <SCORE.SYSTEM.norm>
0

>  <SCORE.heavy>
11

>  <SCORE.norm>
-0.86308

>  <RMSD>
2.805

$$$$
ligand
 OpenBabel11021811493D
libRbt.so/2013.1/901 2013/11/27
 11 12  0  0  0  0  0  0  0  0999 V2000
   11.9234   10.8727    8.6805 N   0  0  0  0  0  0  0  0  0  0  0  0
   12.1146   10.1117    7.5909 C   0  0  0  0  0  0  0  0  0  0  0  0
   12.5001    8.7913    7.7501 N   0  0  0  0  0  0  0  0  0  0  0  0
   11.9405   10.6029    6.3531 N   0  0  0  0  0  0  0  0  0  0  0  0
   11.5638   11.8888    6.1628 C   0  0  0  0  0  0  0  0  0  0  0  0
   11.3498   12.7288    7.2848 C   0  0  0  0  0  0  0  0  0  0  0  0
   11.5477   12.1651    8.5803 C   0  0  0  0  0  0  0  0  0  0  0  0
   11.3583   12.9229    9.7203 N   0  0  0  0  0  0  0  0  0  0  0  0
   10.9886   13.9466    6.8103 N   0  0  0  0  0  0  0  0  0  0  0  0
   10.9656   13.9134    5.5078 C   0  0  0  0  0  0  0  0  0  0  0  0
   11.3119   12.6674    5.0625 N   0  0  0  0  0  0  0  0  0  0  0  0
  1  7  2  0  0  0  0
  1  2  1  0  0  0  0
  2  3  1  0  0  0  0
  2  4  2  0  0  0  0
  4  5  1  0  0  0  0
  5  6  2  0  0  0  0
  5 11  1  0  0  0  0
  6  7  1  0  0  0  0
  6  9  1  0  0  0  0
  7  8  1  0  0  0  0
  9 10  1  0  0  0  0
 10 11  2  0  0  0  0
M  END
>  <CHROM.1>
11.60287029,11.85385363,7.24161281,0.38941054,-1.28888570,1.48172156

>  <Name>
ligand

>  <RI>
0

>  <Rbt.Current_Directory>
/home/itssahil/PROJECTS/Mol_Feturizer/New_Systems/rnas/4FEP

>  <Rbt.Executable>
rbdock ($Id: //depot/dev/client3/rdock/2013.1/src/exe/rbdock.cxx#4 $)

>  <Rbt.Library>
libRbt.so (2013.1, Build901 2013/11/27)

>  <Rbt.Parameter_File>
/export/apps/rDock/src/rDock_2013.1_src/data/scripts/dock_solv.prm

>  <Rbt.Receptor>
prm/blind_docking_40.prm

>  <SCORE>
-9.499

>  <SCORE.INTER>
-9.499

>  <SCORE.INTER.CONST>
1

>  <SCORE.INTER.POLAR>
0

>  <SCORE.INTER.ROT>
0

>  <SCORE.INTER.SOLV>
20.3749

>  <SCORE.INTER.VDW>
-16.7243

>  <SCORE.INTER.norm>
-0.863546

>  <SCORE.INTRA>
0

>  <SCORE.INTRA.DIHEDRAL>
0

>  <SCORE.INTRA.DIHEDRAL.0>
0

>  <SCORE.INTRA.POLAR>
0

>  <SCORE.INTRA.POLAR.0>
0

>  <SCORE.INTRA.REPUL>
0

>  <SCORE.INTRA.REPUL.0>
0

>  <SCORE.INTRA.SOLV>
0

>  <SCORE.INTRA.SOLV.lig_0>
-48.9558

>  <SCORE.INTRA.VDW>
0

>  <SCORE.INTRA.VDW.0>
0

>  <SCORE.INTRA.norm>
0

>  <SCORE.RESTR>
0

>  <SCORE.RESTR.CAVITY>
0

>  <SCORE.RESTR.norm>
0

>  <SCORE.SYSTEM>
0

>  <SCORE.SYSTEM.CONST>
0

>  <SCORE.SYSTEM.DIHEDRAL>
0

>  <SCORE.SYSTEM.SOLV>
0

>  <SCORE.SYSTEM.norm>
0

>  <SCORE.heavy>
11

>  <SCORE.norm>
-0.863546

>  <RMSD>
2.805

$$$$
ligand
 OpenBabel11021811493D
libRbt.so/2013.1/901 2013/11/27
 11 12  0  0  0  0  0  0  0  0999 V2000
   11.8281   10.9032    8.6690 N   0  0  0  0  0  0  0  0  0  0  0  0
   12.0543   10.1398    7.5878 C   0  0  0  0  0  0  0  0  0  0  0  0
   12.4214    8.8160    7.7622 N   0  0  0  0  0  0  0  0  0  0  0  0
   11.9323   10.6316    6.3441 N   0  0  0  0  0  0  0  0  0  0  0  0
   11.5748   11.9208    6.1390 C   0  0  0  0  0  0  0  0  0  0  0  0
   11.3254   12.7634    7.2516 C   0  0  0  0  0  0  0  0  0  0  0  0
   11.4682   12.1988    8.5540 C   0  0  0  0  0  0  0  0  0  0  0  0
   11.2419   12.9591    9.6856 N   0  0  0  0  0  0  0  0  0  0  0  0
   10.9936   13.9840    6.7632 N   0  0  0  0  0  0  0  0  0  0  0  0
   11.0205   13.9502    5.4608 C   0  0  0  0  0  0  0  0  0  0  0  0
   11.3725   12.7008    5.0296 N   0  0  0  0  0  0  0  0  0  0  0  0
  1  7  2  0  0  0  0
  1  2  1  0  0  0  0
  2  3  1  0  0  0  0
  2  4  2  0  0  0  0
  4  5  1  0  0  0  0
  5  6  2  0  0  0  0
  5 11  1  0  0  0  0
  6  7  1  0  0  0  0
  6  9  1  0  0  0  0
  7  8  1  0  0  0  0
  9 10  1  0  0  0  0
 10 11  2  0  0  0  0
M  END
>  <CHROM.1>
11.57203253,11.88617325,7.21850825,0.52945412,-1.29874996,1.61592376

>  <Name>
ligand

>  <RI>
0

>  <Rbt.Current_Directory>
/home/itssahil/PROJECTS/Mol_Feturizer/New_Systems/rnas/4FEP

>  <Rbt.Executable>
rbdock ($Id: //depot/dev/client3/rdock/2013.1/src/exe/rbdock.cxx#4 $)

>  <Rbt.Library>
libRbt.so (2013.1, Build901 2013/11/27)

>  <Rbt.Parameter_File>
/export/apps/rDock/src/rDock_2013.1_src/data/scripts/dock_solv.prm

>  <Rbt.Receptor>
prm/blind_docking_40.prm

>  <SCORE>
-9.46075

>  <SCORE.INTER>
-9.46075

>  <SCORE.INTER.CONST>
1

>  <SCORE.INTER.POLAR>
0

>  <SCORE.INTER.ROT>
0

>  <SCORE.INTER.SOLV>
20.7411

>  <SCORE.INTER.VDW>
-16.8209

>  <SCORE.INTER.norm>
-0.860069

>  <SCORE.INTRA>
0

>  <SCORE.INTRA.DIHEDRAL>
0

>  <SCORE.INTRA.DIHEDRAL.0>
0

>  <SCORE.INTRA.POLAR>
0

>  <SCORE.INTRA.POLAR.0>
0

>  <SCORE.INTRA.REPUL>
0

>  <SCORE.INTRA.REPUL.0>
0

>  <SCORE.INTRA.SOLV>
0

>  <SCORE.INTRA.SOLV.lig_0>
-48.9558

>  <SCORE.INTRA.VDW>
0

>  <SCORE.INTRA.VDW.0>
0

>  <SCORE.INTRA.norm>
0

>  <SCORE.RESTR>
0

>  <SCORE.RESTR.CAVITY>
0

>  <SCORE.RESTR.norm>
0

>  <SCORE.SYSTEM>
0

>  <SCORE.SYSTEM.CONST>
0

>  <SCORE.SYSTEM.DIHEDRAL>
0

>  <SCORE.SYSTEM.SOLV>
0

>  <SCORE.SYSTEM.norm>
0

>  <SCORE.heavy>
11

>  <SCORE.norm>
-0.860069

>  <RMSD>
2.805

$$$$
ligand
 OpenBabel11021811493D
libRbt.so/2013.1/901 2013/11/27
 11 12  0  0  0  0  0  0  0  0999 V2000
   11.8995   10.8849    8.6887 N   0  0  0  0  0  0  0  0  0  0  0  0
   12.0903   10.1259    7.5976 C   0  0  0  0  0  0  0  0  0  0  0  0
   12.4559    8.7995    7.7547 N   0  0  0  0  0  0  0  0  0  0  0  0
   11.9345   10.6246    6.3604 N   0  0  0  0  0  0  0  0  0  0  0  0
   11.5775   11.9165    6.1722 C   0  0  0  0  0  0  0  0  0  0  0  0
   11.3648   12.7547    7.2958 C   0  0  0  0  0  0  0  0  0  0  0  0
   11.5428   12.1828    8.5907 C   0  0  0  0  0  0  0  0  0  0  0  0
   11.3534   12.9383    9.7322 N   0  0  0  0  0  0  0  0  0  0  0  0
   11.0250   13.9793    6.8234 N   0  0  0  0  0  0  0  0  0  0  0  0
   11.0136   13.9520    5.5206 C   0  0  0  0  0  0  0  0  0  0  0  0
   11.3467   12.7032    5.0731 N   0  0  0  0  0  0  0  0  0  0  0  0
  1  7  2  0  0  0  0
  1  2  1  0  0  0  0
  2  3  1  0  0  0  0
  2  4  2  0  0  0  0
  4  5  1  0  0  0  0
  5  6  2  0  0  0  0
  5 11  1  0  0  0  0
  6  7  1  0  0  0  0
  6  9  1  0  0  0  0
  7  8  1  0  0  0  0
  9 10  1  0  0  0  0
 10 11  2  0  0  0  0
M  END
>  <CHROM.1>
11.60609063,11.87644338,7.25119473,0.41969272,-1.30344752,1.51514887

>  <Name>
ligand

>  <RI>
0

>  <Rbt.Current_Directory>
/home/itssahil/PROJECTS/Mol_Feturizer/New_Systems/rnas/4FEP

>  <Rbt.Executable>
rbdock ($Id: //depot/dev/client3/rdock/2013.1/src/exe/rbdock.cxx#4 $)

>  <Rbt.Library>
libRbt.so (2013.1, Build901 2013/11/27)

>  <Rbt.Parameter_File>
/export/apps/rDock/src/rDock_2013.1_src/data/scripts/dock_solv.prm

>  <Rbt.Receptor>
prm/blind_docking_60.prm

>  <SCORE>
-9.50947

>  <SCORE.INTER>
-9.50947

>  <SCORE.INTER.CONST>
1

>  <SCORE.INTER.POLAR>
0

>  <SCORE.INTER.ROT>
0

>  <SCORE.INTER.SOLV>
20.6257

>  <SCORE.INTER.VDW>
-16.8149

>  <SCORE.INTER.norm>
-0.864498

>  <SCORE.INTRA>
0

>  <SCORE.INTRA.DIHEDRAL>
0

>  <SCORE.INTRA.DIHEDRAL.0>
0

>  <SCORE.INTRA.POLAR>
0

>  <SCORE.INTRA.POLAR.0>
0

>  <SCORE.INTRA.REPUL>
0

>  <SCORE.INTRA.REPUL.0>
0

>  <SCORE.INTRA.SOLV>
0

>  <SCORE.INTRA.SOLV.lig_0>
-48.9558

>  <SCORE.INTRA.VDW>
0

>  <SCORE.INTRA.VDW.0>
0

>  <SCORE.INTRA.norm>
0

>  <SCORE.RESTR>
0

>  <SCORE.RESTR.CAVITY>
0

>  <SCORE.RESTR.norm>
0

>  <SCORE.SYSTEM>
0

>  <SCORE.SYSTEM.CONST>
0

>  <SCORE.SYSTEM.DIHEDRAL>
0

>  <SCORE.SYSTEM.SOLV>
0

>  <SCORE.SYSTEM.norm>
0

>  <SCORE.heavy>
11

>  <SCORE.norm>
-0.864498

>  <RMSD>
2.805

$$$$
ligand
 OpenBabel11021811493D
libRbt.so/2013.1/901 2013/11/27
 11 12  0  0  0  0  0  0  0  0999 V2000
   11.9212   10.8722    8.6776 N   0  0  0  0  0  0  0  0  0  0  0  0
   12.0979   10.1072    7.5883 C   0  0  0  0  0  0  0  0  0  0  0  0
   12.4734    8.7839    7.7477 N   0  0  0  0  0  0  0  0  0  0  0  0
   11.9187   10.5970    6.3507 N   0  0  0  0  0  0  0  0  0  0  0  0
   11.5514   11.8857    6.1603 C   0  0  0  0  0  0  0  0  0  0  0  0
   11.3529   12.7299    7.2819 C   0  0  0  0  0  0  0  0  0  0  0  0
   11.5556   12.1674    8.5772 C   0  0  0  0  0  0  0  0  0  0  0  0
   11.3811   12.9293    9.7169 N   0  0  0  0  0  0  0  0  0  0  0  0
   10.9983   13.9496    6.8074 N   0  0  0  0  0  0  0  0  0  0  0  0
   10.9654   13.9138    5.5052 C   0  0  0  0  0  0  0  0  0  0  0  0
   11.2980   12.6639    5.0602 N   0  0  0  0  0  0  0  0  0  0  0  0
  1  7  2  0  0  0  0
  1  2  1  0  0  0  0
  2  3  1  0  0  0  0
  2  4  2  0  0  0  0
  4  5  1  0  0  0  0
  5  6  2  0  0  0  0
  5 11  1  0  0  0  0
  6  7  1  0  0  0  0
  6  9  1  0  0  0  0
  7  8  1  0  0  0  0
  9 10  1  0  0  0  0
 10 11  2  0  0  0  0
M  END
>  <CHROM.1>
11.59823833,11.85277509,7.23885864,0.35929691,-1.29648074,1.45051249

>  <Name>
ligand

>  <RI>
0

>  <Rbt.Current_Directory>
/home/itssahil/PROJECTS/Mol_Feturizer/New_Systems/rnas/4FEP

>  <Rbt.Executable>
rbdock ($Id: //depot/dev/client3/rdock/2013.1/src/exe/rbdock.cxx#4 $)

>  <Rbt.Library>
libRbt.so (2013.1, Build901 2013/11/27)

>  <Rbt.Parameter_File>
/export/apps/rDock/src/rDock_2013.1_src/data/scripts/dock_solv.prm

>  <Rbt.Receptor>
prm/blind_docking_80.prm

>  <SCORE>
-9.49231

>  <SCORE.INTER>
-9.49231

>  <SCORE.INTER.CONST>
1

>  <SCORE.INTER.POLAR>
0

>  <SCORE.INTER.ROT>
0

>  <SCORE.INTER.SOLV>
20.444

>  <SCORE.INTER.VDW>
-16.7429

>  <SCORE.INTER.norm>
-0.862938

>  <SCORE.INTRA>
0

>  <SCORE.INTRA.DIHEDRAL>
0

>  <SCORE.INTRA.DIHEDRAL.0>
0

>  <SCORE.INTRA.POLAR>
0

>  <SCORE.INTRA.POLAR.0>
0

>  <SCORE.INTRA.REPUL>
0

>  <SCORE.INTRA.REPUL.0>
0

>  <SCORE.INTRA.SOLV>
0

>  <SCORE.INTRA.SOLV.lig_0>
-48.9558

>  <SCORE.INTRA.VDW>
0

>  <SCORE.INTRA.VDW.0>
0

>  <SCORE.INTRA.norm>
0

>  <SCORE.RESTR>
0

>  <SCORE.RESTR.CAVITY>
0

>  <SCORE.RESTR.norm>
0

>  <SCORE.SYSTEM>
0

>  <SCORE.SYSTEM.CONST>
0

>  <SCORE.SYSTEM.DIHEDRAL>
0

>  <SCORE.SYSTEM.SOLV>
0

>  <SCORE.SYSTEM.norm>
0

>  <SCORE.heavy>
11

>  <SCORE.norm>
-0.862938

>  <RMSD>
2.805

$$$$
ligand
 OpenBabel11021811493D
libRbt.so/2013.1/901 2013/11/27
 11 12  0  0  0  0  0  0  0  0999 V2000
   11.8514   10.8933    8.6744 N   0  0  0  0  0  0  0  0  0  0  0  0
   12.0799   10.1379    7.5880 C   0  0  0  0  0  0  0  0  0  0  0  0
   12.4592    8.8164    7.7536 N   0  0  0  0  0  0  0  0  0  0  0  0
   11.9487   10.6355    6.3475 N   0  0  0  0  0  0  0  0  0  0  0  0
   11.5792   11.9226    6.1510 C   0  0  0  0  0  0  0  0  0  0  0  0
   11.3269   12.7569    7.2693 C   0  0  0  0  0  0  0  0  0  0  0  0
   11.4798   12.1864    8.5679 C   0  0  0  0  0  0  0  0  0  0  0  0
   11.2515   12.9383    9.7047 N   0  0  0  0  0  0  0  0  0  0  0  0
   10.9827   13.9773    6.7890 N   0  0  0  0  0  0  0  0  0  0  0  0
   11.0047   13.9509    5.4863 C   0  0  0  0  0  0  0  0  0  0  0  0
   11.3658   12.7070    5.0468 N   0  0  0  0  0  0  0  0  0  0  0  0
  1  7  2  0  0  0  0
  1  2  1  0  0  0  0
  2  3  1  0  0  0  0
  2  4  2  0  0  0  0
  4  5  1  0  0  0  0
  5  6  2  0  0  0  0
  5 11  1  0  0  0  0
  6  7  1  0  0  0  0
  6  9  1  0  0  0  0
  7  8  1  0  0  0  0
  9 10  1  0  0  0  0
 10 11  2  0  0  0  0
M  END
>  <CHROM.1>
11.58107359,11.88203464,7.23033469,0.51371669,-1.29023330,1.60633130

>  <Name>
ligand

>  <RI>
0

>  <Rbt.Current_Directory>
/home/itssahil/PROJECTS/Mol_Feturizer/New_Systems/rnas/4FEP

>  <Rbt.Executable>
rbdock ($Id: //depot/dev/client3/rdock/2013.1/src/exe/rbdock.cxx#4 $)

>  <Rbt.Library>
libRbt.so (2013.1, Build901 2013/11/27)

>  <Rbt.Parameter_File>
/export/apps/rDock/src/rDock_2013.1_src/data/scripts/dock_solv.prm

>  <Rbt.Receptor>
prm/blind_docking_100.prm

>  <SCORE>
-9.5251

>  <SCORE.INTER>
-9.5251

>  <SCORE.INTER.CONST>
1

>  <SCORE.INTER.POLAR>
0

>  <SCORE.INTER.ROT>
0

>  <SCORE.INTER.SOLV>
20.6035

>  <SCORE.INTER.VDW>
-16.8179

>  <SCORE.INTER.norm>
-0.865918

>  <SCORE.INTRA>
0

>  <SCORE.INTRA.DIHEDRAL>
0

>  <SCORE.INTRA.DIHEDRAL.0>
0

>  <SCORE.INTRA.POLAR>
0

>  <SCORE.INTRA.POLAR.0>
0

>  <SCORE.INTRA.REPUL>
0

>  <SCORE.INTRA.REPUL.0>
0

>  <SCORE.INTRA.SOLV>
0

>  <SCORE.INTRA.SOLV.lig_0>
-48.9558

>  <SCORE.INTRA.VDW>
0

>  <SCORE.INTRA.VDW.0>
0

>  <SCORE.INTRA.norm>
0

>  <SCORE.RESTR>
0

>  <SCORE.RESTR.CAVITY>
0

>  <SCORE.RESTR.norm>
0

>  <SCORE.SYSTEM>
0

>  <SCORE.SYSTEM.CONST>
0

>  <SCORE.SYSTEM.DIHEDRAL>
0

>  <SCORE.SYSTEM.SOLV>
0

>  <SCORE.SYSTEM.norm>
0

>  <SCORE.heavy>
11

>  <SCORE.norm>
-0.865918

>  <RMSD>
2.806

$$$$
ligand
 OpenBabel11021811493D
libRbt.so/2013.1/901 2013/11/27
 11 12  0  0  0  0  0  0  0  0999 V2000
   11.8787   10.8829    8.6819 N   0  0  0  0  0  0  0  0  0  0  0  0
   12.0832   10.1260    7.5918 C   0  0  0  0  0  0  0  0  0  0  0  0
   12.4533    8.8012    7.7508 N   0  0  0  0  0  0  0  0  0  0  0  0
   11.9368   10.6255    6.3537 N   0  0  0  0  0  0  0  0  0  0  0  0
   11.5757   11.9159    6.1636 C   0  0  0  0  0  0  0  0  0  0  0  0
   11.3486   12.7518    7.2861 C   0  0  0  0  0  0  0  0  0  0  0  0
   11.5170   12.1792    8.5819 C   0  0  0  0  0  0  0  0  0  0  0  0
   11.3134   12.9326    9.7224 N   0  0  0  0  0  0  0  0  0  0  0  0
   11.0077   13.9755    6.8118 N   0  0  0  0  0  0  0  0  0  0  0  0
   11.0087   13.9496    5.5089 C   0  0  0  0  0  0  0  0  0  0  0  0
   11.3517   12.7028    5.0632 N   0  0  0  0  0  0  0  0  0  0  0  0
  1  7  2  0  0  0  0
  1  2  1  0  0  0  0
  2  3  1  0  0  0  0
  2  4  2  0  0  0  0
  4  5  1  0  0  0  0
  5  6  2  0  0  0  0
  5 11  1  0  0  0  0
  6  7  1  0  0  0  0
  6  9  1  0  0  0  0
  7  8  1  0  0  0  0
  9 10  1  0  0  0  0
 10 11  2  0  0  0  0
M  END
>  <CHROM.1>
11.59431154,11.87474555,7.24274835,0.45573663,-1.29925390,1.55101391

>  <Name>
ligand

>  <RI>
0

>  <Rbt.Current_Directory>
/home/itssahil/PROJECTS/Mol_Feturizer/New_Systems/rnas/4FEP

>  <Rbt.Executable>
rbdock ($Id: //depot/dev/client3/rdock/2013.1/src/exe/rbdock.cxx#4 $)

>  <Rbt.Library>
libRbt.so (2013.1, Build901 2013/11/27)

>  <Rbt.Parameter_File>
/export/apps/rDock/src/rDock_2013.1_src/data/scripts/dock_solv.prm

>  <Rbt.Receptor>
prm/blind_docking_80.prm

>  <SCORE>
-9.47022

>  <SCORE.INTER>
-9.47022

>  <SCORE.INTER.CONST>
1

>  <SCORE.INTER.POLAR>
0

>  <SCORE.INTER.ROT>
0

>  <SCORE.INTER.SOLV>
20.6201

>  <SCORE.INTER.VDW>
-16.7869

>  <SCORE.INTER.norm>
-0.860929

>  <SCORE.INTRA>
0

>  <SCORE.INTRA.DIHEDRAL>
0

>  <SCORE.INTRA.DIHEDRAL.0>
0

>  <SCORE.INTRA.POLAR>
0

>  <SCORE.INTRA.POLAR.0>
0

>  <SCORE.INTRA.REPUL>
0

>  <SCORE.INTRA.REPUL.0>
0

>  <SCORE.INTRA.SOLV>
0

>  <SCORE.INTRA.SOLV.lig_0>
-48.9558

>  <SCORE.INTRA.VDW>
0

>  <SCORE.INTRA.VDW.0>
0

>  <SCORE.INTRA.norm>
0

>  <SCORE.RESTR>
0

>  <SCORE.RESTR.CAVITY>
0

>  <SCORE.RESTR.norm>
0

>  <SCORE.SYSTEM>
0

>  <SCORE.SYSTEM.CONST>
0

>  <SCORE.SYSTEM.DIHEDRAL>
0

>  <SCORE.SYSTEM.SOLV>
0

>  <SCORE.SYSTEM.norm>
0

>  <SCORE.heavy>
11

>  <SCORE.norm>
-0.860929

>  <RMSD>
2.806

$$$$
ligand
 OpenBabel11021811493D
libRbt.so/2013.1/901 2013/11/27
 11 12  0  0  0  0  0  0  0  0999 V2000
   11.8779   10.8743    8.6784 N   0  0  0  0  0  0  0  0  0  0  0  0
   12.0790   10.1136    7.5903 C   0  0  0  0  0  0  0  0  0  0  0  0
   12.4510    8.7897    7.7528 N   0  0  0  0  0  0  0  0  0  0  0  0
   11.9274   10.6083    6.3510 N   0  0  0  0  0  0  0  0  0  0  0  0
   11.5643   11.8977    6.1575 C   0  0  0  0  0  0  0  0  0  0  0  0
   11.3408   12.7376    7.2777 C   0  0  0  0  0  0  0  0  0  0  0  0
   11.5146   12.1699    8.5750 C   0  0  0  0  0  0  0  0  0  0  0  0
   11.3147   12.9273    9.7135 N   0  0  0  0  0  0  0  0  0  0  0  0
   10.9968   13.9591    6.8002 N   0  0  0  0  0  0  0  0  0  0  0  0
   10.9929   13.9284    5.4975 C   0  0  0  0  0  0  0  0  0  0  0  0
   11.3354   12.6803    5.0551 N   0  0  0  0  0  0  0  0  0  0  0  0
  1  7  2  0  0  0  0
  1  2  1  0  0  0  0
  2  3  1  0  0  0  0
  2  4  2  0  0  0  0
  4  5  1  0  0  0  0
  5  6  2  0  0  0  0
  5 11  1  0  0  0  0
  6  7  1  0  0  0  0
  6  9  1  0  0  0  0
  7  8  1  0  0  0  0
  9 10  1  0  0  0  0
 10 11  2  0  0  0  0
M  END
>  <CHROM.1>
11.58710742,11.86056441,7.23670374,0.44164371,-1.29820200,1.53375197

>  <Name>
ligand

>  <RI>
0

>  <Rbt.Current_Directory>
/home/itssahil/PROJECTS/Mol_Feturizer/New_Systems/rnas/4FEP

>  <Rbt.Executable>
rbdock ($Id: //depot/dev/client3/rdock/2013.1/src/exe/rbdock.cxx#4 $)

>  <Rbt.Library>
libRbt.so (2013.1, Build901 2013/11/27)

>  <Rbt.Parameter_File>
/export/apps/rDock/src/rDock_2013.1_src/data/scripts/dock_solv.prm

>  <Rbt.Receptor>
prm/pocket_docking_4.prm

>  <SCORE>
-9.47244

>  <SCORE.INTER>
-9.47244

>  <SCORE.INTER.CONST>
1

>  <SCORE.INTER.POLAR>
0

>  <SCORE.INTER.ROT>
0

>  <SCORE.INTER.SOLV>
20.5847

>  <SCORE.INTER.VDW>
-16.7765

>  <SCORE.INTER.norm>
-0.861131

>  <SCORE.INTRA>
0

>  <SCORE.INTRA.DIHEDRAL>
0

>  <SCORE.INTRA.DIHEDRAL.0>
0

>  <SCORE.INTRA.POLAR>
0

>  <SCORE.INTRA.POLAR.0>
0

>  <SCORE.INTRA.REPUL>
0

>  <SCORE.INTRA.REPUL.0>
0

>  <SCORE.INTRA.SOLV>
0

>  <SCORE.INTRA.SOLV.lig_0>
-48.9558

>  <SCORE.INTRA.VDW>
0

>  <SCORE.INTRA.VDW.0>
0

>  <SCORE.INTRA.norm>
0

>  <SCORE.RESTR>
0

>  <SCORE.RESTR.CAVITY>
0

>  <SCORE.RESTR.norm>
0

>  <SCORE.SYSTEM>
0

>  <SCORE.SYSTEM.CONST>
0

>  <SCORE.SYSTEM.DIHEDRAL>
0

>  <SCORE.SYSTEM.SOLV>
0

>  <SCORE.SYSTEM.norm>
0

>  <SCORE.heavy>
11

>  <SCORE.norm>
-0.861131

>  <RMSD>
2.806

$$$$
ligand
 OpenBabel11021811493D
libRbt.so/2013.1/901 2013/11/27
 11 12  0  0  0  0  0  0  0  0999 V2000
   11.9259   10.8749    8.6900 N   0  0  0  0  0  0  0  0  0  0  0  0
   12.1331   10.1219    7.5978 C   0  0  0  0  0  0  0  0  0  0  0  0
   12.5196    8.8013    7.7529 N   0  0  0  0  0  0  0  0  0  0  0  0
   11.9738   10.6211    6.3612 N   0  0  0  0  0  0  0  0  0  0  0  0
   11.5964   11.9075    6.1748 C   0  0  0  0  0  0  0  0  0  0  0  0
   11.3660   12.7392    7.2997 C   0  0  0  0  0  0  0  0  0  0  0  0
   11.5484   12.1670    8.5938 C   0  0  0  0  0  0  0  0  0  0  0  0
   11.3426   12.9166    9.7364 N   0  0  0  0  0  0  0  0  0  0  0  0
   11.0080   13.9594    6.8289 N   0  0  0  0  0  0  0  0  0  0  0  0
   11.0019   13.9351    5.5261 C   0  0  0  0  0  0  0  0  0  0  0  0
   11.3570   12.6930    5.0768 N   0  0  0  0  0  0  0  0  0  0  0  0
  1  7  2  0  0  0  0
  1  2  1  0  0  0  0
  2  3  1  0  0  0  0
  2  4  2  0  0  0  0
  4  5  1  0  0  0  0
  5  6  2  0  0  0  0
  5 11  1  0  0  0  0
  6  7  1  0  0  0  0
  6  9  1  0  0  0  0
  7  8  1  0  0  0  0
  9 10  1  0  0  0  0
 10 11  2  0  0  0  0
M  END
>  <CHROM.1>
11.62169161,11.86516509,7.25379602,0.43620097,-1.28735395,1.53351016

>  <Name>
ligand

>  <RI>
0

>  <Rbt.Current_Directory>
/home/itssahil/PROJECTS/Mol_Feturizer/New_Systems/rnas/4FEP

>  <Rbt.Executable>
rbdock ($Id: //depot/dev/client3/rdock/2013.1/src/exe/rbdock.cxx#4 $)

>  <Rbt.Library>
libRbt.so (2013.1, Build901 2013/11/27)

>  <Rbt.Parameter_File>
/export/apps/rDock/src/rDock_2013.1_src/data/scripts/dock_solv.prm

>  <Rbt.Receptor>
prm/pocket_docking_4.prm

>  <SCORE>
-9.50171

>  <SCORE.INTER>
-9.50171

>  <SCORE.INTER.CONST>
1

>  <SCORE.INTER.POLAR>
0

>  <SCORE.INTER.ROT>
0

>  <SCORE.INTER.SOLV>
20.3833

>  <SCORE.INTER.VDW>
-16.7289

>  <SCORE.INTER.norm>
-0.863792

>  <SCORE.INTRA>
0

>  <SCORE.INTRA.DIHEDRAL>
0

>  <SCORE.INTRA.DIHEDRAL.0>
0

>  <SCORE.INTRA.POLAR>
0

>  <SCORE.INTRA.POLAR.0>
0

>  <SCORE.INTRA.REPUL>
0

>  <SCORE.INTRA.REPUL.0>
0

>  <SCORE.INTRA.SOLV>
0

>  <SCORE.INTRA.SOLV.lig_0>
-48.9558

>  <SCORE.INTRA.VDW>
0

>  <SCORE.INTRA.VDW.0>
0

>  <SCORE.INTRA.norm>
0

>  <SCORE.RESTR>
0

>  <SCORE.RESTR.CAVITY>
0

>  <SCORE.RESTR.norm>
0

>  <SCORE.SYSTEM>
0

>  <SCORE.SYSTEM.CONST>
0

>  <SCORE.SYSTEM.DIHEDRAL>
0

>  <SCORE.SYSTEM.SOLV>
0

>  <SCORE.SYSTEM.norm>
0

>  <SCORE.heavy>
11

>  <SCORE.norm>
-0.863792

>  <RMSD>
2.806

$$$$
ligand
 OpenBabel11021811493D
libRbt.so/2013.1/901 2013/11/27
 11 12  0  0  0  0  0  0  0  0999 V2000
   11.8458   10.8813    8.6767 N   0  0  0  0  0  0  0  0  0  0  0  0
   12.0723   10.1267    7.5894 C   0  0  0  0  0  0  0  0  0  0  0  0
   12.4463    8.8035    7.7532 N   0  0  0  0  0  0  0  0  0  0  0  0
   11.9442   10.6268    6.3495 N   0  0  0  0  0  0  0  0  0  0  0  0
   11.5799   11.9156    6.1547 C   0  0  0  0  0  0  0  0  0  0  0  0
   11.3299   12.7491    7.2741 C   0  0  0  0  0  0  0  0  0  0  0  0
   11.4794   12.1759    8.5720 C   0  0  0  0  0  0  0  0  0  0  0  0
   11.2529   12.9270    9.7097 N   0  0  0  0  0  0  0  0  0  0  0  0
   10.9909   13.9716    6.7954 N   0  0  0  0  0  0  0  0  0  0  0  0
   11.0139   13.9472    5.4927 C   0  0  0  0  0  0  0  0  0  0  0  0
   11.3706   12.7026    5.0515 N   0  0  0  0  0  0  0  0  0  0  0  0
  1  7  2  0  0  0  0
  1  2  1  0  0  0  0
  2  3  1  0  0  0  0
  2  4  2  0  0  0  0
  4  5  1  0  0  0  0
  5  6  2  0  0  0  0
  5 11  1  0  0  0  0
  6  7  1  0  0  0  0
  6  9  1  0  0  0  0
  7  8  1  0  0  0  0
  9 10  1  0  0  0  0
 10 11  2  0  0  0  0
M  END
>  <CHROM.1>
11.58063642,11.87333139,7.23397427,0.51757350,-1.29412041,1.61162351

>  <Name>
ligand

>  <RI>
0

>  <Rbt.Current_Directory>
/home/itssahil/PROJECTS/Mol_Feturizer/New_Systems/rnas/4FEP

>  <Rbt.Executable>
rbdock ($Id: //depot/dev/client3/rdock/2013.1/src/exe/rbdock.cxx#4 $)

>  <Rbt.Library>
libRbt.so (2013.1, Build901 2013/11/27)

>  <Rbt.Parameter_File>
/export/apps/rDock/src/rDock_2013.1_src/data/scripts/dock_solv.prm

>  <Rbt.Receptor>
prm/pocket_docking_4.prm

>  <SCORE>
-9.48119

>  <SCORE.INTER>
-9.48119

>  <SCORE.INTER.CONST>
1

>  <SCORE.INTER.POLAR>
0

>  <SCORE.INTER.ROT>
0

>  <SCORE.INTER.SOLV>
20.646

>  <SCORE.INTER.VDW>
-16.8028

>  <SCORE.INTER.norm>
-0.861926

>  <SCORE.INTRA>
0

>  <SCORE.INTRA.DIHEDRAL>
0

>  <SCORE.INTRA.DIHEDRAL.0>
0

>  <SCORE.INTRA.POLAR>
0

>  <SCORE.INTRA.POLAR.0>
0

>  <SCORE.INTRA.REPUL>
0

>  <SCORE.INTRA.REPUL.0>
0

>  <SCORE.INTRA.SOLV>
0

>  <SCORE.INTRA.SOLV.lig_0>
-48.9558

>  <SCORE.INTRA.VDW>
0

>  <SCORE.INTRA.VDW.0>
0

>  <SCORE.INTRA.norm>
0

>  <SCORE.RESTR>
0

>  <SCORE.RESTR.CAVITY>
0

>  <SCORE.RESTR.norm>
0

>  <SCORE.SYSTEM>
0

>  <SCORE.SYSTEM.CONST>
0

>  <SCORE.SYSTEM.DIHEDRAL>
0

>  <SCORE.SYSTEM.SOLV>
0

>  <SCORE.SYSTEM.norm>
0

>  <SCORE.heavy>
11

>  <SCORE.norm>
-0.861926

>  <RMSD>
2.807

$$$$
ligand
 OpenBabel11021811493D
libRbt.so/2013.1/901 2013/11/27
 11 12  0  0  0  0  0  0  0  0999 V2000
   11.9165   10.8792    8.6865 N   0  0  0  0  0  0  0  0  0  0  0  0
   12.1374   10.1268    7.5966 C   0  0  0  0  0  0  0  0  0  0  0  0
   12.5244    8.8068    7.7559 N   0  0  0  0  0  0  0  0  0  0  0  0
   11.9912   10.6259    6.3583 N   0  0  0  0  0  0  0  0  0  0  0  0
   11.6138   11.9117    6.1680 C   0  0  0  0  0  0  0  0  0  0  0  0
   11.3692   12.7428    7.2902 C   0  0  0  0  0  0  0  0  0  0  0  0
   11.5379   12.1707    8.5862 C   0  0  0  0  0  0  0  0  0  0  0  0
   11.3178   12.9197    9.7266 N   0  0  0  0  0  0  0  0  0  0  0  0
   11.0144   13.9624    6.8157 N   0  0  0  0  0  0  0  0  0  0  0  0
   11.0231   13.9384    5.5128 C   0  0  0  0  0  0  0  0  0  0  0  0
   11.3854   12.6970    5.0674 N   0  0  0  0  0  0  0  0  0  0  0  0
  1  7  2  0  0  0  0
  1  2  1  0  0  0  0
  2  3  1  0  0  0  0
  2  4  2  0  0  0  0
  4  5  1  0  0  0  0
  5  6  2  0  0  0  0
  5 11  1  0  0  0  0
  6  7  1  0  0  0  0
  6  9  1  0  0  0  0
  7  8  1  0  0  0  0
  9 10  1  0  0  0  0
 10 11  2  0  0  0  0
M  END
>  <CHROM.1>
11.62689016,11.86920989,7.24711918,0.47674485,-1.28581553,1.57259762

>  <Name>
ligand

>  <RI>
0

>  <Rbt.Current_Directory>
/home/itssahil/PROJECTS/Mol_Feturizer/New_Systems/rnas/4FEP

>  <Rbt.Executable>
rbdock ($Id: //depot/dev/client3/rdock/2013.1/src/exe/rbdock.cxx#4 $)

>  <Rbt.Library>
libRbt.so (2013.1, Build901 2013/11/27)

>  <Rbt.Parameter_File>
/export/apps/rDock/src/rDock_2013.1_src/data/scripts/dock_solv.prm

>  <Rbt.Receptor>
prm/pocket_docking_5.prm

>  <SCORE>
-9.48898

>  <SCORE.INTER>
-9.48898

>  <SCORE.INTER.CONST>
1

>  <SCORE.INTER.POLAR>
0

>  <SCORE.INTER.ROT>
0

>  <SCORE.INTER.SOLV>
20.3764

>  <SCORE.INTER.VDW>
-16.7181

>  <SCORE.INTER.norm>
-0.862635

>  <SCORE.INTRA>
0

>  <SCORE.INTRA.DIHEDRAL>
0

>  <SCORE.INTRA.DIHEDRAL.0>
0

>  <SCORE.INTRA.POLAR>
0

>  <SCORE.INTRA.POLAR.0>
0

>  <SCORE.INTRA.REPUL>
0

>  <SCORE.INTRA.REPUL.0>
0

>  <SCORE.INTRA.SOLV>
0

>  <SCORE.INTRA.SOLV.lig_0>
-48.9558

>  <SCORE.INTRA.VDW>
0

>  <SCORE.INTRA.VDW.0>
0

>  <SCORE.INTRA.norm>
0

>  <SCORE.RESTR>
0

>  <SCORE.RESTR.CAVITY>
0

>  <SCORE.RESTR.norm>
0

>  <SCORE.SYSTEM>
0

>  <SCORE.SYSTEM.CONST>
0

>  <SCORE.SYSTEM.DIHEDRAL>
0

>  <SCORE.SYSTEM.SOLV>
0

>  <SCORE.SYSTEM.norm>
0

>  <SCORE.heavy>
11

>  <SCORE.norm>
-0.862635

>  <RMSD>
2.807

$$$$
ligand
 OpenBabel11021811493D
libRbt.so/2013.1/901 2013/11/27
 11 12  0  0  0  0  0  0  0  0999 V2000
   11.8358   10.8955    8.5808 N   0  0  0  0  0  0  0  0  0  0  0  0
   12.0437   10.0769    7.5370 C   0  0  0  0  0  0  0  0  0  0  0  0
   12.4298    8.7681    7.7732 N   0  0  0  0  0  0  0  0  0  0  0  0
   11.8856   10.4993    6.2720 N   0  0  0  0  0  0  0  0  0  0  0  0
   11.5088   11.7719    6.0068 C   0  0  0  0  0  0  0  0  0  0  0  0
   11.2776   12.6712    7.0783 C   0  0  0  0  0  0  0  0  0  0  0  0
   11.4588   12.1794    8.4052 C   0  0  0  0  0  0  0  0  0  0  0  0
   11.2522   12.9976    9.4995 N   0  0  0  0  0  0  0  0  0  0  0  0
   10.9204   13.8602    6.5333 N   0  0  0  0  0  0  0  0  0  0  0  0
   10.9154   13.7561    5.2343 C   0  0  0  0  0  0  0  0  0  0  0  0
   11.2705   12.4887    4.8624 N   0  0  0  0  0  0  0  0  0  0  0  0
  1  7  2  0  0  0  0
  1  2  1  0  0  0  0
  2  3  1  0  0  0  0
  2  4  2  0  0  0  0
  4  5  1  0  0  0  0
  5  6  2  0  0  0  0
  5 11  1  0  0  0  0
  6  7  1  0  0  0  0
  6  9  1  0  0  0  0
  7  8  1  0  0  0  0
  9 10  1  0  0  0  0
 10 11  2  0  0  0  0
M  END
>  <CHROM.1>
11.53311275,11.79586944,7.08631877,0.43921013,-1.28766414,1.47502344

>  <Name>
ligand

>  <RI>
0

>  <Rbt.Current_Directory>
/home/itssahil/PROJECTS/Mol_Feturizer/New_Systems/rnas/4FEP

>  <Rbt.Executable>
rbdock ($Id: //depot/dev/client3/rdock/2013.1/src/exe/rbdock.cxx#4 $)

>  <Rbt.Library>
libRbt.so (2013.1, Build901 2013/11/27)

>  <Rbt.Parameter_File>
/export/apps/rDock/src/rDock_2013.1_src/data/scripts/dock_solv.prm

>  <Rbt.Receptor>
prm/blind_docking_20.prm

>  <SCORE>
-8.43628

>  <SCORE.INTER>
-9.0422

>  <SCORE.INTER.CONST>
1

>  <SCORE.INTER.POLAR>
0

>  <SCORE.INTER.ROT>
0

>  <SCORE.INTER.SOLV>
20.2242

>  <SCORE.INTER.VDW>
-16.3695

>  <SCORE.INTER.norm>
-0.822019

>  <SCORE.INTRA>
0

>  <SCORE.INTRA.DIHEDRAL>
0

>  <SCORE.INTRA.DIHEDRAL.0>
0

>  <SCORE.INTRA.POLAR>
0

>  <SCORE.INTRA.POLAR.0>
0

>  <SCORE.INTRA.REPUL>
0

>  <SCORE.INTRA.REPUL.0>
0

>  <SCORE.INTRA.SOLV>
0

>  <SCORE.INTRA.SOLV.lig_0>
-48.9558

>  <SCORE.INTRA.VDW>
0

>  <SCORE.INTRA.VDW.0>
0

>  <SCORE.INTRA.norm>
0

>  <SCORE.RESTR>
0.605921

>  <SCORE.RESTR.CAVITY>
0.605921

>  <SCORE.RESTR.norm>
0.0550838

>  <SCORE.SYSTEM>
0

>  <SCORE.SYSTEM.CONST>
0

>  <SCORE.SYSTEM.DIHEDRAL>
0

>  <SCORE.SYSTEM.SOLV>
0

>  <SCORE.SYSTEM.norm>
0

>  <SCORE.heavy>
11

>  <SCORE.norm>
-0.766935

>  <RMSD>
2.808

$$$$
ligand
 OpenBabel11021811493D
libRbt.so/2013.1/901 2013/11/27
 11 12  0  0  0  0  0  0  0  0999 V2000
   11.7824   10.8698    8.6174 N   0  0  0  0  0  0  0  0  0  0  0  0
   12.0505   10.0752    7.5688 C   0  0  0  0  0  0  0  0  0  0  0  0
   12.4563    8.7711    7.7977 N   0  0  0  0  0  0  0  0  0  0  0  0
   11.9339   10.5171    6.3059 N   0  0  0  0  0  0  0  0  0  0  0  0
   11.5393   11.7858    6.0478 C   0  0  0  0  0  0  0  0  0  0  0  0
   11.2450   12.6600    7.1245 C   0  0  0  0  0  0  0  0  0  0  0  0
   11.3838   12.1482    8.4489 C   0  0  0  0  0  0  0  0  0  0  0  0
   11.1148   12.9415    9.5480 N   0  0  0  0  0  0  0  0  0  0  0  0
   10.8831   13.8507    6.5861 N   0  0  0  0  0  0  0  0  0  0  0  0
   10.9327   13.7702    5.2865 C   0  0  0  0  0  0  0  0  0  0  0  0
   11.3311   12.5179    4.9073 N   0  0  0  0  0  0  0  0  0  0  0  0
  1  7  2  0  0  0  0
  1  2  1  0  0  0  0
  2  3  1  0  0  0  0
  2  4  2  0  0  0  0
  4  5  1  0  0  0  0
  5  6  2  0  0  0  0
  5 11  1  0  0  0  0
  6  7  1  0  0  0  0
  6  9  1  0  0  0  0
  7  8  1  0  0  0  0
  9 10  1  0  0  0  0
 10 11  2  0  0  0  0
M  END
>  <CHROM.1>
11.51970574,11.79051604,7.12766882,0.58027523,-1.26611583,1.62789589

>  <Name>
ligand

>  <RI>
0

>  <Rbt.Current_Directory>
/home/itssahil/PROJECTS/Mol_Feturizer/New_Systems/rnas/4FEP

>  <Rbt.Executable>
rbdock ($Id: //depot/dev/client3/rdock/2013.1/src/exe/rbdock.cxx#4 $)

>  <Rbt.Library>
libRbt.so (2013.1, Build901 2013/11/27)

>  <Rbt.Parameter_File>
/export/apps/rDock/src/rDock_2013.1_src/data/scripts/dock_solv.prm

>  <Rbt.Receptor>
prm/blind_docking_20.prm

>  <SCORE>
-8.48431

>  <SCORE.INTER>
-9.10764

>  <SCORE.INTER.CONST>
1

>  <SCORE.INTER.POLAR>
0

>  <SCORE.INTER.ROT>
0

>  <SCORE.INTER.SOLV>
20.305

>  <SCORE.INTER.VDW>
-16.4401

>  <SCORE.INTER.norm>
-0.827967

>  <SCORE.INTRA>
0

>  <SCORE.INTRA.DIHEDRAL>
0

>  <SCORE.INTRA.DIHEDRAL.0>
0

>  <SCORE.INTRA.POLAR>
0

>  <SCORE.INTRA.POLAR.0>
0

>  <SCORE.INTRA.REPUL>
0

>  <SCORE.INTRA.REPUL.0>
0

>  <SCORE.INTRA.SOLV>
0

>  <SCORE.INTRA.SOLV.lig_0>
-48.9558

>  <SCORE.INTRA.VDW>
0

>  <SCORE.INTRA.VDW.0>
0

>  <SCORE.INTRA.norm>
0

>  <SCORE.RESTR>
0.623328

>  <SCORE.RESTR.CAVITY>
0.623328

>  <SCORE.RESTR.norm>
0.0566662

>  <SCORE.SYSTEM>
0

>  <SCORE.SYSTEM.CONST>
0

>  <SCORE.SYSTEM.DIHEDRAL>
0

>  <SCORE.SYSTEM.SOLV>
0

>  <SCORE.SYSTEM.norm>
0

>  <SCORE.heavy>
11

>  <SCORE.norm>
-0.771301

>  <RMSD>
2.808

$$$$
ligand
 OpenBabel11021811493D
libRbt.so/2013.1/901 2013/11/27
 11 12  0  0  0  0  0  0  0  0999 V2000
   11.8900   10.8686    8.6893 N   0  0  0  0  0  0  0  0  0  0  0  0
   12.0878   10.1120    7.5978 C   0  0  0  0  0  0  0  0  0  0  0  0
   12.4505    8.7848    7.7544 N   0  0  0  0  0  0  0  0  0  0  0  0
   11.9418   10.6138    6.3606 N   0  0  0  0  0  0  0  0  0  0  0  0
   11.5878   11.9066    6.1729 C   0  0  0  0  0  0  0  0  0  0  0  0
   11.3679   12.7424    7.2969 C   0  0  0  0  0  0  0  0  0  0  0  0
   11.5356   12.1672    8.5916 C   0  0  0  0  0  0  0  0  0  0  0  0
   11.3388   12.9203    9.7335 N   0  0  0  0  0  0  0  0  0  0  0  0
   11.0331   13.9686    6.8248 N   0  0  0  0  0  0  0  0  0  0  0  0
   11.0313   13.9443    5.5219 C   0  0  0  0  0  0  0  0  0  0  0  0
   11.3661   12.6962    5.0739 N   0  0  0  0  0  0  0  0  0  0  0  0
  1  7  2  0  0  0  0
  1  2  1  0  0  0  0
  2  3  1  0  0  0  0
  2  4  2  0  0  0  0
  4  5  1  0  0  0  0
  5  6  2  0  0  0  0
  5 11  1  0  0  0  0
  6  7  1  0  0  0  0
  6  9  1  0  0  0  0
  7  8  1  0  0  0  0
  9 10  1  0  0  0  0
 10 11  2  0  0  0  0
M  END
>  <CHROM.1>
11.60838180,11.86397181,7.25193916,0.44744747,-1.30502479,1.54427698

>  <Name>
ligand

>  <RI>
0

>  <Rbt.Current_Directory>
/home/itssahil/PROJECTS/Mol_Feturizer/New_Systems/rnas/4FEP

>  <Rbt.Executable>
rbdock ($Id: //depot/dev/client3/rdock/2013.1/src/exe/rbdock.cxx#4 $)

>  <Rbt.Library>
libRbt.so (2013.1, Build901 2013/11/27)

>  <Rbt.Parameter_File>
/export/apps/rDock/src/rDock_2013.1_src/data/scripts/dock_solv.prm

>  <Rbt.Receptor>
prm/blind_docking_60.prm

>  <SCORE>
-9.50251

>  <SCORE.INTER>
-9.50251

>  <SCORE.INTER.CONST>
1

>  <SCORE.INTER.POLAR>
0

>  <SCORE.INTER.ROT>
0

>  <SCORE.INTER.SOLV>
20.6387

>  <SCORE.INTER.VDW>
-16.8146

>  <SCORE.INTER.norm>
-0.863865

>  <SCORE.INTRA>
0

>  <SCORE.INTRA.DIHEDRAL>
0

>  <SCORE.INTRA.DIHEDRAL.0>
0

>  <SCORE.INTRA.POLAR>
0

>  <SCORE.INTRA.POLAR.0>
0

>  <SCORE.INTRA.REPUL>
0

>  <SCORE.INTRA.REPUL.0>
0

>  <SCORE.INTRA.SOLV>
0

>  <SCORE.INTRA.SOLV.lig_0>
-48.9558

>  <SCORE.INTRA.VDW>
0

>  <SCORE.INTRA.VDW.0>
0

>  <SCORE.INTRA.norm>
0

>  <SCORE.RESTR>
0

>  <SCORE.RESTR.CAVITY>
0

>  <SCORE.RESTR.norm>
0

>  <SCORE.SYSTEM>
0

>  <SCORE.SYSTEM.CONST>
0

>  <SCORE.SYSTEM.DIHEDRAL>
0

>  <SCORE.SYSTEM.SOLV>
0

>  <SCORE.SYSTEM.norm>
0

>  <SCORE.heavy>
11

>  <SCORE.norm>
-0.863865

>  <RMSD>
2.808

$$$$
ligand
 OpenBabel11021811493D
libRbt.so/2013.1/901 2013/11/27
 11 12  0  0  0  0  0  0  0  0999 V2000
   11.8230   10.8815    8.5977 N   0  0  0  0  0  0  0  0  0  0  0  0
   12.0680   10.0653    7.5600 C   0  0  0  0  0  0  0  0  0  0  0  0
   12.4618    8.7609    7.8068 N   0  0  0  0  0  0  0  0  0  0  0  0
   11.9395   10.4862    6.2911 N   0  0  0  0  0  0  0  0  0  0  0  0
   11.5560   11.7546    6.0156 C   0  0  0  0  0  0  0  0  0  0  0  0
   11.2861   12.6511    7.0804 C   0  0  0  0  0  0  0  0  0  0  0  0
   11.4367   12.1612    8.4118 C   0  0  0  0  0  0  0  0  0  0  0  0
   11.1916   12.9769    9.5000 N   0  0  0  0  0  0  0  0  0  0  0  0
   10.9307   13.8362    6.5257 N   0  0  0  0  0  0  0  0  0  0  0  0
   10.9620   13.7323    5.2271 C   0  0  0  0  0  0  0  0  0  0  0  0
   11.3409   12.4689    4.8651 N   0  0  0  0  0  0  0  0  0  0  0  0
  1  7  2  0  0  0  0
  1  2  1  0  0  0  0
  2  3  1  0  0  0  0
  2  4  2  0  0  0  0
  4  5  1  0  0  0  0
  5  6  2  0  0  0  0
  5 11  1  0  0  0  0
  6  7  1  0  0  0  0
  6  9  1  0  0  0  0
  7  8  1  0  0  0  0
  9 10  1  0  0  0  0
 10 11  2  0  0  0  0
M  END
>  <CHROM.1>
11.55088450,11.77867634,7.09544967,0.53622983,-1.27801011,1.56804992

>  <Name>
ligand

>  <RI>
0

>  <Rbt.Current_Directory>
/home/itssahil/PROJECTS/Mol_Feturizer/New_Systems/rnas/4FEP

>  <Rbt.Executable>
rbdock ($Id: //depot/dev/client3/rdock/2013.1/src/exe/rbdock.cxx#4 $)

>  <Rbt.Library>
libRbt.so (2013.1, Build901 2013/11/27)

>  <Rbt.Parameter_File>
/export/apps/rDock/src/rDock_2013.1_src/data/scripts/dock_solv.prm

>  <Rbt.Receptor>
prm/blind_docking_20.prm

>  <SCORE>
-8.42326

>  <SCORE.INTER>
-9.0208

>  <SCORE.INTER.CONST>
1

>  <SCORE.INTER.POLAR>
0

>  <SCORE.INTER.ROT>
0

>  <SCORE.INTER.SOLV>
20.1433

>  <SCORE.INTER.VDW>
-16.3283

>  <SCORE.INTER.norm>
-0.820073

>  <SCORE.INTRA>
0

>  <SCORE.INTRA.DIHEDRAL>
0

>  <SCORE.INTRA.DIHEDRAL.0>
0

>  <SCORE.INTRA.POLAR>
0

>  <SCORE.INTRA.POLAR.0>
0

>  <SCORE.INTRA.REPUL>
0

>  <SCORE.INTRA.REPUL.0>
0

>  <SCORE.INTRA.SOLV>
0

>  <SCORE.INTRA.SOLV.lig_0>
-48.9558

>  <SCORE.INTRA.VDW>
0

>  <SCORE.INTRA.VDW.0>
0

>  <SCORE.INTRA.norm>
0

>  <SCORE.RESTR>
0.597544

>  <SCORE.RESTR.CAVITY>
0.597544

>  <SCORE.RESTR.norm>
0.0543222

>  <SCORE.SYSTEM>
0

>  <SCORE.SYSTEM.CONST>
0

>  <SCORE.SYSTEM.DIHEDRAL>
0

>  <SCORE.SYSTEM.SOLV>
0

>  <SCORE.SYSTEM.norm>
0

>  <SCORE.heavy>
11

>  <SCORE.norm>
-0.765751

>  <RMSD>
2.809

$$$$
ligand
 OpenBabel11021811493D
libRbt.so/2013.1/901 2013/11/27
 11 12  0  0  0  0  0  0  0  0999 V2000
   11.8585   10.8646    8.6861 N   0  0  0  0  0  0  0  0  0  0  0  0
   12.0765   10.1150    7.5937 C   0  0  0  0  0  0  0  0  0  0  0  0
   12.4477    8.7900    7.7485 N   0  0  0  0  0  0  0  0  0  0  0  0
   11.9424   10.6218    6.3571 N   0  0  0  0  0  0  0  0  0  0  0  0
   11.5805   11.9126    6.1711 C   0  0  0  0  0  0  0  0  0  0  0  0
   11.3395   12.7411    7.2962 C   0  0  0  0  0  0  0  0  0  0  0  0
   11.4951   12.1608    8.5902 C   0  0  0  0  0  0  0  0  0  0  0  0
   11.2775   12.9067    9.7331 N   0  0  0  0  0  0  0  0  0  0  0  0
   11.0010   13.9669    6.8258 N   0  0  0  0  0  0  0  0  0  0  0  0
   11.0163   13.9491    5.5229 C   0  0  0  0  0  0  0  0  0  0  0  0
   11.3668   12.7058    5.0732 N   0  0  0  0  0  0  0  0  0  0  0  0
  1  7  2  0  0  0  0
  1  2  1  0  0  0  0
  2  3  1  0  0  0  0
  2  4  2  0  0  0  0
  4  5  1  0  0  0  0
  5  6  2  0  0  0  0
  5 11  1  0  0  0  0
  6  7  1  0  0  0  0
  6  9  1  0  0  0  0
  7  8  1  0  0  0  0
  9 10  1  0  0  0  0
 10 11  2  0  0  0  0
M  END
>  <CHROM.1>
11.58756095,11.86481543,7.25012260,0.49598014,-1.29708071,1.59596033

>  <Name>
ligand

>  <RI>
0

>  <Rbt.Current_Directory>
/home/itssahil/PROJECTS/Mol_Feturizer/New_Systems/rnas/4FEP

>  <Rbt.Executable>
rbdock ($Id: //depot/dev/client3/rdock/2013.1/src/exe/rbdock.cxx#4 $)

>  <Rbt.Library>
libRbt.so (2013.1, Build901 2013/11/27)

>  <Rbt.Parameter_File>
/export/apps/rDock/src/rDock_2013.1_src/data/scripts/dock_solv.prm

>  <Rbt.Receptor>
prm/blind_docking_40.prm

>  <SCORE>
-9.45591

>  <SCORE.INTER>
-9.45591

>  <SCORE.INTER.CONST>
1

>  <SCORE.INTER.POLAR>
0

>  <SCORE.INTER.ROT>
0

>  <SCORE.INTER.SOLV>
20.6586

>  <SCORE.INTER.VDW>
-16.7901

>  <SCORE.INTER.norm>
-0.859628

>  <SCORE.INTRA>
0

>  <SCORE.INTRA.DIHEDRAL>
0

>  <SCORE.INTRA.DIHEDRAL.0>
0

>  <SCORE.INTRA.POLAR>
0

>  <SCORE.INTRA.POLAR.0>
0

>  <SCORE.INTRA.REPUL>
0

>  <SCORE.INTRA.REPUL.0>
0

>  <SCORE.INTRA.SOLV>
0

>  <SCORE.INTRA.SOLV.lig_0>
-48.9558

>  <SCORE.INTRA.VDW>
0

>  <SCORE.INTRA.VDW.0>
0

>  <SCORE.INTRA.norm>
0

>  <SCORE.RESTR>
0

>  <SCORE.RESTR.CAVITY>
0

>  <SCORE.RESTR.norm>
0

>  <SCORE.SYSTEM>
0

>  <SCORE.SYSTEM.CONST>
0

>  <SCORE.SYSTEM.DIHEDRAL>
0

>  <SCORE.SYSTEM.SOLV>
0

>  <SCORE.SYSTEM.norm>
0

>  <SCORE.heavy>
11

>  <SCORE.norm>
-0.859628

>  <RMSD>
2.809

$$$$
ligand
 OpenBabel11021811493D
libRbt.so/2013.1/901 2013/11/27
 11 12  0  0  0  0  0  0  0  0999 V2000
   11.9127   10.8687    8.6639 N   0  0  0  0  0  0  0  0  0  0  0  0
   12.1140   10.1147    7.5712 C   0  0  0  0  0  0  0  0  0  0  0  0
   12.4980    8.7933    7.7256 N   0  0  0  0  0  0  0  0  0  0  0  0
   11.9512   10.6138    6.3350 N   0  0  0  0  0  0  0  0  0  0  0  0
   11.5762   11.9009    6.1495 C   0  0  0  0  0  0  0  0  0  0  0  0
   11.3520   12.7338    7.2748 C   0  0  0  0  0  0  0  0  0  0  0  0
   11.5380   12.1617    8.5685 C   0  0  0  0  0  0  0  0  0  0  0  0
   11.3382   12.9122    9.7116 N   0  0  0  0  0  0  0  0  0  0  0  0
   10.9951   13.9545    6.8049 N   0  0  0  0  0  0  0  0  0  0  0  0
   10.9841   13.9297    5.5021 C   0  0  0  0  0  0  0  0  0  0  0  0
   11.3345   12.6866    5.0520 N   0  0  0  0  0  0  0  0  0  0  0  0
  1  7  2  0  0  0  0
  1  2  1  0  0  0  0
  2  3  1  0  0  0  0
  2  4  2  0  0  0  0
  4  5  1  0  0  0  0
  5  6  2  0  0  0  0
  5 11  1  0  0  0  0
  6  7  1  0  0  0  0
  6  9  1  0  0  0  0
  7  8  1  0  0  0  0
  9 10  1  0  0  0  0
 10 11  2  0  0  0  0
M  END
>  <CHROM.1>
11.60543427,11.85905490,7.22840572,0.42229402,-1.28955307,1.51970035

>  <Name>
ligand

>  <RI>
0

>  <Rbt.Current_Directory>
/home/itssahil/PROJECTS/Mol_Feturizer/New_Systems/rnas/4FEP

>  <Rbt.Executable>
rbdock ($Id: //depot/dev/client3/rdock/2013.1/src/exe/rbdock.cxx#4 $)

>  <Rbt.Library>
libRbt.so (2013.1, Build901 2013/11/27)

>  <Rbt.Parameter_File>
/export/apps/rDock/src/rDock_2013.1_src/data/scripts/dock_solv.prm

>  <Rbt.Receptor>
prm/pocket_docking_6.prm

>  <SCORE>
-9.48638

>  <SCORE.INTER>
-9.48638

>  <SCORE.INTER.CONST>
1

>  <SCORE.INTER.POLAR>
0

>  <SCORE.INTER.ROT>
0

>  <SCORE.INTER.SOLV>
20.3332

>  <SCORE.INTER.VDW>
-16.702

>  <SCORE.INTER.norm>
-0.862398

>  <SCORE.INTRA>
0

>  <SCORE.INTRA.DIHEDRAL>
0

>  <SCORE.INTRA.DIHEDRAL.0>
0

>  <SCORE.INTRA.POLAR>
0

>  <SCORE.INTRA.POLAR.0>
0

>  <SCORE.INTRA.REPUL>
0

>  <SCORE.INTRA.REPUL.0>
0

>  <SCORE.INTRA.SOLV>
0

>  <SCORE.INTRA.SOLV.lig_0>
-48.9558

>  <SCORE.INTRA.VDW>
0

>  <SCORE.INTRA.VDW.0>
0

>  <SCORE.INTRA.norm>
0

>  <SCORE.RESTR>
0

>  <SCORE.RESTR.CAVITY>
0

>  <SCORE.RESTR.norm>
0

>  <SCORE.SYSTEM>
0

>  <SCORE.SYSTEM.CONST>
0

>  <SCORE.SYSTEM.DIHEDRAL>
0

>  <SCORE.SYSTEM.SOLV>
0

>  <SCORE.SYSTEM.norm>
0

>  <SCORE.heavy>
11

>  <SCORE.norm>
-0.862398

>  <RMSD>
2.809

$$$$
ligand
 OpenBabel11021811493D
libRbt.so/2013.1/901 2013/11/27
 11 12  0  0  0  0  0  0  0  0999 V2000
   11.8018   10.8956    8.5951 N   0  0  0  0  0  0  0  0  0  0  0  0
   12.0367   10.0985    7.5404 C   0  0  0  0  0  0  0  0  0  0  0  0
   12.4171    8.7852    7.7595 N   0  0  0  0  0  0  0  0  0  0  0  0
   11.9109   10.5469    6.2807 N   0  0  0  0  0  0  0  0  0  0  0  0
   11.5405   11.8247    6.0320 C   0  0  0  0  0  0  0  0  0  0  0  0
   11.2816   12.7018    7.1155 C   0  0  0  0  0  0  0  0  0  0  0  0
   11.4289   12.1829    8.4362 C   0  0  0  0  0  0  0  0  0  0  0  0
   11.1939   12.9785    9.5415 N   0  0  0  0  0  0  0  0  0  0  0  0
   10.9380   13.9019    6.5860 N   0  0  0  0  0  0  0  0  0  0  0  0
   10.9664   13.8244    5.2855 C   0  0  0  0  0  0  0  0  0  0  0  0
   11.3314   12.5649    4.8968 N   0  0  0  0  0  0  0  0  0  0  0  0
  1  7  2  0  0  0  0
  1  2  1  0  0  0  0
  2  3  1  0  0  0  0
  2  4  2  0  0  0  0
  4  5  1  0  0  0  0
  5  6  2  0  0  0  0
  5 11  1  0  0  0  0
  6  7  1  0  0  0  0
  6  9  1  0  0  0  0
  7  8  1  0  0  0  0
  9 10  1  0  0  0  0
 10 11  2  0  0  0  0
M  END
>  <CHROM.1>
11.53714483,11.82651297,7.11210687,0.53121812,-1.28859518,1.58391216

>  <Name>
ligand

>  <RI>
0

>  <Rbt.Current_Directory>
/home/itssahil/PROJECTS/Mol_Feturizer/New_Systems/rnas/4FEP

>  <Rbt.Executable>
rbdock ($Id: //depot/dev/client3/rdock/2013.1/src/exe/rbdock.cxx#4 $)

>  <Rbt.Library>
libRbt.so (2013.1, Build901 2013/11/27)

>  <Rbt.Parameter_File>
/export/apps/rDock/src/rDock_2013.1_src/data/scripts/dock_solv.prm

>  <Rbt.Receptor>
prm/blind_docking_20.prm

>  <SCORE>
-8.49627

>  <SCORE.INTER>
-9.12887

>  <SCORE.INTER.CONST>
1

>  <SCORE.INTER.POLAR>
0

>  <SCORE.INTER.ROT>
0

>  <SCORE.INTER.SOLV>
20.3789

>  <SCORE.INTER.VDW>
-16.4789

>  <SCORE.INTER.norm>
-0.829897

>  <SCORE.INTRA>
0

>  <SCORE.INTRA.DIHEDRAL>
0

>  <SCORE.INTRA.DIHEDRAL.0>
0

>  <SCORE.INTRA.POLAR>
0

>  <SCORE.INTRA.POLAR.0>
0

>  <SCORE.INTRA.REPUL>
0

>  <SCORE.INTRA.REPUL.0>
0

>  <SCORE.INTRA.SOLV>
0

>  <SCORE.INTRA.SOLV.lig_0>
-48.9558

>  <SCORE.INTRA.VDW>
0

>  <SCORE.INTRA.VDW.0>
0

>  <SCORE.INTRA.norm>
0

>  <SCORE.RESTR>
0.632598

>  <SCORE.RESTR.CAVITY>
0.632598

>  <SCORE.RESTR.norm>
0.0575089

>  <SCORE.SYSTEM>
0

>  <SCORE.SYSTEM.CONST>
0

>  <SCORE.SYSTEM.DIHEDRAL>
0

>  <SCORE.SYSTEM.SOLV>
0

>  <SCORE.SYSTEM.norm>
0

>  <SCORE.heavy>
11

>  <SCORE.norm>
-0.772388

>  <RMSD>
2.810

$$$$
ligand
 OpenBabel11021811493D
libRbt.so/2013.1/901 2013/11/27
 11 12  0  0  0  0  0  0  0  0999 V2000
   11.7891   10.8859    8.5833 N   0  0  0  0  0  0  0  0  0  0  0  0
   12.0300   10.0790    7.5376 C   0  0  0  0  0  0  0  0  0  0  0  0
   12.4289    8.7737    7.7713 N   0  0  0  0  0  0  0  0  0  0  0  0
   11.8926   10.5098    6.2729 N   0  0  0  0  0  0  0  0  0  0  0  0
   11.5040   11.7794    6.0101 C   0  0  0  0  0  0  0  0  0  0  0  0
   11.2381   12.6664    7.0838 C   0  0  0  0  0  0  0  0  0  0  0  0
   11.3982   12.1661    8.4102 C   0  0  0  0  0  0  0  0  0  0  0  0
   11.1575   12.9722    9.5065 N   0  0  0  0  0  0  0  0  0  0  0  0
   10.8761   13.8550    6.5410 N   0  0  0  0  0  0  0  0  0  0  0  0
   10.8998   13.7617    5.2414 C   0  0  0  0  0  0  0  0  0  0  0  0
   11.2799   12.5024    4.8668 N   0  0  0  0  0  0  0  0  0  0  0  0
  1  7  2  0  0  0  0
  1  2  1  0  0  0  0
  2  3  1  0  0  0  0
  2  4  2  0  0  0  0
  4  5  1  0  0  0  0
  5  6  2  0  0  0  0
  5 11  1  0  0  0  0
  6  7  1  0  0  0  0
  6  9  1  0  0  0  0
  7  8  1  0  0  0  0
  9 10  1  0  0  0  0
 10 11  2  0  0  0  0
M  END
>  <CHROM.1>
11.50538783,11.79462695,7.09012234,0.51536647,-1.27519537,1.55624663

>  <Name>
ligand

>  <RI>
0

>  <Rbt.Current_Directory>
/home/itssahil/PROJECTS/Mol_Feturizer/New_Systems/rnas/4FEP

>  <Rbt.Executable>
rbdock ($Id: //depot/dev/client3/rdock/2013.1/src/exe/rbdock.cxx#4 $)

>  <Rbt.Library>
libRbt.so (2013.1, Build901 2013/11/27)

>  <Rbt.Parameter_File>
/export/apps/rDock/src/rDock_2013.1_src/data/scripts/dock_solv.prm

>  <Rbt.Receptor>
prm/blind_docking_20.prm

>  <SCORE>
-8.44614

>  <SCORE.INTER>
-9.04716

>  <SCORE.INTER.CONST>
1

>  <SCORE.INTER.POLAR>
0

>  <SCORE.INTER.ROT>
0

>  <SCORE.INTER.SOLV>
20.2326

>  <SCORE.INTER.VDW>
-16.3756

>  <SCORE.INTER.norm>
-0.822469

>  <SCORE.INTRA>
0

>  <SCORE.INTRA.DIHEDRAL>
0

>  <SCORE.INTRA.DIHEDRAL.0>
0

>  <SCORE.INTRA.POLAR>
0

>  <SCORE.INTRA.POLAR.0>
0

>  <SCORE.INTRA.REPUL>
0

>  <SCORE.INTRA.REPUL.0>
0

>  <SCORE.INTRA.SOLV>
0

>  <SCORE.INTRA.SOLV.lig_0>
-48.9558

>  <SCORE.INTRA.VDW>
0

>  <SCORE.INTRA.VDW.0>
0

>  <SCORE.INTRA.norm>
0

>  <SCORE.RESTR>
0.601015

>  <SCORE.RESTR.CAVITY>
0.601015

>  <SCORE.RESTR.norm>
0.0546377

>  <SCORE.SYSTEM>
0

>  <SCORE.SYSTEM.CONST>
0

>  <SCORE.SYSTEM.DIHEDRAL>
0

>  <SCORE.SYSTEM.SOLV>
0

>  <SCORE.SYSTEM.norm>
0

>  <SCORE.heavy>
11

>  <SCORE.norm>
-0.767831

>  <RMSD>
2.810

$$$$
ligand
 OpenBabel11021811493D
libRbt.so/2013.1/901 2013/11/27
 11 12  0  0  0  0  0  0  0  0999 V2000
   11.7772   10.8982    8.5908 N   0  0  0  0  0  0  0  0  0  0  0  0
   12.0309   10.1033    7.5389 C   0  0  0  0  0  0  0  0  0  0  0  0
   12.4196    8.7931    7.7624 N   0  0  0  0  0  0  0  0  0  0  0  0
   11.9160   10.5507    6.2778 N   0  0  0  0  0  0  0  0  0  0  0  0
   11.5379   11.8255    6.0250 C   0  0  0  0  0  0  0  0  0  0  0  0
   11.2592   12.7003    7.1054 C   0  0  0  0  0  0  0  0  0  0  0  0
   11.3955   12.1824    8.4277 C   0  0  0  0  0  0  0  0  0  0  0  0
   11.1411   12.9759    9.5302 N   0  0  0  0  0  0  0  0  0  0  0  0
   10.9118   13.8975    6.5720 N   0  0  0  0  0  0  0  0  0  0  0  0
   10.9559   13.8205    5.2719 C   0  0  0  0  0  0  0  0  0  0  0  0
   11.3358   12.5640    4.8875 N   0  0  0  0  0  0  0  0  0  0  0  0
  1  7  2  0  0  0  0
  1  2  1  0  0  0  0
  2  3  1  0  0  0  0
  2  4  2  0  0  0  0
  4  5  1  0  0  0  0
  5  6  2  0  0  0  0
  5 11  1  0  0  0  0
  6  7  1  0  0  0  0
  6  9  1  0  0  0  0
  7  8  1  0  0  0  0
  9 10  1  0  0  0  0
 10 11  2  0  0  0  0
M  END
>  <CHROM.1>
11.52202787,11.82710099,7.10493001,0.57120496,-1.27993175,1.62235722

>  <Name>
ligand

>  <RI>
0

>  <Rbt.Current_Directory>
/home/itssahil/PROJECTS/Mol_Feturizer/New_Systems/rnas/4FEP

>  <Rbt.Executable>
rbdock ($Id: //depot/dev/client3/rdock/2013.1/src/exe/rbdock.cxx#4 $)

>  <Rbt.Library>
libRbt.so (2013.1, Build901 2013/11/27)

>  <Rbt.Parameter_File>
/export/apps/rDock/src/rDock_2013.1_src/data/scripts/dock_solv.prm

>  <Rbt.Receptor>
prm/blind_docking_20.prm

>  <SCORE>
-8.45158

>  <SCORE.INTER>
-9.07378

>  <SCORE.INTER.CONST>
1

>  <SCORE.INTER.POLAR>
0

>  <SCORE.INTER.ROT>
0

>  <SCORE.INTER.SOLV>
20.3608

>  <SCORE.INTER.VDW>
-16.4361

>  <SCORE.INTER.norm>
-0.824889

>  <SCORE.INTRA>
0

>  <SCORE.INTRA.DIHEDRAL>
0

>  <SCORE.INTRA.DIHEDRAL.0>
0

>  <SCORE.INTRA.POLAR>
0

>  <SCORE.INTRA.POLAR.0>
0

>  <SCORE.INTRA.REPUL>
0

>  <SCORE.INTRA.REPUL.0>
0

>  <SCORE.INTRA.SOLV>
0

>  <SCORE.INTRA.SOLV.lig_0>
-48.9558

>  <SCORE.INTRA.VDW>
0

>  <SCORE.INTRA.VDW.0>
0

>  <SCORE.INTRA.norm>
0

>  <SCORE.RESTR>
0.622192

>  <SCORE.RESTR.CAVITY>
0.622192

>  <SCORE.RESTR.norm>
0.0565629

>  <SCORE.SYSTEM>
0

>  <SCORE.SYSTEM.CONST>
0

>  <SCORE.SYSTEM.DIHEDRAL>
0

>  <SCORE.SYSTEM.SOLV>
0

>  <SCORE.SYSTEM.norm>
0

>  <SCORE.heavy>
11

>  <SCORE.norm>
-0.768326

>  <RMSD>
2.810

$$$$
ligand
 OpenBabel11021811493D
libRbt.so/2013.1/901 2013/11/27
 11 12  0  0  0  0  0  0  0  0999 V2000
   11.8033   10.8911    8.5997 N   0  0  0  0  0  0  0  0  0  0  0  0
   12.0416   10.0946    7.5453 C   0  0  0  0  0  0  0  0  0  0  0  0
   12.4227    8.7816    7.7650 N   0  0  0  0  0  0  0  0  0  0  0  0
   11.9186   10.5432    6.2854 N   0  0  0  0  0  0  0  0  0  0  0  0
   11.5476   11.8208    6.0363 C   0  0  0  0  0  0  0  0  0  0  0  0
   11.2850   12.6973    7.1193 C   0  0  0  0  0  0  0  0  0  0  0  0
   11.4295   12.1781    8.4403 C   0  0  0  0  0  0  0  0  0  0  0  0
   11.1910   12.9731    9.5452 N   0  0  0  0  0  0  0  0  0  0  0  0
   10.9416   13.8971    6.5893 N   0  0  0  0  0  0  0  0  0  0  0  0
   10.9734   13.8201    5.2889 C   0  0  0  0  0  0  0  0  0  0  0  0
   11.3406   12.5611    4.9008 N   0  0  0  0  0  0  0  0  0  0  0  0
  1  7  2  0  0  0  0
  1  2  1  0  0  0  0
  2  3  1  0  0  0  0
  2  4  2  0  0  0  0
  4  5  1  0  0  0  0
  5  6  2  0  0  0  0
  5 11  1  0  0  0  0
  6  7  1  0  0  0  0
  6  9  1  0  0  0  0
  7  8  1  0  0  0  0
  9 10  1  0  0  0  0
 10 11  2  0  0  0  0
M  END
>  <CHROM.1>
11.54146930,11.82221402,7.11631820,0.54016528,-1.28757184,1.59281492

>  <Name>
ligand

>  <RI>
0

>  <Rbt.Current_Directory>
/home/itssahil/PROJECTS/Mol_Feturizer/New_Systems/rnas/4FEP

>  <Rbt.Executable>
rbdock ($Id: //depot/dev/client3/rdock/2013.1/src/exe/rbdock.cxx#4 $)

>  <Rbt.Library>
libRbt.so (2013.1, Build901 2013/11/27)

>  <Rbt.Parameter_File>
/export/apps/rDock/src/rDock_2013.1_src/data/scripts/dock_solv.prm

>  <Rbt.Receptor>
prm/blind_docking_20.prm

>  <SCORE>
-8.497

>  <SCORE.INTER>
-9.13052

>  <SCORE.INTER.CONST>
1

>  <SCORE.INTER.POLAR>
0

>  <SCORE.INTER.ROT>
0

>  <SCORE.INTER.SOLV>
20.3634

>  <SCORE.INTER.VDW>
-16.4748

>  <SCORE.INTER.norm>
-0.830047

>  <SCORE.INTRA>
0

>  <SCORE.INTRA.DIHEDRAL>
0

>  <SCORE.INTRA.DIHEDRAL.0>
0

>  <SCORE.INTRA.POLAR>
0

>  <SCORE.INTRA.POLAR.0>
0

>  <SCORE.INTRA.REPUL>
0

>  <SCORE.INTRA.REPUL.0>
0

>  <SCORE.INTRA.SOLV>
0

>  <SCORE.INTRA.SOLV.lig_0>
-48.9558

>  <SCORE.INTRA.VDW>
0

>  <SCORE.INTRA.VDW.0>
0

>  <SCORE.INTRA.norm>
0

>  <SCORE.RESTR>
0.633518

>  <SCORE.RESTR.CAVITY>
0.633518

>  <SCORE.RESTR.norm>
0.0575925

>  <SCORE.SYSTEM>
0

>  <SCORE.SYSTEM.CONST>
0

>  <SCORE.SYSTEM.DIHEDRAL>
0

>  <SCORE.SYSTEM.SOLV>
0

>  <SCORE.SYSTEM.norm>
0

>  <SCORE.heavy>
11

>  <SCORE.norm>
-0.772455

>  <RMSD>
2.810

$$$$
ligand
 OpenBabel11021811493D
libRbt.so/2013.1/901 2013/11/27
 11 12  0  0  0  0  0  0  0  0999 V2000
   11.7922   10.8879    8.5857 N   0  0  0  0  0  0  0  0  0  0  0  0
   12.0331   10.0787    7.5416 C   0  0  0  0  0  0  0  0  0  0  0  0
   12.4245    8.7716    7.7782 N   0  0  0  0  0  0  0  0  0  0  0  0
   11.9029   10.5090    6.2761 N   0  0  0  0  0  0  0  0  0  0  0  0
   11.5218   11.7802    6.0105 C   0  0  0  0  0  0  0  0  0  0  0  0
   11.2561   12.6696    7.0822 C   0  0  0  0  0  0  0  0  0  0  0  0
   11.4085   12.1698    8.4098 C   0  0  0  0  0  0  0  0  0  0  0  0
   11.1675   12.9782    9.5043 N   0  0  0  0  0  0  0  0  0  0  0  0
   10.9022   13.8595    6.5369 N   0  0  0  0  0  0  0  0  0  0  0  0
   10.9305   13.7648    5.2375 C   0  0  0  0  0  0  0  0  0  0  0  0
   11.3058   12.5032    4.8656 N   0  0  0  0  0  0  0  0  0  0  0  0
  1  7  2  0  0  0  0
  1  2  1  0  0  0  0
  2  3  1  0  0  0  0
  2  4  2  0  0  0  0
  4  5  1  0  0  0  0
  5  6  2  0  0  0  0
  5 11  1  0  0  0  0
  6  7  1  0  0  0  0
  6  9  1  0  0  0  0
  7  8  1  0  0  0  0
  9 10  1  0  0  0  0
 10 11  2  0  0  0  0
M  END
>  <CHROM.1>
11.51894671,11.79649650,7.09046720,0.52885680,-1.28027466,1.56818651

>  <Name>
ligand

>  <RI>
0

>  <Rbt.Current_Directory>
/home/itssahil/PROJECTS/Mol_Feturizer/New_Systems/rnas/4FEP

>  <Rbt.Executable>
rbdock ($Id: //depot/dev/client3/rdock/2013.1/src/exe/rbdock.cxx#4 $)

>  <Rbt.Library>
libRbt.so (2013.1, Build901 2013/11/27)

>  <Rbt.Parameter_File>
/export/apps/rDock/src/rDock_2013.1_src/data/scripts/dock_solv.prm

>  <Rbt.Receptor>
prm/blind_docking_20.prm

>  <SCORE>
-8.4648

>  <SCORE.INTER>
-9.06647

>  <SCORE.INTER.CONST>
1

>  <SCORE.INTER.POLAR>
0

>  <SCORE.INTER.ROT>
0

>  <SCORE.INTER.SOLV>
20.2671

>  <SCORE.INTER.VDW>
-16.4

>  <SCORE.INTER.norm>
-0.824225

>  <SCORE.INTRA>
0

>  <SCORE.INTRA.DIHEDRAL>
0

>  <SCORE.INTRA.DIHEDRAL.0>
0

>  <SCORE.INTRA.POLAR>
0

>  <SCORE.INTRA.POLAR.0>
0

>  <SCORE.INTRA.REPUL>
0

>  <SCORE.INTRA.REPUL.0>
0

>  <SCORE.INTRA.SOLV>
0

>  <SCORE.INTRA.SOLV.lig_0>
-48.9558

>  <SCORE.INTRA.VDW>
0

>  <SCORE.INTRA.VDW.0>
0

>  <SCORE.INTRA.norm>
0

>  <SCORE.RESTR>
0.60167

>  <SCORE.RESTR.CAVITY>
0.60167

>  <SCORE.RESTR.norm>
0.0546973

>  <SCORE.SYSTEM>
0

>  <SCORE.SYSTEM.CONST>
0

>  <SCORE.SYSTEM.DIHEDRAL>
0

>  <SCORE.SYSTEM.SOLV>
0

>  <SCORE.SYSTEM.norm>
0

>  <SCORE.heavy>
11

>  <SCORE.norm>
-0.769528

>  <RMSD>
2.810

$$$$
ligand
 OpenBabel11021811493D
libRbt.so/2013.1/901 2013/11/27
 11 12  0  0  0  0  0  0  0  0999 V2000
   11.8026   10.8825    8.5875 N   0  0  0  0  0  0  0  0  0  0  0  0
   12.0415   10.0739    7.5425 C   0  0  0  0  0  0  0  0  0  0  0  0
   12.4345    8.7671    7.7775 N   0  0  0  0  0  0  0  0  0  0  0  0
   11.9078   10.5047    6.2775 N   0  0  0  0  0  0  0  0  0  0  0  0
   11.5250   11.7757    6.0135 C   0  0  0  0  0  0  0  0  0  0  0  0
   11.2614   12.6645    7.0862 C   0  0  0  0  0  0  0  0  0  0  0  0
   11.4175   12.1642    8.4132 C   0  0  0  0  0  0  0  0  0  0  0  0
   11.1787   12.9720    9.5087 N   0  0  0  0  0  0  0  0  0  0  0  0
   10.9052   13.8543    6.5423 N   0  0  0  0  0  0  0  0  0  0  0  0
   10.9303   13.7602    5.2428 C   0  0  0  0  0  0  0  0  0  0  0  0
   11.3056   12.4991    4.8694 N   0  0  0  0  0  0  0  0  0  0  0  0
  1  7  2  0  0  0  0
  1  2  1  0  0  0  0
  2  3  1  0  0  0  0
  2  4  2  0  0  0  0
  4  5  1  0  0  0  0
  5  6  2  0  0  0  0
  5 11  1  0  0  0  0
  6  7  1  0  0  0  0
  6  9  1  0  0  0  0
  7  8  1  0  0  0  0
  9 10  1  0  0  0  0
 10 11  2  0  0  0  0
M  END
>  <CHROM.1>
11.52490242,11.79155959,7.09342682,0.51999555,-1.27950650,1.56012057

>  <Name>
ligand

>  <RI>
0

>  <Rbt.Current_Directory>
/home/itssahil/PROJECTS/Mol_Feturizer/New_Systems/rnas/4FEP

>  <Rbt.Executable>
rbdock ($Id: //depot/dev/client3/rdock/2013.1/src/exe/rbdock.cxx#4 $)

>  <Rbt.Library>
libRbt.so (2013.1, Build901 2013/11/27)

>  <Rbt.Parameter_File>
/export/apps/rDock/src/rDock_2013.1_src/data/scripts/dock_solv.prm

>  <Rbt.Receptor>
prm/blind_docking_20.prm

>  <SCORE>
-8.47367

>  <SCORE.INTER>
-9.07639

>  <SCORE.INTER.CONST>
1

>  <SCORE.INTER.POLAR>
0

>  <SCORE.INTER.ROT>
0

>  <SCORE.INTER.SOLV>
20.2211

>  <SCORE.INTER.VDW>
-16.3913

>  <SCORE.INTER.norm>
-0.825127

>  <SCORE.INTRA>
0

>  <SCORE.INTRA.DIHEDRAL>
0

>  <SCORE.INTRA.DIHEDRAL.0>
0

>  <SCORE.INTRA.POLAR>
0

>  <SCORE.INTRA.POLAR.0>
0

>  <SCORE.INTRA.REPUL>
0

>  <SCORE.INTRA.REPUL.0>
0

>  <SCORE.INTRA.SOLV>
0

>  <SCORE.INTRA.SOLV.lig_0>
-48.9558

>  <SCORE.INTRA.VDW>
0

>  <SCORE.INTRA.VDW.0>
0

>  <SCORE.INTRA.norm>
0

>  <SCORE.RESTR>
0.60272

>  <SCORE.RESTR.CAVITY>
0.60272

>  <SCORE.RESTR.norm>
0.0547927

>  <SCORE.SYSTEM>
0

>  <SCORE.SYSTEM.CONST>
0

>  <SCORE.SYSTEM.DIHEDRAL>
0

>  <SCORE.SYSTEM.SOLV>
0

>  <SCORE.SYSTEM.norm>
0

>  <SCORE.heavy>
11

>  <SCORE.norm>
-0.770334

>  <RMSD>
2.810

$$$$
ligand
 OpenBabel11021811493D
libRbt.so/2013.1/901 2013/11/27
 11 12  0  0  0  0  0  0  0  0999 V2000
   11.8050   10.8761    8.5986 N   0  0  0  0  0  0  0  0  0  0  0  0
   12.0660   10.0648    7.5610 C   0  0  0  0  0  0  0  0  0  0  0  0
   12.4649    8.7619    7.8078 N   0  0  0  0  0  0  0  0  0  0  0  0
   11.9488   10.4890    6.2922 N   0  0  0  0  0  0  0  0  0  0  0  0
   11.5608   11.7561    6.0166 C   0  0  0  0  0  0  0  0  0  0  0  0
   11.2741   12.6475    7.0812 C   0  0  0  0  0  0  0  0  0  0  0  0
   11.4132   12.1541    8.4126 C   0  0  0  0  0  0  0  0  0  0  0  0
   11.1516   12.9648    9.5007 N   0  0  0  0  0  0  0  0  0  0  0  0
   10.9177   13.8323    6.5266 N   0  0  0  0  0  0  0  0  0  0  0  0
   10.9636   13.7328    5.2281 C   0  0  0  0  0  0  0  0  0  0  0  0
   11.3539   12.4729    4.8661 N   0  0  0  0  0  0  0  0  0  0  0  0
  1  7  2  0  0  0  0
  1  2  1  0  0  0  0
  2  3  1  0  0  0  0
  2  4  2  0  0  0  0
  4  5  1  0  0  0  0
  5  6  2  0  0  0  0
  5 11  1  0  0  0  0
  6  7  1  0  0  0  0
  6  9  1  0  0  0  0
  7  8  1  0  0  0  0
  9 10  1  0  0  0  0
 10 11  2  0  0  0  0
M  END
>  <CHROM.1>
11.54385153,11.77658099,7.09636479,0.57299135,-1.27194214,1.60645970

>  <Name>
ligand

>  <RI>
0

>  <Rbt.Current_Directory>
/home/itssahil/PROJECTS/Mol_Feturizer/New_Systems/rnas/4FEP

>  <Rbt.Executable>
rbdock ($Id: //depot/dev/client3/rdock/2013.1/src/exe/rbdock.cxx#4 $)

>  <Rbt.Library>
libRbt.so (2013.1, Build901 2013/11/27)

>  <Rbt.Parameter_File>
/export/apps/rDock/src/rDock_2013.1_src/data/scripts/dock_solv.prm

>  <Rbt.Receptor>
prm/blind_docking_20.prm

>  <SCORE>
-8.4348

>  <SCORE.INTER>
-9.02793

>  <SCORE.INTER.CONST>
1

>  <SCORE.INTER.POLAR>
0

>  <SCORE.INTER.ROT>
0

>  <SCORE.INTER.SOLV>
20.1425

>  <SCORE.INTER.VDW>
-16.3328

>  <SCORE.INTER.norm>
-0.820721

>  <SCORE.INTRA>
0

>  <SCORE.INTRA.DIHEDRAL>
0

>  <SCORE.INTRA.DIHEDRAL.0>
0

>  <SCORE.INTRA.POLAR>
0

>  <SCORE.INTRA.POLAR.0>
0

>  <SCORE.INTRA.REPUL>
0

>  <SCORE.INTRA.REPUL.0>
0

>  <SCORE.INTRA.SOLV>
0

>  <SCORE.INTRA.SOLV.lig_0>
-48.9558

>  <SCORE.INTRA.VDW>
0

>  <SCORE.INTRA.VDW.0>
0

>  <SCORE.INTRA.norm>
0

>  <SCORE.RESTR>
0.593129

>  <SCORE.RESTR.CAVITY>
0.593129

>  <SCORE.RESTR.norm>
0.0539208

>  <SCORE.SYSTEM>
0

>  <SCORE.SYSTEM.CONST>
0

>  <SCORE.SYSTEM.DIHEDRAL>
0

>  <SCORE.SYSTEM.SOLV>
0

>  <SCORE.SYSTEM.norm>
0

>  <SCORE.heavy>
11

>  <SCORE.norm>
-0.7668

>  <RMSD>
2.810

$$$$
ligand
 OpenBabel11021811493D
libRbt.so/2013.1/901 2013/11/27
 11 12  0  0  0  0  0  0  0  0999 V2000
   11.9223   10.8675    8.6713 N   0  0  0  0  0  0  0  0  0  0  0  0
   12.1176   10.1184    7.5741 C   0  0  0  0  0  0  0  0  0  0  0  0
   12.4943    8.7939    7.7205 N   0  0  0  0  0  0  0  0  0  0  0  0
   11.9558   10.6252    6.3409 N   0  0  0  0  0  0  0  0  0  0  0  0
   11.5878   11.9155    6.1631 C   0  0  0  0  0  0  0  0  0  0  0  0
   11.3701   12.7433    7.2934 C   0  0  0  0  0  0  0  0  0  0  0  0
   11.5548   12.1631    8.5836 C   0  0  0  0  0  0  0  0  0  0  0  0
   11.3610   12.9084    9.7311 N   0  0  0  0  0  0  0  0  0  0  0  0
   11.0195   13.9687    6.8308 N   0  0  0  0  0  0  0  0  0  0  0  0
   11.0063   13.9511    5.5278 C   0  0  0  0  0  0  0  0  0  0  0  0
   11.3489   12.7085    5.0704 N   0  0  0  0  0  0  0  0  0  0  0  0
  1  7  2  0  0  0  0
  1  2  1  0  0  0  0
  2  3  1  0  0  0  0
  2  4  2  0  0  0  0
  4  5  1  0  0  0  0
  5  6  2  0  0  0  0
  5 11  1  0  0  0  0
  6  7  1  0  0  0  0
  6  9  1  0  0  0  0
  7  8  1  0  0  0  0
  9 10  1  0  0  0  0
 10 11  2  0  0  0  0
M  END
>  <CHROM.1>
11.61847813,11.86746841,7.24172541,0.41560229,-1.29517073,1.51879457

>  <Name>
ligand

>  <RI>
0

>  <Rbt.Current_Directory>
/home/itssahil/PROJECTS/Mol_Feturizer/New_Systems/rnas/4FEP

>  <Rbt.Executable>
rbdock ($Id: //depot/dev/client3/rdock/2013.1/src/exe/rbdock.cxx#4 $)

>  <Rbt.Library>
libRbt.so (2013.1, Build901 2013/11/27)

>  <Rbt.Parameter_File>
/export/apps/rDock/src/rDock_2013.1_src/data/scripts/dock_solv.prm

>  <Rbt.Receptor>
prm/blind_docking_40.prm

>  <SCORE>
-9.49024

>  <SCORE.INTER>
-9.49024

>  <SCORE.INTER.CONST>
1

>  <SCORE.INTER.POLAR>
0

>  <SCORE.INTER.ROT>
0

>  <SCORE.INTER.SOLV>
20.389

>  <SCORE.INTER.VDW>
-16.7232

>  <SCORE.INTER.norm>
-0.862749

>  <SCORE.INTRA>
0

>  <SCORE.INTRA.DIHEDRAL>
0

>  <SCORE.INTRA.DIHEDRAL.0>
0

>  <SCORE.INTRA.POLAR>
0

>  <SCORE.INTRA.POLAR.0>
0

>  <SCORE.INTRA.REPUL>
0

>  <SCORE.INTRA.REPUL.0>
0

>  <SCORE.INTRA.SOLV>
0

>  <SCORE.INTRA.SOLV.lig_0>
-48.9558

>  <SCORE.INTRA.VDW>
0

>  <SCORE.INTRA.VDW.0>
0

>  <SCORE.INTRA.norm>
0

>  <SCORE.RESTR>
0

>  <SCORE.RESTR.CAVITY>
0

>  <SCORE.RESTR.norm>
0

>  <SCORE.SYSTEM>
0

>  <SCORE.SYSTEM.CONST>
0

>  <SCORE.SYSTEM.DIHEDRAL>
0

>  <SCORE.SYSTEM.SOLV>
0

>  <SCORE.SYSTEM.norm>
0

>  <SCORE.heavy>
11

>  <SCORE.norm>
-0.862749

>  <RMSD>
2.810

$$$$
ligand
 OpenBabel11021811493D
libRbt.so/2013.1/901 2013/11/27
 11 12  0  0  0  0  0  0  0  0999 V2000
   11.9129   10.8639    8.6588 N   0  0  0  0  0  0  0  0  0  0  0  0
   12.1072   10.1098    7.5650 C   0  0  0  0  0  0  0  0  0  0  0  0
   12.4864    8.7867    7.7172 N   0  0  0  0  0  0  0  0  0  0  0  0
   11.9420   10.6102    6.3296 N   0  0  0  0  0  0  0  0  0  0  0  0
   11.5715   11.8989    6.1462 C   0  0  0  0  0  0  0  0  0  0  0  0
   11.3547   12.7320    7.2728 C   0  0  0  0  0  0  0  0  0  0  0  0
   11.5430   12.1585    8.5655 C   0  0  0  0  0  0  0  0  0  0  0  0
   11.3503   12.9091    9.7097 N   0  0  0  0  0  0  0  0  0  0  0  0
   11.0010   13.9545    6.8049 N   0  0  0  0  0  0  0  0  0  0  0  0
   10.9852   13.9305    5.5021 C   0  0  0  0  0  0  0  0  0  0  0  0
   11.3290   12.6862    5.0500 N   0  0  0  0  0  0  0  0  0  0  0  0
  1  7  2  0  0  0  0
  1  2  1  0  0  0  0
  2  3  1  0  0  0  0
  2  4  2  0  0  0  0
  4  5  1  0  0  0  0
  5  6  2  0  0  0  0
  5 11  1  0  0  0  0
  6  7  1  0  0  0  0
  6  9  1  0  0  0  0
  7  8  1  0  0  0  0
  9 10  1  0  0  0  0
 10 11  2  0  0  0  0
M  END
>  <CHROM.1>
11.60445453,11.85633085,7.22497461,0.40843937,-1.29336065,1.50695785

>  <Name>
ligand

>  <RI>
0

>  <Rbt.Current_Directory>
/home/itssahil/PROJECTS/Mol_Feturizer/New_Systems/rnas/4FEP

>  <Rbt.Executable>
rbdock ($Id: //depot/dev/client3/rdock/2013.1/src/exe/rbdock.cxx#4 $)

>  <Rbt.Library>
libRbt.so (2013.1, Build901 2013/11/27)

>  <Rbt.Parameter_File>
/export/apps/rDock/src/rDock_2013.1_src/data/scripts/dock_solv.prm

>  <Rbt.Receptor>
prm/pocket_docking_4.prm

>  <SCORE>
-9.48743

>  <SCORE.INTER>
-9.48743

>  <SCORE.INTER.CONST>
1

>  <SCORE.INTER.POLAR>
0

>  <SCORE.INTER.ROT>
0

>  <SCORE.INTER.SOLV>
20.3477

>  <SCORE.INTER.VDW>
-16.7075

>  <SCORE.INTER.norm>
-0.862494

>  <SCORE.INTRA>
0

>  <SCORE.INTRA.DIHEDRAL>
0

>  <SCORE.INTRA.DIHEDRAL.0>
0

>  <SCORE.INTRA.POLAR>
0

>  <SCORE.INTRA.POLAR.0>
0

>  <SCORE.INTRA.REPUL>
0

>  <SCORE.INTRA.REPUL.0>
0

>  <SCORE.INTRA.SOLV>
0

>  <SCORE.INTRA.SOLV.lig_0>
-48.9558

>  <SCORE.INTRA.VDW>
0

>  <SCORE.INTRA.VDW.0>
0

>  <SCORE.INTRA.norm>
0

>  <SCORE.RESTR>
0

>  <SCORE.RESTR.CAVITY>
0

>  <SCORE.RESTR.norm>
0

>  <SCORE.SYSTEM>
0

>  <SCORE.SYSTEM.CONST>
0

>  <SCORE.SYSTEM.DIHEDRAL>
0

>  <SCORE.SYSTEM.SOLV>
0

>  <SCORE.SYSTEM.norm>
0

>  <SCORE.heavy>
11

>  <SCORE.norm>
-0.862494

>  <RMSD>
2.810

$$$$
ligand
 OpenBabel11021811493D
libRbt.so/2013.1/901 2013/11/27
 11 12  0  0  0  0  0  0  0  0999 V2000
   11.9000   10.8519    8.6910 N   0  0  0  0  0  0  0  0  0  0  0  0
   12.1261   10.1064    7.5973 C   0  0  0  0  0  0  0  0  0  0  0  0
   12.5151    8.7862    7.7501 N   0  0  0  0  0  0  0  0  0  0  0  0
   11.9833   10.6127    6.3616 N   0  0  0  0  0  0  0  0  0  0  0  0
   11.6041   11.8988    6.1775 C   0  0  0  0  0  0  0  0  0  0  0  0
   11.3539   12.7228    7.3039 C   0  0  0  0  0  0  0  0  0  0  0  0
   11.5193   12.1433    8.5971 C   0  0  0  0  0  0  0  0  0  0  0  0
   11.2937   12.8850    9.7411 N   0  0  0  0  0  0  0  0  0  0  0  0
   10.9985   13.9445    6.8354 N   0  0  0  0  0  0  0  0  0  0  0  0
   11.0118   13.9283    5.5324 C   0  0  0  0  0  0  0  0  0  0  0  0
   11.3781   12.6903    5.0809 N   0  0  0  0  0  0  0  0  0  0  0  0
  1  7  2  0  0  0  0
  1  2  1  0  0  0  0
  2  3  1  0  0  0  0
  2  4  2  0  0  0  0
  4  5  1  0  0  0  0
  5  6  2  0  0  0  0
  5 11  1  0  0  0  0
  6  7  1  0  0  0  0
  6  9  1  0  0  0  0
  7  8  1  0  0  0  0
  9 10  1  0  0  0  0
 10 11  2  0  0  0  0
M  END
>  <CHROM.1>
11.61348139,11.84994567,7.25648145,0.48909633,-1.28386663,1.59042015

>  <Name>
ligand

>  <RI>
0

>  <Rbt.Current_Directory>
/home/itssahil/PROJECTS/Mol_Feturizer/New_Systems/rnas/4FEP

>  <Rbt.Executable>
rbdock ($Id: //depot/dev/client3/rdock/2013.1/src/exe/rbdock.cxx#4 $)

>  <Rbt.Library>
libRbt.so (2013.1, Build901 2013/11/27)

>  <Rbt.Parameter_File>
/export/apps/rDock/src/rDock_2013.1_src/data/scripts/dock_solv.prm

>  <Rbt.Receptor>
prm/pocket_docking_5.prm

>  <SCORE>
-9.46839

>  <SCORE.INTER>
-9.46839

>  <SCORE.INTER.CONST>
1

>  <SCORE.INTER.POLAR>
0

>  <SCORE.INTER.ROT>
0

>  <SCORE.INTER.SOLV>
20.3888

>  <SCORE.INTER.VDW>
-16.7085

>  <SCORE.INTER.norm>
-0.860763

>  <SCORE.INTRA>
0

>  <SCORE.INTRA.DIHEDRAL>
0

>  <SCORE.INTRA.DIHEDRAL.0>
0

>  <SCORE.INTRA.POLAR>
0

>  <SCORE.INTRA.POLAR.0>
0

>  <SCORE.INTRA.REPUL>
0

>  <SCORE.INTRA.REPUL.0>
0

>  <SCORE.INTRA.SOLV>
0

>  <SCORE.INTRA.SOLV.lig_0>
-48.9558

>  <SCORE.INTRA.VDW>
0

>  <SCORE.INTRA.VDW.0>
0

>  <SCORE.INTRA.norm>
0

>  <SCORE.RESTR>
0

>  <SCORE.RESTR.CAVITY>
0

>  <SCORE.RESTR.norm>
0

>  <SCORE.SYSTEM>
0

>  <SCORE.SYSTEM.CONST>
0

>  <SCORE.SYSTEM.DIHEDRAL>
0

>  <SCORE.SYSTEM.SOLV>
0

>  <SCORE.SYSTEM.norm>
0

>  <SCORE.heavy>
11

>  <SCORE.norm>
-0.860763

>  <RMSD>
2.810

$$$$
ligand
 OpenBabel11021811493D
libRbt.so/2013.1/901 2013/11/27
 11 12  0  0  0  0  0  0  0  0999 V2000
   11.9239   10.8650    8.6677 N   0  0  0  0  0  0  0  0  0  0  0  0
   12.1135   10.1155    7.5699 C   0  0  0  0  0  0  0  0  0  0  0  0
   12.4896    8.7907    7.7149 N   0  0  0  0  0  0  0  0  0  0  0  0
   11.9466   10.6221    6.3373 N   0  0  0  0  0  0  0  0  0  0  0  0
   11.5791   11.9127    6.1609 C   0  0  0  0  0  0  0  0  0  0  0  0
   11.3673   12.7411    7.2919 C   0  0  0  0  0  0  0  0  0  0  0  0
   11.5572   12.1609    8.5814 C   0  0  0  0  0  0  0  0  0  0  0  0
   11.3694   12.9067    9.7296 N   0  0  0  0  0  0  0  0  0  0  0  0
   11.0157   13.9667    6.8306 N   0  0  0  0  0  0  0  0  0  0  0  0
   10.9967   13.9488    5.5277 C   0  0  0  0  0  0  0  0  0  0  0  0
   11.3360   12.7058    5.0690 N   0  0  0  0  0  0  0  0  0  0  0  0
  1  7  2  0  0  0  0
  1  2  1  0  0  0  0
  2  3  1  0  0  0  0
  2  4  2  0  0  0  0
  4  5  1  0  0  0  0
  5  6  2  0  0  0  0
  5 11  1  0  0  0  0
  6  7  1  0  0  0  0
  6  9  1  0  0  0  0
  7  8  1  0  0  0  0
  9 10  1  0  0  0  0
 10 11  2  0  0  0  0
M  END
>  <CHROM.1>
11.61460310,11.86494934,7.23934598,0.39882488,-1.29585494,1.50242188

>  <Name>
ligand

>  <RI>
0

>  <Rbt.Current_Directory>
/home/itssahil/PROJECTS/Mol_Feturizer/New_Systems/rnas/4FEP

>  <Rbt.Executable>
rbdock ($Id: //depot/dev/client3/rdock/2013.1/src/exe/rbdock.cxx#4 $)

>  <Rbt.Library>
libRbt.so (2013.1, Build901 2013/11/27)

>  <Rbt.Parameter_File>
/export/apps/rDock/src/rDock_2013.1_src/data/scripts/dock_solv.prm

>  <Rbt.Receptor>
prm/pocket_docking_7.prm

>  <SCORE>
-9.4918

>  <SCORE.INTER>
-9.4918

>  <SCORE.INTER.CONST>
1

>  <SCORE.INTER.POLAR>
0

>  <SCORE.INTER.ROT>
0

>  <SCORE.INTER.SOLV>
20.3824

>  <SCORE.INTER.VDW>
-16.722

>  <SCORE.INTER.norm>
-0.862891

>  <SCORE.INTRA>
0

>  <SCORE.INTRA.DIHEDRAL>
0

>  <SCORE.INTRA.DIHEDRAL.0>
0

>  <SCORE.INTRA.POLAR>
0

>  <SCORE.INTRA.POLAR.0>
0

>  <SCORE.INTRA.REPUL>
0

>  <SCORE.INTRA.REPUL.0>
0

>  <SCORE.INTRA.SOLV>
0

>  <SCORE.INTRA.SOLV.lig_0>
-48.9558

>  <SCORE.INTRA.VDW>
0

>  <SCORE.INTRA.VDW.0>
0

>  <SCORE.INTRA.norm>
0

>  <SCORE.RESTR>
0

>  <SCORE.RESTR.CAVITY>
0

>  <SCORE.RESTR.norm>
0

>  <SCORE.SYSTEM>
0

>  <SCORE.SYSTEM.CONST>
0

>  <SCORE.SYSTEM.DIHEDRAL>
0

>  <SCORE.SYSTEM.SOLV>
0

>  <SCORE.SYSTEM.norm>
0

>  <SCORE.heavy>
11

>  <SCORE.norm>
-0.862891

>  <RMSD>
2.810

$$$$
ligand
 OpenBabel11021811493D
libRbt.so/2013.1/901 2013/11/27
 11 12  0  0  0  0  0  0  0  0999 V2000
   11.9228   10.8664    8.6641 N   0  0  0  0  0  0  0  0  0  0  0  0
   12.1123   10.1149    7.5676 C   0  0  0  0  0  0  0  0  0  0  0  0
   12.4902    8.7909    7.7149 N   0  0  0  0  0  0  0  0  0  0  0  0
   11.9435   10.6189    6.3342 N   0  0  0  0  0  0  0  0  0  0  0  0
   11.5742   11.9086    6.1556 C   0  0  0  0  0  0  0  0  0  0  0  0
   11.3624   12.7390    7.2851 C   0  0  0  0  0  0  0  0  0  0  0  0
   11.5544   12.1617    8.5756 C   0  0  0  0  0  0  0  0  0  0  0  0
   11.3667   12.9095    9.7225 N   0  0  0  0  0  0  0  0  0  0  0  0
   11.0088   13.9632    6.8217 N   0  0  0  0  0  0  0  0  0  0  0  0
   10.9885   13.9427    5.5189 C   0  0  0  0  0  0  0  0  0  0  0  0
   11.3290   12.6992    5.0623 N   0  0  0  0  0  0  0  0  0  0  0  0
  1  7  2  0  0  0  0
  1  2  1  0  0  0  0
  2  3  1  0  0  0  0
  2  4  2  0  0  0  0
  4  5  1  0  0  0  0
  5  6  2  0  0  0  0
  5 11  1  0  0  0  0
  6  7  1  0  0  0  0
  6  9  1  0  0  0  0
  7  8  1  0  0  0  0
  9 10  1  0  0  0  0
 10 11  2  0  0  0  0
M  END
>  <CHROM.1>
11.61079348,11.86308035,7.23406466,0.39545716,-1.29449973,1.49716172

>  <Name>
ligand

>  <RI>
0

>  <Rbt.Current_Directory>
/home/itssahil/PROJECTS/Mol_Feturizer/New_Systems/rnas/4FEP

>  <Rbt.Executable>
rbdock ($Id: //depot/dev/client3/rdock/2013.1/src/exe/rbdock.cxx#4 $)

>  <Rbt.Library>
libRbt.so (2013.1, Build901 2013/11/27)

>  <Rbt.Parameter_File>
/export/apps/rDock/src/rDock_2013.1_src/data/scripts/dock_solv.prm

>  <Rbt.Receptor>
prm/pocket_docking_7.prm

>  <SCORE>
-9.49031

>  <SCORE.INTER>
-9.49031

>  <SCORE.INTER.CONST>
1

>  <SCORE.INTER.POLAR>
0

>  <SCORE.INTER.ROT>
0

>  <SCORE.INTER.SOLV>
20.3606

>  <SCORE.INTER.VDW>
-16.7137

>  <SCORE.INTER.norm>
-0.862755

>  <SCORE.INTRA>
0

>  <SCORE.INTRA.DIHEDRAL>
0

>  <SCORE.INTRA.DIHEDRAL.0>
0

>  <SCORE.INTRA.POLAR>
0

>  <SCORE.INTRA.POLAR.0>
0

>  <SCORE.INTRA.REPUL>
0

>  <SCORE.INTRA.REPUL.0>
0

>  <SCORE.INTRA.SOLV>
0

>  <SCORE.INTRA.SOLV.lig_0>
-48.9558

>  <SCORE.INTRA.VDW>
0

>  <SCORE.INTRA.VDW.0>
0

>  <SCORE.INTRA.norm>
0

>  <SCORE.RESTR>
0

>  <SCORE.RESTR.CAVITY>
0

>  <SCORE.RESTR.norm>
0

>  <SCORE.SYSTEM>
0

>  <SCORE.SYSTEM.CONST>
0

>  <SCORE.SYSTEM.DIHEDRAL>
0

>  <SCORE.SYSTEM.SOLV>
0

>  <SCORE.SYSTEM.norm>
0

>  <SCORE.heavy>
11

>  <SCORE.norm>
-0.862755

>  <RMSD>
2.810

$$$$
ligand
 OpenBabel11021811493D
libRbt.so/2013.1/901 2013/11/27
 11 12  0  0  0  0  0  0  0  0999 V2000
   11.9136   10.8663    8.6665 N   0  0  0  0  0  0  0  0  0  0  0  0
   12.1127   10.1171    7.5701 C   0  0  0  0  0  0  0  0  0  0  0  0
   12.4921    8.7936    7.7180 N   0  0  0  0  0  0  0  0  0  0  0  0
   11.9522   10.6229    6.3364 N   0  0  0  0  0  0  0  0  0  0  0  0
   11.5817   11.9123    6.1572 C   0  0  0  0  0  0  0  0  0  0  0  0
   11.3598   12.7402    7.2866 C   0  0  0  0  0  0  0  0  0  0  0  0
   11.5433   12.1610    8.5775 C   0  0  0  0  0  0  0  0  0  0  0  0
   11.3456   12.9064    9.7242 N   0  0  0  0  0  0  0  0  0  0  0  0
   11.0073   13.9645    6.8227 N   0  0  0  0  0  0  0  0  0  0  0  0
   10.9967   13.9463    5.5197 C   0  0  0  0  0  0  0  0  0  0  0  0
   11.3431   12.7042    5.0635 N   0  0  0  0  0  0  0  0  0  0  0  0
  1  7  2  0  0  0  0
  1  2  1  0  0  0  0
  2  3  1  0  0  0  0
  2  4  2  0  0  0  0
  4  5  1  0  0  0  0
  5  6  2  0  0  0  0
  5 11  1  0  0  0  0
  6  7  1  0  0  0  0
  6  9  1  0  0  0  0
  7  8  1  0  0  0  0
  9 10  1  0  0  0  0
 10 11  2  0  0  0  0
M  END
>  <CHROM.1>
11.61029147,11.86486212,7.23587271,0.42320635,-1.29299427,1.52560460

>  <Name>
ligand

>  <RI>
0

>  <Rbt.Current_Directory>
/home/itssahil/PROJECTS/Mol_Feturizer/New_Systems/rnas/4FEP

>  <Rbt.Executable>
rbdock ($Id: //depot/dev/client3/rdock/2013.1/src/exe/rbdock.cxx#4 $)

>  <Rbt.Library>
libRbt.so (2013.1, Build901 2013/11/27)

>  <Rbt.Parameter_File>
/export/apps/rDock/src/rDock_2013.1_src/data/scripts/dock_solv.prm

>  <Rbt.Receptor>
prm/pocket_docking_8.prm

>  <SCORE>
-9.48881

>  <SCORE.INTER>
-9.48881

>  <SCORE.INTER.CONST>
1

>  <SCORE.INTER.POLAR>
0

>  <SCORE.INTER.ROT>
0

>  <SCORE.INTER.SOLV>
20.3751

>  <SCORE.INTER.VDW>
-16.7176

>  <SCORE.INTER.norm>
-0.862619

>  <SCORE.INTRA>
0

>  <SCORE.INTRA.DIHEDRAL>
0

>  <SCORE.INTRA.DIHEDRAL.0>
0

>  <SCORE.INTRA.POLAR>
0

>  <SCORE.INTRA.POLAR.0>
0

>  <SCORE.INTRA.REPUL>
0

>  <SCORE.INTRA.REPUL.0>
0

>  <SCORE.INTRA.SOLV>
0

>  <SCORE.INTRA.SOLV.lig_0>
-48.9558

>  <SCORE.INTRA.VDW>
0

>  <SCORE.INTRA.VDW.0>
0

>  <SCORE.INTRA.norm>
0

>  <SCORE.RESTR>
0

>  <SCORE.RESTR.CAVITY>
0

>  <SCORE.RESTR.norm>
0

>  <SCORE.SYSTEM>
0

>  <SCORE.SYSTEM.CONST>
0

>  <SCORE.SYSTEM.DIHEDRAL>
0

>  <SCORE.SYSTEM.SOLV>
0

>  <SCORE.SYSTEM.norm>
0

>  <SCORE.heavy>
11

>  <SCORE.norm>
-0.862619

>  <RMSD>
2.810

$$$$
ligand
 OpenBabel11021811493D
libRbt.so/2013.1/901 2013/11/27
 11 12  0  0  0  0  0  0  0  0999 V2000
   11.9145   10.8677    8.6654 N   0  0  0  0  0  0  0  0  0  0  0  0
   12.1108   10.1173    7.5694 C   0  0  0  0  0  0  0  0  0  0  0  0
   12.4887    8.7934    7.7177 N   0  0  0  0  0  0  0  0  0  0  0  0
   11.9489   10.6222    6.3354 N   0  0  0  0  0  0  0  0  0  0  0  0
   11.5799   11.9119    6.1557 C   0  0  0  0  0  0  0  0  0  0  0  0
   11.3610   12.7411    7.2847 C   0  0  0  0  0  0  0  0  0  0  0  0
   11.5459   12.1629    8.5758 C   0  0  0  0  0  0  0  0  0  0  0  0
   11.3511   12.9096    9.7222 N   0  0  0  0  0  0  0  0  0  0  0  0
   11.0094   13.9655    6.8203 N   0  0  0  0  0  0  0  0  0  0  0  0
   10.9967   13.9462    5.5174 C   0  0  0  0  0  0  0  0  0  0  0  0
   11.3406   12.7032    5.0618 N   0  0  0  0  0  0  0  0  0  0  0  0
  1  7  2  0  0  0  0
  1  2  1  0  0  0  0
  2  3  1  0  0  0  0
  2  4  2  0  0  0  0
  4  5  1  0  0  0  0
  5  6  2  0  0  0  0
  5 11  1  0  0  0  0
  6  7  1  0  0  0  0
  6  9  1  0  0  0  0
  7  8  1  0  0  0  0
  9 10  1  0  0  0  0
 10 11  2  0  0  0  0
M  END
>  <CHROM.1>
11.61024251,11.86543235,7.23437862,0.41693224,-1.29428247,1.51868376

>  <Name>
ligand

>  <RI>
0

>  <Rbt.Current_Directory>
/home/itssahil/PROJECTS/Mol_Feturizer/New_Systems/rnas/4FEP

>  <Rbt.Executable>
rbdock ($Id: //depot/dev/client3/rdock/2013.1/src/exe/rbdock.cxx#4 $)

>  <Rbt.Library>
libRbt.so (2013.1, Build901 2013/11/27)

>  <Rbt.Parameter_File>
/export/apps/rDock/src/rDock_2013.1_src/data/scripts/dock_solv.prm

>  <Rbt.Receptor>
prm/pocket_docking_8.prm

>  <SCORE>
-9.48735

>  <SCORE.INTER>
-9.48735

>  <SCORE.INTER.CONST>
1

>  <SCORE.INTER.POLAR>
0

>  <SCORE.INTER.ROT>
0

>  <SCORE.INTER.SOLV>
20.3842

>  <SCORE.INTER.VDW>
-16.7196

>  <SCORE.INTER.norm>
-0.862486

>  <SCORE.INTRA>
0

>  <SCORE.INTRA.DIHEDRAL>
0

>  <SCORE.INTRA.DIHEDRAL.0>
0

>  <SCORE.INTRA.POLAR>
0

>  <SCORE.INTRA.POLAR.0>
0

>  <SCORE.INTRA.REPUL>
0

>  <SCORE.INTRA.REPUL.0>
0

>  <SCORE.INTRA.SOLV>
0

>  <SCORE.INTRA.SOLV.lig_0>
-48.9558

>  <SCORE.INTRA.VDW>
0

>  <SCORE.INTRA.VDW.0>
0

>  <SCORE.INTRA.norm>
0

>  <SCORE.RESTR>
0

>  <SCORE.RESTR.CAVITY>
0

>  <SCORE.RESTR.norm>
0

>  <SCORE.SYSTEM>
0

>  <SCORE.SYSTEM.CONST>
0

>  <SCORE.SYSTEM.DIHEDRAL>
0

>  <SCORE.SYSTEM.SOLV>
0

>  <SCORE.SYSTEM.norm>
0

>  <SCORE.heavy>
11

>  <SCORE.norm>
-0.862486

>  <RMSD>
2.810

$$$$
ligand
 OpenBabel11021811493D
libRbt.so/2013.1/901 2013/11/27
 11 12  0  0  0  0  0  0  0  0999 V2000
   11.9288   10.8626    8.6553 N   0  0  0  0  0  0  0  0  0  0  0  0
   12.1559   10.1204    7.5596 C   0  0  0  0  0  0  0  0  0  0  0  0
   12.5624    8.8051    7.7089 N   0  0  0  0  0  0  0  0  0  0  0  0
   11.9976   10.6254    6.3253 N   0  0  0  0  0  0  0  0  0  0  0  0
   11.6011   11.9068    6.1447 C   0  0  0  0  0  0  0  0  0  0  0  0
   11.3492   12.7271    7.2734 C   0  0  0  0  0  0  0  0  0  0  0  0
   11.5314   12.1492    8.5649 C   0  0  0  0  0  0  0  0  0  0  0  0
   11.3052   12.8875    9.7110 N   0  0  0  0  0  0  0  0  0  0  0  0
   10.9751   13.9446    6.8081 N   0  0  0  0  0  0  0  0  0  0  0  0
   10.9789   13.9291    5.5051 C   0  0  0  0  0  0  0  0  0  0  0  0
   11.3571   12.6959    5.0502 N   0  0  0  0  0  0  0  0  0  0  0  0
  1  7  2  0  0  0  0
  1  2  1  0  0  0  0
  2  3  1  0  0  0  0
  2  4  2  0  0  0  0
  4  5  1  0  0  0  0
  5  6  2  0  0  0  0
  5 11  1  0  0  0  0
  6  7  1  0  0  0  0
  6  9  1  0  0  0  0
  7  8  1  0  0  0  0
  9 10  1  0  0  0  0
 10 11  2  0  0  0  0
M  END
>  <CHROM.1>
11.61915983,11.85758472,7.22354391,0.46285781,-1.27151890,1.56576904

>  <Name>
ligand

>  <RI>
0

>  <Rbt.Current_Directory>
/home/itssahil/PROJECTS/Mol_Feturizer/New_Systems/rnas/4FEP

>  <Rbt.Executable>
rbdock ($Id: //depot/dev/client3/rdock/2013.1/src/exe/rbdock.cxx#4 $)

>  <Rbt.Library>
libRbt.so (2013.1, Build901 2013/11/27)

>  <Rbt.Parameter_File>
/export/apps/rDock/src/rDock_2013.1_src/data/scripts/dock_solv.prm

>  <Rbt.Receptor>
prm/blind_docking_100.prm

>  <SCORE>
-9.47796

>  <SCORE.INTER>
-9.47796

>  <SCORE.INTER.CONST>
1

>  <SCORE.INTER.POLAR>
0

>  <SCORE.INTER.ROT>
0

>  <SCORE.INTER.SOLV>
20.0658

>  <SCORE.INTER.VDW>
-16.6072

>  <SCORE.INTER.norm>
-0.861632

>  <SCORE.INTRA>
0

>  <SCORE.INTRA.DIHEDRAL>
0

>  <SCORE.INTRA.DIHEDRAL.0>
0

>  <SCORE.INTRA.POLAR>
0

>  <SCORE.INTRA.POLAR.0>
0

>  <SCORE.INTRA.REPUL>
0

>  <SCORE.INTRA.REPUL.0>
0

>  <SCORE.INTRA.SOLV>
0

>  <SCORE.INTRA.SOLV.lig_0>
-48.9558

>  <SCORE.INTRA.VDW>
0

>  <SCORE.INTRA.VDW.0>
0

>  <SCORE.INTRA.norm>
0

>  <SCORE.RESTR>
0

>  <SCORE.RESTR.CAVITY>
0

>  <SCORE.RESTR.norm>
0

>  <SCORE.SYSTEM>
0

>  <SCORE.SYSTEM.CONST>
0

>  <SCORE.SYSTEM.DIHEDRAL>
0

>  <SCORE.SYSTEM.SOLV>
0

>  <SCORE.SYSTEM.norm>
0

>  <SCORE.heavy>
11

>  <SCORE.norm>
-0.861632

>  <RMSD>
2.811

$$$$
ligand
 OpenBabel11021811493D
libRbt.so/2013.1/901 2013/11/27
 11 12  0  0  0  0  0  0  0  0999 V2000
   11.9168   10.8625    8.6597 N   0  0  0  0  0  0  0  0  0  0  0  0
   12.1067   10.1136    7.5615 C   0  0  0  0  0  0  0  0  0  0  0  0
   12.4817    8.7884    7.7059 N   0  0  0  0  0  0  0  0  0  0  0  0
   11.9412   10.6213    6.3292 N   0  0  0  0  0  0  0  0  0  0  0  0
   11.5749   11.9123    6.1534 C   0  0  0  0  0  0  0  0  0  0  0  0
   11.3628   12.7400    7.2848 C   0  0  0  0  0  0  0  0  0  0  0  0
   11.5512   12.1588    8.5741 C   0  0  0  0  0  0  0  0  0  0  0  0
   11.3630   12.9038    9.7226 N   0  0  0  0  0  0  0  0  0  0  0  0
   11.0125   13.9662    6.8241 N   0  0  0  0  0  0  0  0  0  0  0  0
   10.9945   13.9493    5.5212 C   0  0  0  0  0  0  0  0  0  0  0  0
   11.3333   12.7063    5.0619 N   0  0  0  0  0  0  0  0  0  0  0  0
  1  7  2  0  0  0  0
  1  2  1  0  0  0  0
  2  3  1  0  0  0  0
  2  4  2  0  0  0  0
  4  5  1  0  0  0  0
  5  6  2  0  0  0  0
  5 11  1  0  0  0  0
  6  7  1  0  0  0  0
  6  9  1  0  0  0  0
  7  8  1  0  0  0  0
  9 10  1  0  0  0  0
 10 11  2  0  0  0  0
M  END
>  <CHROM.1>
11.60944101,11.86370111,7.23183825,0.40166806,-1.29668460,1.50587521

>  <Name>
ligand

>  <RI>
0

>  <Rbt.Current_Directory>
/home/itssahil/PROJECTS/Mol_Feturizer/New_Systems/rnas/4FEP

>  <Rbt.Executable>
rbdock ($Id: //depot/dev/client3/rdock/2013.1/src/exe/rbdock.cxx#4 $)

>  <Rbt.Library>
libRbt.so (2013.1, Build901 2013/11/27)

>  <Rbt.Parameter_File>
/export/apps/rDock/src/rDock_2013.1_src/data/scripts/dock_solv.prm

>  <Rbt.Receptor>
prm/pocket_docking_5.prm

>  <SCORE>
-9.48812

>  <SCORE.INTER>
-9.48812

>  <SCORE.INTER.CONST>
1

>  <SCORE.INTER.POLAR>
0

>  <SCORE.INTER.ROT>
0

>  <SCORE.INTER.SOLV>
20.3859

>  <SCORE.INTER.VDW>
-16.7207

>  <SCORE.INTER.norm>
-0.862556

>  <SCORE.INTRA>
0

>  <SCORE.INTRA.DIHEDRAL>
0

>  <SCORE.INTRA.DIHEDRAL.0>
0

>  <SCORE.INTRA.POLAR>
0

>  <SCORE.INTRA.POLAR.0>
0

>  <SCORE.INTRA.REPUL>
0

>  <SCORE.INTRA.REPUL.0>
0

>  <SCORE.INTRA.SOLV>
0

>  <SCORE.INTRA.SOLV.lig_0>
-48.9558

>  <SCORE.INTRA.VDW>
0

>  <SCORE.INTRA.VDW.0>
0

>  <SCORE.INTRA.norm>
0

>  <SCORE.RESTR>
0

>  <SCORE.RESTR.CAVITY>
0

>  <SCORE.RESTR.norm>
0

>  <SCORE.SYSTEM>
0

>  <SCORE.SYSTEM.CONST>
0

>  <SCORE.SYSTEM.DIHEDRAL>
0

>  <SCORE.SYSTEM.SOLV>
0

>  <SCORE.SYSTEM.norm>
0

>  <SCORE.heavy>
11

>  <SCORE.norm>
-0.862556

>  <RMSD>
2.811

$$$$
ligand
 OpenBabel11021811493D
libRbt.so/2013.1/901 2013/11/27
 11 12  0  0  0  0  0  0  0  0999 V2000
   11.7845   10.8978    8.5891 N   0  0  0  0  0  0  0  0  0  0  0  0
   12.0366   10.1029    7.5368 C   0  0  0  0  0  0  0  0  0  0  0  0
   12.4171    8.7902    7.7596 N   0  0  0  0  0  0  0  0  0  0  0  0
   11.9278   10.5527    6.2760 N   0  0  0  0  0  0  0  0  0  0  0  0
   11.5577   11.8299    6.0239 C   0  0  0  0  0  0  0  0  0  0  0  0
   11.2810   12.7048    7.1047 C   0  0  0  0  0  0  0  0  0  0  0  0
   11.4106   12.1844    8.4267 C   0  0  0  0  0  0  0  0  0  0  0  0
   11.1578   12.9779    9.5296 N   0  0  0  0  0  0  0  0  0  0  0  0
   10.9420   13.9047    6.5720 N   0  0  0  0  0  0  0  0  0  0  0  0
   10.9892   13.8292    5.2719 C   0  0  0  0  0  0  0  0  0  0  0  0
   11.3630   12.5712    4.8868 N   0  0  0  0  0  0  0  0  0  0  0  0
  1  7  2  0  0  0  0
  1  2  1  0  0  0  0
  2  3  1  0  0  0  0
  2  4  2  0  0  0  0
  4  5  1  0  0  0  0
  5  6  2  0  0  0  0
  5 11  1  0  0  0  0
  6  7  1  0  0  0  0
  6  9  1  0  0  0  0
  7  8  1  0  0  0  0
  9 10  1  0  0  0  0
 10 11  2  0  0  0  0
M  END
>  <CHROM.1>
11.53882941,11.83017503,7.10379603,0.58210840,-1.28549905,1.63417071

>  <Name>
ligand

>  <RI>
0

>  <Rbt.Current_Directory>
/home/itssahil/PROJECTS/Mol_Feturizer/New_Systems/rnas/4FEP

>  <Rbt.Executable>
rbdock ($Id: //depot/dev/client3/rdock/2013.1/src/exe/rbdock.cxx#4 $)

>  <Rbt.Library>
libRbt.so (2013.1, Build901 2013/11/27)

>  <Rbt.Parameter_File>
/export/apps/rDock/src/rDock_2013.1_src/data/scripts/dock_solv.prm

>  <Rbt.Receptor>
prm/blind_docking_20.prm

>  <SCORE>
-8.41982

>  <SCORE.INTER>
-9.04228

>  <SCORE.INTER.CONST>
1

>  <SCORE.INTER.POLAR>
0

>  <SCORE.INTER.ROT>
0

>  <SCORE.INTER.SOLV>
20.3758

>  <SCORE.INTER.VDW>
-16.4201

>  <SCORE.INTER.norm>
-0.822025

>  <SCORE.INTRA>
0

>  <SCORE.INTRA.DIHEDRAL>
0

>  <SCORE.INTRA.DIHEDRAL.0>
0

>  <SCORE.INTRA.POLAR>
0

>  <SCORE.INTRA.POLAR.0>
0

>  <SCORE.INTRA.REPUL>
0

>  <SCORE.INTRA.REPUL.0>
0

>  <SCORE.INTRA.SOLV>
0

>  <SCORE.INTRA.SOLV.lig_0>
-48.9558

>  <SCORE.INTRA.VDW>
0

>  <SCORE.INTRA.VDW.0>
0

>  <SCORE.INTRA.norm>
0

>  <SCORE.RESTR>
0.622461

>  <SCORE.RESTR.CAVITY>
0.622461

>  <SCORE.RESTR.norm>
0.0565874

>  <SCORE.SYSTEM>
0

>  <SCORE.SYSTEM.CONST>
0

>  <SCORE.SYSTEM.DIHEDRAL>
0

>  <SCORE.SYSTEM.SOLV>
0

>  <SCORE.SYSTEM.norm>
0

>  <SCORE.heavy>
11

>  <SCORE.norm>
-0.765438

>  <RMSD>
2.812

$$$$
ligand
 OpenBabel11021811493D
libRbt.so/2013.1/901 2013/11/27
 11 12  0  0  0  0  0  0  0  0999 V2000
   11.8237   10.8684    8.5914 N   0  0  0  0  0  0  0  0  0  0  0  0
   12.0610   10.0538    7.5507 C   0  0  0  0  0  0  0  0  0  0  0  0
   12.4487    8.7466    7.7927 N   0  0  0  0  0  0  0  0  0  0  0  0
   11.9307   10.4788    6.2834 N   0  0  0  0  0  0  0  0  0  0  0  0
   11.5531   11.7499    6.0125 C   0  0  0  0  0  0  0  0  0  0  0  0
   11.2914   12.6450    7.0805 C   0  0  0  0  0  0  0  0  0  0  0  0
   11.4437   12.1506    8.4101 C   0  0  0  0  0  0  0  0  0  0  0  0
   11.2065   12.9647    9.5013 N   0  0  0  0  0  0  0  0  0  0  0  0
   10.9406   13.8335    6.5302 N   0  0  0  0  0  0  0  0  0  0  0  0
   10.9671   13.7329    5.2313 C   0  0  0  0  0  0  0  0  0  0  0  0
   11.3381   12.4685    4.8646 N   0  0  0  0  0  0  0  0  0  0  0  0
  1  7  2  0  0  0  0
  1  2  1  0  0  0  0
  2  3  1  0  0  0  0
  2  4  2  0  0  0  0
  4  5  1  0  0  0  0
  5  6  2  0  0  0  0
  5 11  1  0  0  0  0
  6  7  1  0  0  0  0
  6  9  1  0  0  0  0
  7  8  1  0  0  0  0
  9 10  1  0  0  0  0
 10 11  2  0  0  0  0
M  END
>  <CHROM.1>
11.55161022,11.77111791,7.09240856,0.52485477,-1.28332718,1.55985213

>  <Name>
ligand

>  <RI>
0

>  <Rbt.Current_Directory>
/home/itssahil/PROJECTS/Mol_Feturizer/New_Systems/rnas/4FEP

>  <Rbt.Executable>
rbdock ($Id: //depot/dev/client3/rdock/2013.1/src/exe/rbdock.cxx#4 $)

>  <Rbt.Library>
libRbt.so (2013.1, Build901 2013/11/27)

>  <Rbt.Parameter_File>
/export/apps/rDock/src/rDock_2013.1_src/data/scripts/dock_solv.prm

>  <Rbt.Receptor>
prm/blind_docking_20.prm

>  <SCORE>
-8.41098

>  <SCORE.INTER>
-9.00458

>  <SCORE.INTER.CONST>
1

>  <SCORE.INTER.POLAR>
0

>  <SCORE.INTER.ROT>
0

>  <SCORE.INTER.SOLV>
20.1415

>  <SCORE.INTER.VDW>
-16.3169

>  <SCORE.INTER.norm>
-0.818599

>  <SCORE.INTRA>
0

>  <SCORE.INTRA.DIHEDRAL>
0

>  <SCORE.INTRA.DIHEDRAL.0>
0

>  <SCORE.INTRA.POLAR>
0

>  <SCORE.INTRA.POLAR.0>
0

>  <SCORE.INTRA.REPUL>
0

>  <SCORE.INTRA.REPUL.0>
0

>  <SCORE.INTRA.SOLV>
0

>  <SCORE.INTRA.SOLV.lig_0>
-48.9558

>  <SCORE.INTRA.VDW>
0

>  <SCORE.INTRA.VDW.0>
0

>  <SCORE.INTRA.norm>
0

>  <SCORE.RESTR>
0.593601

>  <SCORE.RESTR.CAVITY>
0.593601

>  <SCORE.RESTR.norm>
0.0539637

>  <SCORE.SYSTEM>
0

>  <SCORE.SYSTEM.CONST>
0

>  <SCORE.SYSTEM.DIHEDRAL>
0

>  <SCORE.SYSTEM.SOLV>
0

>  <SCORE.SYSTEM.norm>
0

>  <SCORE.heavy>
11

>  <SCORE.norm>
-0.764635

>  <RMSD>
2.812

$$$$
ligand
 OpenBabel11021811493D
libRbt.so/2013.1/901 2013/11/27
 11 12  0  0  0  0  0  0  0  0999 V2000
   11.8109   10.8714    8.5875 N   0  0  0  0  0  0  0  0  0  0  0  0
   12.0336   10.0644    7.5377 C   0  0  0  0  0  0  0  0  0  0  0  0
   12.4207    8.7544    7.7648 N   0  0  0  0  0  0  0  0  0  0  0  0
   11.8893   10.4997    6.2754 N   0  0  0  0  0  0  0  0  0  0  0  0
   11.5118   11.7739    6.0190 C   0  0  0  0  0  0  0  0  0  0  0  0
   11.2652   12.6612    7.0971 C   0  0  0  0  0  0  0  0  0  0  0  0
   11.4321   12.1560    8.4208 C   0  0  0  0  0  0  0  0  0  0  0  0
   11.2100   12.9621    9.5211 N   0  0  0  0  0  0  0  0  0  0  0  0
   10.9109   13.8549    6.5603 N   0  0  0  0  0  0  0  0  0  0  0  0
   10.9217   13.7644    5.2604 C   0  0  0  0  0  0  0  0  0  0  0  0
   11.2850   12.5020    4.8794 N   0  0  0  0  0  0  0  0  0  0  0  0
  1  7  2  0  0  0  0
  1  2  1  0  0  0  0
  2  3  1  0  0  0  0
  2  4  2  0  0  0  0
  4  5  1  0  0  0  0
  5  6  2  0  0  0  0
  5 11  1  0  0  0  0
  6  7  1  0  0  0  0
  6  9  1  0  0  0  0
  7  8  1  0  0  0  0
  9 10  1  0  0  0  0
 10 11  2  0  0  0  0
M  END
>  <CHROM.1>
11.52323572,11.78657924,7.09897871,0.48231909,-1.28555533,1.52690394

>  <Name>
ligand

>  <RI>
0

>  <Rbt.Current_Directory>
/home/itssahil/PROJECTS/Mol_Feturizer/New_Systems/rnas/4FEP

>  <Rbt.Executable>
rbdock ($Id: //depot/dev/client3/rdock/2013.1/src/exe/rbdock.cxx#4 $)

>  <Rbt.Library>
libRbt.so (2013.1, Build901 2013/11/27)

>  <Rbt.Parameter_File>
/export/apps/rDock/src/rDock_2013.1_src/data/scripts/dock_solv.prm

>  <Rbt.Receptor>
prm/blind_docking_20.prm

>  <SCORE>
-8.48712

>  <SCORE.INTER>
-9.09616

>  <SCORE.INTER.CONST>
1

>  <SCORE.INTER.POLAR>
0

>  <SCORE.INTER.ROT>
0

>  <SCORE.INTER.SOLV>
20.2594

>  <SCORE.INTER.VDW>
-16.4172

>  <SCORE.INTER.norm>
-0.826923

>  <SCORE.INTRA>
0

>  <SCORE.INTRA.DIHEDRAL>
0

>  <SCORE.INTRA.DIHEDRAL.0>
0

>  <SCORE.INTRA.POLAR>
0

>  <SCORE.INTRA.POLAR.0>
0

>  <SCORE.INTRA.REPUL>
0

>  <SCORE.INTRA.REPUL.0>
0

>  <SCORE.INTRA.SOLV>
0

>  <SCORE.INTRA.SOLV.lig_0>
-48.9558

>  <SCORE.INTRA.VDW>
0

>  <SCORE.INTRA.VDW.0>
0

>  <SCORE.INTRA.norm>
0

>  <SCORE.RESTR>
0.609043

>  <SCORE.RESTR.CAVITY>
0.609043

>  <SCORE.RESTR.norm>
0.0553675

>  <SCORE.SYSTEM>
0

>  <SCORE.SYSTEM.CONST>
0

>  <SCORE.SYSTEM.DIHEDRAL>
0

>  <SCORE.SYSTEM.SOLV>
0

>  <SCORE.SYSTEM.norm>
0

>  <SCORE.heavy>
11

>  <SCORE.norm>
-0.771556

>  <RMSD>
2.812

$$$$
ligand
 OpenBabel11021811493D
libRbt.so/2013.1/901 2013/11/27
 11 12  0  0  0  0  0  0  0  0999 V2000
   11.8096   10.8690    8.5902 N   0  0  0  0  0  0  0  0  0  0  0  0
   12.0589   10.0573    7.5500 C   0  0  0  0  0  0  0  0  0  0  0  0
   12.4486    8.7509    7.7928 N   0  0  0  0  0  0  0  0  0  0  0  0
   11.9385   10.4845    6.2824 N   0  0  0  0  0  0  0  0  0  0  0  0
   11.5592   11.7551    6.0108 C   0  0  0  0  0  0  0  0  0  0  0  0
   11.2851   12.6470    7.0783 C   0  0  0  0  0  0  0  0  0  0  0  0
   11.4271   12.1504    8.4082 C   0  0  0  0  0  0  0  0  0  0  0  0
   11.1775   12.9615    9.4988 N   0  0  0  0  0  0  0  0  0  0  0  0
   10.9353   13.8355    6.5273 N   0  0  0  0  0  0  0  0  0  0  0  0
   10.9738   13.7377    5.2284 C   0  0  0  0  0  0  0  0  0  0  0  0
   11.3522   12.4753    4.8625 N   0  0  0  0  0  0  0  0  0  0  0  0
  1  7  2  0  0  0  0
  1  2  1  0  0  0  0
  2  3  1  0  0  0  0
  2  4  2  0  0  0  0
  4  5  1  0  0  0  0
  5  6  2  0  0  0  0
  5 11  1  0  0  0  0
  6  7  1  0  0  0  0
  6  9  1  0  0  0  0
  7  8  1  0  0  0  0
  9 10  1  0  0  0  0
 10 11  2  0  0  0  0
M  END
>  <CHROM.1>
11.54799506,11.77398833,7.09069186,0.55613386,-1.28003657,1.59188454

>  <Name>
ligand

>  <RI>
0

>  <Rbt.Current_Directory>
/home/itssahil/PROJECTS/Mol_Feturizer/New_Systems/rnas/4FEP

>  <Rbt.Executable>
rbdock ($Id: //depot/dev/client3/rdock/2013.1/src/exe/rbdock.cxx#4 $)

>  <Rbt.Library>
libRbt.so (2013.1, Build901 2013/11/27)

>  <Rbt.Parameter_File>
/export/apps/rDock/src/rDock_2013.1_src/data/scripts/dock_solv.prm

>  <Rbt.Receptor>
prm/blind_docking_20.prm

>  <SCORE>
-8.43326

>  <SCORE.INTER>
-9.02389

>  <SCORE.INTER.CONST>
1

>  <SCORE.INTER.POLAR>
0

>  <SCORE.INTER.ROT>
0

>  <SCORE.INTER.SOLV>
20.1506

>  <SCORE.INTER.VDW>
-16.3328

>  <SCORE.INTER.norm>
-0.820354

>  <SCORE.INTRA>
0

>  <SCORE.INTRA.DIHEDRAL>
0

>  <SCORE.INTRA.DIHEDRAL.0>
0

>  <SCORE.INTRA.POLAR>
0

>  <SCORE.INTRA.POLAR.0>
0

>  <SCORE.INTRA.REPUL>
0

>  <SCORE.INTRA.REPUL.0>
0

>  <SCORE.INTRA.SOLV>
0

>  <SCORE.INTRA.SOLV.lig_0>
-48.9558

>  <SCORE.INTRA.VDW>
0

>  <SCORE.INTRA.VDW.0>
0

>  <SCORE.INTRA.norm>
0

>  <SCORE.RESTR>
0.590633

>  <SCORE.RESTR.CAVITY>
0.590633

>  <SCORE.RESTR.norm>
0.0536939

>  <SCORE.SYSTEM>
0

>  <SCORE.SYSTEM.CONST>
0

>  <SCORE.SYSTEM.DIHEDRAL>
0

>  <SCORE.SYSTEM.SOLV>
0

>  <SCORE.SYSTEM.norm>
0

>  <SCORE.heavy>
11

>  <SCORE.norm>
-0.76666

>  <RMSD>
2.812

$$$$
ligand
 OpenBabel11021811493D
libRbt.so/2013.1/901 2013/11/27
 11 12  0  0  0  0  0  0  0  0999 V2000
   11.8996   10.8439    8.6789 N   0  0  0  0  0  0  0  0  0  0  0  0
   12.1137   10.1021    7.5804 C   0  0  0  0  0  0  0  0  0  0  0  0
   12.4973    8.7794    7.7245 N   0  0  0  0  0  0  0  0  0  0  0  0
   11.9641   10.6145    6.3480 N   0  0  0  0  0  0  0  0  0  0  0  0
   11.5898   11.9032    6.1724 C   0  0  0  0  0  0  0  0  0  0  0  0
   11.3523   12.7235    7.3042 C   0  0  0  0  0  0  0  0  0  0  0  0
   11.5246   12.1375    8.5935 C   0  0  0  0  0  0  0  0  0  0  0  0
   11.3114   12.8753    9.7424 N   0  0  0  0  0  0  0  0  0  0  0  0
   10.9994   13.9490    6.8437 N   0  0  0  0  0  0  0  0  0  0  0  0
   11.0028   13.9384    5.5406 C   0  0  0  0  0  0  0  0  0  0  0  0
   11.3594   12.7006    5.0809 N   0  0  0  0  0  0  0  0  0  0  0  0
  1  7  2  0  0  0  0
  1  2  1  0  0  0  0
  2  3  1  0  0  0  0
  2  4  2  0  0  0  0
  4  5  1  0  0  0  0
  5  6  2  0  0  0  0
  5 11  1  0  0  0  0
  6  7  1  0  0  0  0
  6  9  1  0  0  0  0
  7  8  1  0  0  0  0
  9 10  1  0  0  0  0
 10 11  2  0  0  0  0
M  END
>  <CHROM.1>
11.60715948,11.84960750,7.25101206,0.46220885,-1.28888538,1.56897493

>  <Name>
ligand

>  <RI>
0

>  <Rbt.Current_Directory>
/home/itssahil/PROJECTS/Mol_Feturizer/New_Systems/rnas/4FEP

>  <Rbt.Executable>
rbdock ($Id: //depot/dev/client3/rdock/2013.1/src/exe/rbdock.cxx#4 $)

>  <Rbt.Library>
libRbt.so (2013.1, Build901 2013/11/27)

>  <Rbt.Parameter_File>
/export/apps/rDock/src/rDock_2013.1_src/data/scripts/dock_solv.prm

>  <Rbt.Receptor>
prm/blind_docking_60.prm

>  <SCORE>
-9.48466

>  <SCORE.INTER>
-9.48466

>  <SCORE.INTER.CONST>
1

>  <SCORE.INTER.POLAR>
0

>  <SCORE.INTER.ROT>
0

>  <SCORE.INTER.SOLV>
20.3879

>  <SCORE.INTER.VDW>
-16.7191

>  <SCORE.INTER.norm>
-0.862241

>  <SCORE.INTRA>
0

>  <SCORE.INTRA.DIHEDRAL>
0

>  <SCORE.INTRA.DIHEDRAL.0>
0

>  <SCORE.INTRA.POLAR>
0

>  <SCORE.INTRA.POLAR.0>
0

>  <SCORE.INTRA.REPUL>
0

>  <SCORE.INTRA.REPUL.0>
0

>  <SCORE.INTRA.SOLV>
0

>  <SCORE.INTRA.SOLV.lig_0>
-48.9558

>  <SCORE.INTRA.VDW>
0

>  <SCORE.INTRA.VDW.0>
0

>  <SCORE.INTRA.norm>
0

>  <SCORE.RESTR>
0

>  <SCORE.RESTR.CAVITY>
0

>  <SCORE.RESTR.norm>
0

>  <SCORE.SYSTEM>
0

>  <SCORE.SYSTEM.CONST>
0

>  <SCORE.SYSTEM.DIHEDRAL>
0

>  <SCORE.SYSTEM.SOLV>
0

>  <SCORE.SYSTEM.norm>
0

>  <SCORE.heavy>
11

>  <SCORE.norm>
-0.862241

>  <RMSD>
2.812

$$$$
ligand
 OpenBabel11021811493D
libRbt.so/2013.1/901 2013/11/27
 11 12  0  0  0  0  0  0  0  0999 V2000
   11.9033   10.8410    8.6790 N   0  0  0  0  0  0  0  0  0  0  0  0
   12.1110   10.0983    7.5798 C   0  0  0  0  0  0  0  0  0  0  0  0
   12.4943    8.7754    7.7227 N   0  0  0  0  0  0  0  0  0  0  0  0
   11.9553   10.6100    6.3478 N   0  0  0  0  0  0  0  0  0  0  0  0
   11.5812   11.8990    6.1734 C   0  0  0  0  0  0  0  0  0  0  0  0
   11.3504   12.7202    7.3059 C   0  0  0  0  0  0  0  0  0  0  0  0
   11.5289   12.1349    8.5947 C   0  0  0  0  0  0  0  0  0  0  0  0
   11.3224   12.8736    9.7443 N   0  0  0  0  0  0  0  0  0  0  0  0
   10.9960   13.9457    6.8465 N   0  0  0  0  0  0  0  0  0  0  0  0
   10.9925   13.9343    5.5435 C   0  0  0  0  0  0  0  0  0  0  0  0
   11.3457   12.6959    5.0827 N   0  0  0  0  0  0  0  0  0  0  0  0
  1  7  2  0  0  0  0
  1  2  1  0  0  0  0
  2  3  1  0  0  0  0
  2  4  2  0  0  0  0
  4  5  1  0  0  0  0
  5  6  2  0  0  0  0
  5 11  1  0  0  0  0
  6  7  1  0  0  0  0
  6  9  1  0  0  0  0
  7  8  1  0  0  0  0
  9 10  1  0  0  0  0
 10 11  2  0  0  0  0
M  END
>  <CHROM.1>
11.60419574,11.84605102,7.25197498,0.44312801,-1.28966079,1.55000188

>  <Name>
ligand

>  <RI>
0

>  <Rbt.Current_Directory>
/home/itssahil/PROJECTS/Mol_Feturizer/New_Systems/rnas/4FEP

>  <Rbt.Executable>
rbdock ($Id: //depot/dev/client3/rdock/2013.1/src/exe/rbdock.cxx#4 $)

>  <Rbt.Library>
libRbt.so (2013.1, Build901 2013/11/27)

>  <Rbt.Parameter_File>
/export/apps/rDock/src/rDock_2013.1_src/data/scripts/dock_solv.prm

>  <Rbt.Receptor>
prm/pocket_docking_5.prm

>  <SCORE>
-9.48555

>  <SCORE.INTER>
-9.48555

>  <SCORE.INTER.CONST>
1

>  <SCORE.INTER.POLAR>
0

>  <SCORE.INTER.ROT>
0

>  <SCORE.INTER.SOLV>
20.3862

>  <SCORE.INTER.VDW>
-16.7191

>  <SCORE.INTER.norm>
-0.862323

>  <SCORE.INTRA>
0

>  <SCORE.INTRA.DIHEDRAL>
0

>  <SCORE.INTRA.DIHEDRAL.0>
0

>  <SCORE.INTRA.POLAR>
0

>  <SCORE.INTRA.POLAR.0>
0

>  <SCORE.INTRA.REPUL>
0

>  <SCORE.INTRA.REPUL.0>
0

>  <SCORE.INTRA.SOLV>
0

>  <SCORE.INTRA.SOLV.lig_0>
-48.9558

>  <SCORE.INTRA.VDW>
0

>  <SCORE.INTRA.VDW.0>
0

>  <SCORE.INTRA.norm>
0

>  <SCORE.RESTR>
0

>  <SCORE.RESTR.CAVITY>
0

>  <SCORE.RESTR.norm>
0

>  <SCORE.SYSTEM>
0

>  <SCORE.SYSTEM.CONST>
0

>  <SCORE.SYSTEM.DIHEDRAL>
0

>  <SCORE.SYSTEM.SOLV>
0

>  <SCORE.SYSTEM.norm>
0

>  <SCORE.heavy>
11

>  <SCORE.norm>
-0.862323

>  <RMSD>
2.812

$$$$
ligand
 OpenBabel11021811493D
libRbt.so/2013.1/901 2013/11/27
 11 12  0  0  0  0  0  0  0  0999 V2000
   11.9009   10.8373    8.6709 N   0  0  0  0  0  0  0  0  0  0  0  0
   12.1034   10.0952    7.5704 C   0  0  0  0  0  0  0  0  0  0  0  0
   12.4845    8.7713    7.7110 N   0  0  0  0  0  0  0  0  0  0  0  0
   11.9448   10.6082    6.3394 N   0  0  0  0  0  0  0  0  0  0  0  0
   11.5727   11.8981    6.1674 C   0  0  0  0  0  0  0  0  0  0  0  0
   11.3472   12.7188    7.3013 C   0  0  0  0  0  0  0  0  0  0  0  0
   11.5288   12.1320    8.5890 C   0  0  0  0  0  0  0  0  0  0  0  0
   11.3275   12.8702    9.7398 N   0  0  0  0  0  0  0  0  0  0  0  0
   10.9938   13.9454    6.8441 N   0  0  0  0  0  0  0  0  0  0  0  0
   10.9860   13.9351    5.5410 C   0  0  0  0  0  0  0  0  0  0  0  0
   11.3352   12.6964    5.0780 N   0  0  0  0  0  0  0  0  0  0  0  0
  1  7  2  0  0  0  0
  1  2  1  0  0  0  0
  2  3  1  0  0  0  0
  2  4  2  0  0  0  0
  4  5  1  0  0  0  0
  5  6  2  0  0  0  0
  5 11  1  0  0  0  0
  6  7  1  0  0  0  0
  6  9  1  0  0  0  0
  7  8  1  0  0  0  0
  9 10  1  0  0  0  0
 10 11  2  0  0  0  0
M  END
>  <CHROM.1>
11.59909226,11.84418232,7.24576233,0.43115145,-1.29156932,1.53934435

>  <Name>
ligand

>  <RI>
0

>  <Rbt.Current_Directory>
/home/itssahil/PROJECTS/Mol_Feturizer/New_Systems/rnas/4FEP

>  <Rbt.Executable>
rbdock ($Id: //depot/dev/client3/rdock/2013.1/src/exe/rbdock.cxx#4 $)

>  <Rbt.Library>
libRbt.so (2013.1, Build901 2013/11/27)

>  <Rbt.Parameter_File>
/export/apps/rDock/src/rDock_2013.1_src/data/scripts/dock_solv.prm

>  <Rbt.Receptor>
prm/blind_docking_100.prm

>  <SCORE>
-9.48334

>  <SCORE.INTER>
-9.48334

>  <SCORE.INTER.CONST>
1

>  <SCORE.INTER.POLAR>
0

>  <SCORE.INTER.ROT>
0

>  <SCORE.INTER.SOLV>
20.3906

>  <SCORE.INTER.VDW>
-16.7191

>  <SCORE.INTER.norm>
-0.862121

>  <SCORE.INTRA>
0

>  <SCORE.INTRA.DIHEDRAL>
0

>  <SCORE.INTRA.DIHEDRAL.0>
0

>  <SCORE.INTRA.POLAR>
0

>  <SCORE.INTRA.POLAR.0>
0

>  <SCORE.INTRA.REPUL>
0

>  <SCORE.INTRA.REPUL.0>
0

>  <SCORE.INTRA.SOLV>
0

>  <SCORE.INTRA.SOLV.lig_0>
-48.9558

>  <SCORE.INTRA.VDW>
0

>  <SCORE.INTRA.VDW.0>
0

>  <SCORE.INTRA.norm>
0

>  <SCORE.RESTR>
0

>  <SCORE.RESTR.CAVITY>
0

>  <SCORE.RESTR.norm>
0

>  <SCORE.SYSTEM>
0

>  <SCORE.SYSTEM.CONST>
0

>  <SCORE.SYSTEM.DIHEDRAL>
0

>  <SCORE.SYSTEM.SOLV>
0

>  <SCORE.SYSTEM.norm>
0

>  <SCORE.heavy>
11

>  <SCORE.norm>
-0.862121

>  <RMSD>
2.813

$$$$
ligand
 OpenBabel11021811493D
libRbt.so/2013.1/901 2013/11/27
 11 12  0  0  0  0  0  0  0  0999 V2000
   11.8950   10.8406    8.6726 N   0  0  0  0  0  0  0  0  0  0  0  0
   12.1077   10.1006    7.5726 C   0  0  0  0  0  0  0  0  0  0  0  0
   12.4929    8.7781    7.7141 N   0  0  0  0  0  0  0  0  0  0  0  0
   11.9554   10.6146    6.3412 N   0  0  0  0  0  0  0  0  0  0  0  0
   11.5795   11.9033    6.1681 C   0  0  0  0  0  0  0  0  0  0  0  0
   11.3433   12.7217    7.3016 C   0  0  0  0  0  0  0  0  0  0  0  0
   11.5185   12.1340    8.5897 C   0  0  0  0  0  0  0  0  0  0  0  0
   11.3067   12.8700    9.7401 N   0  0  0  0  0  0  0  0  0  0  0  0
   10.9883   13.9475    6.8435 N   0  0  0  0  0  0  0  0  0  0  0  0
   10.9893   13.9388    5.5404 C   0  0  0  0  0  0  0  0  0  0  0  0
   11.3463   12.7020    5.0782 N   0  0  0  0  0  0  0  0  0  0  0  0
  1  7  2  0  0  0  0
  1  2  1  0  0  0  0
  2  3  1  0  0  0  0
  2  4  2  0  0  0  0
  4  5  1  0  0  0  0
  5  6  2  0  0  0  0
  5 11  1  0  0  0  0
  6  7  1  0  0  0  0
  6  9  1  0  0  0  0
  7  8  1  0  0  0  0
  9 10  1  0  0  0  0
 10 11  2  0  0  0  0
M  END
>  <CHROM.1>
11.59891857,11.84811622,7.24664729,0.45556158,-1.28789655,1.56402376

>  <Name>
ligand

>  <RI>
0

>  <Rbt.Current_Directory>
/home/itssahil/PROJECTS/Mol_Feturizer/New_Systems/rnas/4FEP

>  <Rbt.Executable>
rbdock ($Id: //depot/dev/client3/rdock/2013.1/src/exe/rbdock.cxx#4 $)

>  <Rbt.Library>
libRbt.so (2013.1, Build901 2013/11/27)

>  <Rbt.Parameter_File>
/export/apps/rDock/src/rDock_2013.1_src/data/scripts/dock_solv.prm

>  <Rbt.Receptor>
prm/blind_docking_100.prm

>  <SCORE>
-9.48543

>  <SCORE.INTER>
-9.48543

>  <SCORE.INTER.CONST>
1

>  <SCORE.INTER.POLAR>
0

>  <SCORE.INTER.ROT>
0

>  <SCORE.INTER.SOLV>
20.3756

>  <SCORE.INTER.VDW>
-16.7155

>  <SCORE.INTER.norm>
-0.862312

>  <SCORE.INTRA>
0

>  <SCORE.INTRA.DIHEDRAL>
0

>  <SCORE.INTRA.DIHEDRAL.0>
0

>  <SCORE.INTRA.POLAR>
0

>  <SCORE.INTRA.POLAR.0>
0

>  <SCORE.INTRA.REPUL>
0

>  <SCORE.INTRA.REPUL.0>
0

>  <SCORE.INTRA.SOLV>
0

>  <SCORE.INTRA.SOLV.lig_0>
-48.9558

>  <SCORE.INTRA.VDW>
0

>  <SCORE.INTRA.VDW.0>
0

>  <SCORE.INTRA.norm>
0

>  <SCORE.RESTR>
0

>  <SCORE.RESTR.CAVITY>
0

>  <SCORE.RESTR.norm>
0

>  <SCORE.SYSTEM>
0

>  <SCORE.SYSTEM.CONST>
0

>  <SCORE.SYSTEM.DIHEDRAL>
0

>  <SCORE.SYSTEM.SOLV>
0

>  <SCORE.SYSTEM.norm>
0

>  <SCORE.heavy>
11

>  <SCORE.norm>
-0.862312

>  <RMSD>
2.813

$$$$
ligand
 OpenBabel11021811493D
libRbt.so/2013.1/901 2013/11/27
 11 12  0  0  0  0  0  0  0  0999 V2000
   11.8980   10.8460    8.6715 N   0  0  0  0  0  0  0  0  0  0  0  0
   12.1097   10.1052    7.5718 C   0  0  0  0  0  0  0  0  0  0  0  0
   12.4914    8.7817    7.7139 N   0  0  0  0  0  0  0  0  0  0  0  0
   11.9596   10.6193    6.3402 N   0  0  0  0  0  0  0  0  0  0  0  0
   11.5872   11.9089    6.1666 C   0  0  0  0  0  0  0  0  0  0  0  0
   11.3522   12.7282    7.2997 C   0  0  0  0  0  0  0  0  0  0  0  0
   11.5250   12.1403    8.5881 C   0  0  0  0  0  0  0  0  0  0  0  0
   11.3142   12.8770    9.7382 N   0  0  0  0  0  0  0  0  0  0  0  0
   11.0007   13.9548    6.8411 N   0  0  0  0  0  0  0  0  0  0  0  0
   11.0027   13.9458    5.5380 C   0  0  0  0  0  0  0  0  0  0  0  0
   11.3568   12.7080    5.0764 N   0  0  0  0  0  0  0  0  0  0  0  0
  1  7  2  0  0  0  0
  1  2  1  0  0  0  0
  2  3  1  0  0  0  0
  2  4  2  0  0  0  0
  4  5  1  0  0  0  0
  5  6  2  0  0  0  0
  5 11  1  0  0  0  0
  6  7  1  0  0  0  0
  6  9  1  0  0  0  0
  7  8  1  0  0  0  0
  9 10  1  0  0  0  0
 10 11  2  0  0  0  0
M  END
>  <CHROM.1>
11.60561234,11.85392602,7.24517000,0.45818217,-1.29046823,1.56633791

>  <Name>
ligand

>  <RI>
0

>  <Rbt.Current_Directory>
/home/itssahil/PROJECTS/Mol_Feturizer/New_Systems/rnas/4FEP

>  <Rbt.Executable>
rbdock ($Id: //depot/dev/client3/rdock/2013.1/src/exe/rbdock.cxx#4 $)

>  <Rbt.Library>
libRbt.so (2013.1, Build901 2013/11/27)

>  <Rbt.Parameter_File>
/export/apps/rDock/src/rDock_2013.1_src/data/scripts/dock_solv.prm

>  <Rbt.Receptor>
prm/blind_docking_100.prm

>  <SCORE>
-9.4866

>  <SCORE.INTER>
-9.4866

>  <SCORE.INTER.CONST>
1

>  <SCORE.INTER.POLAR>
0

>  <SCORE.INTER.ROT>
0

>  <SCORE.INTER.SOLV>
20.3913

>  <SCORE.INTER.VDW>
-16.7215

>  <SCORE.INTER.norm>
-0.862418

>  <SCORE.INTRA>
0

>  <SCORE.INTRA.DIHEDRAL>
0

>  <SCORE.INTRA.DIHEDRAL.0>
0

>  <SCORE.INTRA.POLAR>
0

>  <SCORE.INTRA.POLAR.0>
0

>  <SCORE.INTRA.REPUL>
0

>  <SCORE.INTRA.REPUL.0>
0

>  <SCORE.INTRA.SOLV>
0

>  <SCORE.INTRA.SOLV.lig_0>
-48.9558

>  <SCORE.INTRA.VDW>
0

>  <SCORE.INTRA.VDW.0>
0

>  <SCORE.INTRA.norm>
0

>  <SCORE.RESTR>
0

>  <SCORE.RESTR.CAVITY>
0

>  <SCORE.RESTR.norm>
0

>  <SCORE.SYSTEM>
0

>  <SCORE.SYSTEM.CONST>
0

>  <SCORE.SYSTEM.DIHEDRAL>
0

>  <SCORE.SYSTEM.SOLV>
0

>  <SCORE.SYSTEM.norm>
0

>  <SCORE.heavy>
11

>  <SCORE.norm>
-0.862418

>  <RMSD>
2.813

$$$$
ligand
 OpenBabel11021811493D
libRbt.so/2013.1/901 2013/11/27
 11 12  0  0  0  0  0  0  0  0999 V2000
   11.8093   10.8653    8.5905 N   0  0  0  0  0  0  0  0  0  0  0  0
   12.0577   10.0538    7.5500 C   0  0  0  0  0  0  0  0  0  0  0  0
   12.4491    8.7477    7.7922 N   0  0  0  0  0  0  0  0  0  0  0  0
   11.9351   10.4808    6.2826 N   0  0  0  0  0  0  0  0  0  0  0  0
   11.5542   11.7510    6.0115 C   0  0  0  0  0  0  0  0  0  0  0  0
   11.2808   12.6427    7.0793 C   0  0  0  0  0  0  0  0  0  0  0  0
   11.4253   12.1463    8.4090 C   0  0  0  0  0  0  0  0  0  0  0  0
   11.1765   12.9571    9.5001 N   0  0  0  0  0  0  0  0  0  0  0  0
   10.9290   13.8309    6.5289 N   0  0  0  0  0  0  0  0  0  0  0  0
   10.9656   13.7330    5.2299 C   0  0  0  0  0  0  0  0  0  0  0  0
   11.3447   12.4710    4.8635 N   0  0  0  0  0  0  0  0  0  0  0  0
  1  7  2  0  0  0  0
  1  2  1  0  0  0  0
  2  3  1  0  0  0  0
  2  4  2  0  0  0  0
  4  5  1  0  0  0  0
  5  6  2  0  0  0  0
  5 11  1  0  0  0  0
  6  7  1  0  0  0  0
  6  9  1  0  0  0  0
  7  8  1  0  0  0  0
  9 10  1  0  0  0  0
 10 11  2  0  0  0  0
M  END
>  <CHROM.1>
11.54450922,11.76992598,7.09137948,0.55083779,-1.27910740,1.58680047

>  <Name>
ligand

>  <RI>
0

>  <Rbt.Current_Directory>
/home/itssahil/PROJECTS/Mol_Feturizer/New_Systems/rnas/4FEP

>  <Rbt.Executable>
rbdock ($Id: //depot/dev/client3/rdock/2013.1/src/exe/rbdock.cxx#4 $)

>  <Rbt.Library>
libRbt.so (2013.1, Build901 2013/11/27)

>  <Rbt.Parameter_File>
/export/apps/rDock/src/rDock_2013.1_src/data/scripts/dock_solv.prm

>  <Rbt.Receptor>
prm/blind_docking_20.prm

>  <SCORE>
-8.4288

>  <SCORE.INTER>
-9.01821

>  <SCORE.INTER.CONST>
1

>  <SCORE.INTER.POLAR>
0

>  <SCORE.INTER.ROT>
0

>  <SCORE.INTER.SOLV>
20.142

>  <SCORE.INTER.VDW>
-16.3261

>  <SCORE.INTER.norm>
-0.819837

>  <SCORE.INTRA>
0

>  <SCORE.INTRA.DIHEDRAL>
0

>  <SCORE.INTRA.DIHEDRAL.0>
0

>  <SCORE.INTRA.POLAR>
0

>  <SCORE.INTRA.POLAR.0>
0

>  <SCORE.INTRA.REPUL>
0

>  <SCORE.INTRA.REPUL.0>
0

>  <SCORE.INTRA.SOLV>
0

>  <SCORE.INTRA.SOLV.lig_0>
-48.9558

>  <SCORE.INTRA.VDW>
0

>  <SCORE.INTRA.VDW.0>
0

>  <SCORE.INTRA.norm>
0

>  <SCORE.RESTR>
0.589408

>  <SCORE.RESTR.CAVITY>
0.589408

>  <SCORE.RESTR.norm>
0.0535826

>  <SCORE.SYSTEM>
0

>  <SCORE.SYSTEM.CONST>
0

>  <SCORE.SYSTEM.DIHEDRAL>
0

>  <SCORE.SYSTEM.SOLV>
0

>  <SCORE.SYSTEM.norm>
0

>  <SCORE.heavy>
11

>  <SCORE.norm>
-0.766255

>  <RMSD>
2.813

$$$$
ligand
 OpenBabel11021811493D
libRbt.so/2013.1/901 2013/11/27
 11 12  0  0  0  0  0  0  0  0999 V2000
   11.8201   10.8724    8.5790 N   0  0  0  0  0  0  0  0  0  0  0  0
   12.0501   10.0679    7.5288 C   0  0  0  0  0  0  0  0  0  0  0  0
   12.4421    8.7593    7.7554 N   0  0  0  0  0  0  0  0  0  0  0  0
   11.9084   10.5045    6.2667 N   0  0  0  0  0  0  0  0  0  0  0  0
   11.5263   11.7774    6.0109 C   0  0  0  0  0  0  0  0  0  0  0  0
   11.2720   12.6620    7.0893 C   0  0  0  0  0  0  0  0  0  0  0  0
   11.4363   12.1556    8.4129 C   0  0  0  0  0  0  0  0  0  0  0  0
   11.2067   12.9590    9.5136 N   0  0  0  0  0  0  0  0  0  0  0  0
   10.9144   13.8549    6.5531 N   0  0  0  0  0  0  0  0  0  0  0  0
   10.9303   13.7665    5.2530 C   0  0  0  0  0  0  0  0  0  0  0  0
   11.3005   12.5062    4.8715 N   0  0  0  0  0  0  0  0  0  0  0  0
  1  7  2  0  0  0  0
  1  2  1  0  0  0  0
  2  3  1  0  0  0  0
  2  4  2  0  0  0  0
  4  5  1  0  0  0  0
  5  6  2  0  0  0  0
  5 11  1  0  0  0  0
  6  7  1  0  0  0  0
  6  9  1  0  0  0  0
  7  8  1  0  0  0  0
  9 10  1  0  0  0  0
 10 11  2  0  0  0  0
M  END
>  <CHROM.1>
11.53381415,11.78853519,7.09085068,0.49558733,-1.28134485,1.54111487

>  <Name>
ligand

>  <RI>
0

>  <Rbt.Current_Directory>
/home/itssahil/PROJECTS/Mol_Feturizer/New_Systems/rnas/4FEP

>  <Rbt.Executable>
rbdock ($Id: //depot/dev/client3/rdock/2013.1/src/exe/rbdock.cxx#4 $)

>  <Rbt.Library>
libRbt.so (2013.1, Build901 2013/11/27)

>  <Rbt.Parameter_File>
/export/apps/rDock/src/rDock_2013.1_src/data/scripts/dock_solv.prm

>  <Rbt.Receptor>
prm/blind_docking_20.prm

>  <SCORE>
-8.44863

>  <SCORE.INTER>
-9.05013

>  <SCORE.INTER.CONST>
1

>  <SCORE.INTER.POLAR>
0

>  <SCORE.INTER.ROT>
0

>  <SCORE.INTER.SOLV>
20.1489

>  <SCORE.INTER.VDW>
-16.3497

>  <SCORE.INTER.norm>
-0.822739

>  <SCORE.INTRA>
0

>  <SCORE.INTRA.DIHEDRAL>
0

>  <SCORE.INTRA.DIHEDRAL.0>
0

>  <SCORE.INTRA.POLAR>
0

>  <SCORE.INTRA.POLAR.0>
0

>  <SCORE.INTRA.REPUL>
0

>  <SCORE.INTRA.REPUL.0>
0

>  <SCORE.INTRA.SOLV>
0

>  <SCORE.INTRA.SOLV.lig_0>
-48.9558

>  <SCORE.INTRA.VDW>
0

>  <SCORE.INTRA.VDW.0>
0

>  <SCORE.INTRA.norm>
0

>  <SCORE.RESTR>
0.601503

>  <SCORE.RESTR.CAVITY>
0.601503

>  <SCORE.RESTR.norm>
0.0546821

>  <SCORE.SYSTEM>
0

>  <SCORE.SYSTEM.CONST>
0

>  <SCORE.SYSTEM.DIHEDRAL>
0

>  <SCORE.SYSTEM.SOLV>
0

>  <SCORE.SYSTEM.norm>
0

>  <SCORE.heavy>
11

>  <SCORE.norm>
-0.768057

>  <RMSD>
2.813

$$$$
ligand
 OpenBabel11021811493D
libRbt.so/2013.1/901 2013/11/27
 11 12  0  0  0  0  0  0  0  0999 V2000
   11.8011   10.8769    8.5768 N   0  0  0  0  0  0  0  0  0  0  0  0
   12.0500   10.0741    7.5296 C   0  0  0  0  0  0  0  0  0  0  0  0
   12.4501    8.7688    7.7612 N   0  0  0  0  0  0  0  0  0  0  0  0
   11.9195   10.5091    6.2657 N   0  0  0  0  0  0  0  0  0  0  0  0
   11.5299   11.7788    6.0051 C   0  0  0  0  0  0  0  0  0  0  0  0
   11.2557   12.6616    7.0801 C   0  0  0  0  0  0  0  0  0  0  0  0
   11.4088   12.1568    8.4058 C   0  0  0  0  0  0  0  0  0  0  0  0
   11.1598   12.9586    9.5034 N   0  0  0  0  0  0  0  0  0  0  0  0
   10.8946   13.8514    6.5394 N   0  0  0  0  0  0  0  0  0  0  0  0
   10.9264   13.7627    5.2396 C   0  0  0  0  0  0  0  0  0  0  0  0
   11.3113   12.5055    4.8629 N   0  0  0  0  0  0  0  0  0  0  0  0
  1  7  2  0  0  0  0
  1  2  1  0  0  0  0
  2  3  1  0  0  0  0
  2  4  2  0  0  0  0
  4  5  1  0  0  0  0
  5  6  2  0  0  0  0
  5 11  1  0  0  0  0
  6  7  1  0  0  0  0
  6  9  1  0  0  0  0
  7  8  1  0  0  0  0
  9 10  1  0  0  0  0
 10 11  2  0  0  0  0
M  END
>  <CHROM.1>
11.52470844,11.79027696,7.08506045,0.53619200,-1.27321903,1.57968365

>  <Name>
ligand

>  <RI>
0

>  <Rbt.Current_Directory>
/home/itssahil/PROJECTS/Mol_Feturizer/New_Systems/rnas/4FEP

>  <Rbt.Executable>
rbdock ($Id: //depot/dev/client3/rdock/2013.1/src/exe/rbdock.cxx#4 $)

>  <Rbt.Library>
libRbt.so (2013.1, Build901 2013/11/27)

>  <Rbt.Parameter_File>
/export/apps/rDock/src/rDock_2013.1_src/data/scripts/dock_solv.prm

>  <Rbt.Receptor>
prm/blind_docking_20.prm

>  <SCORE>
-8.41084

>  <SCORE.INTER>
-9.00367

>  <SCORE.INTER.CONST>
1

>  <SCORE.INTER.POLAR>
0

>  <SCORE.INTER.ROT>
0

>  <SCORE.INTER.SOLV>
20.1253

>  <SCORE.INTER.VDW>
-16.3109

>  <SCORE.INTER.norm>
-0.818516

>  <SCORE.INTRA>
0

>  <SCORE.INTRA.DIHEDRAL>
0

>  <SCORE.INTRA.DIHEDRAL.0>
0

>  <SCORE.INTRA.POLAR>
0

>  <SCORE.INTRA.POLAR.0>
0

>  <SCORE.INTRA.REPUL>
0

>  <SCORE.INTRA.REPUL.0>
0

>  <SCORE.INTRA.SOLV>
0

>  <SCORE.INTRA.SOLV.lig_0>
-48.9558

>  <SCORE.INTRA.VDW>
0

>  <SCORE.INTRA.VDW.0>
0

>  <SCORE.INTRA.norm>
0

>  <SCORE.RESTR>
0.592832

>  <SCORE.RESTR.CAVITY>
0.592832

>  <SCORE.RESTR.norm>
0.0538938

>  <SCORE.SYSTEM>
0

>  <SCORE.SYSTEM.CONST>
0

>  <SCORE.SYSTEM.DIHEDRAL>
0

>  <SCORE.SYSTEM.SOLV>
0

>  <SCORE.SYSTEM.norm>
0

>  <SCORE.heavy>
11

>  <SCORE.norm>
-0.764622

>  <RMSD>
2.813

$$$$
ligand
 OpenBabel11021811493D
libRbt.so/2013.1/901 2013/11/27
 11 12  0  0  0  0  0  0  0  0999 V2000
   11.8134   10.8646    8.5891 N   0  0  0  0  0  0  0  0  0  0  0  0
   12.0561   10.0516    7.5484 C   0  0  0  0  0  0  0  0  0  0  0  0
   12.4470    8.7454    7.7903 N   0  0  0  0  0  0  0  0  0  0  0  0
   11.9281   10.4773    6.2810 N   0  0  0  0  0  0  0  0  0  0  0  0
   11.5475   11.7476    6.0102 C   0  0  0  0  0  0  0  0  0  0  0  0
   11.2802   12.6410    7.0782 C   0  0  0  0  0  0  0  0  0  0  0  0
   11.4302   12.1459    8.4078 C   0  0  0  0  0  0  0  0  0  0  0  0
   11.1874   12.9583    9.4991 N   0  0  0  0  0  0  0  0  0  0  0  0
   10.9273   13.8289    6.5280 N   0  0  0  0  0  0  0  0  0  0  0  0
   10.9579   13.7295    5.2290 C   0  0  0  0  0  0  0  0  0  0  0  0
   11.3336   12.4665    4.8623 N   0  0  0  0  0  0  0  0  0  0  0  0
  1  7  2  0  0  0  0
  1  2  1  0  0  0  0
  2  3  1  0  0  0  0
  2  4  2  0  0  0  0
  4  5  1  0  0  0  0
  5  6  2  0  0  0  0
  5 11  1  0  0  0  0
  6  7  1  0  0  0  0
  6  9  1  0  0  0  0
  7  8  1  0  0  0  0
  9 10  1  0  0  0  0
 10 11  2  0  0  0  0
M  END
>  <CHROM.1>
11.54289447,11.76784171,7.09009890,0.53481450,-1.28038507,1.57026704

>  <Name>
ligand

>  <RI>
0

>  <Rbt.Current_Directory>
/home/itssahil/PROJECTS/Mol_Feturizer/New_Systems/rnas/4FEP

>  <Rbt.Executable>
rbdock ($Id: //depot/dev/client3/rdock/2013.1/src/exe/rbdock.cxx#4 $)

>  <Rbt.Library>
libRbt.so (2013.1, Build901 2013/11/27)

>  <Rbt.Parameter_File>
/export/apps/rDock/src/rDock_2013.1_src/data/scripts/dock_solv.prm

>  <Rbt.Receptor>
prm/blind_docking_20.prm

>  <SCORE>
-8.42902

>  <SCORE.INTER>
-9.01843

>  <SCORE.INTER.CONST>
1

>  <SCORE.INTER.POLAR>
0

>  <SCORE.INTER.ROT>
0

>  <SCORE.INTER.SOLV>
20.1341

>  <SCORE.INTER.VDW>
-16.3237

>  <SCORE.INTER.norm>
-0.819857

>  <SCORE.INTRA>
0

>  <SCORE.INTRA.DIHEDRAL>
0

>  <SCORE.INTRA.DIHEDRAL.0>
0

>  <SCORE.INTRA.POLAR>
0

>  <SCORE.INTRA.POLAR.0>
0

>  <SCORE.INTRA.REPUL>
0

>  <SCORE.INTRA.REPUL.0>
0

>  <SCORE.INTRA.SOLV>
0

>  <SCORE.INTRA.SOLV.lig_0>
-48.9558

>  <SCORE.INTRA.VDW>
0

>  <SCORE.INTRA.VDW.0>
0

>  <SCORE.INTRA.norm>
0

>  <SCORE.RESTR>
0.589411

>  <SCORE.RESTR.CAVITY>
0.589411

>  <SCORE.RESTR.norm>
0.0535828

>  <SCORE.SYSTEM>
0

>  <SCORE.SYSTEM.CONST>
0

>  <SCORE.SYSTEM.DIHEDRAL>
0

>  <SCORE.SYSTEM.SOLV>
0

>  <SCORE.SYSTEM.norm>
0

>  <SCORE.heavy>
11

>  <SCORE.norm>
-0.766274

>  <RMSD>
2.813

$$$$
ligand
 OpenBabel11021811493D
libRbt.so/2013.1/901 2013/11/27
 11 12  0  0  0  0  0  0  0  0999 V2000
   11.7912   10.8757    8.5799 N   0  0  0  0  0  0  0  0  0  0  0  0
   12.0307   10.0706    7.5323 C   0  0  0  0  0  0  0  0  0  0  0  0
   12.4191    8.7616    7.7632 N   0  0  0  0  0  0  0  0  0  0  0  0
   11.9018   10.5067    6.2686 N   0  0  0  0  0  0  0  0  0  0  0  0
   11.5236   11.7800    6.0086 C   0  0  0  0  0  0  0  0  0  0  0  0
   11.2595   12.6652    7.0842 C   0  0  0  0  0  0  0  0  0  0  0  0
   11.4103   12.1592    8.4095 C   0  0  0  0  0  0  0  0  0  0  0  0
   11.1708   12.9633    9.5076 N   0  0  0  0  0  0  0  0  0  0  0  0
   10.9084   13.8583    6.5440 N   0  0  0  0  0  0  0  0  0  0  0  0
   10.9370   13.7693    5.2442 C   0  0  0  0  0  0  0  0  0  0  0  0
   11.3096   12.5086    4.8668 N   0  0  0  0  0  0  0  0  0  0  0  0
  1  7  2  0  0  0  0
  1  2  1  0  0  0  0
  2  3  1  0  0  0  0
  2  4  2  0  0  0  0
  4  5  1  0  0  0  0
  5  6  2  0  0  0  0
  5 11  1  0  0  0  0
  6  7  1  0  0  0  0
  6  9  1  0  0  0  0
  7  8  1  0  0  0  0
  9 10  1  0  0  0  0
 10 11  2  0  0  0  0
M  END
>  <CHROM.1>
11.52043664,11.79150133,7.08861489,0.52996641,-1.28247390,1.57367831

>  <Name>
ligand

>  <RI>
0

>  <Rbt.Current_Directory>
/home/itssahil/PROJECTS/Mol_Feturizer/New_Systems/rnas/4FEP

>  <Rbt.Executable>
rbdock ($Id: //depot/dev/client3/rdock/2013.1/src/exe/rbdock.cxx#4 $)

>  <Rbt.Library>
libRbt.so (2013.1, Build901 2013/11/27)

>  <Rbt.Parameter_File>
/export/apps/rDock/src/rDock_2013.1_src/data/scripts/dock_solv.prm

>  <Rbt.Receptor>
prm/blind_docking_20.prm

>  <SCORE>
-8.45448

>  <SCORE.INTER>
-9.0527

>  <SCORE.INTER.CONST>
1

>  <SCORE.INTER.POLAR>
0

>  <SCORE.INTER.ROT>
0

>  <SCORE.INTER.SOLV>
20.2613

>  <SCORE.INTER.VDW>
-16.3889

>  <SCORE.INTER.norm>
-0.822973

>  <SCORE.INTRA>
0

>  <SCORE.INTRA.DIHEDRAL>
0

>  <SCORE.INTRA.DIHEDRAL.0>
0

>  <SCORE.INTRA.POLAR>
0

>  <SCORE.INTRA.POLAR.0>
0

>  <SCORE.INTRA.REPUL>
0

>  <SCORE.INTRA.REPUL.0>
0

>  <SCORE.INTRA.SOLV>
0

>  <SCORE.INTRA.SOLV.lig_0>
-48.9558

>  <SCORE.INTRA.VDW>
0

>  <SCORE.INTRA.VDW.0>
0

>  <SCORE.INTRA.norm>
0

>  <SCORE.RESTR>
0.598223

>  <SCORE.RESTR.CAVITY>
0.598223

>  <SCORE.RESTR.norm>
0.0543839

>  <SCORE.SYSTEM>
0

>  <SCORE.SYSTEM.CONST>
0

>  <SCORE.SYSTEM.DIHEDRAL>
0

>  <SCORE.SYSTEM.SOLV>
0

>  <SCORE.SYSTEM.norm>
0

>  <SCORE.heavy>
11

>  <SCORE.norm>
-0.768589

>  <RMSD>
2.813

$$$$
ligand
 OpenBabel11021811493D
libRbt.so/2013.1/901 2013/11/27
 11 12  0  0  0  0  0  0  0  0999 V2000
   11.8163   10.8623    8.5855 N   0  0  0  0  0  0  0  0  0  0  0  0
   12.0242   10.0583    7.5304 C   0  0  0  0  0  0  0  0  0  0  0  0
   12.4029    8.7443    7.7484 N   0  0  0  0  0  0  0  0  0  0  0  0
   11.8731   10.5004    6.2712 N   0  0  0  0  0  0  0  0  0  0  0  0
   11.5036   11.7787    6.0236 C   0  0  0  0  0  0  0  0  0  0  0  0
   11.2727   12.6630    7.1076 C   0  0  0  0  0  0  0  0  0  0  0  0
   11.4463   12.1505    8.4277 C   0  0  0  0  0  0  0  0  0  0  0  0
   11.2394   12.9533    9.5333 N   0  0  0  0  0  0  0  0  0  0  0  0
   10.9234   13.8618    6.5791 N   0  0  0  0  0  0  0  0  0  0  0  0
   10.9230   13.7772    5.2787 C   0  0  0  0  0  0  0  0  0  0  0  0
   11.2733   12.5137    4.8892 N   0  0  0  0  0  0  0  0  0  0  0  0
  1  7  2  0  0  0  0
  1  2  1  0  0  0  0
  2  3  1  0  0  0  0
  2  4  2  0  0  0  0
  4  5  1  0  0  0  0
  5  6  2  0  0  0  0
  5 11  1  0  0  0  0
  6  7  1  0  0  0  0
  6  9  1  0  0  0  0
  7  8  1  0  0  0  0
  9 10  1  0  0  0  0
 10 11  2  0  0  0  0
M  END
>  <CHROM.1>
11.52384046,11.78641364,7.10349986,0.45165628,-1.29291779,1.50194205

>  <Name>
ligand

>  <RI>
0

>  <Rbt.Current_Directory>
/home/itssahil/PROJECTS/Mol_Feturizer/New_Systems/rnas/4FEP

>  <Rbt.Executable>
rbdock ($Id: //depot/dev/client3/rdock/2013.1/src/exe/rbdock.cxx#4 $)

>  <Rbt.Library>
libRbt.so (2013.1, Build901 2013/11/27)

>  <Rbt.Parameter_File>
/export/apps/rDock/src/rDock_2013.1_src/data/scripts/dock_solv.prm

>  <Rbt.Receptor>
prm/blind_docking_20.prm

>  <SCORE>
-8.50149

>  <SCORE.INTER>
-9.11722

>  <SCORE.INTER.CONST>
1

>  <SCORE.INTER.POLAR>
0

>  <SCORE.INTER.ROT>
0

>  <SCORE.INTER.SOLV>
20.3225

>  <SCORE.INTER.VDW>
-16.4523

>  <SCORE.INTER.norm>
-0.828838

>  <SCORE.INTRA>
0

>  <SCORE.INTRA.DIHEDRAL>
0

>  <SCORE.INTRA.DIHEDRAL.0>
0

>  <SCORE.INTRA.POLAR>
0

>  <SCORE.INTRA.POLAR.0>
0

>  <SCORE.INTRA.REPUL>
0

>  <SCORE.INTRA.REPUL.0>
0

>  <SCORE.INTRA.SOLV>
0

>  <SCORE.INTRA.SOLV.lig_0>
-48.9558

>  <SCORE.INTRA.VDW>
0

>  <SCORE.INTRA.VDW.0>
0

>  <SCORE.INTRA.norm>
0

>  <SCORE.RESTR>
0.615725

>  <SCORE.RESTR.CAVITY>
0.615725

>  <SCORE.RESTR.norm>
0.055975

>  <SCORE.SYSTEM>
0

>  <SCORE.SYSTEM.CONST>
0

>  <SCORE.SYSTEM.DIHEDRAL>
0

>  <SCORE.SYSTEM.SOLV>
0

>  <SCORE.SYSTEM.norm>
0

>  <SCORE.heavy>
11

>  <SCORE.norm>
-0.772863

>  <RMSD>
2.813

$$$$
ligand
 OpenBabel11021811493D
libRbt.so/2013.1/901 2013/11/27
 11 12  0  0  0  0  0  0  0  0999 V2000
   11.8961   10.8474    8.6637 N   0  0  0  0  0  0  0  0  0  0  0  0
   12.1051   10.1041    7.5652 C   0  0  0  0  0  0  0  0  0  0  0  0
   12.4853    8.7803    7.7095 N   0  0  0  0  0  0  0  0  0  0  0  0
   11.9538   10.6158    6.3327 N   0  0  0  0  0  0  0  0  0  0  0  0
   11.5828   11.9055    6.1570 C   0  0  0  0  0  0  0  0  0  0  0  0
   11.3507   12.7274    7.2887 C   0  0  0  0  0  0  0  0  0  0  0  0
   11.5246   12.1421    8.5781 C   0  0  0  0  0  0  0  0  0  0  0  0
   11.3166   12.8815    9.7269 N   0  0  0  0  0  0  0  0  0  0  0  0
   11.0001   13.9536    6.8280 N   0  0  0  0  0  0  0  0  0  0  0  0
   11.0001   13.9418    5.5250 C   0  0  0  0  0  0  0  0  0  0  0  0
   11.3519   12.7026    5.0654 N   0  0  0  0  0  0  0  0  0  0  0  0
  1  7  2  0  0  0  0
  1  2  1  0  0  0  0
  2  3  1  0  0  0  0
  2  4  2  0  0  0  0
  4  5  1  0  0  0  0
  5  6  2  0  0  0  0
  5 11  1  0  0  0  0
  6  7  1  0  0  0  0
  6  9  1  0  0  0  0
  7  8  1  0  0  0  0
  9 10  1  0  0  0  0
 10 11  2  0  0  0  0
M  END
>  <CHROM.1>
11.60284499,11.85274838,7.23563154,0.45265215,-1.29177877,1.55890537

>  <Name>
ligand

>  <RI>
0

>  <Rbt.Current_Directory>
/home/itssahil/PROJECTS/Mol_Feturizer/New_Systems/rnas/4FEP

>  <Rbt.Executable>
rbdock ($Id: //depot/dev/client3/rdock/2013.1/src/exe/rbdock.cxx#4 $)

>  <Rbt.Library>
libRbt.so (2013.1, Build901 2013/11/27)

>  <Rbt.Parameter_File>
/export/apps/rDock/src/rDock_2013.1_src/data/scripts/dock_solv.prm

>  <Rbt.Receptor>
prm/pocket_docking_6.prm

>  <SCORE>
-9.48259

>  <SCORE.INTER>
-9.48259

>  <SCORE.INTER.CONST>
1

>  <SCORE.INTER.POLAR>
0

>  <SCORE.INTER.ROT>
0

>  <SCORE.INTER.SOLV>
20.3837

>  <SCORE.INTER.VDW>
-16.7163

>  <SCORE.INTER.norm>
-0.862054

>  <SCORE.INTRA>
0

>  <SCORE.INTRA.DIHEDRAL>
0

>  <SCORE.INTRA.DIHEDRAL.0>
0

>  <SCORE.INTRA.POLAR>
0

>  <SCORE.INTRA.POLAR.0>
0

>  <SCORE.INTRA.REPUL>
0

>  <SCORE.INTRA.REPUL.0>
0

>  <SCORE.INTRA.SOLV>
0

>  <SCORE.INTRA.SOLV.lig_0>
-48.9558

>  <SCORE.INTRA.VDW>
0

>  <SCORE.INTRA.VDW.0>
0

>  <SCORE.INTRA.norm>
0

>  <SCORE.RESTR>
0

>  <SCORE.RESTR.CAVITY>
0

>  <SCORE.RESTR.norm>
0

>  <SCORE.SYSTEM>
0

>  <SCORE.SYSTEM.CONST>
0

>  <SCORE.SYSTEM.DIHEDRAL>
0

>  <SCORE.SYSTEM.SOLV>
0

>  <SCORE.SYSTEM.norm>
0

>  <SCORE.heavy>
11

>  <SCORE.norm>
-0.862054

>  <RMSD>
2.813

$$$$
ligand
 OpenBabel11021811493D
libRbt.so/2013.1/901 2013/11/27
 11 12  0  0  0  0  0  0  0  0999 V2000
   11.9104   10.8441    8.6616 N   0  0  0  0  0  0  0  0  0  0  0  0
   12.1302   10.1051    7.5623 C   0  0  0  0  0  0  0  0  0  0  0  0
   12.5274    8.7862    7.7051 N   0  0  0  0  0  0  0  0  0  0  0  0
   11.9734   10.6166    6.3304 N   0  0  0  0  0  0  0  0  0  0  0  0
   11.5859   11.9016    6.1561 C   0  0  0  0  0  0  0  0  0  0  0  0
   11.3420   12.7188    7.2887 C   0  0  0  0  0  0  0  0  0  0  0  0
   11.5222   12.1340    8.5775 C   0  0  0  0  0  0  0  0  0  0  0  0
   11.3034   12.8690    9.7271 N   0  0  0  0  0  0  0  0  0  0  0  0
   10.9760   13.9410    6.8294 N   0  0  0  0  0  0  0  0  0  0  0  0
   10.9774   13.9311    5.5264 C   0  0  0  0  0  0  0  0  0  0  0  0
   11.3458   12.6972    5.0654 N   0  0  0  0  0  0  0  0  0  0  0  0
  1  7  2  0  0  0  0
  1  2  1  0  0  0  0
  2  3  1  0  0  0  0
  2  4  2  0  0  0  0
  4  5  1  0  0  0  0
  5  6  2  0  0  0  0
  5 11  1  0  0  0  0
  6  7  1  0  0  0  0
  6  9  1  0  0  0  0
  7  8  1  0  0  0  0
  9 10  1  0  0  0  0
 10 11  2  0  0  0  0
M  END
>  <CHROM.1>
11.60555077,11.84757385,7.23468877,0.45669383,-1.27879104,1.56420198

>  <Name>
ligand

>  <RI>
0

>  <Rbt.Current_Directory>
/home/itssahil/PROJECTS/Mol_Feturizer/New_Systems/rnas/4FEP

>  <Rbt.Executable>
rbdock ($Id: //depot/dev/client3/rdock/2013.1/src/exe/rbdock.cxx#4 $)

>  <Rbt.Library>
libRbt.so (2013.1, Build901 2013/11/27)

>  <Rbt.Parameter_File>
/export/apps/rDock/src/rDock_2013.1_src/data/scripts/dock_solv.prm

>  <Rbt.Receptor>
prm/pocket_docking_6.prm

>  <SCORE>
-9.44532

>  <SCORE.INTER>
-9.44532

>  <SCORE.INTER.CONST>
1

>  <SCORE.INTER.POLAR>
0

>  <SCORE.INTER.ROT>
0

>  <SCORE.INTER.SOLV>
20.1948

>  <SCORE.INTER.VDW>
-16.6285

>  <SCORE.INTER.norm>
-0.858666

>  <SCORE.INTRA>
0

>  <SCORE.INTRA.DIHEDRAL>
0

>  <SCORE.INTRA.DIHEDRAL.0>
0

>  <SCORE.INTRA.POLAR>
0

>  <SCORE.INTRA.POLAR.0>
0

>  <SCORE.INTRA.REPUL>
0

>  <SCORE.INTRA.REPUL.0>
0

>  <SCORE.INTRA.SOLV>
0

>  <SCORE.INTRA.SOLV.lig_0>
-48.9558

>  <SCORE.INTRA.VDW>
0

>  <SCORE.INTRA.VDW.0>
0

>  <SCORE.INTRA.norm>
0

>  <SCORE.RESTR>
0

>  <SCORE.RESTR.CAVITY>
0

>  <SCORE.RESTR.norm>
0

>  <SCORE.SYSTEM>
0

>  <SCORE.SYSTEM.CONST>
0

>  <SCORE.SYSTEM.DIHEDRAL>
0

>  <SCORE.SYSTEM.SOLV>
0

>  <SCORE.SYSTEM.norm>
0

>  <SCORE.heavy>
11

>  <SCORE.norm>
-0.858666

>  <RMSD>
2.813

$$$$
ligand
 OpenBabel11021811493D
libRbt.so/2013.1/901 2013/11/27
 11 12  0  0  0  0  0  0  0  0999 V2000
   11.8957   10.8515    8.6652 N   0  0  0  0  0  0  0  0  0  0  0  0
   12.1088   10.1077    7.5679 C   0  0  0  0  0  0  0  0  0  0  0  0
   12.4901    8.7845    7.7141 N   0  0  0  0  0  0  0  0  0  0  0  0
   11.9605   10.6185    6.3346 N   0  0  0  0  0  0  0  0  0  0  0  0
   11.5886   11.9076    6.1570 C   0  0  0  0  0  0  0  0  0  0  0  0
   11.3521   12.7300    7.2875 C   0  0  0  0  0  0  0  0  0  0  0  0
   11.5229   12.1457    8.5778 C   0  0  0  0  0  0  0  0  0  0  0  0
   11.3107   12.8856    9.7255 N   0  0  0  0  0  0  0  0  0  0  0  0
   11.0015   13.9554    6.8250 N   0  0  0  0  0  0  0  0  0  0  0  0
   11.0053   13.9429    5.5220 C   0  0  0  0  0  0  0  0  0  0  0  0
   11.3600   12.7037    5.0642 N   0  0  0  0  0  0  0  0  0  0  0  0
  1  7  2  0  0  0  0
  1  2  1  0  0  0  0
  2  3  1  0  0  0  0
  2  4  2  0  0  0  0
  4  5  1  0  0  0  0
  5  6  2  0  0  0  0
  5 11  1  0  0  0  0
  6  7  1  0  0  0  0
  6  9  1  0  0  0  0
  7  8  1  0  0  0  0
  9 10  1  0  0  0  0
 10 11  2  0  0  0  0
M  END
>  <CHROM.1>
11.60548344,11.85558132,7.23570953,0.46337899,-1.29063491,1.56858662

>  <Name>
ligand

>  <RI>
0

>  <Rbt.Current_Directory>
/home/itssahil/PROJECTS/Mol_Feturizer/New_Systems/rnas/4FEP

>  <Rbt.Executable>
rbdock ($Id: //depot/dev/client3/rdock/2013.1/src/exe/rbdock.cxx#4 $)

>  <Rbt.Library>
libRbt.so (2013.1, Build901 2013/11/27)

>  <Rbt.Parameter_File>
/export/apps/rDock/src/rDock_2013.1_src/data/scripts/dock_solv.prm

>  <Rbt.Receptor>
prm/pocket_docking_8.prm

>  <SCORE>
-9.48238

>  <SCORE.INTER>
-9.48238

>  <SCORE.INTER.CONST>
1

>  <SCORE.INTER.POLAR>
0

>  <SCORE.INTER.ROT>
0

>  <SCORE.INTER.SOLV>
20.3772

>  <SCORE.INTER.VDW>
-16.714

>  <SCORE.INTER.norm>
-0.862035

>  <SCORE.INTRA>
0

>  <SCORE.INTRA.DIHEDRAL>
0

>  <SCORE.INTRA.DIHEDRAL.0>
0

>  <SCORE.INTRA.POLAR>
0

>  <SCORE.INTRA.POLAR.0>
0

>  <SCORE.INTRA.REPUL>
0

>  <SCORE.INTRA.REPUL.0>
0

>  <SCORE.INTRA.SOLV>
0

>  <SCORE.INTRA.SOLV.lig_0>
-48.9558

>  <SCORE.INTRA.VDW>
0

>  <SCORE.INTRA.VDW.0>
0

>  <SCORE.INTRA.norm>
0

>  <SCORE.RESTR>
0

>  <SCORE.RESTR.CAVITY>
0

>  <SCORE.RESTR.norm>
0

>  <SCORE.SYSTEM>
0

>  <SCORE.SYSTEM.CONST>
0

>  <SCORE.SYSTEM.DIHEDRAL>
0

>  <SCORE.SYSTEM.SOLV>
0

>  <SCORE.SYSTEM.norm>
0

>  <SCORE.heavy>
11

>  <SCORE.norm>
-0.862035

>  <RMSD>
2.813

$$$$
ligand
 OpenBabel11021811493D
libRbt.so/2013.1/901 2013/11/27
 11 12  0  0  0  0  0  0  0  0999 V2000
   11.8989   10.8473    8.6710 N   0  0  0  0  0  0  0  0  0  0  0  0
   12.1098   10.1056    7.5717 C   0  0  0  0  0  0  0  0  0  0  0  0
   12.4909    8.7820    7.7146 N   0  0  0  0  0  0  0  0  0  0  0  0
   11.9595   10.6190    6.3398 N   0  0  0  0  0  0  0  0  0  0  0  0
   11.5878   11.9086    6.1655 C   0  0  0  0  0  0  0  0  0  0  0  0
   11.3536   12.7288    7.2981 C   0  0  0  0  0  0  0  0  0  0  0  0
   11.5265   12.1418    8.5868 C   0  0  0  0  0  0  0  0  0  0  0  0
   11.3166   12.8794    9.7364 N   0  0  0  0  0  0  0  0  0  0  0  0
   11.0027   13.9553    6.8387 N   0  0  0  0  0  0  0  0  0  0  0  0
   11.0042   13.9454    5.5356 C   0  0  0  0  0  0  0  0  0  0  0  0
   11.3575   12.7071    5.0748 N   0  0  0  0  0  0  0  0  0  0  0  0
  1  7  2  0  0  0  0
  1  2  1  0  0  0  0
  2  3  1  0  0  0  0
  2  4  2  0  0  0  0
  4  5  1  0  0  0  0
  5  6  2  0  0  0  0
  5 11  1  0  0  0  0
  6  7  1  0  0  0  0
  6  9  1  0  0  0  0
  7  8  1  0  0  0  0
  9 10  1  0  0  0  0
 10 11  2  0  0  0  0
M  END
>  <CHROM.1>
11.60657027,11.85437671,7.24404158,0.45693152,-1.29100045,1.56444166

>  <Name>
ligand

>  <RI>
0

>  <Rbt.Current_Directory>
/home/itssahil/PROJECTS/Mol_Feturizer/New_Systems/rnas/4FEP

>  <Rbt.Executable>
rbdock ($Id: //depot/dev/client3/rdock/2013.1/src/exe/rbdock.cxx#4 $)

>  <Rbt.Library>
libRbt.so (2013.1, Build901 2013/11/27)

>  <Rbt.Parameter_File>
/export/apps/rDock/src/rDock_2013.1_src/data/scripts/dock_solv.prm

>  <Rbt.Receptor>
prm/pocket_docking_8.prm

>  <SCORE>
-9.48612

>  <SCORE.INTER>
-9.48612

>  <SCORE.INTER.CONST>
1

>  <SCORE.INTER.POLAR>
0

>  <SCORE.INTER.ROT>
0

>  <SCORE.INTER.SOLV>
20.392

>  <SCORE.INTER.VDW>
-16.7214

>  <SCORE.INTER.norm>
-0.862374

>  <SCORE.INTRA>
0

>  <SCORE.INTRA.DIHEDRAL>
0

>  <SCORE.INTRA.DIHEDRAL.0>
0

>  <SCORE.INTRA.POLAR>
0

>  <SCORE.INTRA.POLAR.0>
0

>  <SCORE.INTRA.REPUL>
0

>  <SCORE.INTRA.REPUL.0>
0

>  <SCORE.INTRA.SOLV>
0

>  <SCORE.INTRA.SOLV.lig_0>
-48.9558

>  <SCORE.INTRA.VDW>
0

>  <SCORE.INTRA.VDW.0>
0

>  <SCORE.INTRA.norm>
0

>  <SCORE.RESTR>
0

>  <SCORE.RESTR.CAVITY>
0

>  <SCORE.RESTR.norm>
0

>  <SCORE.SYSTEM>
0

>  <SCORE.SYSTEM.CONST>
0

>  <SCORE.SYSTEM.DIHEDRAL>
0

>  <SCORE.SYSTEM.SOLV>
0

>  <SCORE.SYSTEM.norm>
0

>  <SCORE.heavy>
11

>  <SCORE.norm>
-0.862374

>  <RMSD>
2.813

$$$$
ligand
 OpenBabel11021811493D
libRbt.so/2013.1/901 2013/11/27
 11 12  0  0  0  0  0  0  0  0999 V2000
   11.8901   10.8366    8.6717 N   0  0  0  0  0  0  0  0  0  0  0  0
   12.1054   10.0984    7.5710 C   0  0  0  0  0  0  0  0  0  0  0  0
   12.4897    8.7755    7.7111 N   0  0  0  0  0  0  0  0  0  0  0  0
   11.9563   10.6147    6.3401 N   0  0  0  0  0  0  0  0  0  0  0  0
   11.5814   11.9038    6.1684 C   0  0  0  0  0  0  0  0  0  0  0  0
   11.3426   12.7203    7.3026 C   0  0  0  0  0  0  0  0  0  0  0  0
   11.5144   12.1303    8.5902 C   0  0  0  0  0  0  0  0  0  0  0  0
   11.3000   12.8643    9.7413 N   0  0  0  0  0  0  0  0  0  0  0  0
   10.9893   13.9470    6.8458 N   0  0  0  0  0  0  0  0  0  0  0  0
   10.9935   13.9406    5.5427 C   0  0  0  0  0  0  0  0  0  0  0  0
   11.3512   12.7045    5.0793 N   0  0  0  0  0  0  0  0  0  0  0  0
  1  7  2  0  0  0  0
  1  2  1  0  0  0  0
  2  3  1  0  0  0  0
  2  4  2  0  0  0  0
  4  5  1  0  0  0  0
  5  6  2  0  0  0  0
  5 11  1  0  0  0  0
  6  7  1  0  0  0  0
  6  9  1  0  0  0  0
  7  8  1  0  0  0  0
  9 10  1  0  0  0  0
 10 11  2  0  0  0  0
M  END
>  <CHROM.1>
11.59805334,11.84669467,7.24683967,0.46453355,-1.28827777,1.57439590

>  <Name>
ligand

>  <RI>
0

>  <Rbt.Current_Directory>
/home/itssahil/PROJECTS/Mol_Feturizer/New_Systems/rnas/4FEP

>  <Rbt.Executable>
rbdock ($Id: //depot/dev/client3/rdock/2013.1/src/exe/rbdock.cxx#4 $)

>  <Rbt.Library>
libRbt.so (2013.1, Build901 2013/11/27)

>  <Rbt.Parameter_File>
/export/apps/rDock/src/rDock_2013.1_src/data/scripts/dock_solv.prm

>  <Rbt.Receptor>
prm/blind_docking_100.prm

>  <SCORE>
-9.48412

>  <SCORE.INTER>
-9.48412

>  <SCORE.INTER.CONST>
1

>  <SCORE.INTER.POLAR>
0

>  <SCORE.INTER.ROT>
0

>  <SCORE.INTER.SOLV>
20.3868

>  <SCORE.INTER.VDW>
-16.7184

>  <SCORE.INTER.norm>
-0.862193

>  <SCORE.INTRA>
0

>  <SCORE.INTRA.DIHEDRAL>
0

>  <SCORE.INTRA.DIHEDRAL.0>
0

>  <SCORE.INTRA.POLAR>
0

>  <SCORE.INTRA.POLAR.0>
0

>  <SCORE.INTRA.REPUL>
0

>  <SCORE.INTRA.REPUL.0>
0

>  <SCORE.INTRA.SOLV>
0

>  <SCORE.INTRA.SOLV.lig_0>
-48.9558

>  <SCORE.INTRA.VDW>
0

>  <SCORE.INTRA.VDW.0>
0

>  <SCORE.INTRA.norm>
0

>  <SCORE.RESTR>
0

>  <SCORE.RESTR.CAVITY>
0

>  <SCORE.RESTR.norm>
0

>  <SCORE.SYSTEM>
0

>  <SCORE.SYSTEM.CONST>
0

>  <SCORE.SYSTEM.DIHEDRAL>
0

>  <SCORE.SYSTEM.SOLV>
0

>  <SCORE.SYSTEM.norm>
0

>  <SCORE.heavy>
11

>  <SCORE.norm>
-0.862193

>  <RMSD>
2.814

$$$$
ligand
 OpenBabel11021811493D
libRbt.so/2013.1/901 2013/11/27
 11 12  0  0  0  0  0  0  0  0999 V2000
   11.8924   10.8439    8.6637 N   0  0  0  0  0  0  0  0  0  0  0  0
   12.1032   10.1021    7.5645 C   0  0  0  0  0  0  0  0  0  0  0  0
   12.4846    8.7786    7.7075 N   0  0  0  0  0  0  0  0  0  0  0  0
   11.9525   10.6152    6.3326 N   0  0  0  0  0  0  0  0  0  0  0  0
   11.5804   11.9047    6.1581 C   0  0  0  0  0  0  0  0  0  0  0  0
   11.3463   12.7251    7.2906 C   0  0  0  0  0  0  0  0  0  0  0  0
   11.5197   12.1383    8.5794 C   0  0  0  0  0  0  0  0  0  0  0  0
   11.3098   12.8760    9.7290 N   0  0  0  0  0  0  0  0  0  0  0  0
   10.9949   13.9514    6.8311 N   0  0  0  0  0  0  0  0  0  0  0  0
   10.9961   13.9413    5.5281 C   0  0  0  0  0  0  0  0  0  0  0  0
   11.3496   12.7029    5.0673 N   0  0  0  0  0  0  0  0  0  0  0  0
  1  7  2  0  0  0  0
  1  2  1  0  0  0  0
  2  3  1  0  0  0  0
  2  4  2  0  0  0  0
  4  5  1  0  0  0  0
  5  6  2  0  0  0  0
  5 11  1  0  0  0  0
  6  7  1  0  0  0  0
  6  9  1  0  0  0  0
  7  8  1  0  0  0  0
  9 10  1  0  0  0  0
 10 11  2  0  0  0  0
M  END
>  <CHROM.1>
11.59944145,11.85068543,7.23667212,0.45600821,-1.29076649,1.56337445

>  <Name>
ligand

>  <RI>
0

>  <Rbt.Current_Directory>
/home/itssahil/PROJECTS/Mol_Feturizer/New_Systems/rnas/4FEP

>  <Rbt.Executable>
rbdock ($Id: //depot/dev/client3/rdock/2013.1/src/exe/rbdock.cxx#4 $)

>  <Rbt.Library>
libRbt.so (2013.1, Build901 2013/11/27)

>  <Rbt.Parameter_File>
/export/apps/rDock/src/rDock_2013.1_src/data/scripts/dock_solv.prm

>  <Rbt.Receptor>
prm/blind_docking_40.prm

>  <SCORE>
-9.48185

>  <SCORE.INTER>
-9.48185

>  <SCORE.INTER.CONST>
1

>  <SCORE.INTER.POLAR>
0

>  <SCORE.INTER.ROT>
0

>  <SCORE.INTER.SOLV>
20.384

>  <SCORE.INTER.VDW>
-16.7159

>  <SCORE.INTER.norm>
-0.861986

>  <SCORE.INTRA>
0

>  <SCORE.INTRA.DIHEDRAL>
0

>  <SCORE.INTRA.DIHEDRAL.0>
0

>  <SCORE.INTRA.POLAR>
0

>  <SCORE.INTRA.POLAR.0>
0

>  <SCORE.INTRA.REPUL>
0

>  <SCORE.INTRA.REPUL.0>
0

>  <SCORE.INTRA.SOLV>
0

>  <SCORE.INTRA.SOLV.lig_0>
-48.9558

>  <SCORE.INTRA.VDW>
0

>  <SCORE.INTRA.VDW.0>
0

>  <SCORE.INTRA.norm>
0

>  <SCORE.RESTR>
0

>  <SCORE.RESTR.CAVITY>
0

>  <SCORE.RESTR.norm>
0

>  <SCORE.SYSTEM>
0

>  <SCORE.SYSTEM.CONST>
0

>  <SCORE.SYSTEM.DIHEDRAL>
0

>  <SCORE.SYSTEM.SOLV>
0

>  <SCORE.SYSTEM.norm>
0

>  <SCORE.heavy>
11

>  <SCORE.norm>
-0.861986

>  <RMSD>
2.814

$$$$
ligand
 OpenBabel11021811493D
libRbt.so/2013.1/901 2013/11/27
 11 12  0  0  0  0  0  0  0  0999 V2000
   11.8923   10.8471    8.6592 N   0  0  0  0  0  0  0  0  0  0  0  0
   12.1023   10.1034    7.5612 C   0  0  0  0  0  0  0  0  0  0  0  0
   12.4777    8.7784    7.7063 N   0  0  0  0  0  0  0  0  0  0  0  0
   11.9564   10.6160    6.3285 N   0  0  0  0  0  0  0  0  0  0  0  0
   11.5902   11.9069    6.1520 C   0  0  0  0  0  0  0  0  0  0  0  0
   11.3572   12.7293    7.2832 C   0  0  0  0  0  0  0  0  0  0  0  0
   11.5253   12.1430    8.5729 C   0  0  0  0  0  0  0  0  0  0  0  0
   11.3161   12.8828    9.7213 N   0  0  0  0  0  0  0  0  0  0  0  0
   11.0121   13.9567    6.8218 N   0  0  0  0  0  0  0  0  0  0  0  0
   11.0160   13.9453    5.5188 C   0  0  0  0  0  0  0  0  0  0  0  0
   11.3652   12.7051    5.0599 N   0  0  0  0  0  0  0  0  0  0  0  0
  1  7  2  0  0  0  0
  1  2  1  0  0  0  0
  2  3  1  0  0  0  0
  2  4  2  0  0  0  0
  4  5  1  0  0  0  0
  5  6  2  0  0  0  0
  5 11  1  0  0  0  0
  6  7  1  0  0  0  0
  6  9  1  0  0  0  0
  7  8  1  0  0  0  0
  9 10  1  0  0  0  0
 10 11  2  0  0  0  0
M  END
>  <CHROM.1>
11.60669049,11.85379071,7.23062809,0.46376467,-1.29505123,1.56988739

>  <Name>
ligand

>  <RI>
0

>  <Rbt.Current_Directory>
/home/itssahil/PROJECTS/Mol_Feturizer/New_Systems/rnas/4FEP

>  <Rbt.Executable>
rbdock ($Id: //depot/dev/client3/rdock/2013.1/src/exe/rbdock.cxx#4 $)

>  <Rbt.Library>
libRbt.so (2013.1, Build901 2013/11/27)

>  <Rbt.Parameter_File>
/export/apps/rDock/src/rDock_2013.1_src/data/scripts/dock_solv.prm

>  <Rbt.Receptor>
prm/blind_docking_60.prm

>  <SCORE>
-9.47497

>  <SCORE.INTER>
-9.47497

>  <SCORE.INTER.CONST>
1

>  <SCORE.INTER.POLAR>
0

>  <SCORE.INTER.ROT>
0

>  <SCORE.INTER.SOLV>
20.4064

>  <SCORE.INTER.VDW>
-16.7188

>  <SCORE.INTER.norm>
-0.861361

>  <SCORE.INTRA>
0

>  <SCORE.INTRA.DIHEDRAL>
0

>  <SCORE.INTRA.DIHEDRAL.0>
0

>  <SCORE.INTRA.POLAR>
0

>  <SCORE.INTRA.POLAR.0>
0

>  <SCORE.INTRA.REPUL>
0

>  <SCORE.INTRA.REPUL.0>
0

>  <SCORE.INTRA.SOLV>
0

>  <SCORE.INTRA.SOLV.lig_0>
-48.9558

>  <SCORE.INTRA.VDW>
0

>  <SCORE.INTRA.VDW.0>
0

>  <SCORE.INTRA.norm>
0

>  <SCORE.RESTR>
0

>  <SCORE.RESTR.CAVITY>
0

>  <SCORE.RESTR.norm>
0

>  <SCORE.SYSTEM>
0

>  <SCORE.SYSTEM.CONST>
0

>  <SCORE.SYSTEM.DIHEDRAL>
0

>  <SCORE.SYSTEM.SOLV>
0

>  <SCORE.SYSTEM.norm>
0

>  <SCORE.heavy>
11

>  <SCORE.norm>
-0.861361

>  <RMSD>
2.814

$$$$
ligand
 OpenBabel11021811493D
libRbt.so/2013.1/901 2013/11/27
 11 12  0  0  0  0  0  0  0  0999 V2000
   11.8845   10.8355    8.6769 N   0  0  0  0  0  0  0  0  0  0  0  0
   12.1096   10.0985    7.5773 C   0  0  0  0  0  0  0  0  0  0  0  0
   12.4948    8.7760    7.7196 N   0  0  0  0  0  0  0  0  0  0  0  0
   11.9695   10.6153    6.3457 N   0  0  0  0  0  0  0  0  0  0  0  0
   11.5941   11.9040    6.1719 C   0  0  0  0  0  0  0  0  0  0  0  0
   11.3451   12.7194    7.3048 C   0  0  0  0  0  0  0  0  0  0  0  0
   11.5075   12.1287    8.5933 C   0  0  0  0  0  0  0  0  0  0  0  0
   11.2828   12.8616    9.7431 N   0  0  0  0  0  0  0  0  0  0  0  0
   10.9935   13.9459    6.8460 N   0  0  0  0  0  0  0  0  0  0  0  0
   11.0082   13.9404    5.5430 C   0  0  0  0  0  0  0  0  0  0  0  0
   11.3714   12.7051    5.0816 N   0  0  0  0  0  0  0  0  0  0  0  0
  1  7  2  0  0  0  0
  1  2  1  0  0  0  0
  2  3  1  0  0  0  0
  2  4  2  0  0  0  0
  4  5  1  0  0  0  0
  5  6  2  0  0  0  0
  5 11  1  0  0  0  0
  6  7  1  0  0  0  0
  6  9  1  0  0  0  0
  7  8  1  0  0  0  0
  9 10  1  0  0  0  0
 10 11  2  0  0  0  0
M  END
>  <CHROM.1>
11.60223437,11.84618903,7.25041583,0.49289715,-1.28664871,1.60233015

>  <Name>
ligand

>  <RI>
0

>  <Rbt.Current_Directory>
/home/itssahil/PROJECTS/Mol_Feturizer/New_Systems/rnas/4FEP

>  <Rbt.Executable>
rbdock ($Id: //depot/dev/client3/rdock/2013.1/src/exe/rbdock.cxx#4 $)

>  <Rbt.Library>
libRbt.so (2013.1, Build901 2013/11/27)

>  <Rbt.Parameter_File>
/export/apps/rDock/src/rDock_2013.1_src/data/scripts/dock_solv.prm

>  <Rbt.Receptor>
prm/pocket_docking_3.prm

>  <SCORE>
-9.48011

>  <SCORE.INTER>
-9.48011

>  <SCORE.INTER.CONST>
1

>  <SCORE.INTER.POLAR>
0

>  <SCORE.INTER.ROT>
0

>  <SCORE.INTER.SOLV>
20.3922

>  <SCORE.INTER.VDW>
-16.7175

>  <SCORE.INTER.norm>
-0.861828

>  <SCORE.INTRA>
0

>  <SCORE.INTRA.DIHEDRAL>
0

>  <SCORE.INTRA.DIHEDRAL.0>
0

>  <SCORE.INTRA.POLAR>
0

>  <SCORE.INTRA.POLAR.0>
0

>  <SCORE.INTRA.REPUL>
0

>  <SCORE.INTRA.REPUL.0>
0

>  <SCORE.INTRA.SOLV>
0

>  <SCORE.INTRA.SOLV.lig_0>
-48.9558

>  <SCORE.INTRA.VDW>
0

>  <SCORE.INTRA.VDW.0>
0

>  <SCORE.INTRA.norm>
0

>  <SCORE.RESTR>
0

>  <SCORE.RESTR.CAVITY>
0

>  <SCORE.RESTR.norm>
0

>  <SCORE.SYSTEM>
0

>  <SCORE.SYSTEM.CONST>
0

>  <SCORE.SYSTEM.DIHEDRAL>
0

>  <SCORE.SYSTEM.SOLV>
0

>  <SCORE.SYSTEM.norm>
0

>  <SCORE.heavy>
11

>  <SCORE.norm>
-0.861828

>  <RMSD>
2.814

$$$$
ligand
 OpenBabel11021811493D
libRbt.so/2013.1/901 2013/11/27
 11 12  0  0  0  0  0  0  0  0999 V2000
   11.9389   10.8496    8.6473 N   0  0  0  0  0  0  0  0  0  0  0  0
   12.1544   10.1158    7.5436 C   0  0  0  0  0  0  0  0  0  0  0  0
   12.5552    8.7972    7.6784 N   0  0  0  0  0  0  0  0  0  0  0  0
   11.9898   10.6324    6.3148 N   0  0  0  0  0  0  0  0  0  0  0  0
   11.5986   11.9173    6.1484 C   0  0  0  0  0  0  0  0  0  0  0  0
   11.3590   12.7290    7.2859 C   0  0  0  0  0  0  0  0  0  0  0  0
   11.5475   12.1389    8.5710 C   0  0  0  0  0  0  0  0  0  0  0  0
   11.3333   12.8683    9.7251 N   0  0  0  0  0  0  0  0  0  0  0  0
   10.9878   13.9524    6.8340 N   0  0  0  0  0  0  0  0  0  0  0  0
   10.9822   13.9482    5.5309 C   0  0  0  0  0  0  0  0  0  0  0  0
   11.3508   12.7172    5.0625 N   0  0  0  0  0  0  0  0  0  0  0  0
  1  7  2  0  0  0  0
  1  2  1  0  0  0  0
  2  3  1  0  0  0  0
  2  4  2  0  0  0  0
  4  5  1  0  0  0  0
  5  6  2  0  0  0  0
  5 11  1  0  0  0  0
  6  7  1  0  0  0  0
  6  9  1  0  0  0  0
  7  8  1  0  0  0  0
  9 10  1  0  0  0  0
 10 11  2  0  0  0  0
M  END
>  <CHROM.1>
11.62416388,11.85859583,7.22653573,0.43802718,-1.27651731,1.55074948

>  <Name>
ligand

>  <RI>
0

>  <Rbt.Current_Directory>
/home/itssahil/PROJECTS/Mol_Feturizer/New_Systems/rnas/4FEP

>  <Rbt.Executable>
rbdock ($Id: //depot/dev/client3/rdock/2013.1/src/exe/rbdock.cxx#4 $)

>  <Rbt.Library>
libRbt.so (2013.1, Build901 2013/11/27)

>  <Rbt.Parameter_File>
/export/apps/rDock/src/rDock_2013.1_src/data/scripts/dock_solv.prm

>  <Rbt.Receptor>
prm/pocket_docking_4.prm

>  <SCORE>
-9.46333

>  <SCORE.INTER>
-9.46333

>  <SCORE.INTER.CONST>
1

>  <SCORE.INTER.POLAR>
0

>  <SCORE.INTER.ROT>
0

>  <SCORE.INTER.SOLV>
20.0396

>  <SCORE.INTER.VDW>
-16.5888

>  <SCORE.INTER.norm>
-0.860303

>  <SCORE.INTRA>
0

>  <SCORE.INTRA.DIHEDRAL>
0

>  <SCORE.INTRA.DIHEDRAL.0>
0

>  <SCORE.INTRA.POLAR>
0

>  <SCORE.INTRA.POLAR.0>
0

>  <SCORE.INTRA.REPUL>
0

>  <SCORE.INTRA.REPUL.0>
0

>  <SCORE.INTRA.SOLV>
0

>  <SCORE.INTRA.SOLV.lig_0>
-48.9558

>  <SCORE.INTRA.VDW>
0

>  <SCORE.INTRA.VDW.0>
0

>  <SCORE.INTRA.norm>
0

>  <SCORE.RESTR>
0

>  <SCORE.RESTR.CAVITY>
0

>  <SCORE.RESTR.norm>
0

>  <SCORE.SYSTEM>
0

>  <SCORE.SYSTEM.CONST>
0

>  <SCORE.SYSTEM.DIHEDRAL>
0

>  <SCORE.SYSTEM.SOLV>
0

>  <SCORE.SYSTEM.norm>
0

>  <SCORE.heavy>
11

>  <SCORE.norm>
-0.860303

>  <RMSD>
2.815

$$$$
ligand
 OpenBabel11021811493D
libRbt.so/2013.1/901 2013/11/27
 11 12  0  0  0  0  0  0  0  0999 V2000
   11.9162   10.8485    8.6367 N   0  0  0  0  0  0  0  0  0  0  0  0
   12.1159   10.1083    7.5344 C   0  0  0  0  0  0  0  0  0  0  0  0
   12.5066    8.7869    7.6715 N   0  0  0  0  0  0  0  0  0  0  0  0
   11.9452   10.6209    6.3048 N   0  0  0  0  0  0  0  0  0  0  0  0
   11.5635   11.9084    6.1361 C   0  0  0  0  0  0  0  0  0  0  0  0
   11.3406   12.7270    7.2720 C   0  0  0  0  0  0  0  0  0  0  0  0
   11.5351   12.1408    8.5581 C   0  0  0  0  0  0  0  0  0  0  0  0
   11.3371   12.8770    9.7107 N   0  0  0  0  0  0  0  0  0  0  0  0
   10.9760   13.9515    6.8180 N   0  0  0  0  0  0  0  0  0  0  0  0
   10.9591   13.9418    5.5150 C   0  0  0  0  0  0  0  0  0  0  0  0
   11.3132   12.7057    5.0489 N   0  0  0  0  0  0  0  0  0  0  0  0
  1  7  2  0  0  0  0
  1  2  1  0  0  0  0
  2  3  1  0  0  0  0
  2  4  2  0  0  0  0
  4  5  1  0  0  0  0
  5  6  2  0  0  0  0
  5 11  1  0  0  0  0
  6  7  1  0  0  0  0
  6  9  1  0  0  0  0
  7  8  1  0  0  0  0
  9 10  1  0  0  0  0
 10 11  2  0  0  0  0
M  END
>  <CHROM.1>
11.59783729,11.85411517,7.21422972,0.40697286,-1.28472520,1.51665224

>  <Name>
ligand

>  <RI>
0

>  <Rbt.Current_Directory>
/home/itssahil/PROJECTS/Mol_Feturizer/New_Systems/rnas/4FEP

>  <Rbt.Executable>
rbdock ($Id: //depot/dev/client3/rdock/2013.1/src/exe/rbdock.cxx#4 $)

>  <Rbt.Library>
libRbt.so (2013.1, Build901 2013/11/27)

>  <Rbt.Parameter_File>
/export/apps/rDock/src/rDock_2013.1_src/data/scripts/dock_solv.prm

>  <Rbt.Receptor>
prm/pocket_docking_7.prm

>  <SCORE>
-9.43551

>  <SCORE.INTER>
-9.43551

>  <SCORE.INTER.CONST>
1

>  <SCORE.INTER.POLAR>
0

>  <SCORE.INTER.ROT>
0

>  <SCORE.INTER.SOLV>
20.1758

>  <SCORE.INTER.VDW>
-16.6156

>  <SCORE.INTER.norm>
-0.857773

>  <SCORE.INTRA>
0

>  <SCORE.INTRA.DIHEDRAL>
0

>  <SCORE.INTRA.DIHEDRAL.0>
0

>  <SCORE.INTRA.POLAR>
0

>  <SCORE.INTRA.POLAR.0>
0

>  <SCORE.INTRA.REPUL>
0

>  <SCORE.INTRA.REPUL.0>
0

>  <SCORE.INTRA.SOLV>
0

>  <SCORE.INTRA.SOLV.lig_0>
-48.9558

>  <SCORE.INTRA.VDW>
0

>  <SCORE.INTRA.VDW.0>
0

>  <SCORE.INTRA.norm>
0

>  <SCORE.RESTR>
0

>  <SCORE.RESTR.CAVITY>
0

>  <SCORE.RESTR.norm>
0

>  <SCORE.SYSTEM>
0

>  <SCORE.SYSTEM.CONST>
0

>  <SCORE.SYSTEM.DIHEDRAL>
0

>  <SCORE.SYSTEM.SOLV>
0

>  <SCORE.SYSTEM.norm>
0

>  <SCORE.heavy>
11

>  <SCORE.norm>
-0.857773

>  <RMSD>
2.815

$$$$
ligand
 OpenBabel11021811493D
libRbt.so/2013.1/901 2013/11/27
 11 12  0  0  0  0  0  0  0  0999 V2000
   11.9327   10.8419    8.6437 N   0  0  0  0  0  0  0  0  0  0  0  0
   12.1444   10.1081    7.5394 C   0  0  0  0  0  0  0  0  0  0  0  0
   12.5421    8.7884    7.6730 N   0  0  0  0  0  0  0  0  0  0  0  0
   11.9791   10.6256    6.3111 N   0  0  0  0  0  0  0  0  0  0  0  0
   11.5908   11.9115    6.1458 C   0  0  0  0  0  0  0  0  0  0  0  0
   11.3552   12.7234    7.2840 C   0  0  0  0  0  0  0  0  0  0  0  0
   11.5444   12.1323    8.5686 C   0  0  0  0  0  0  0  0  0  0  0  0
   11.3341   12.8618    9.7233 N   0  0  0  0  0  0  0  0  0  0  0  0
   10.9864   13.9478    6.8332 N   0  0  0  0  0  0  0  0  0  0  0  0
   10.9785   13.9442    5.5301 C   0  0  0  0  0  0  0  0  0  0  0  0
   11.3432   12.7124    5.0607 N   0  0  0  0  0  0  0  0  0  0  0  0
  1  7  2  0  0  0  0
  1  2  1  0  0  0  0
  2  3  1  0  0  0  0
  2  4  2  0  0  0  0
  4  5  1  0  0  0  0
  5  6  2  0  0  0  0
  5 11  1  0  0  0  0
  6  7  1  0  0  0  0
  6  9  1  0  0  0  0
  7  8  1  0  0  0  0
  9 10  1  0  0  0  0
 10 11  2  0  0  0  0
M  END
>  <CHROM.1>
11.61808325,11.85231289,7.22389592,0.43195054,-1.27901088,1.54532494

>  <Name>
ligand

>  <RI>
0

>  <Rbt.Current_Directory>
/home/itssahil/PROJECTS/Mol_Feturizer/New_Systems/rnas/4FEP

>  <Rbt.Executable>
rbdock ($Id: //depot/dev/client3/rdock/2013.1/src/exe/rbdock.cxx#4 $)

>  <Rbt.Library>
libRbt.so (2013.1, Build901 2013/11/27)

>  <Rbt.Parameter_File>
/export/apps/rDock/src/rDock_2013.1_src/data/scripts/dock_solv.prm

>  <Rbt.Receptor>
prm/blind_docking_40.prm

>  <SCORE>
-9.46342

>  <SCORE.INTER>
-9.46342

>  <SCORE.INTER.CONST>
1

>  <SCORE.INTER.POLAR>
0

>  <SCORE.INTER.ROT>
0

>  <SCORE.INTER.SOLV>
20.0565

>  <SCORE.INTER.VDW>
-16.5945

>  <SCORE.INTER.norm>
-0.860311

>  <SCORE.INTRA>
0

>  <SCORE.INTRA.DIHEDRAL>
0

>  <SCORE.INTRA.DIHEDRAL.0>
0

>  <SCORE.INTRA.POLAR>
0

>  <SCORE.INTRA.POLAR.0>
0

>  <SCORE.INTRA.REPUL>
0

>  <SCORE.INTRA.REPUL.0>
0

>  <SCORE.INTRA.SOLV>
0

>  <SCORE.INTRA.SOLV.lig_0>
-48.9558

>  <SCORE.INTRA.VDW>
0

>  <SCORE.INTRA.VDW.0>
0

>  <SCORE.INTRA.norm>
0

>  <SCORE.RESTR>
0

>  <SCORE.RESTR.CAVITY>
0

>  <SCORE.RESTR.norm>
0

>  <SCORE.SYSTEM>
0

>  <SCORE.SYSTEM.CONST>
0

>  <SCORE.SYSTEM.DIHEDRAL>
0

>  <SCORE.SYSTEM.SOLV>
0

>  <SCORE.SYSTEM.norm>
0

>  <SCORE.heavy>
11

>  <SCORE.norm>
-0.860311

>  <RMSD>
2.816

$$$$
ligand
 OpenBabel11021811493D
libRbt.so/2013.1/901 2013/11/27
 11 12  0  0  0  0  0  0  0  0999 V2000
   11.9316   10.8323    8.6622 N   0  0  0  0  0  0  0  0  0  0  0  0
   12.1598   10.1039    7.5575 C   0  0  0  0  0  0  0  0  0  0  0  0
   12.5639    8.7861    7.6906 N   0  0  0  0  0  0  0  0  0  0  0  0
   12.0048   10.6249    6.3294 N   0  0  0  0  0  0  0  0  0  0  0  0
   11.6106   11.9092    6.1646 C   0  0  0  0  0  0  0  0  0  0  0  0
   11.3577   12.7154    7.3031 C   0  0  0  0  0  0  0  0  0  0  0  0
   11.5364   12.1206    8.5875 C   0  0  0  0  0  0  0  0  0  0  0  0
   11.3091   12.8445    9.7425 N   0  0  0  0  0  0  0  0  0  0  0  0
   10.9865   13.9393    6.8529 N   0  0  0  0  0  0  0  0  0  0  0  0
   10.9929   13.9405    5.5497 C   0  0  0  0  0  0  0  0  0  0  0  0
   11.3700   12.7126    5.0798 N   0  0  0  0  0  0  0  0  0  0  0  0
  1  7  2  0  0  0  0
  1  2  1  0  0  0  0
  2  3  1  0  0  0  0
  2  4  2  0  0  0  0
  4  5  1  0  0  0  0
  5  6  2  0  0  0  0
  5 11  1  0  0  0  0
  6  7  1  0  0  0  0
  6  9  1  0  0  0  0
  7  8  1  0  0  0  0
  9 10  1  0  0  0  0
 10 11  2  0  0  0  0
M  END
>  <CHROM.1>
11.62644482,11.84609833,7.24269680,0.46971191,-1.27309127,1.58516777

>  <Name>
ligand

>  <RI>
0

>  <Rbt.Current_Directory>
/home/itssahil/PROJECTS/Mol_Feturizer/New_Systems/rnas/4FEP

>  <Rbt.Executable>
rbdock ($Id: //depot/dev/client3/rdock/2013.1/src/exe/rbdock.cxx#4 $)

>  <Rbt.Library>
libRbt.so (2013.1, Build901 2013/11/27)

>  <Rbt.Parameter_File>
/export/apps/rDock/src/rDock_2013.1_src/data/scripts/dock_solv.prm

>  <Rbt.Receptor>
prm/blind_docking_80.prm

>  <SCORE>
-9.46747

>  <SCORE.INTER>
-9.46747

>  <SCORE.INTER.CONST>
1

>  <SCORE.INTER.POLAR>
0

>  <SCORE.INTER.ROT>
0

>  <SCORE.INTER.SOLV>
20.0536

>  <SCORE.INTER.VDW>
-16.5962

>  <SCORE.INTER.norm>
-0.860679

>  <SCORE.INTRA>
0

>  <SCORE.INTRA.DIHEDRAL>
0

>  <SCORE.INTRA.DIHEDRAL.0>
0

>  <SCORE.INTRA.POLAR>
0

>  <SCORE.INTRA.POLAR.0>
0

>  <SCORE.INTRA.REPUL>
0

>  <SCORE.INTRA.REPUL.0>
0

>  <SCORE.INTRA.SOLV>
0

>  <SCORE.INTRA.SOLV.lig_0>
-48.9558

>  <SCORE.INTRA.VDW>
0

>  <SCORE.INTRA.VDW.0>
0

>  <SCORE.INTRA.norm>
0

>  <SCORE.RESTR>
0

>  <SCORE.RESTR.CAVITY>
0

>  <SCORE.RESTR.norm>
0

>  <SCORE.SYSTEM>
0

>  <SCORE.SYSTEM.CONST>
0

>  <SCORE.SYSTEM.DIHEDRAL>
0

>  <SCORE.SYSTEM.SOLV>
0

>  <SCORE.SYSTEM.norm>
0

>  <SCORE.heavy>
11

>  <SCORE.norm>
-0.860679

>  <RMSD>
2.816

$$$$
ligand
 OpenBabel11021811493D
libRbt.so/2013.1/901 2013/11/27
 11 12  0  0  0  0  0  0  0  0999 V2000
   11.9312   10.8302    8.6665 N   0  0  0  0  0  0  0  0  0  0  0  0
   12.1575   10.1007    7.5622 C   0  0  0  0  0  0  0  0  0  0  0  0
   12.5611    8.7828    7.6960 N   0  0  0  0  0  0  0  0  0  0  0  0
   12.0013   10.6207    6.3338 N   0  0  0  0  0  0  0  0  0  0  0  0
   11.6076   11.9050    6.1682 C   0  0  0  0  0  0  0  0  0  0  0  0
   11.3566   12.7124    7.3064 C   0  0  0  0  0  0  0  0  0  0  0  0
   11.5366   12.1187    8.5911 C   0  0  0  0  0  0  0  0  0  0  0  0
   11.3111   12.8438    9.7457 N   0  0  0  0  0  0  0  0  0  0  0  0
   10.9855   13.9360    6.8554 N   0  0  0  0  0  0  0  0  0  0  0  0
   10.9903   13.9360    5.5523 C   0  0  0  0  0  0  0  0  0  0  0  0
   11.3661   12.7076    5.0830 N   0  0  0  0  0  0  0  0  0  0  0  0
  1  7  2  0  0  0  0
  1  2  1  0  0  0  0
  2  3  1  0  0  0  0
  2  4  2  0  0  0  0
  4  5  1  0  0  0  0
  5  6  2  0  0  0  0
  5 11  1  0  0  0  0
  6  7  1  0  0  0  0
  6  9  1  0  0  0  0
  7  8  1  0  0  0  0
  9 10  1  0  0  0  0
 10 11  2  0  0  0  0
M  END
>  <CHROM.1>
11.62478345,11.84288516,7.24640544,0.46542798,-1.27366058,1.58013666

>  <Name>
ligand

>  <RI>
0

>  <Rbt.Current_Directory>
/home/itssahil/PROJECTS/Mol_Feturizer/New_Systems/rnas/4FEP

>  <Rbt.Executable>
rbdock ($Id: //depot/dev/client3/rdock/2013.1/src/exe/rbdock.cxx#4 $)

>  <Rbt.Library>
libRbt.so (2013.1, Build901 2013/11/27)

>  <Rbt.Parameter_File>
/export/apps/rDock/src/rDock_2013.1_src/data/scripts/dock_solv.prm

>  <Rbt.Receptor>
prm/pocket_docking_4.prm

>  <SCORE>
-9.46709

>  <SCORE.INTER>
-9.46709

>  <SCORE.INTER.CONST>
1

>  <SCORE.INTER.POLAR>
0

>  <SCORE.INTER.ROT>
0

>  <SCORE.INTER.SOLV>
20.0748

>  <SCORE.INTER.VDW>
-16.603

>  <SCORE.INTER.norm>
-0.860644

>  <SCORE.INTRA>
0

>  <SCORE.INTRA.DIHEDRAL>
0

>  <SCORE.INTRA.DIHEDRAL.0>
0

>  <SCORE.INTRA.POLAR>
0

>  <SCORE.INTRA.POLAR.0>
0

>  <SCORE.INTRA.REPUL>
0

>  <SCORE.INTRA.REPUL.0>
0

>  <SCORE.INTRA.SOLV>
0

>  <SCORE.INTRA.SOLV.lig_0>
-48.9558

>  <SCORE.INTRA.VDW>
0

>  <SCORE.INTRA.VDW.0>
0

>  <SCORE.INTRA.norm>
0

>  <SCORE.RESTR>
0

>  <SCORE.RESTR.CAVITY>
0

>  <SCORE.RESTR.norm>
0

>  <SCORE.SYSTEM>
0

>  <SCORE.SYSTEM.CONST>
0

>  <SCORE.SYSTEM.DIHEDRAL>
0

>  <SCORE.SYSTEM.SOLV>
0

>  <SCORE.SYSTEM.norm>
0

>  <SCORE.heavy>
11

>  <SCORE.norm>
-0.860644

>  <RMSD>
2.816

$$$$
ligand
 OpenBabel11021811493D
libRbt.so/2013.1/901 2013/11/27
 11 12  0  0  0  0  0  0  0  0999 V2000
   11.9356   10.8328    8.6554 N   0  0  0  0  0  0  0  0  0  0  0  0
   12.1569   10.1070    7.5477 C   0  0  0  0  0  0  0  0  0  0  0  0
   12.5653    8.7900    7.6753 N   0  0  0  0  0  0  0  0  0  0  0  0
   11.9912   10.6298    6.3218 N   0  0  0  0  0  0  0  0  0  0  0  0
   11.5927   11.9134    6.1623 C   0  0  0  0  0  0  0  0  0  0  0  0
   11.3466   12.7170    7.3043 C   0  0  0  0  0  0  0  0  0  0  0  0
   11.5367   12.1203    8.5862 C   0  0  0  0  0  0  0  0  0  0  0  0
   11.3166   12.8416    9.7442 N   0  0  0  0  0  0  0  0  0  0  0  0
   10.9690   13.9408    6.8591 N   0  0  0  0  0  0  0  0  0  0  0  0
   10.9653   13.9443    5.5560 C   0  0  0  0  0  0  0  0  0  0  0  0
   11.3417   12.7182    5.0809 N   0  0  0  0  0  0  0  0  0  0  0  0
  1  7  2  0  0  0  0
  1  2  1  0  0  0  0
  2  3  1  0  0  0  0
  2  4  2  0  0  0  0
  4  5  1  0  0  0  0
  5  6  2  0  0  0  0
  5 11  1  0  0  0  0
  6  7  1  0  0  0  0
  6  9  1  0  0  0  0
  7  8  1  0  0  0  0
  9 10  1  0  0  0  0
 10 11  2  0  0  0  0
M  END
>  <CHROM.1>
11.61698104,11.84844692,7.24018401,0.44339920,-1.27069523,1.56181836

>  <Name>
ligand

>  <RI>
0

>  <Rbt.Current_Directory>
/home/itssahil/PROJECTS/Mol_Feturizer/New_Systems/rnas/4FEP

>  <Rbt.Executable>
rbdock ($Id: //depot/dev/client3/rdock/2013.1/src/exe/rbdock.cxx#4 $)

>  <Rbt.Library>
libRbt.so (2013.1, Build901 2013/11/27)

>  <Rbt.Parameter_File>
/export/apps/rDock/src/rDock_2013.1_src/data/scripts/dock_solv.prm

>  <Rbt.Receptor>
prm/pocket_docking_7.prm

>  <SCORE>
-9.44348

>  <SCORE.INTER>
-9.44348

>  <SCORE.INTER.CONST>
1

>  <SCORE.INTER.POLAR>
0

>  <SCORE.INTER.ROT>
0

>  <SCORE.INTER.SOLV>
20.0084

>  <SCORE.INTER.VDW>
-16.5651

>  <SCORE.INTER.norm>
-0.858498

>  <SCORE.INTRA>
0

>  <SCORE.INTRA.DIHEDRAL>
0

>  <SCORE.INTRA.DIHEDRAL.0>
0

>  <SCORE.INTRA.POLAR>
0

>  <SCORE.INTRA.POLAR.0>
0

>  <SCORE.INTRA.REPUL>
0

>  <SCORE.INTRA.REPUL.0>
0

>  <SCORE.INTRA.SOLV>
0

>  <SCORE.INTRA.SOLV.lig_0>
-48.9558

>  <SCORE.INTRA.VDW>
0

>  <SCORE.INTRA.VDW.0>
0

>  <SCORE.INTRA.norm>
0

>  <SCORE.RESTR>
0

>  <SCORE.RESTR.CAVITY>
0

>  <SCORE.RESTR.norm>
0

>  <SCORE.SYSTEM>
0

>  <SCORE.SYSTEM.CONST>
0

>  <SCORE.SYSTEM.DIHEDRAL>
0

>  <SCORE.SYSTEM.SOLV>
0

>  <SCORE.SYSTEM.norm>
0

>  <SCORE.heavy>
11

>  <SCORE.norm>
-0.858498

>  <RMSD>
2.816

$$$$
ligand
 OpenBabel11021811493D
libRbt.so/2013.1/901 2013/11/27
 11 12  0  0  0  0  0  0  0  0999 V2000
   11.9402   10.8418    8.6459 N   0  0  0  0  0  0  0  0  0  0  0  0
   12.1678   10.1143    7.5405 C   0  0  0  0  0  0  0  0  0  0  0  0
   12.5744    8.7972    7.6723 N   0  0  0  0  0  0  0  0  0  0  0  0
   12.0100   10.6358    6.3129 N   0  0  0  0  0  0  0  0  0  0  0  0
   11.6135   11.9194    6.1493 C   0  0  0  0  0  0  0  0  0  0  0  0
   11.3610   12.7246    7.2887 C   0  0  0  0  0  0  0  0  0  0  0  0
   11.5427   12.1295    8.5725 C   0  0  0  0  0  0  0  0  0  0  0  0
   11.3160   12.8524    9.7282 N   0  0  0  0  0  0  0  0  0  0  0  0
   10.9870   13.9481    6.8396 N   0  0  0  0  0  0  0  0  0  0  0  0
   10.9914   13.9500    5.5365 C   0  0  0  0  0  0  0  0  0  0  0  0
   11.3699   12.7230    5.0653 N   0  0  0  0  0  0  0  0  0  0  0  0
  1  7  2  0  0  0  0
  1  2  1  0  0  0  0
  2  3  1  0  0  0  0
  2  4  2  0  0  0  0
  4  5  1  0  0  0  0
  5  6  2  0  0  0  0
  5 11  1  0  0  0  0
  6  7  1  0  0  0  0
  6  9  1  0  0  0  0
  7  8  1  0  0  0  0
  9 10  1  0  0  0  0
 10 11  2  0  0  0  0
M  END
>  <CHROM.1>
11.63110224,11.85581767,7.22739884,0.46431029,-1.27143645,1.58050996

>  <Name>
ligand

>  <RI>
0

>  <Rbt.Current_Directory>
/home/itssahil/PROJECTS/Mol_Feturizer/New_Systems/rnas/4FEP

>  <Rbt.Executable>
rbdock ($Id: //depot/dev/client3/rdock/2013.1/src/exe/rbdock.cxx#4 $)

>  <Rbt.Library>
libRbt.so (2013.1, Build901 2013/11/27)

>  <Rbt.Parameter_File>
/export/apps/rDock/src/rDock_2013.1_src/data/scripts/dock_solv.prm

>  <Rbt.Receptor>
prm/blind_docking_60.prm

>  <SCORE>
-9.46474

>  <SCORE.INTER>
-9.46474

>  <SCORE.INTER.CONST>
1

>  <SCORE.INTER.POLAR>
0

>  <SCORE.INTER.ROT>
0

>  <SCORE.INTER.SOLV>
19.9608

>  <SCORE.INTER.VDW>
-16.5634

>  <SCORE.INTER.norm>
-0.860431

>  <SCORE.INTRA>
0

>  <SCORE.INTRA.DIHEDRAL>
0

>  <SCORE.INTRA.DIHEDRAL.0>
0

>  <SCORE.INTRA.POLAR>
0

>  <SCORE.INTRA.POLAR.0>
0

>  <SCORE.INTRA.REPUL>
0

>  <SCORE.INTRA.REPUL.0>
0

>  <SCORE.INTRA.SOLV>
0

>  <SCORE.INTRA.SOLV.lig_0>
-48.9558

>  <SCORE.INTRA.VDW>
0

>  <SCORE.INTRA.VDW.0>
0

>  <SCORE.INTRA.norm>
0

>  <SCORE.RESTR>
0

>  <SCORE.RESTR.CAVITY>
0

>  <SCORE.RESTR.norm>
0

>  <SCORE.SYSTEM>
0

>  <SCORE.SYSTEM.CONST>
0

>  <SCORE.SYSTEM.DIHEDRAL>
0

>  <SCORE.SYSTEM.SOLV>
0

>  <SCORE.SYSTEM.norm>
0

>  <SCORE.heavy>
11

>  <SCORE.norm>
-0.860431

>  <RMSD>
2.817

$$$$
ligand
 OpenBabel11021811493D
libRbt.so/2013.1/901 2013/11/27
 11 12  0  0  0  0  0  0  0  0999 V2000
   11.9284   10.8343    8.6555 N   0  0  0  0  0  0  0  0  0  0  0  0
   12.1482   10.1040    7.5505 C   0  0  0  0  0  0  0  0  0  0  0  0
   12.5459    8.7842    7.6829 N   0  0  0  0  0  0  0  0  0  0  0  0
   11.9910   10.6250    6.3226 N   0  0  0  0  0  0  0  0  0  0  0  0
   11.6030   11.9112    6.1585 C   0  0  0  0  0  0  0  0  0  0  0  0
   11.3590   12.7195    7.2975 C   0  0  0  0  0  0  0  0  0  0  0  0
   11.5397   12.1246    8.5816 C   0  0  0  0  0  0  0  0  0  0  0  0
   11.3209   12.8505    9.7370 N   0  0  0  0  0  0  0  0  0  0  0  0
   10.9925   13.9451    6.8479 N   0  0  0  0  0  0  0  0  0  0  0  0
   10.9936   13.9454    5.5448 C   0  0  0  0  0  0  0  0  0  0  0  0
   11.3623   12.7152    5.0741 N   0  0  0  0  0  0  0  0  0  0  0  0
  1  7  2  0  0  0  0
  1  2  1  0  0  0  0
  2  3  1  0  0  0  0
  2  4  2  0  0  0  0
  4  5  1  0  0  0  0
  5  6  2  0  0  0  0
  5 11  1  0  0  0  0
  6  7  1  0  0  0  0
  6  9  1  0  0  0  0
  7  8  1  0  0  0  0
  9 10  1  0  0  0  0
 10 11  2  0  0  0  0
M  END
>  <CHROM.1>
11.62286540,11.84878177,7.23660610,0.45596028,-1.27843443,1.57133438

>  <Name>
ligand

>  <RI>
0

>  <Rbt.Current_Directory>
/home/itssahil/PROJECTS/Mol_Feturizer/New_Systems/rnas/4FEP

>  <Rbt.Executable>
rbdock ($Id: //depot/dev/client3/rdock/2013.1/src/exe/rbdock.cxx#4 $)

>  <Rbt.Library>
libRbt.so (2013.1, Build901 2013/11/27)

>  <Rbt.Parameter_File>
/export/apps/rDock/src/rDock_2013.1_src/data/scripts/dock_solv.prm

>  <Rbt.Receptor>
prm/blind_docking_60.prm

>  <SCORE>
-9.46801

>  <SCORE.INTER>
-9.46801

>  <SCORE.INTER.CONST>
1

>  <SCORE.INTER.POLAR>
0

>  <SCORE.INTER.ROT>
0

>  <SCORE.INTER.SOLV>
20.094

>  <SCORE.INTER.VDW>
-16.61

>  <SCORE.INTER.norm>
-0.860728

>  <SCORE.INTRA>
0

>  <SCORE.INTRA.DIHEDRAL>
0

>  <SCORE.INTRA.DIHEDRAL.0>
0

>  <SCORE.INTRA.POLAR>
0

>  <SCORE.INTRA.POLAR.0>
0

>  <SCORE.INTRA.REPUL>
0

>  <SCORE.INTRA.REPUL.0>
0

>  <SCORE.INTRA.SOLV>
0

>  <SCORE.INTRA.SOLV.lig_0>
-48.9558

>  <SCORE.INTRA.VDW>
0

>  <SCORE.INTRA.VDW.0>
0

>  <SCORE.INTRA.norm>
0

>  <SCORE.RESTR>
0

>  <SCORE.RESTR.CAVITY>
0

>  <SCORE.RESTR.norm>
0

>  <SCORE.SYSTEM>
0

>  <SCORE.SYSTEM.CONST>
0

>  <SCORE.SYSTEM.DIHEDRAL>
0

>  <SCORE.SYSTEM.SOLV>
0

>  <SCORE.SYSTEM.norm>
0

>  <SCORE.heavy>
11

>  <SCORE.norm>
-0.860728

>  <RMSD>
2.817

$$$$
ligand
 OpenBabel11021811493D
libRbt.so/2013.1/901 2013/11/27
 11 12  0  0  0  0  0  0  0  0999 V2000
   11.9297   10.8302    8.6512 N   0  0  0  0  0  0  0  0  0  0  0  0
   12.1499   10.1001    7.5461 C   0  0  0  0  0  0  0  0  0  0  0  0
   12.5521    8.7816    7.6784 N   0  0  0  0  0  0  0  0  0  0  0  0
   11.9888   10.6200    6.3183 N   0  0  0  0  0  0  0  0  0  0  0  0
   11.5963   11.9049    6.1542 C   0  0  0  0  0  0  0  0  0  0  0  0
   11.3518   12.7129    7.2933 C   0  0  0  0  0  0  0  0  0  0  0  0
   11.5367   12.1192    8.5774 C   0  0  0  0  0  0  0  0  0  0  0  0
   11.3177   12.8450    9.7328 N   0  0  0  0  0  0  0  0  0  0  0  0
   10.9805   13.9370    6.8438 N   0  0  0  0  0  0  0  0  0  0  0  0
   10.9792   13.9367    5.5406 C   0  0  0  0  0  0  0  0  0  0  0  0
   11.3511   12.7076    5.0699 N   0  0  0  0  0  0  0  0  0  0  0  0
  1  7  2  0  0  0  0
  1  2  1  0  0  0  0
  2  3  1  0  0  0  0
  2  4  2  0  0  0  0
  4  5  1  0  0  0  0
  5  6  2  0  0  0  0
  5 11  1  0  0  0  0
  6  7  1  0  0  0  0
  6  9  1  0  0  0  0
  7  8  1  0  0  0  0
  9 10  1  0  0  0  0
 10 11  2  0  0  0  0
M  END
>  <CHROM.1>
11.61834572,11.84299879,7.23232406,0.44975058,-1.27518649,1.56490827

>  <Name>
ligand

>  <RI>
0

>  <Rbt.Current_Directory>
/home/itssahil/PROJECTS/Mol_Feturizer/New_Systems/rnas/4FEP

>  <Rbt.Executable>
rbdock ($Id: //depot/dev/client3/rdock/2013.1/src/exe/rbdock.cxx#4 $)

>  <Rbt.Library>
libRbt.so (2013.1, Build901 2013/11/27)

>  <Rbt.Parameter_File>
/export/apps/rDock/src/rDock_2013.1_src/data/scripts/dock_solv.prm

>  <Rbt.Receptor>
prm/blind_docking_80.prm

>  <SCORE>
-9.46716

>  <SCORE.INTER>
-9.46716

>  <SCORE.INTER.CONST>
1

>  <SCORE.INTER.POLAR>
0

>  <SCORE.INTER.ROT>
0

>  <SCORE.INTER.SOLV>
20.0359

>  <SCORE.INTER.VDW>
-16.5901

>  <SCORE.INTER.norm>
-0.860651

>  <SCORE.INTRA>
0

>  <SCORE.INTRA.DIHEDRAL>
0

>  <SCORE.INTRA.DIHEDRAL.0>
0

>  <SCORE.INTRA.POLAR>
0

>  <SCORE.INTRA.POLAR.0>
0

>  <SCORE.INTRA.REPUL>
0

>  <SCORE.INTRA.REPUL.0>
0

>  <SCORE.INTRA.SOLV>
0

>  <SCORE.INTRA.SOLV.lig_0>
-48.9558

>  <SCORE.INTRA.VDW>
0

>  <SCORE.INTRA.VDW.0>
0

>  <SCORE.INTRA.norm>
0

>  <SCORE.RESTR>
0

>  <SCORE.RESTR.CAVITY>
0

>  <SCORE.RESTR.norm>
0

>  <SCORE.SYSTEM>
0

>  <SCORE.SYSTEM.CONST>
0

>  <SCORE.SYSTEM.DIHEDRAL>
0

>  <SCORE.SYSTEM.SOLV>
0

>  <SCORE.SYSTEM.norm>
0

>  <SCORE.heavy>
11

>  <SCORE.norm>
-0.860651

>  <RMSD>
2.817

$$$$
ligand
 OpenBabel11021811493D
libRbt.so/2013.1/901 2013/11/27
 11 12  0  0  0  0  0  0  0  0999 V2000
   11.9374   10.8347    8.6605 N   0  0  0  0  0  0  0  0  0  0  0  0
   12.1713   10.1076    7.5562 C   0  0  0  0  0  0  0  0  0  0  0  0
   12.5792    8.7910    7.6899 N   0  0  0  0  0  0  0  0  0  0  0  0
   12.0187   10.6289    6.3279 N   0  0  0  0  0  0  0  0  0  0  0  0
   11.6211   11.9120    6.1625 C   0  0  0  0  0  0  0  0  0  0  0  0
   11.3620   12.7167    7.3007 C   0  0  0  0  0  0  0  0  0  0  0  0
   11.5384   12.1218    8.5853 C   0  0  0  0  0  0  0  0  0  0  0  0
   11.3051   12.8443    9.7400 N   0  0  0  0  0  0  0  0  0  0  0  0
   10.9885   13.9397    6.8499 N   0  0  0  0  0  0  0  0  0  0  0  0
   10.9991   13.9417    5.5468 C   0  0  0  0  0  0  0  0  0  0  0  0
   11.3815   12.7153    5.0774 N   0  0  0  0  0  0  0  0  0  0  0  0
  1  7  2  0  0  0  0
  1  2  1  0  0  0  0
  2  3  1  0  0  0  0
  2  4  2  0  0  0  0
  4  5  1  0  0  0  0
  5  6  2  0  0  0  0
  5 11  1  0  0  0  0
  6  7  1  0  0  0  0
  6  9  1  0  0  0  0
  7  8  1  0  0  0  0
  9 10  1  0  0  0  0
 10 11  2  0  0  0  0
M  END
>  <CHROM.1>
11.63364757,11.84833469,7.24063309,0.48045291,-1.26992279,1.59599053

>  <Name>
ligand

>  <RI>
0

>  <Rbt.Current_Directory>
/home/itssahil/PROJECTS/Mol_Feturizer/New_Systems/rnas/4FEP

>  <Rbt.Executable>
rbdock ($Id: //depot/dev/client3/rdock/2013.1/src/exe/rbdock.cxx#4 $)

>  <Rbt.Library>
libRbt.so (2013.1, Build901 2013/11/27)

>  <Rbt.Parameter_File>
/export/apps/rDock/src/rDock_2013.1_src/data/scripts/dock_solv.prm

>  <Rbt.Receptor>
prm/pocket_docking_4.prm

>  <SCORE>
-9.46476

>  <SCORE.INTER>
-9.46476

>  <SCORE.INTER.CONST>
1

>  <SCORE.INTER.POLAR>
0

>  <SCORE.INTER.ROT>
0

>  <SCORE.INTER.SOLV>
19.9983

>  <SCORE.INTER.VDW>
-16.5759

>  <SCORE.INTER.norm>
-0.860433

>  <SCORE.INTRA>
0

>  <SCORE.INTRA.DIHEDRAL>
0

>  <SCORE.INTRA.DIHEDRAL.0>
0

>  <SCORE.INTRA.POLAR>
0

>  <SCORE.INTRA.POLAR.0>
0

>  <SCORE.INTRA.REPUL>
0

>  <SCORE.INTRA.REPUL.0>
0

>  <SCORE.INTRA.SOLV>
0

>  <SCORE.INTRA.SOLV.lig_0>
-48.9558

>  <SCORE.INTRA.VDW>
0

>  <SCORE.INTRA.VDW.0>
0

>  <SCORE.INTRA.norm>
0

>  <SCORE.RESTR>
0

>  <SCORE.RESTR.CAVITY>
0

>  <SCORE.RESTR.norm>
0

>  <SCORE.SYSTEM>
0

>  <SCORE.SYSTEM.CONST>
0

>  <SCORE.SYSTEM.DIHEDRAL>
0

>  <SCORE.SYSTEM.SOLV>
0

>  <SCORE.SYSTEM.norm>
0

>  <SCORE.heavy>
11

>  <SCORE.norm>
-0.860433

>  <RMSD>
2.817

$$$$
ligand
 OpenBabel11021811493D
libRbt.so/2013.1/901 2013/11/27
 11 12  0  0  0  0  0  0  0  0999 V2000
   11.9360   10.8323    8.6586 N   0  0  0  0  0  0  0  0  0  0  0  0
   12.1687   10.1060    7.5535 C   0  0  0  0  0  0  0  0  0  0  0  0
   12.5762    8.7892    7.6858 N   0  0  0  0  0  0  0  0  0  0  0  0
   12.0149   10.6282    6.3257 N   0  0  0  0  0  0  0  0  0  0  0  0
   11.6175   11.9115    6.1617 C   0  0  0  0  0  0  0  0  0  0  0  0
   11.3598   12.7155    7.3007 C   0  0  0  0  0  0  0  0  0  0  0  0
   11.5373   12.1196    8.5847 C   0  0  0  0  0  0  0  0  0  0  0  0
   11.3054   12.8414    9.7401 N   0  0  0  0  0  0  0  0  0  0  0  0
   10.9862   13.9390    6.8511 N   0  0  0  0  0  0  0  0  0  0  0  0
   10.9955   13.9419    5.5481 C   0  0  0  0  0  0  0  0  0  0  0  0
   11.3771   12.7157    5.0773 N   0  0  0  0  0  0  0  0  0  0  0  0
  1  7  2  0  0  0  0
  1  2  1  0  0  0  0
  2  3  1  0  0  0  0
  2  4  2  0  0  0  0
  4  5  1  0  0  0  0
  5  6  2  0  0  0  0
  5 11  1  0  0  0  0
  6  7  1  0  0  0  0
  6  9  1  0  0  0  0
  7  8  1  0  0  0  0
  9 10  1  0  0  0  0
 10 11  2  0  0  0  0
M  END
>  <CHROM.1>
11.63115846,11.84708849,7.23973394,0.47708693,-1.27024455,1.59350025

>  <Name>
ligand

>  <RI>
0

>  <Rbt.Current_Directory>
/home/itssahil/PROJECTS/Mol_Feturizer/New_Systems/rnas/4FEP

>  <Rbt.Executable>
rbdock ($Id: //depot/dev/client3/rdock/2013.1/src/exe/rbdock.cxx#4 $)

>  <Rbt.Library>
libRbt.so (2013.1, Build901 2013/11/27)

>  <Rbt.Parameter_File>
/export/apps/rDock/src/rDock_2013.1_src/data/scripts/dock_solv.prm

>  <Rbt.Receptor>
prm/pocket_docking_5.prm

>  <SCORE>
-9.46627

>  <SCORE.INTER>
-9.46627

>  <SCORE.INTER.CONST>
1

>  <SCORE.INTER.POLAR>
0

>  <SCORE.INTER.ROT>
0

>  <SCORE.INTER.SOLV>
19.9975

>  <SCORE.INTER.VDW>
-16.5767

>  <SCORE.INTER.norm>
-0.86057

>  <SCORE.INTRA>
0

>  <SCORE.INTRA.DIHEDRAL>
0

>  <SCORE.INTRA.DIHEDRAL.0>
0

>  <SCORE.INTRA.POLAR>
0

>  <SCORE.INTRA.POLAR.0>
0

>  <SCORE.INTRA.REPUL>
0

>  <SCORE.INTRA.REPUL.0>
0

>  <SCORE.INTRA.SOLV>
0

>  <SCORE.INTRA.SOLV.lig_0>
-48.9558

>  <SCORE.INTRA.VDW>
0

>  <SCORE.INTRA.VDW.0>
0

>  <SCORE.INTRA.norm>
0

>  <SCORE.RESTR>
0

>  <SCORE.RESTR.CAVITY>
0

>  <SCORE.RESTR.norm>
0

>  <SCORE.SYSTEM>
0

>  <SCORE.SYSTEM.CONST>
0

>  <SCORE.SYSTEM.DIHEDRAL>
0

>  <SCORE.SYSTEM.SOLV>
0

>  <SCORE.SYSTEM.norm>
0

>  <SCORE.heavy>
11

>  <SCORE.norm>
-0.86057

>  <RMSD>
2.817

$$$$
ligand
 OpenBabel11021811493D
libRbt.so/2013.1/901 2013/11/27
 11 12  0  0  0  0  0  0  0  0999 V2000
   11.9300   10.8282    8.6558 N   0  0  0  0  0  0  0  0  0  0  0  0
   12.1534   10.0990    7.5507 C   0  0  0  0  0  0  0  0  0  0  0  0
   12.5566    8.7808    7.6830 N   0  0  0  0  0  0  0  0  0  0  0  0
   11.9945   10.6196    6.3229 N   0  0  0  0  0  0  0  0  0  0  0  0
   11.6011   11.9042    6.1588 C   0  0  0  0  0  0  0  0  0  0  0  0
   11.3533   12.7112    7.2979 C   0  0  0  0  0  0  0  0  0  0  0  0
   11.5359   12.1169    8.5820 C   0  0  0  0  0  0  0  0  0  0  0  0
   11.3136   12.8416    9.7374 N   0  0  0  0  0  0  0  0  0  0  0  0
   10.9817   13.9353    6.8483 N   0  0  0  0  0  0  0  0  0  0  0  0
   10.9834   13.9358    5.5452 C   0  0  0  0  0  0  0  0  0  0  0  0
   11.3575   12.7073    5.0745 N   0  0  0  0  0  0  0  0  0  0  0  0
  1  7  2  0  0  0  0
  1  2  1  0  0  0  0
  2  3  1  0  0  0  0
  2  4  2  0  0  0  0
  4  5  1  0  0  0  0
  5  6  2  0  0  0  0
  5 11  1  0  0  0  0
  6  7  1  0  0  0  0
  6  9  1  0  0  0  0
  7  8  1  0  0  0  0
  9 10  1  0  0  0  0
 10 11  2  0  0  0  0
M  END
>  <CHROM.1>
11.62082124,11.84161760,7.23692716,0.45735364,-1.27421431,1.57284259

>  <Name>
ligand

>  <RI>
0

>  <Rbt.Current_Directory>
/home/itssahil/PROJECTS/Mol_Feturizer/New_Systems/rnas/4FEP

>  <Rbt.Executable>
rbdock ($Id: //depot/dev/client3/rdock/2013.1/src/exe/rbdock.cxx#4 $)

>  <Rbt.Library>
libRbt.so (2013.1, Build901 2013/11/27)

>  <Rbt.Parameter_File>
/export/apps/rDock/src/rDock_2013.1_src/data/scripts/dock_solv.prm

>  <Rbt.Receptor>
prm/pocket_docking_5.prm

>  <SCORE>
-9.4685

>  <SCORE.INTER>
-9.4685

>  <SCORE.INTER.CONST>
1

>  <SCORE.INTER.POLAR>
0

>  <SCORE.INTER.ROT>
0

>  <SCORE.INTER.SOLV>
20.0389

>  <SCORE.INTER.VDW>
-16.592

>  <SCORE.INTER.norm>
-0.860773

>  <SCORE.INTRA>
0

>  <SCORE.INTRA.DIHEDRAL>
0

>  <SCORE.INTRA.DIHEDRAL.0>
0

>  <SCORE.INTRA.POLAR>
0

>  <SCORE.INTRA.POLAR.0>
0

>  <SCORE.INTRA.REPUL>
0

>  <SCORE.INTRA.REPUL.0>
0

>  <SCORE.INTRA.SOLV>
0

>  <SCORE.INTRA.SOLV.lig_0>
-48.9558

>  <SCORE.INTRA.VDW>
0

>  <SCORE.INTRA.VDW.0>
0

>  <SCORE.INTRA.norm>
0

>  <SCORE.RESTR>
0

>  <SCORE.RESTR.CAVITY>
0

>  <SCORE.RESTR.norm>
0

>  <SCORE.SYSTEM>
0

>  <SCORE.SYSTEM.CONST>
0

>  <SCORE.SYSTEM.DIHEDRAL>
0

>  <SCORE.SYSTEM.SOLV>
0

>  <SCORE.SYSTEM.norm>
0

>  <SCORE.heavy>
11

>  <SCORE.norm>
-0.860773

>  <RMSD>
2.817

$$$$
ligand
 OpenBabel11021811493D
libRbt.so/2013.1/901 2013/11/27
 11 12  0  0  0  0  0  0  0  0999 V2000
   11.9326   10.8317    8.6470 N   0  0  0  0  0  0  0  0  0  0  0  0
   12.1595   10.1051    7.5409 C   0  0  0  0  0  0  0  0  0  0  0  0
   12.5644    8.7873    7.6714 N   0  0  0  0  0  0  0  0  0  0  0  0
   12.0026   10.6280    6.3138 N   0  0  0  0  0  0  0  0  0  0  0  0
   11.6077   11.9123    6.1515 C   0  0  0  0  0  0  0  0  0  0  0  0
   11.3561   12.7166    7.2917 C   0  0  0  0  0  0  0  0  0  0  0  0
   11.5368   12.1199    8.5749 C   0  0  0  0  0  0  0  0  0  0  0  0
   11.3108   12.8419    9.7314 N   0  0  0  0  0  0  0  0  0  0  0  0
   10.9837   13.9411    6.8438 N   0  0  0  0  0  0  0  0  0  0  0  0
   10.9883   13.9443    5.5407 C   0  0  0  0  0  0  0  0  0  0  0  0
   11.3653   12.7174    5.0683 N   0  0  0  0  0  0  0  0  0  0  0  0
  1  7  2  0  0  0  0
  1  2  1  0  0  0  0
  2  3  1  0  0  0  0
  2  4  2  0  0  0  0
  4  5  1  0  0  0  0
  5  6  2  0  0  0  0
  5 11  1  0  0  0  0
  6  7  1  0  0  0  0
  6  9  1  0  0  0  0
  7  8  1  0  0  0  0
  9 10  1  0  0  0  0
 10 11  2  0  0  0  0
M  END
>  <CHROM.1>
11.62508098,11.84755418,7.22954485,0.46497239,-1.27270098,1.58219072

>  <Name>
ligand

>  <RI>
0

>  <Rbt.Current_Directory>
/home/itssahil/PROJECTS/Mol_Feturizer/New_Systems/rnas/4FEP

>  <Rbt.Executable>
rbdock ($Id: //depot/dev/client3/rdock/2013.1/src/exe/rbdock.cxx#4 $)

>  <Rbt.Library>
libRbt.so (2013.1, Build901 2013/11/27)

>  <Rbt.Parameter_File>
/export/apps/rDock/src/rDock_2013.1_src/data/scripts/dock_solv.prm

>  <Rbt.Receptor>
prm/blind_docking_40.prm

>  <SCORE>
-9.46678

>  <SCORE.INTER>
-9.46678

>  <SCORE.INTER.CONST>
1

>  <SCORE.INTER.POLAR>
0

>  <SCORE.INTER.ROT>
0

>  <SCORE.INTER.SOLV>
19.9859

>  <SCORE.INTER.VDW>
-16.5732

>  <SCORE.INTER.norm>
-0.860616

>  <SCORE.INTRA>
0

>  <SCORE.INTRA.DIHEDRAL>
0

>  <SCORE.INTRA.DIHEDRAL.0>
0

>  <SCORE.INTRA.POLAR>
0

>  <SCORE.INTRA.POLAR.0>
0

>  <SCORE.INTRA.REPUL>
0

>  <SCORE.INTRA.REPUL.0>
0

>  <SCORE.INTRA.SOLV>
0

>  <SCORE.INTRA.SOLV.lig_0>
-48.9558

>  <SCORE.INTRA.VDW>
0

>  <SCORE.INTRA.VDW.0>
0

>  <SCORE.INTRA.norm>
0

>  <SCORE.RESTR>
0

>  <SCORE.RESTR.CAVITY>
0

>  <SCORE.RESTR.norm>
0

>  <SCORE.SYSTEM>
0

>  <SCORE.SYSTEM.CONST>
0

>  <SCORE.SYSTEM.DIHEDRAL>
0

>  <SCORE.SYSTEM.SOLV>
0

>  <SCORE.SYSTEM.norm>
0

>  <SCORE.heavy>
11

>  <SCORE.norm>
-0.860616

>  <RMSD>
2.818

$$$$
ligand
 OpenBabel11021811493D
libRbt.so/2013.1/901 2013/11/27
 11 12  0  0  0  0  0  0  0  0999 V2000
   11.9307   10.8298    8.6489 N   0  0  0  0  0  0  0  0  0  0  0  0
   12.1536   10.1027    7.5423 C   0  0  0  0  0  0  0  0  0  0  0  0
   12.5557    8.7840    7.6719 N   0  0  0  0  0  0  0  0  0  0  0  0
   11.9953   10.6260    6.3155 N   0  0  0  0  0  0  0  0  0  0  0  0
   11.6030   11.9112    6.1541 C   0  0  0  0  0  0  0  0  0  0  0  0
   11.3556   12.7161    7.2947 C   0  0  0  0  0  0  0  0  0  0  0  0
   11.5376   12.1190    8.5776 C   0  0  0  0  0  0  0  0  0  0  0  0
   11.3157   12.8415    9.7345 N   0  0  0  0  0  0  0  0  0  0  0  0
   10.9852   13.9414    6.8477 N   0  0  0  0  0  0  0  0  0  0  0  0
   10.9870   13.9447    5.5445 C   0  0  0  0  0  0  0  0  0  0  0  0
   11.3602   12.7168    5.0713 N   0  0  0  0  0  0  0  0  0  0  0  0
  1  7  2  0  0  0  0
  1  2  1  0  0  0  0
  2  3  1  0  0  0  0
  2  4  2  0  0  0  0
  4  5  1  0  0  0  0
  5  6  2  0  0  0  0
  5 11  1  0  0  0  0
  6  7  1  0  0  0  0
  6  9  1  0  0  0  0
  7  8  1  0  0  0  0
  9 10  1  0  0  0  0
 10 11  2  0  0  0  0
M  END
>  <CHROM.1>
11.62250762,11.84642736,7.23201448,0.45787903,-1.27501701,1.57541205

>  <Name>
ligand

>  <RI>
0

>  <Rbt.Current_Directory>
/home/itssahil/PROJECTS/Mol_Feturizer/New_Systems/rnas/4FEP

>  <Rbt.Executable>
rbdock ($Id: //depot/dev/client3/rdock/2013.1/src/exe/rbdock.cxx#4 $)

>  <Rbt.Library>
libRbt.so (2013.1, Build901 2013/11/27)

>  <Rbt.Parameter_File>
/export/apps/rDock/src/rDock_2013.1_src/data/scripts/dock_solv.prm

>  <Rbt.Receptor>
prm/blind_docking_60.prm

>  <SCORE>
-9.46998

>  <SCORE.INTER>
-9.46998

>  <SCORE.INTER.CONST>
1

>  <SCORE.INTER.POLAR>
0

>  <SCORE.INTER.ROT>
0

>  <SCORE.INTER.SOLV>
20.0199

>  <SCORE.INTER.VDW>
-16.5866

>  <SCORE.INTER.norm>
-0.860908

>  <SCORE.INTRA>
0

>  <SCORE.INTRA.DIHEDRAL>
0

>  <SCORE.INTRA.DIHEDRAL.0>
0

>  <SCORE.INTRA.POLAR>
0

>  <SCORE.INTRA.POLAR.0>
0

>  <SCORE.INTRA.REPUL>
0

>  <SCORE.INTRA.REPUL.0>
0

>  <SCORE.INTRA.SOLV>
0

>  <SCORE.INTRA.SOLV.lig_0>
-48.9558

>  <SCORE.INTRA.VDW>
0

>  <SCORE.INTRA.VDW.0>
0

>  <SCORE.INTRA.norm>
0

>  <SCORE.RESTR>
0

>  <SCORE.RESTR.CAVITY>
0

>  <SCORE.RESTR.norm>
0

>  <SCORE.SYSTEM>
0

>  <SCORE.SYSTEM.CONST>
0

>  <SCORE.SYSTEM.DIHEDRAL>
0

>  <SCORE.SYSTEM.SOLV>
0

>  <SCORE.SYSTEM.norm>
0

>  <SCORE.heavy>
11

>  <SCORE.norm>
-0.860908

>  <RMSD>
2.818

$$$$
ligand
 OpenBabel11021811493D
libRbt.so/2013.1/901 2013/11/27
 11 12  0  0  0  0  0  0  0  0999 V2000
   11.9299   10.8292    8.6511 N   0  0  0  0  0  0  0  0  0  0  0  0
   12.1524   10.1018    7.5447 C   0  0  0  0  0  0  0  0  0  0  0  0
   12.5541    8.7830    7.6746 N   0  0  0  0  0  0  0  0  0  0  0  0
   11.9939   10.6248    6.3178 N   0  0  0  0  0  0  0  0  0  0  0  0
   11.6020   11.9101    6.1562 C   0  0  0  0  0  0  0  0  0  0  0  0
   11.3551   12.7154    7.2967 C   0  0  0  0  0  0  0  0  0  0  0  0
   11.5373   12.1185    8.5797 C   0  0  0  0  0  0  0  0  0  0  0  0
   11.3159   12.8414    9.7364 N   0  0  0  0  0  0  0  0  0  0  0  0
   10.9849   13.9407    6.8494 N   0  0  0  0  0  0  0  0  0  0  0  0
   10.9865   13.9436    5.5463 C   0  0  0  0  0  0  0  0  0  0  0  0
   11.3591   12.7156    5.0733 N   0  0  0  0  0  0  0  0  0  0  0  0
  1  7  2  0  0  0  0
  1  2  1  0  0  0  0
  2  3  1  0  0  0  0
  2  4  2  0  0  0  0
  4  5  1  0  0  0  0
  5  6  2  0  0  0  0
  5 11  1  0  0  0  0
  6  7  1  0  0  0  0
  6  9  1  0  0  0  0
  7  8  1  0  0  0  0
  9 10  1  0  0  0  0
 10 11  2  0  0  0  0
M  END
>  <CHROM.1>
11.62171760,11.84559618,7.23412727,0.45700627,-1.27532117,1.57433007

>  <Name>
ligand

>  <RI>
0

>  <Rbt.Current_Directory>
/home/itssahil/PROJECTS/Mol_Feturizer/New_Systems/rnas/4FEP

>  <Rbt.Executable>
rbdock ($Id: //depot/dev/client3/rdock/2013.1/src/exe/rbdock.cxx#4 $)

>  <Rbt.Library>
libRbt.so (2013.1, Build901 2013/11/27)

>  <Rbt.Parameter_File>
/export/apps/rDock/src/rDock_2013.1_src/data/scripts/dock_solv.prm

>  <Rbt.Receptor>
prm/pocket_docking_4.prm

>  <SCORE>
-9.47046

>  <SCORE.INTER>
-9.47046

>  <SCORE.INTER.CONST>
1

>  <SCORE.INTER.POLAR>
0

>  <SCORE.INTER.ROT>
0

>  <SCORE.INTER.SOLV>
20.0341

>  <SCORE.INTER.VDW>
-16.5917

>  <SCORE.INTER.norm>
-0.860951

>  <SCORE.INTRA>
0

>  <SCORE.INTRA.DIHEDRAL>
0

>  <SCORE.INTRA.DIHEDRAL.0>
0

>  <SCORE.INTRA.POLAR>
0

>  <SCORE.INTRA.POLAR.0>
0

>  <SCORE.INTRA.REPUL>
0

>  <SCORE.INTRA.REPUL.0>
0

>  <SCORE.INTRA.SOLV>
0

>  <SCORE.INTRA.SOLV.lig_0>
-48.9558

>  <SCORE.INTRA.VDW>
0

>  <SCORE.INTRA.VDW.0>
0

>  <SCORE.INTRA.norm>
0

>  <SCORE.RESTR>
0

>  <SCORE.RESTR.CAVITY>
0

>  <SCORE.RESTR.norm>
0

>  <SCORE.SYSTEM>
0

>  <SCORE.SYSTEM.CONST>
0

>  <SCORE.SYSTEM.DIHEDRAL>
0

>  <SCORE.SYSTEM.SOLV>
0

>  <SCORE.SYSTEM.norm>
0

>  <SCORE.heavy>
11

>  <SCORE.norm>
-0.860951

>  <RMSD>
2.818

$$$$
ligand
 OpenBabel11021811493D
libRbt.so/2013.1/901 2013/11/27
 11 12  0  0  0  0  0  0  0  0999 V2000
   11.9289   10.8322    8.6516 N   0  0  0  0  0  0  0  0  0  0  0  0
   12.1532   10.1047    7.5455 C   0  0  0  0  0  0  0  0  0  0  0  0
   12.5548    8.7859    7.6762 N   0  0  0  0  0  0  0  0  0  0  0  0
   11.9966   10.6275    6.3184 N   0  0  0  0  0  0  0  0  0  0  0  0
   11.6049   11.9128    6.1560 C   0  0  0  0  0  0  0  0  0  0  0  0
   11.3561   12.7182    7.2960 C   0  0  0  0  0  0  0  0  0  0  0  0
   11.5363   12.1214    8.5793 C   0  0  0  0  0  0  0  0  0  0  0  0
   11.3131   12.8444    9.7357 N   0  0  0  0  0  0  0  0  0  0  0  0
   10.9866   13.9434    6.8480 N   0  0  0  0  0  0  0  0  0  0  0  0
   10.9901   13.9462    5.5449 C   0  0  0  0  0  0  0  0  0  0  0  0
   11.3637   12.7181    5.0726 N   0  0  0  0  0  0  0  0  0  0  0  0
  1  7  2  0  0  0  0
  1  2  1  0  0  0  0
  2  3  1  0  0  0  0
  2  4  2  0  0  0  0
  4  5  1  0  0  0  0
  5  6  2  0  0  0  0
  5 11  1  0  0  0  0
  6  7  1  0  0  0  0
  6  9  1  0  0  0  0
  7  8  1  0  0  0  0
  9 10  1  0  0  0  0
 10 11  2  0  0  0  0
M  END
>  <CHROM.1>
11.62288843,11.84839114,7.23396564,0.46238740,-1.27524645,1.57937891

>  <Name>
ligand

>  <RI>
0

>  <Rbt.Current_Directory>
/home/itssahil/PROJECTS/Mol_Feturizer/New_Systems/rnas/4FEP

>  <Rbt.Executable>
rbdock ($Id: //depot/dev/client3/rdock/2013.1/src/exe/rbdock.cxx#4 $)

>  <Rbt.Library>
libRbt.so (2013.1, Build901 2013/11/27)

>  <Rbt.Parameter_File>
/export/apps/rDock/src/rDock_2013.1_src/data/scripts/dock_solv.prm

>  <Rbt.Receptor>
prm/pocket_docking_6.prm

>  <SCORE>
-9.46876

>  <SCORE.INTER>
-9.46876

>  <SCORE.INTER.CONST>
1

>  <SCORE.INTER.POLAR>
0

>  <SCORE.INTER.ROT>
0

>  <SCORE.INTER.SOLV>
20.0421

>  <SCORE.INTER.VDW>
-16.5932

>  <SCORE.INTER.norm>
-0.860796

>  <SCORE.INTRA>
0

>  <SCORE.INTRA.DIHEDRAL>
0

>  <SCORE.INTRA.DIHEDRAL.0>
0

>  <SCORE.INTRA.POLAR>
0

>  <SCORE.INTRA.POLAR.0>
0

>  <SCORE.INTRA.REPUL>
0

>  <SCORE.INTRA.REPUL.0>
0

>  <SCORE.INTRA.SOLV>
0

>  <SCORE.INTRA.SOLV.lig_0>
-48.9558

>  <SCORE.INTRA.VDW>
0

>  <SCORE.INTRA.VDW.0>
0

>  <SCORE.INTRA.norm>
0

>  <SCORE.RESTR>
0

>  <SCORE.RESTR.CAVITY>
0

>  <SCORE.RESTR.norm>
0

>  <SCORE.SYSTEM>
0

>  <SCORE.SYSTEM.CONST>
0

>  <SCORE.SYSTEM.DIHEDRAL>
0

>  <SCORE.SYSTEM.SOLV>
0

>  <SCORE.SYSTEM.norm>
0

>  <SCORE.heavy>
11

>  <SCORE.norm>
-0.860796

>  <RMSD>
2.818

$$$$
ligand
 OpenBabel11021811493D
libRbt.so/2013.1/901 2013/11/27
 11 12  0  0  0  0  0  0  0  0999 V2000
   11.9153   10.8242    8.6557 N   0  0  0  0  0  0  0  0  0  0  0  0
   12.1499   10.0983    7.5508 C   0  0  0  0  0  0  0  0  0  0  0  0
   12.5521    8.7799    7.6833 N   0  0  0  0  0  0  0  0  0  0  0  0
   12.0032   10.6224    6.3230 N   0  0  0  0  0  0  0  0  0  0  0  0
   11.6112   11.9074    6.1587 C   0  0  0  0  0  0  0  0  0  0  0  0
   11.3516   12.7110    7.2976 C   0  0  0  0  0  0  0  0  0  0  0  0
   11.5216   12.1130    8.5817 C   0  0  0  0  0  0  0  0  0  0  0  0
   11.2875   12.8343    9.7369 N   0  0  0  0  0  0  0  0  0  0  0  0
   10.9843   13.9363    6.8479 N   0  0  0  0  0  0  0  0  0  0  0  0
   10.9990   13.9407    5.5449 C   0  0  0  0  0  0  0  0  0  0  0  0
   11.3782   12.7137    5.0744 N   0  0  0  0  0  0  0  0  0  0  0  0
  1  7  2  0  0  0  0
  1  2  1  0  0  0  0
  2  3  1  0  0  0  0
  2  4  2  0  0  0  0
  4  5  1  0  0  0  0
  5  6  2  0  0  0  0
  5 11  1  0  0  0  0
  6  7  1  0  0  0  0
  6  9  1  0  0  0  0
  7  8  1  0  0  0  0
  9 10  1  0  0  0  0
 10 11  2  0  0  0  0
M  END
>  <CHROM.1>
11.62005668,11.84170185,7.23677495,0.49157133,-1.27375137,1.60848705

>  <Name>
ligand

>  <RI>
0

>  <Rbt.Current_Directory>
/home/itssahil/PROJECTS/Mol_Feturizer/New_Systems/rnas/4FEP

>  <Rbt.Executable>
rbdock ($Id: //depot/dev/client3/rdock/2013.1/src/exe/rbdock.cxx#4 $)

>  <Rbt.Library>
libRbt.so (2013.1, Build901 2013/11/27)

>  <Rbt.Parameter_File>
/export/apps/rDock/src/rDock_2013.1_src/data/scripts/dock_solv.prm

>  <Rbt.Receptor>
prm/pocket_docking_7.prm

>  <SCORE>
-9.45503

>  <SCORE.INTER>
-9.45503

>  <SCORE.INTER.CONST>
1

>  <SCORE.INTER.POLAR>
0

>  <SCORE.INTER.ROT>
0

>  <SCORE.INTER.SOLV>
20.0788

>  <SCORE.INTER.VDW>
-16.5963

>  <SCORE.INTER.norm>
-0.859548

>  <SCORE.INTRA>
0

>  <SCORE.INTRA.DIHEDRAL>
0

>  <SCORE.INTRA.DIHEDRAL.0>
0

>  <SCORE.INTRA.POLAR>
0

>  <SCORE.INTRA.POLAR.0>
0

>  <SCORE.INTRA.REPUL>
0

>  <SCORE.INTRA.REPUL.0>
0

>  <SCORE.INTRA.SOLV>
0

>  <SCORE.INTRA.SOLV.lig_0>
-48.9558

>  <SCORE.INTRA.VDW>
0

>  <SCORE.INTRA.VDW.0>
0

>  <SCORE.INTRA.norm>
0

>  <SCORE.RESTR>
0

>  <SCORE.RESTR.CAVITY>
0

>  <SCORE.RESTR.norm>
0

>  <SCORE.SYSTEM>
0

>  <SCORE.SYSTEM.CONST>
0

>  <SCORE.SYSTEM.DIHEDRAL>
0

>  <SCORE.SYSTEM.SOLV>
0

>  <SCORE.SYSTEM.norm>
0

>  <SCORE.heavy>
11

>  <SCORE.norm>
-0.859548

>  <RMSD>
2.818

$$$$
ligand
 OpenBabel11021811493D
libRbt.so/2013.1/901 2013/11/27
 11 12  0  0  0  0  0  0  0  0999 V2000
   11.9355   10.8320    8.6543 N   0  0  0  0  0  0  0  0  0  0  0  0
   12.1684   10.1063    7.5489 C   0  0  0  0  0  0  0  0  0  0  0  0
   12.5759    8.7894    7.6806 N   0  0  0  0  0  0  0  0  0  0  0  0
   12.0151   10.6292    6.3214 N   0  0  0  0  0  0  0  0  0  0  0  0
   11.6178   11.9127    6.1579 C   0  0  0  0  0  0  0  0  0  0  0  0
   11.3598   12.7160    7.2973 C   0  0  0  0  0  0  0  0  0  0  0  0
   11.5369   12.1193    8.5811 C   0  0  0  0  0  0  0  0  0  0  0  0
   11.3046   12.8404    9.7368 N   0  0  0  0  0  0  0  0  0  0  0  0
   10.9863   13.9397    6.8484 N   0  0  0  0  0  0  0  0  0  0  0  0
   10.9960   13.9434    5.5453 C   0  0  0  0  0  0  0  0  0  0  0  0
   11.3778   12.7175    5.0740 N   0  0  0  0  0  0  0  0  0  0  0  0
  1  7  2  0  0  0  0
  1  2  1  0  0  0  0
  2  3  1  0  0  0  0
  2  4  2  0  0  0  0
  4  5  1  0  0  0  0
  5  6  2  0  0  0  0
  5 11  1  0  0  0  0
  6  7  1  0  0  0  0
  6  9  1  0  0  0  0
  7  8  1  0  0  0  0
  9 10  1  0  0  0  0
 10 11  2  0  0  0  0
M  END
>  <CHROM.1>
11.63109995,11.84759980,7.23597294,0.47810444,-1.27026790,1.59504908

>  <Name>
ligand

>  <RI>
0

>  <Rbt.Current_Directory>
/home/itssahil/PROJECTS/Mol_Feturizer/New_Systems/rnas/4FEP

>  <Rbt.Executable>
rbdock ($Id: //depot/dev/client3/rdock/2013.1/src/exe/rbdock.cxx#4 $)

>  <Rbt.Library>
libRbt.so (2013.1, Build901 2013/11/27)

>  <Rbt.Parameter_File>
/export/apps/rDock/src/rDock_2013.1_src/data/scripts/dock_solv.prm

>  <Rbt.Receptor>
prm/pocket_docking_8.prm

>  <SCORE>
-9.4651

>  <SCORE.INTER>
-9.4651

>  <SCORE.INTER.CONST>
1

>  <SCORE.INTER.POLAR>
0

>  <SCORE.INTER.ROT>
0

>  <SCORE.INTER.SOLV>
19.982

>  <SCORE.INTER.VDW>
-16.5707

>  <SCORE.INTER.norm>
-0.860463

>  <SCORE.INTRA>
0

>  <SCORE.INTRA.DIHEDRAL>
0

>  <SCORE.INTRA.DIHEDRAL.0>
0

>  <SCORE.INTRA.POLAR>
0

>  <SCORE.INTRA.POLAR.0>
0

>  <SCORE.INTRA.REPUL>
0

>  <SCORE.INTRA.REPUL.0>
0

>  <SCORE.INTRA.SOLV>
0

>  <SCORE.INTRA.SOLV.lig_0>
-48.9558

>  <SCORE.INTRA.VDW>
0

>  <SCORE.INTRA.VDW.0>
0

>  <SCORE.INTRA.norm>
0

>  <SCORE.RESTR>
0

>  <SCORE.RESTR.CAVITY>
0

>  <SCORE.RESTR.norm>
0

>  <SCORE.SYSTEM>
0

>  <SCORE.SYSTEM.CONST>
0

>  <SCORE.SYSTEM.DIHEDRAL>
0

>  <SCORE.SYSTEM.SOLV>
0

>  <SCORE.SYSTEM.norm>
0

>  <SCORE.heavy>
11

>  <SCORE.norm>
-0.860463

>  <RMSD>
2.818

$$$$
ligand
 OpenBabel11021811493D
libRbt.so/2013.1/901 2013/11/27
 11 12  0  0  0  0  0  0  0  0999 V2000
   11.9214   10.8275    8.6649 N   0  0  0  0  0  0  0  0  0  0  0  0
   12.1465   10.1049    7.5558 C   0  0  0  0  0  0  0  0  0  0  0  0
   12.5405    8.7832    7.6809 N   0  0  0  0  0  0  0  0  0  0  0  0
   11.9981   10.6353    6.3309 N   0  0  0  0  0  0  0  0  0  0  0  0
   11.6140   11.9236    6.1739 C   0  0  0  0  0  0  0  0  0  0  0  0
   11.3646   12.7240    7.3173 C   0  0  0  0  0  0  0  0  0  0  0  0
   11.5360   12.1192    8.5981 C   0  0  0  0  0  0  0  0  0  0  0  0
   11.3116   12.8371    9.7574 N   0  0  0  0  0  0  0  0  0  0  0  0
   11.0036   13.9536    6.8745 N   0  0  0  0  0  0  0  0  0  0  0  0
   11.0129   13.9636    5.5714 C   0  0  0  0  0  0  0  0  0  0  0  0
   11.3818   12.7361    5.0940 N   0  0  0  0  0  0  0  0  0  0  0  0
  1  7  2  0  0  0  0
  1  2  1  0  0  0  0
  2  3  1  0  0  0  0
  2  4  2  0  0  0  0
  4  5  1  0  0  0  0
  5  6  2  0  0  0  0
  5 11  1  0  0  0  0
  6  7  1  0  0  0  0
  6  9  1  0  0  0  0
  7  8  1  0  0  0  0
  9 10  1  0  0  0  0
 10 11  2  0  0  0  0
M  END
>  <CHROM.1>
11.62698634,11.85313031,7.25160558,0.47776217,-1.28055368,1.59959987

>  <Name>
ligand

>  <RI>
0

>  <Rbt.Current_Directory>
/home/itssahil/PROJECTS/Mol_Feturizer/New_Systems/rnas/4FEP

>  <Rbt.Executable>
rbdock ($Id: //depot/dev/client3/rdock/2013.1/src/exe/rbdock.cxx#4 $)

>  <Rbt.Library>
libRbt.so (2013.1, Build901 2013/11/27)

>  <Rbt.Parameter_File>
/export/apps/rDock/src/rDock_2013.1_src/data/scripts/dock_solv.prm

>  <Rbt.Receptor>
prm/blind_docking_60.prm

>  <SCORE>
-9.43033

>  <SCORE.INTER>
-9.43033

>  <SCORE.INTER.CONST>
1

>  <SCORE.INTER.POLAR>
0

>  <SCORE.INTER.ROT>
0

>  <SCORE.INTER.SOLV>
20.1656

>  <SCORE.INTER.VDW>
-16.6088

>  <SCORE.INTER.norm>
-0.857303

>  <SCORE.INTRA>
0

>  <SCORE.INTRA.DIHEDRAL>
0

>  <SCORE.INTRA.DIHEDRAL.0>
0

>  <SCORE.INTRA.POLAR>
0

>  <SCORE.INTRA.POLAR.0>
0

>  <SCORE.INTRA.REPUL>
0

>  <SCORE.INTRA.REPUL.0>
0

>  <SCORE.INTRA.SOLV>
0

>  <SCORE.INTRA.SOLV.lig_0>
-48.9558

>  <SCORE.INTRA.VDW>
0

>  <SCORE.INTRA.VDW.0>
0

>  <SCORE.INTRA.norm>
0

>  <SCORE.RESTR>
0

>  <SCORE.RESTR.CAVITY>
0

>  <SCORE.RESTR.norm>
0

>  <SCORE.SYSTEM>
0

>  <SCORE.SYSTEM.CONST>
0

>  <SCORE.SYSTEM.DIHEDRAL>
0

>  <SCORE.SYSTEM.SOLV>
0

>  <SCORE.SYSTEM.norm>
0

>  <SCORE.heavy>
11

>  <SCORE.norm>
-0.857303

>  <RMSD>
2.819

$$$$
ligand
 OpenBabel11021811493D
libRbt.so/2013.1/901 2013/11/27
 11 12  0  0  0  0  0  0  0  0999 V2000
   11.8786   10.8853    8.5444 N   0  0  0  0  0  0  0  0  0  0  0  0
   12.1269   10.1508    7.4481 C   0  0  0  0  0  0  0  0  0  0  0  0
   12.5305    8.8344    7.5958 N   0  0  0  0  0  0  0  0  0  0  0  0
   11.9927   10.6646    6.2145 N   0  0  0  0  0  0  0  0  0  0  0  0
   11.5998   11.9473    6.0353 C   0  0  0  0  0  0  0  0  0  0  0  0
   11.3260   12.7597    7.1646 C   0  0  0  0  0  0  0  0  0  0  0  0
   11.4830   12.1725    8.4554 C   0  0  0  0  0  0  0  0  0  0  0  0
   11.2347   12.9028    9.6020 N   0  0  0  0  0  0  0  0  0  0  0  0
   10.9610   13.9804    6.7009 N   0  0  0  0  0  0  0  0  0  0  0  0
   10.9902   13.9741    5.3981 C   0  0  0  0  0  0  0  0  0  0  0  0
   11.3771   12.7441    4.9419 N   0  0  0  0  0  0  0  0  0  0  0  0
  1  7  2  0  0  0  0
  1  2  1  0  0  0  0
  2  3  1  0  0  0  0
  2  4  2  0  0  0  0
  4  5  1  0  0  0  0
  5  6  2  0  0  0  0
  5 11  1  0  0  0  0
  6  7  1  0  0  0  0
  6  9  1  0  0  0  0
  7  8  1  0  0  0  0
  9 10  1  0  0  0  0
 10 11  2  0  0  0  0
M  END
>  <CHROM.1>
11.59688718,11.89044624,7.11391833,0.52869973,-1.27101795,1.63576585

>  <Name>
ligand

>  <RI>
0

>  <Rbt.Current_Directory>
/home/itssahil/PROJECTS/Mol_Feturizer/New_Systems/rnas/4FEP

>  <Rbt.Executable>
rbdock ($Id: //depot/dev/client3/rdock/2013.1/src/exe/rbdock.cxx#4 $)

>  <Rbt.Library>
libRbt.so (2013.1, Build901 2013/11/27)

>  <Rbt.Parameter_File>
/export/apps/rDock/src/rDock_2013.1_src/data/scripts/dock_solv.prm

>  <Rbt.Receptor>
prm/blind_docking_20.prm

>  <SCORE>
-8.59623

>  <SCORE.INTER>
-9.25045

>  <SCORE.INTER.CONST>
1

>  <SCORE.INTER.POLAR>
0

>  <SCORE.INTER.ROT>
0

>  <SCORE.INTER.SOLV>
19.8191

>  <SCORE.INTER.VDW>
-16.3733

>  <SCORE.INTER.norm>
-0.84095

>  <SCORE.INTRA>
0

>  <SCORE.INTRA.DIHEDRAL>
0

>  <SCORE.INTRA.DIHEDRAL.0>
0

>  <SCORE.INTRA.POLAR>
0

>  <SCORE.INTRA.POLAR.0>
0

>  <SCORE.INTRA.REPUL>
0

>  <SCORE.INTRA.REPUL.0>
0

>  <SCORE.INTRA.SOLV>
0

>  <SCORE.INTRA.SOLV.lig_0>
-48.9558

>  <SCORE.INTRA.VDW>
0

>  <SCORE.INTRA.VDW.0>
0

>  <SCORE.INTRA.norm>
0

>  <SCORE.RESTR>
0.654219

>  <SCORE.RESTR.CAVITY>
0.654219

>  <SCORE.RESTR.norm>
0.0594745

>  <SCORE.SYSTEM>
0

>  <SCORE.SYSTEM.CONST>
0

>  <SCORE.SYSTEM.DIHEDRAL>
0

>  <SCORE.SYSTEM.SOLV>
0

>  <SCORE.SYSTEM.norm>
0

>  <SCORE.heavy>
11

>  <SCORE.norm>
-0.781476

>  <RMSD>
2.826

$$$$
ligand
 OpenBabel11021811493D
libRbt.so/2013.1/901 2013/11/27
 11 12  0  0  0  0  0  0  0  0999 V2000
   11.9464   10.9014    8.4919 N   0  0  0  0  0  0  0  0  0  0  0  0
   12.2000   10.1742    7.3920 C   0  0  0  0  0  0  0  0  0  0  0  0
   12.6252    8.8640    7.5335 N   0  0  0  0  0  0  0  0  0  0  0  0
   12.0505   10.6894    6.1608 N   0  0  0  0  0  0  0  0  0  0  0  0
   11.6362   11.9662    5.9878 C   0  0  0  0  0  0  0  0  0  0  0  0
   11.3561   12.7708    7.1211 C   0  0  0  0  0  0  0  0  0  0  0  0
   11.5299   12.1824    8.4092 C   0  0  0  0  0  0  0  0  0  0  0  0
   11.2766   12.9053    9.5594 N   0  0  0  0  0  0  0  0  0  0  0  0
   10.9691   13.9870    6.6632 N   0  0  0  0  0  0  0  0  0  0  0  0
   10.9908   13.9850    5.3602 C   0  0  0  0  0  0  0  0  0  0  0  0
   11.3946   12.7627    4.8981 N   0  0  0  0  0  0  0  0  0  0  0  0
  1  7  2  0  0  0  0
  1  2  1  0  0  0  0
  2  3  1  0  0  0  0
  2  4  2  0  0  0  0
  4  5  1  0  0  0  0
  5  6  2  0  0  0  0
  5 11  1  0  0  0  0
  6  7  1  0  0  0  0
  6  9  1  0  0  0  0
  7  8  1  0  0  0  0
  9 10  1  0  0  0  0
 10 11  2  0  0  0  0
M  END
>  <CHROM.1>
11.64046105,11.90616263,7.06621760,0.50677352,-1.25547439,1.61786598

>  <Name>
ligand

>  <RI>
0

>  <Rbt.Current_Directory>
/home/itssahil/PROJECTS/Mol_Feturizer/New_Systems/rnas/4FEP

>  <Rbt.Executable>
rbdock ($Id: //depot/dev/client3/rdock/2013.1/src/exe/rbdock.cxx#4 $)

>  <Rbt.Library>
libRbt.so (2013.1, Build901 2013/11/27)

>  <Rbt.Parameter_File>
/export/apps/rDock/src/rDock_2013.1_src/data/scripts/dock_solv.prm

>  <Rbt.Receptor>
prm/blind_docking_20.prm

>  <SCORE>
-8.42672

>  <SCORE.INTER>
-9.04543

>  <SCORE.INTER.CONST>
1

>  <SCORE.INTER.POLAR>
0

>  <SCORE.INTER.ROT>
0

>  <SCORE.INTER.SOLV>
19.1982

>  <SCORE.INTER.VDW>
-16.0297

>  <SCORE.INTER.norm>
-0.822312

>  <SCORE.INTRA>
0

>  <SCORE.INTRA.DIHEDRAL>
0

>  <SCORE.INTRA.DIHEDRAL.0>
0

>  <SCORE.INTRA.POLAR>
0

>  <SCORE.INTRA.POLAR.0>
0

>  <SCORE.INTRA.REPUL>
0

>  <SCORE.INTRA.REPUL.0>
0

>  <SCORE.INTRA.SOLV>
0

>  <SCORE.INTRA.SOLV.lig_0>
-48.9558

>  <SCORE.INTRA.VDW>
0

>  <SCORE.INTRA.VDW.0>
0

>  <SCORE.INTRA.norm>
0

>  <SCORE.RESTR>
0.618712

>  <SCORE.RESTR.CAVITY>
0.618712

>  <SCORE.RESTR.norm>
0.0562465

>  <SCORE.SYSTEM>
0

>  <SCORE.SYSTEM.CONST>
0

>  <SCORE.SYSTEM.DIHEDRAL>
0

>  <SCORE.SYSTEM.SOLV>
0

>  <SCORE.SYSTEM.norm>
0

>  <SCORE.heavy>
11

>  <SCORE.norm>
-0.766065

>  <RMSD>
2.833

$$$$
ligand
 OpenBabel11021811493D
libRbt.so/2013.1/901 2013/11/27
 11 12  0  0  0  0  0  0  0  0999 V2000
   11.8212   10.8605    8.4943 N   0  0  0  0  0  0  0  0  0  0  0  0
   12.0240   10.1270    7.3880 C   0  0  0  0  0  0  0  0  0  0  0  0
   12.3816    8.7956    7.5182 N   0  0  0  0  0  0  0  0  0  0  0  0
   11.8877   10.6559    6.1610 N   0  0  0  0  0  0  0  0  0  0  0  0
   11.5388   11.9535    5.9990 C   0  0  0  0  0  0  0  0  0  0  0  0
   11.3140   12.7655    7.1393 C   0  0  0  0  0  0  0  0  0  0  0  0
   11.4714   12.1620    8.4224 C   0  0  0  0  0  0  0  0  0  0  0  0
   11.2693   12.8908    9.5790 N   0  0  0  0  0  0  0  0  0  0  0  0
   10.9861   14.0027    6.6917 N   0  0  0  0  0  0  0  0  0  0  0  0
   10.9929   14.0066    5.3886 C   0  0  0  0  0  0  0  0  0  0  0  0
   11.3268   12.7674    4.9160 N   0  0  0  0  0  0  0  0  0  0  0  0
  1  7  2  0  0  0  0
  1  2  1  0  0  0  0
  2  3  1  0  0  0  0
  2  4  2  0  0  0  0
  4  5  1  0  0  0  0
  5  6  2  0  0  0  0
  5 11  1  0  0  0  0
  6  7  1  0  0  0  0
  6  9  1  0  0  0  0
  7  8  1  0  0  0  0
  9 10  1  0  0  0  0
 10 11  2  0  0  0  0
M  END
>  <CHROM.1>
11.55215511,11.88751746,7.07699707,0.47265544,-1.30814723,1.59023848

>  <Name>
ligand

>  <RI>
0

>  <Rbt.Current_Directory>
/home/itssahil/PROJECTS/Mol_Feturizer/New_Systems/rnas/4FEP

>  <Rbt.Executable>
rbdock ($Id: //depot/dev/client3/rdock/2013.1/src/exe/rbdock.cxx#4 $)

>  <Rbt.Library>
libRbt.so (2013.1, Build901 2013/11/27)

>  <Rbt.Parameter_File>
/export/apps/rDock/src/rDock_2013.1_src/data/scripts/dock_solv.prm

>  <Rbt.Receptor>
prm/blind_docking_20.prm

>  <SCORE>
-8.47662

>  <SCORE.INTER>
-9.10651

>  <SCORE.INTER.CONST>
1

>  <SCORE.INTER.POLAR>
0

>  <SCORE.INTER.ROT>
0

>  <SCORE.INTER.SOLV>
20.3431

>  <SCORE.INTER.VDW>
-16.452

>  <SCORE.INTER.norm>
-0.827865

>  <SCORE.INTRA>
0

>  <SCORE.INTRA.DIHEDRAL>
0

>  <SCORE.INTRA.DIHEDRAL.0>
0

>  <SCORE.INTRA.POLAR>
0

>  <SCORE.INTRA.POLAR.0>
0

>  <SCORE.INTRA.REPUL>
0

>  <SCORE.INTRA.REPUL.0>
0

>  <SCORE.INTRA.SOLV>
0

>  <SCORE.INTRA.SOLV.lig_0>
-48.9558

>  <SCORE.INTRA.VDW>
0

>  <SCORE.INTRA.VDW.0>
0

>  <SCORE.INTRA.norm>
0

>  <SCORE.RESTR>
0.629895

>  <SCORE.RESTR.CAVITY>
0.629895

>  <SCORE.RESTR.norm>
0.0572632

>  <SCORE.SYSTEM>
0

>  <SCORE.SYSTEM.CONST>
0

>  <SCORE.SYSTEM.DIHEDRAL>
0

>  <SCORE.SYSTEM.SOLV>
0

>  <SCORE.SYSTEM.norm>
0

>  <SCORE.heavy>
11

>  <SCORE.norm>
-0.770602

>  <RMSD>
2.838

$$$$
ligand
 OpenBabel11021811493D
libRbt.so/2013.1/901 2013/11/27
 11 12  0  0  0  0  0  0  0  0999 V2000
   11.8362   10.8606    8.4866 N   0  0  0  0  0  0  0  0  0  0  0  0
   12.0148   10.1280    7.3755 C   0  0  0  0  0  0  0  0  0  0  0  0
   12.3660    8.7941    7.4969 N   0  0  0  0  0  0  0  0  0  0  0  0
   11.8604   10.6603    6.1522 N   0  0  0  0  0  0  0  0  0  0  0  0
   11.5172   11.9605    5.9987 C   0  0  0  0  0  0  0  0  0  0  0  0
   11.3177   12.7716    7.1444 C   0  0  0  0  0  0  0  0  0  0  0  0
   11.4937   12.1645    8.4234 C   0  0  0  0  0  0  0  0  0  0  0  0
   11.3166   12.8923    9.5847 N   0  0  0  0  0  0  0  0  0  0  0  0
   10.9900   14.0118    6.7049 N   0  0  0  0  0  0  0  0  0  0  0  0
   10.9740   14.0183    5.4019 C   0  0  0  0  0  0  0  0  0  0  0  0
   11.2916   12.7778    4.9211 N   0  0  0  0  0  0  0  0  0  0  0  0
  1  7  2  0  0  0  0
  1  2  1  0  0  0  0
  2  3  1  0  0  0  0
  2  4  2  0  0  0  0
  4  5  1  0  0  0  0
  5  6  2  0  0  0  0
  5 11  1  0  0  0  0
  6  7  1  0  0  0  0
  6  9  1  0  0  0  0
  7  8  1  0  0  0  0
  9 10  1  0  0  0  0
 10 11  2  0  0  0  0
M  END
>  <CHROM.1>
11.54901119,11.89220397,7.07618649,0.40396788,-1.31440270,1.52580128

>  <Name>
ligand

>  <RI>
0

>  <Rbt.Current_Directory>
/home/itssahil/PROJECTS/Mol_Feturizer/New_Systems/rnas/4FEP

>  <Rbt.Executable>
rbdock ($Id: //depot/dev/client3/rdock/2013.1/src/exe/rbdock.cxx#4 $)

>  <Rbt.Library>
libRbt.so (2013.1, Build901 2013/11/27)

>  <Rbt.Parameter_File>
/export/apps/rDock/src/rDock_2013.1_src/data/scripts/dock_solv.prm

>  <Rbt.Receptor>
prm/blind_docking_20.prm

>  <SCORE>
-8.46257

>  <SCORE.INTER>
-9.0979

>  <SCORE.INTER.CONST>
1

>  <SCORE.INTER.POLAR>
0

>  <SCORE.INTER.ROT>
0

>  <SCORE.INTER.SOLV>
20.3776

>  <SCORE.INTER.VDW>
-16.4578

>  <SCORE.INTER.norm>
-0.827082

>  <SCORE.INTRA>
0

>  <SCORE.INTRA.DIHEDRAL>
0

>  <SCORE.INTRA.DIHEDRAL.0>
0

>  <SCORE.INTRA.POLAR>
0

>  <SCORE.INTRA.POLAR.0>
0

>  <SCORE.INTRA.REPUL>
0

>  <SCORE.INTRA.REPUL.0>
0

>  <SCORE.INTRA.SOLV>
0

>  <SCORE.INTRA.SOLV.lig_0>
-48.9558

>  <SCORE.INTRA.VDW>
0

>  <SCORE.INTRA.VDW.0>
0

>  <SCORE.INTRA.norm>
0

>  <SCORE.RESTR>
0.635332

>  <SCORE.RESTR.CAVITY>
0.635332

>  <SCORE.RESTR.norm>
0.0577575

>  <SCORE.SYSTEM>
0

>  <SCORE.SYSTEM.CONST>
0

>  <SCORE.SYSTEM.DIHEDRAL>
0

>  <SCORE.SYSTEM.SOLV>
0

>  <SCORE.SYSTEM.norm>
0

>  <SCORE.heavy>
11

>  <SCORE.norm>
-0.769325

>  <RMSD>
2.839

$$$$
ligand
 OpenBabel11021811493D
libRbt.so/2013.1/901 2013/11/27
 11 12  0  0  0  0  0  0  0  0999 V2000
   11.6676   11.2763    5.9911 N   0  0  0  0  0  0  0  0  0  0  0  0
   10.8722   12.3411    5.8001 C   0  0  0  0  0  0  0  0  0  0  0  0
   10.3322   12.5624    4.5444 N   0  0  0  0  0  0  0  0  0  0  0  0
   10.5900   13.1938    6.7986 N   0  0  0  0  0  0  0  0  0  0  0  0
   11.1012   13.0059    8.0377 C   0  0  0  0  0  0  0  0  0  0  0  0
   11.9456   11.8942    8.2853 C   0  0  0  0  0  0  0  0  0  0  0  0
   12.2189   11.0155    7.1950 C   0  0  0  0  0  0  0  0  0  0  0  0
   13.0333    9.9114    7.3606 N   0  0  0  0  0  0  0  0  0  0  0  0
   12.3112   11.9516    9.5897 N   0  0  0  0  0  0  0  0  0  0  0  0
   11.7631   12.9945   10.1466 C   0  0  0  0  0  0  0  0  0  0  0  0
   11.0083   13.6748    9.2311 N   0  0  0  0  0  0  0  0  0  0  0  0
  1  7  2  0  0  0  0
  1  2  1  0  0  0  0
  2  3  1  0  0  0  0
  2  4  2  0  0  0  0
  4  5  1  0  0  0  0
  5  6  2  0  0  0  0
  5 11  1  0  0  0  0
  6  7  1  0  0  0  0
  6  9  1  0  0  0  0
  7  8  1  0  0  0  0
  9 10  1  0  0  0  0
 10 11  2  0  0  0  0
M  END
>  <CHROM.1>
11.52783067,12.15972705,7.51944978,-1.91397378,-0.92272339,1.15106078

>  <Name>
ligand

>  <RI>
0

>  <Rbt.Current_Directory>
/home/itssahil/PROJECTS/Mol_Feturizer/New_Systems/rnas/4FEP

>  <Rbt.Executable>
rbdock ($Id: //depot/dev/client3/rdock/2013.1/src/exe/rbdock.cxx#4 $)

>  <Rbt.Library>
libRbt.so (2013.1, Build901 2013/11/27)

>  <Rbt.Parameter_File>
/export/apps/rDock/src/rDock_2013.1_src/data/scripts/dock_solv.prm

>  <Rbt.Receptor>
prm/pocket_docking_5.prm

>  <SCORE>
-9.86903

>  <SCORE.INTER>
-9.86903

>  <SCORE.INTER.CONST>
1

>  <SCORE.INTER.POLAR>
0

>  <SCORE.INTER.ROT>
0

>  <SCORE.INTER.SOLV>
18.5095

>  <SCORE.INTER.VDW>
-16.3492

>  <SCORE.INTER.norm>
-0.897185

>  <SCORE.INTRA>
0

>  <SCORE.INTRA.DIHEDRAL>
0

>  <SCORE.INTRA.DIHEDRAL.0>
0

>  <SCORE.INTRA.POLAR>
0

>  <SCORE.INTRA.POLAR.0>
0

>  <SCORE.INTRA.REPUL>
0

>  <SCORE.INTRA.REPUL.0>
0

>  <SCORE.INTRA.SOLV>
0

>  <SCORE.INTRA.SOLV.lig_0>
-48.9558

>  <SCORE.INTRA.VDW>
0

>  <SCORE.INTRA.VDW.0>
0

>  <SCORE.INTRA.norm>
0

>  <SCORE.RESTR>
0

>  <SCORE.RESTR.CAVITY>
0

>  <SCORE.RESTR.norm>
0

>  <SCORE.SYSTEM>
0

>  <SCORE.SYSTEM.CONST>
0

>  <SCORE.SYSTEM.DIHEDRAL>
0

>  <SCORE.SYSTEM.SOLV>
0

>  <SCORE.SYSTEM.norm>
0

>  <SCORE.heavy>
11

>  <SCORE.norm>
-0.897185

>  <RMSD>
3.396

$$$$
ligand
 OpenBabel11021811493D
libRbt.so/2013.1/901 2013/11/27
 11 12  0  0  0  0  0  0  0  0999 V2000
   11.6686   11.2598    5.9945 N   0  0  0  0  0  0  0  0  0  0  0  0
   10.8778   12.3298    5.8141 C   0  0  0  0  0  0  0  0  0  0  0  0
   10.3250   12.5564    4.5649 N   0  0  0  0  0  0  0  0  0  0  0  0
   10.6122   13.1827    6.8170 N   0  0  0  0  0  0  0  0  0  0  0  0
   11.1362   12.9898    8.0499 C   0  0  0  0  0  0  0  0  0  0  0  0
   11.9764   11.8725    8.2863 C   0  0  0  0  0  0  0  0  0  0  0  0
   12.2320   10.9938    7.1917 C   0  0  0  0  0  0  0  0  0  0  0  0
   13.0413    9.8844    7.3465 N   0  0  0  0  0  0  0  0  0  0  0  0
   12.3571   11.9256    9.5866 N   0  0  0  0  0  0  0  0  0  0  0  0
   11.8218   12.9710   10.1512 C   0  0  0  0  0  0  0  0  0  0  0  0
   11.0610   13.6574    9.2453 N   0  0  0  0  0  0  0  0  0  0  0  0
  1  7  2  0  0  0  0
  1  2  1  0  0  0  0
  2  3  1  0  0  0  0
  2  4  2  0  0  0  0
  4  5  1  0  0  0  0
  5  6  2  0  0  0  0
  5 11  1  0  0  0  0
  6  7  1  0  0  0  0
  6  9  1  0  0  0  0
  7  8  1  0  0  0  0
  9 10  1  0  0  0  0
 10 11  2  0  0  0  0
M  END
>  <CHROM.1>
11.55169606,12.14175178,7.52566172,-1.93530076,-0.92368210,1.13554808

>  <Name>
ligand

>  <RI>
0

>  <Rbt.Current_Directory>
/home/itssahil/PROJECTS/Mol_Feturizer/New_Systems/rnas/4FEP

>  <Rbt.Executable>
rbdock ($Id: //depot/dev/client3/rdock/2013.1/src/exe/rbdock.cxx#4 $)

>  <Rbt.Library>
libRbt.so (2013.1, Build901 2013/11/27)

>  <Rbt.Parameter_File>
/export/apps/rDock/src/rDock_2013.1_src/data/scripts/dock_solv.prm

>  <Rbt.Receptor>
prm/pocket_docking_6.prm

>  <SCORE>
-9.84716

>  <SCORE.INTER>
-9.84716

>  <SCORE.INTER.CONST>
1

>  <SCORE.INTER.POLAR>
0

>  <SCORE.INTER.ROT>
0

>  <SCORE.INTER.SOLV>
18.4489

>  <SCORE.INTER.VDW>
-16.3144

>  <SCORE.INTER.norm>
-0.895196

>  <SCORE.INTRA>
0

>  <SCORE.INTRA.DIHEDRAL>
0

>  <SCORE.INTRA.DIHEDRAL.0>
0

>  <SCORE.INTRA.POLAR>
0

>  <SCORE.INTRA.POLAR.0>
0

>  <SCORE.INTRA.REPUL>
0

>  <SCORE.INTRA.REPUL.0>
0

>  <SCORE.INTRA.SOLV>
0

>  <SCORE.INTRA.SOLV.lig_0>
-48.9558

>  <SCORE.INTRA.VDW>
0

>  <SCORE.INTRA.VDW.0>
0

>  <SCORE.INTRA.norm>
0

>  <SCORE.RESTR>
0

>  <SCORE.RESTR.CAVITY>
0

>  <SCORE.RESTR.norm>
0

>  <SCORE.SYSTEM>
0

>  <SCORE.SYSTEM.CONST>
0

>  <SCORE.SYSTEM.DIHEDRAL>
0

>  <SCORE.SYSTEM.SOLV>
0

>  <SCORE.SYSTEM.norm>
0

>  <SCORE.heavy>
11

>  <SCORE.norm>
-0.895196

>  <RMSD>
3.396

$$$$
ligand
 OpenBabel11021811493D
libRbt.so/2013.1/901 2013/11/27
 11 12  0  0  0  0  0  0  0  0999 V2000
   11.7761   11.3038    5.9581 N   0  0  0  0  0  0  0  0  0  0  0  0
   11.0371   12.4023    5.7343 C   0  0  0  0  0  0  0  0  0  0  0  0
   10.5870   12.6619    4.4507 N   0  0  0  0  0  0  0  0  0  0  0  0
   10.7261   13.2525    6.7264 N   0  0  0  0  0  0  0  0  0  0  0  0
   11.1499   13.0277    7.9920 C   0  0  0  0  0  0  0  0  0  0  0  0
   11.9323   11.8796    8.2746 C   0  0  0  0  0  0  0  0  0  0  0  0
   12.2393   11.0051    7.1900 C   0  0  0  0  0  0  0  0  0  0  0  0
   12.9973    9.8668    7.3890 N   0  0  0  0  0  0  0  0  0  0  0  0
   12.2164   11.9048    9.6002 N   0  0  0  0  0  0  0  0  0  0  0  0
   11.6757   12.9616   10.1379 C   0  0  0  0  0  0  0  0  0  0  0  0
   11.0080   13.6839    9.1876 N   0  0  0  0  0  0  0  0  0  0  0  0
  1  7  2  0  0  0  0
  1  2  1  0  0  0  0
  2  3  1  0  0  0  0
  2  4  2  0  0  0  0
  4  5  1  0  0  0  0
  5  6  2  0  0  0  0
  5 11  1  0  0  0  0
  6  7  1  0  0  0  0
  6  9  1  0  0  0  0
  7  8  1  0  0  0  0
  9 10  1  0  0  0  0
 10 11  2  0  0  0  0
M  END
>  <CHROM.1>
11.57474486,12.17187204,7.48837042,-1.83845671,-0.98343339,1.22717320

>  <Name>
ligand

>  <RI>
0

>  <Rbt.Current_Directory>
/home/itssahil/PROJECTS/Mol_Feturizer/New_Systems/rnas/4FEP

>  <Rbt.Executable>
rbdock ($Id: //depot/dev/client3/rdock/2013.1/src/exe/rbdock.cxx#4 $)

>  <Rbt.Library>
libRbt.so (2013.1, Build901 2013/11/27)

>  <Rbt.Parameter_File>
/export/apps/rDock/src/rDock_2013.1_src/data/scripts/dock_solv.prm

>  <Rbt.Receptor>
prm/pocket_docking_7.prm

>  <SCORE>
-9.852

>  <SCORE.INTER>
-9.852

>  <SCORE.INTER.CONST>
1

>  <SCORE.INTER.POLAR>
0

>  <SCORE.INTER.ROT>
0

>  <SCORE.INTER.SOLV>
19.3389

>  <SCORE.INTER.VDW>
-16.6143

>  <SCORE.INTER.norm>
-0.895636

>  <SCORE.INTRA>
0

>  <SCORE.INTRA.DIHEDRAL>
0

>  <SCORE.INTRA.DIHEDRAL.0>
0

>  <SCORE.INTRA.POLAR>
0

>  <SCORE.INTRA.POLAR.0>
0

>  <SCORE.INTRA.REPUL>
0

>  <SCORE.INTRA.REPUL.0>
0

>  <SCORE.INTRA.SOLV>
0

>  <SCORE.INTRA.SOLV.lig_0>
-48.9558

>  <SCORE.INTRA.VDW>
0

>  <SCORE.INTRA.VDW.0>
0

>  <SCORE.INTRA.norm>
0

>  <SCORE.RESTR>
0

>  <SCORE.RESTR.CAVITY>
0

>  <SCORE.RESTR.norm>
0

>  <SCORE.SYSTEM>
0

>  <SCORE.SYSTEM.CONST>
0

>  <SCORE.SYSTEM.DIHEDRAL>
0

>  <SCORE.SYSTEM.SOLV>
0

>  <SCORE.SYSTEM.norm>
0

>  <SCORE.heavy>
11

>  <SCORE.norm>
-0.895636

>  <RMSD>
3.397

$$$$
ligand
 OpenBabel11021811493D
libRbt.so/2013.1/901 2013/11/27
 11 12  0  0  0  0  0  0  0  0999 V2000
   11.7650   11.3085    5.9781 N   0  0  0  0  0  0  0  0  0  0  0  0
   11.0173   12.4023    5.7603 C   0  0  0  0  0  0  0  0  0  0  0  0
   10.5460   12.6531    4.4826 N   0  0  0  0  0  0  0  0  0  0  0  0
   10.7177   13.2561    6.7528 N   0  0  0  0  0  0  0  0  0  0  0  0
   11.1622   13.0399    8.0127 C   0  0  0  0  0  0  0  0  0  0  0  0
   11.9545   11.8970    8.2890 C   0  0  0  0  0  0  0  0  0  0  0  0
   12.2488   11.0184    7.2042 C   0  0  0  0  0  0  0  0  0  0  0  0
   13.0153    9.8848    7.3971 N   0  0  0  0  0  0  0  0  0  0  0  0
   12.2591   11.9306    9.6098 N   0  0  0  0  0  0  0  0  0  0  0  0
   11.7218   12.9875   10.1505 C   0  0  0  0  0  0  0  0  0  0  0  0
   11.0358   13.7017    9.2070 N   0  0  0  0  0  0  0  0  0  0  0  0
  1  7  2  0  0  0  0
  1  2  1  0  0  0  0
  2  3  1  0  0  0  0
  2  4  2  0  0  0  0
  4  5  1  0  0  0  0
  5  6  2  0  0  0  0
  5 11  1  0  0  0  0
  6  7  1  0  0  0  0
  6  9  1  0  0  0  0
  7  8  1  0  0  0  0
  9 10  1  0  0  0  0
 10 11  2  0  0  0  0
M  END
>  <CHROM.1>
11.58335167,12.18355994,7.50691631,-1.86164454,-0.97348010,1.20278141

>  <Name>
ligand

>  <RI>
0

>  <Rbt.Current_Directory>
/home/itssahil/PROJECTS/Mol_Feturizer/New_Systems/rnas/4FEP

>  <Rbt.Executable>
rbdock ($Id: //depot/dev/client3/rdock/2013.1/src/exe/rbdock.cxx#4 $)

>  <Rbt.Library>
libRbt.so (2013.1, Build901 2013/11/27)

>  <Rbt.Parameter_File>
/export/apps/rDock/src/rDock_2013.1_src/data/scripts/dock_solv.prm

>  <Rbt.Receptor>
prm/pocket_docking_8.prm

>  <SCORE>
-9.81563

>  <SCORE.INTER>
-9.81563

>  <SCORE.INTER.CONST>
1

>  <SCORE.INTER.POLAR>
0

>  <SCORE.INTER.ROT>
0

>  <SCORE.INTER.SOLV>
19.1107

>  <SCORE.INTER.VDW>
-16.514

>  <SCORE.INTER.norm>
-0.89233

>  <SCORE.INTRA>
0

>  <SCORE.INTRA.DIHEDRAL>
0

>  <SCORE.INTRA.DIHEDRAL.0>
0

>  <SCORE.INTRA.POLAR>
0

>  <SCORE.INTRA.POLAR.0>
0

>  <SCORE.INTRA.REPUL>
0

>  <SCORE.INTRA.REPUL.0>
0

>  <SCORE.INTRA.SOLV>
0

>  <SCORE.INTRA.SOLV.lig_0>
-48.9558

>  <SCORE.INTRA.VDW>
0

>  <SCORE.INTRA.VDW.0>
0

>  <SCORE.INTRA.norm>
0

>  <SCORE.RESTR>
0

>  <SCORE.RESTR.CAVITY>
0

>  <SCORE.RESTR.norm>
0

>  <SCORE.SYSTEM>
0

>  <SCORE.SYSTEM.CONST>
0

>  <SCORE.SYSTEM.DIHEDRAL>
0

>  <SCORE.SYSTEM.SOLV>
0

>  <SCORE.SYSTEM.norm>
0

>  <SCORE.heavy>
11

>  <SCORE.norm>
-0.89233

>  <RMSD>
3.397

$$$$
ligand
 OpenBabel11021811493D
libRbt.so/2013.1/901 2013/11/27
 11 12  0  0  0  0  0  0  0  0999 V2000
   11.7792   11.3282    5.9699 N   0  0  0  0  0  0  0  0  0  0  0  0
   11.0357   12.4252    5.7537 C   0  0  0  0  0  0  0  0  0  0  0  0
   10.5761   12.6865    4.4738 N   0  0  0  0  0  0  0  0  0  0  0  0
   10.7292   13.2723    6.7498 N   0  0  0  0  0  0  0  0  0  0  0  0
   11.1623   13.0458    8.0120 C   0  0  0  0  0  0  0  0  0  0  0  0
   11.9497   11.8992    8.2866 C   0  0  0  0  0  0  0  0  0  0  0  0
   12.2516   11.0280    7.1979 C   0  0  0  0  0  0  0  0  0  0  0  0
   13.0140    9.8913    7.3892 N   0  0  0  0  0  0  0  0  0  0  0  0
   12.2428   11.9223    9.6103 N   0  0  0  0  0  0  0  0  0  0  0  0
   11.7031   12.9764   10.1540 C   0  0  0  0  0  0  0  0  0  0  0  0
   11.0269   13.6990    9.2100 N   0  0  0  0  0  0  0  0  0  0  0  0
  1  7  2  0  0  0  0
  1  2  1  0  0  0  0
  2  3  1  0  0  0  0
  2  4  2  0  0  0  0
  4  5  1  0  0  0  0
  5  6  2  0  0  0  0
  5 11  1  0  0  0  0
  6  7  1  0  0  0  0
  6  9  1  0  0  0  0
  7  8  1  0  0  0  0
  9 10  1  0  0  0  0
 10 11  2  0  0  0  0
M  END
>  <CHROM.1>
11.58600629,12.19231268,7.50348745,-1.84843447,-0.97855793,1.22112311

>  <Name>
ligand

>  <RI>
0

>  <Rbt.Current_Directory>
/home/itssahil/PROJECTS/Mol_Feturizer/New_Systems/rnas/4FEP

>  <Rbt.Executable>
rbdock ($Id: //depot/dev/client3/rdock/2013.1/src/exe/rbdock.cxx#4 $)

>  <Rbt.Library>
libRbt.so (2013.1, Build901 2013/11/27)

>  <Rbt.Parameter_File>
/export/apps/rDock/src/rDock_2013.1_src/data/scripts/dock_solv.prm

>  <Rbt.Receptor>
prm/pocket_docking_5.prm

>  <SCORE>
-9.81667

>  <SCORE.INTER>
-9.81667

>  <SCORE.INTER.CONST>
1

>  <SCORE.INTER.POLAR>
0

>  <SCORE.INTER.ROT>
0

>  <SCORE.INTER.SOLV>
19.1495

>  <SCORE.INTER.VDW>
-16.5276

>  <SCORE.INTER.norm>
-0.892424

>  <SCORE.INTRA>
0

>  <SCORE.INTRA.DIHEDRAL>
0

>  <SCORE.INTRA.DIHEDRAL.0>
0

>  <SCORE.INTRA.POLAR>
0

>  <SCORE.INTRA.POLAR.0>
0

>  <SCORE.INTRA.REPUL>
0

>  <SCORE.INTRA.REPUL.0>
0

>  <SCORE.INTRA.SOLV>
0

>  <SCORE.INTRA.SOLV.lig_0>
-48.9558

>  <SCORE.INTRA.VDW>
0

>  <SCORE.INTRA.VDW.0>
0

>  <SCORE.INTRA.norm>
0

>  <SCORE.RESTR>
0

>  <SCORE.RESTR.CAVITY>
0

>  <SCORE.RESTR.norm>
0

>  <SCORE.SYSTEM>
0

>  <SCORE.SYSTEM.CONST>
0

>  <SCORE.SYSTEM.DIHEDRAL>
0

>  <SCORE.SYSTEM.SOLV>
0

>  <SCORE.SYSTEM.norm>
0

>  <SCORE.heavy>
11

>  <SCORE.norm>
-0.892424

>  <RMSD>
3.398

$$$$
ligand
 OpenBabel11021811493D
libRbt.so/2013.1/901 2013/11/27
 11 12  0  0  0  0  0  0  0  0999 V2000
   11.7025   11.2920    6.0102 N   0  0  0  0  0  0  0  0  0  0  0  0
   10.8725   12.3293    5.8151 C   0  0  0  0  0  0  0  0  0  0  0  0
   10.3313   12.5320    4.5567 N   0  0  0  0  0  0  0  0  0  0  0  0
   10.5570   13.1722    6.8119 N   0  0  0  0  0  0  0  0  0  0  0  0
   11.0684   13.0019    8.0534 C   0  0  0  0  0  0  0  0  0  0  0  0
   11.9487   11.9194    8.3054 C   0  0  0  0  0  0  0  0  0  0  0  0
   12.2567   11.0503    7.2168 C   0  0  0  0  0  0  0  0  0  0  0  0
   13.1071    9.9743    7.3866 N   0  0  0  0  0  0  0  0  0  0  0  0
   12.3060   11.9894    9.6115 N   0  0  0  0  0  0  0  0  0  0  0  0
   11.7204   13.0134   10.1654 C   0  0  0  0  0  0  0  0  0  0  0  0
   10.9474   13.6676    9.2461 N   0  0  0  0  0  0  0  0  0  0  0  0
  1  7  2  0  0  0  0
  1  2  1  0  0  0  0
  2  3  1  0  0  0  0
  2  4  2  0  0  0  0
  4  5  1  0  0  0  0
  5  6  2  0  0  0  0
  5 11  1  0  0  0  0
  6  7  1  0  0  0  0
  6  9  1  0  0  0  0
  7  8  1  0  0  0  0
  9 10  1  0  0  0  0
 10 11  2  0  0  0  0
M  END
>  <CHROM.1>
11.52582390,12.17054472,7.53754732,-1.88516599,-0.89360913,1.17347342

>  <Name>
ligand

>  <RI>
0

>  <Rbt.Current_Directory>
/home/itssahil/PROJECTS/Mol_Feturizer/New_Systems/rnas/4FEP

>  <Rbt.Executable>
rbdock ($Id: //depot/dev/client3/rdock/2013.1/src/exe/rbdock.cxx#4 $)

>  <Rbt.Library>
libRbt.so (2013.1, Build901 2013/11/27)

>  <Rbt.Parameter_File>
/export/apps/rDock/src/rDock_2013.1_src/data/scripts/dock_solv.prm

>  <Rbt.Receptor>
prm/blind_docking_60.prm

>  <SCORE>
-9.9051

>  <SCORE.INTER>
-9.9051

>  <SCORE.INTER.CONST>
1

>  <SCORE.INTER.POLAR>
0

>  <SCORE.INTER.ROT>
0

>  <SCORE.INTER.SOLV>
18.2474

>  <SCORE.INTER.VDW>
-16.2859

>  <SCORE.INTER.norm>
-0.900464

>  <SCORE.INTRA>
0

>  <SCORE.INTRA.DIHEDRAL>
0

>  <SCORE.INTRA.DIHEDRAL.0>
0

>  <SCORE.INTRA.POLAR>
0

>  <SCORE.INTRA.POLAR.0>
0

>  <SCORE.INTRA.REPUL>
0

>  <SCORE.INTRA.REPUL.0>
0

>  <SCORE.INTRA.SOLV>
0

>  <SCORE.INTRA.SOLV.lig_0>
-48.9558

>  <SCORE.INTRA.VDW>
0

>  <SCORE.INTRA.VDW.0>
0

>  <SCORE.INTRA.norm>
0

>  <SCORE.RESTR>
0

>  <SCORE.RESTR.CAVITY>
0

>  <SCORE.RESTR.norm>
0

>  <SCORE.SYSTEM>
0

>  <SCORE.SYSTEM.CONST>
0

>  <SCORE.SYSTEM.DIHEDRAL>
0

>  <SCORE.SYSTEM.SOLV>
0

>  <SCORE.SYSTEM.norm>
0

>  <SCORE.heavy>
11

>  <SCORE.norm>
-0.900464

>  <RMSD>
3.399

$$$$
ligand
 OpenBabel11021811493D
libRbt.so/2013.1/901 2013/11/27
 11 12  0  0  0  0  0  0  0  0999 V2000
   11.6971   11.3285    5.9684 N   0  0  0  0  0  0  0  0  0  0  0  0
   10.9029   12.3942    5.7771 C   0  0  0  0  0  0  0  0  0  0  0  0
   10.3904   12.6347    4.5133 N   0  0  0  0  0  0  0  0  0  0  0  0
   10.5958   13.2296    6.7828 N   0  0  0  0  0  0  0  0  0  0  0  0
   11.0798   13.0228    8.0298 C   0  0  0  0  0  0  0  0  0  0  0  0
   11.9218   11.9094    8.2780 C   0  0  0  0  0  0  0  0  0  0  0  0
   12.2222   11.0496    7.1799 C   0  0  0  0  0  0  0  0  0  0  0  0
   13.0361    9.9451    7.3456 N   0  0  0  0  0  0  0  0  0  0  0  0
   12.2580   11.9464    9.5911 N   0  0  0  0  0  0  0  0  0  0  0  0
   11.6944   12.9785   10.1525 C   0  0  0  0  0  0  0  0  0  0  0  0
   10.9581   13.6717    9.2316 N   0  0  0  0  0  0  0  0  0  0  0  0
  1  7  2  0  0  0  0
  1  2  1  0  0  0  0
  2  3  1  0  0  0  0
  2  4  2  0  0  0  0
  4  5  1  0  0  0  0
  5  6  2  0  0  0  0
  5 11  1  0  0  0  0
  6  7  1  0  0  0  0
  6  9  1  0  0  0  0
  7  8  1  0  0  0  0
  9 10  1  0  0  0  0
 10 11  2  0  0  0  0
M  END
>  <CHROM.1>
11.52048462,12.18638519,7.50749184,-1.87777833,-0.92872029,1.19637386

>  <Name>
ligand

>  <RI>
0

>  <Rbt.Current_Directory>
/home/itssahil/PROJECTS/Mol_Feturizer/New_Systems/rnas/4FEP

>  <Rbt.Executable>
rbdock ($Id: //depot/dev/client3/rdock/2013.1/src/exe/rbdock.cxx#4 $)

>  <Rbt.Library>
libRbt.so (2013.1, Build901 2013/11/27)

>  <Rbt.Parameter_File>
/export/apps/rDock/src/rDock_2013.1_src/data/scripts/dock_solv.prm

>  <Rbt.Receptor>
prm/blind_docking_60.prm

>  <SCORE>
-9.8698

>  <SCORE.INTER>
-9.8698

>  <SCORE.INTER.CONST>
1

>  <SCORE.INTER.POLAR>
0

>  <SCORE.INTER.ROT>
0

>  <SCORE.INTER.SOLV>
18.6504

>  <SCORE.INTER.VDW>
-16.3967

>  <SCORE.INTER.norm>
-0.897254

>  <SCORE.INTRA>
0

>  <SCORE.INTRA.DIHEDRAL>
0

>  <SCORE.INTRA.DIHEDRAL.0>
0

>  <SCORE.INTRA.POLAR>
0

>  <SCORE.INTRA.POLAR.0>
0

>  <SCORE.INTRA.REPUL>
0

>  <SCORE.INTRA.REPUL.0>
0

>  <SCORE.INTRA.SOLV>
0

>  <SCORE.INTRA.SOLV.lig_0>
-48.9558

>  <SCORE.INTRA.VDW>
0

>  <SCORE.INTRA.VDW.0>
0

>  <SCORE.INTRA.norm>
0

>  <SCORE.RESTR>
0

>  <SCORE.RESTR.CAVITY>
0

>  <SCORE.RESTR.norm>
0

>  <SCORE.SYSTEM>
0

>  <SCORE.SYSTEM.CONST>
0

>  <SCORE.SYSTEM.DIHEDRAL>
0

>  <SCORE.SYSTEM.SOLV>
0

>  <SCORE.SYSTEM.norm>
0

>  <SCORE.heavy>
11

>  <SCORE.norm>
-0.897254

>  <RMSD>
3.399

$$$$
ligand
 OpenBabel11021811493D
libRbt.so/2013.1/901 2013/11/27
 11 12  0  0  0  0  0  0  0  0999 V2000
   11.7123   11.3111    6.0056 N   0  0  0  0  0  0  0  0  0  0  0  0
   10.8888   12.3538    5.8118 C   0  0  0  0  0  0  0  0  0  0  0  0
   10.3568   12.5673    4.5513 N   0  0  0  0  0  0  0  0  0  0  0  0
   10.5709   13.1918    6.8120 N   0  0  0  0  0  0  0  0  0  0  0  0
   11.0733   13.0110    8.0557 C   0  0  0  0  0  0  0  0  0  0  0  0
   11.9465   11.9225    8.3064 C   0  0  0  0  0  0  0  0  0  0  0  0
   12.2573   11.0588    7.2142 C   0  0  0  0  0  0  0  0  0  0  0  0
   13.1012    9.9775    7.3826 N   0  0  0  0  0  0  0  0  0  0  0  0
   12.2955   11.9822    9.6153 N   0  0  0  0  0  0  0  0  0  0  0  0
   11.7114   13.0054   10.1720 C   0  0  0  0  0  0  0  0  0  0  0  0
   10.9477   13.6695    9.2519 N   0  0  0  0  0  0  0  0  0  0  0  0
  1  7  2  0  0  0  0
  1  2  1  0  0  0  0
  2  3  1  0  0  0  0
  2  4  2  0  0  0  0
  4  5  1  0  0  0  0
  5  6  2  0  0  0  0
  5 11  1  0  0  0  0
  6  7  1  0  0  0  0
  6  9  1  0  0  0  0
  7  8  1  0  0  0  0
  9 10  1  0  0  0  0
 10 11  2  0  0  0  0
M  END
>  <CHROM.1>
11.52992513,12.18063402,7.53744631,-1.87848258,-0.90071827,1.18517922

>  <Name>
ligand

>  <RI>
0

>  <Rbt.Current_Directory>
/home/itssahil/PROJECTS/Mol_Feturizer/New_Systems/rnas/4FEP

>  <Rbt.Executable>
rbdock ($Id: //depot/dev/client3/rdock/2013.1/src/exe/rbdock.cxx#4 $)

>  <Rbt.Library>
libRbt.so (2013.1, Build901 2013/11/27)

>  <Rbt.Parameter_File>
/export/apps/rDock/src/rDock_2013.1_src/data/scripts/dock_solv.prm

>  <Rbt.Receptor>
prm/blind_docking_100.prm

>  <SCORE>
-9.90961

>  <SCORE.INTER>
-9.90961

>  <SCORE.INTER.CONST>
1

>  <SCORE.INTER.POLAR>
0

>  <SCORE.INTER.ROT>
0

>  <SCORE.INTER.SOLV>
18.2847

>  <SCORE.INTER.VDW>
-16.3013

>  <SCORE.INTER.norm>
-0.900873

>  <SCORE.INTRA>
0

>  <SCORE.INTRA.DIHEDRAL>
0

>  <SCORE.INTRA.DIHEDRAL.0>
0

>  <SCORE.INTRA.POLAR>
0

>  <SCORE.INTRA.POLAR.0>
0

>  <SCORE.INTRA.REPUL>
0

>  <SCORE.INTRA.REPUL.0>
0

>  <SCORE.INTRA.SOLV>
0

>  <SCORE.INTRA.SOLV.lig_0>
-48.9558

>  <SCORE.INTRA.VDW>
0

>  <SCORE.INTRA.VDW.0>
0

>  <SCORE.INTRA.norm>
0

>  <SCORE.RESTR>
0

>  <SCORE.RESTR.CAVITY>
0

>  <SCORE.RESTR.norm>
0

>  <SCORE.SYSTEM>
0

>  <SCORE.SYSTEM.CONST>
0

>  <SCORE.SYSTEM.DIHEDRAL>
0

>  <SCORE.SYSTEM.SOLV>
0

>  <SCORE.SYSTEM.norm>
0

>  <SCORE.heavy>
11

>  <SCORE.norm>
-0.900873

>  <RMSD>
3.400

$$$$
ligand
 OpenBabel11021811493D
libRbt.so/2013.1/901 2013/11/27
 11 12  0  0  0  0  0  0  0  0999 V2000
   11.7124   11.3129    6.0184 N   0  0  0  0  0  0  0  0  0  0  0  0
   10.8828   12.3509    5.8257 C   0  0  0  0  0  0  0  0  0  0  0  0
   10.3455   12.5596    4.5665 N   0  0  0  0  0  0  0  0  0  0  0  0
   10.5639   13.1890    6.8255 N   0  0  0  0  0  0  0  0  0  0  0  0
   11.0714   13.0129    8.0678 C   0  0  0  0  0  0  0  0  0  0  0  0
   11.9511   11.9294    8.3174 C   0  0  0  0  0  0  0  0  0  0  0  0
   12.2628   11.0655    7.2256 C   0  0  0  0  0  0  0  0  0  0  0  0
   13.1129    9.9889    7.3930 N   0  0  0  0  0  0  0  0  0  0  0  0
   12.3042   11.9931    9.6250 N   0  0  0  0  0  0  0  0  0  0  0  0
   11.7166   13.0143   10.1819 C   0  0  0  0  0  0  0  0  0  0  0  0
   10.9463   13.6727    9.2633 N   0  0  0  0  0  0  0  0  0  0  0  0
  1  7  2  0  0  0  0
  1  2  1  0  0  0  0
  2  3  1  0  0  0  0
  2  4  2  0  0  0  0
  4  5  1  0  0  0  0
  5  6  2  0  0  0  0
  5 11  1  0  0  0  0
  6  7  1  0  0  0  0
  6  9  1  0  0  0  0
  7  8  1  0  0  0  0
  9 10  1  0  0  0  0
 10 11  2  0  0  0  0
M  END
>  <CHROM.1>
11.53062387,12.18404896,7.54940130,-1.88028335,-0.89461407,1.18208819

>  <Name>
ligand

>  <RI>
0

>  <Rbt.Current_Directory>
/home/itssahil/PROJECTS/Mol_Feturizer/New_Systems/rnas/4FEP

>  <Rbt.Executable>
rbdock ($Id: //depot/dev/client3/rdock/2013.1/src/exe/rbdock.cxx#4 $)

>  <Rbt.Library>
libRbt.so (2013.1, Build901 2013/11/27)

>  <Rbt.Parameter_File>
/export/apps/rDock/src/rDock_2013.1_src/data/scripts/dock_solv.prm

>  <Rbt.Receptor>
prm/blind_docking_100.prm

>  <SCORE>
-9.91282

>  <SCORE.INTER>
-9.91282

>  <SCORE.INTER.CONST>
1

>  <SCORE.INTER.POLAR>
0

>  <SCORE.INTER.ROT>
0

>  <SCORE.INTER.SOLV>
18.1786

>  <SCORE.INTER.VDW>
-16.2681

>  <SCORE.INTER.norm>
-0.901166

>  <SCORE.INTRA>
0

>  <SCORE.INTRA.DIHEDRAL>
0

>  <SCORE.INTRA.DIHEDRAL.0>
0

>  <SCORE.INTRA.POLAR>
0

>  <SCORE.INTRA.POLAR.0>
0

>  <SCORE.INTRA.REPUL>
0

>  <SCORE.INTRA.REPUL.0>
0

>  <SCORE.INTRA.SOLV>
0

>  <SCORE.INTRA.SOLV.lig_0>
-48.9558

>  <SCORE.INTRA.VDW>
0

>  <SCORE.INTRA.VDW.0>
0

>  <SCORE.INTRA.norm>
0

>  <SCORE.RESTR>
0

>  <SCORE.RESTR.CAVITY>
0

>  <SCORE.RESTR.norm>
0

>  <SCORE.SYSTEM>
0

>  <SCORE.SYSTEM.CONST>
0

>  <SCORE.SYSTEM.DIHEDRAL>
0

>  <SCORE.SYSTEM.SOLV>
0

>  <SCORE.SYSTEM.norm>
0

>  <SCORE.heavy>
11

>  <SCORE.norm>
-0.901166

>  <RMSD>
3.400

$$$$
ligand
 OpenBabel11021811493D
libRbt.so/2013.1/901 2013/11/27
 11 12  0  0  0  0  0  0  0  0999 V2000
   11.6840   11.3205    5.9891 N   0  0  0  0  0  0  0  0  0  0  0  0
   10.8448   12.3536    5.8123 C   0  0  0  0  0  0  0  0  0  0  0  0
   10.2881   12.5634    4.5619 N   0  0  0  0  0  0  0  0  0  0  0  0
   10.5348   13.1858    6.8199 N   0  0  0  0  0  0  0  0  0  0  0  0
   11.0612   13.0084    8.0541 C   0  0  0  0  0  0  0  0  0  0  0  0
   11.9516   11.9298    8.2868 C   0  0  0  0  0  0  0  0  0  0  0  0
   12.2533   11.0722    7.1873 C   0  0  0  0  0  0  0  0  0  0  0  0
   13.1129   10.0007    7.3383 N   0  0  0  0  0  0  0  0  0  0  0  0
   12.3230   11.9910    9.5894 N   0  0  0  0  0  0  0  0  0  0  0  0
   11.7367   13.0061   10.1587 C   0  0  0  0  0  0  0  0  0  0  0  0
   10.9490   13.6628    9.2538 N   0  0  0  0  0  0  0  0  0  0  0  0
  1  7  2  0  0  0  0
  1  2  1  0  0  0  0
  2  3  1  0  0  0  0
  2  4  2  0  0  0  0
  4  5  1  0  0  0  0
  5  6  2  0  0  0  0
  5 11  1  0  0  0  0
  6  7  1  0  0  0  0
  6  9  1  0  0  0  0
  7  8  1  0  0  0  0
  9 10  1  0  0  0  0
 10 11  2  0  0  0  0
M  END
>  <CHROM.1>
11.51846655,12.18460869,7.52592874,-1.89728180,-0.88293720,1.17271413

>  <Name>
ligand

>  <RI>
0

>  <Rbt.Current_Directory>
/home/itssahil/PROJECTS/Mol_Feturizer/New_Systems/rnas/4FEP

>  <Rbt.Executable>
rbdock ($Id: //depot/dev/client3/rdock/2013.1/src/exe/rbdock.cxx#4 $)

>  <Rbt.Library>
libRbt.so (2013.1, Build901 2013/11/27)

>  <Rbt.Parameter_File>
/export/apps/rDock/src/rDock_2013.1_src/data/scripts/dock_solv.prm

>  <Rbt.Receptor>
prm/blind_docking_40.prm

>  <SCORE>
-9.86979

>  <SCORE.INTER>
-9.86979

>  <SCORE.INTER.CONST>
1

>  <SCORE.INTER.POLAR>
0

>  <SCORE.INTER.ROT>
0

>  <SCORE.INTER.SOLV>
18.0725

>  <SCORE.INTER.VDW>
-16.204

>  <SCORE.INTER.norm>
-0.897254

>  <SCORE.INTRA>
0

>  <SCORE.INTRA.DIHEDRAL>
0

>  <SCORE.INTRA.DIHEDRAL.0>
0

>  <SCORE.INTRA.POLAR>
0

>  <SCORE.INTRA.POLAR.0>
0

>  <SCORE.INTRA.REPUL>
0

>  <SCORE.INTRA.REPUL.0>
0

>  <SCORE.INTRA.SOLV>
0

>  <SCORE.INTRA.SOLV.lig_0>
-48.9558

>  <SCORE.INTRA.VDW>
0

>  <SCORE.INTRA.VDW.0>
0

>  <SCORE.INTRA.norm>
0

>  <SCORE.RESTR>
0

>  <SCORE.RESTR.CAVITY>
0

>  <SCORE.RESTR.norm>
0

>  <SCORE.SYSTEM>
0

>  <SCORE.SYSTEM.CONST>
0

>  <SCORE.SYSTEM.DIHEDRAL>
0

>  <SCORE.SYSTEM.SOLV>
0

>  <SCORE.SYSTEM.norm>
0

>  <SCORE.heavy>
11

>  <SCORE.norm>
-0.897254

>  <RMSD>
3.400

$$$$
ligand
 OpenBabel11021811493D
libRbt.so/2013.1/901 2013/11/27
 11 12  0  0  0  0  0  0  0  0999 V2000
   11.7072   11.3128    6.0035 N   0  0  0  0  0  0  0  0  0  0  0  0
   10.8661   12.3426    5.8166 C   0  0  0  0  0  0  0  0  0  0  0  0
   10.3167   12.5448    4.5617 N   0  0  0  0  0  0  0  0  0  0  0  0
   10.5473   13.1785    6.8183 N   0  0  0  0  0  0  0  0  0  0  0  0
   11.0665   13.0085    8.0565 C   0  0  0  0  0  0  0  0  0  0  0  0
   11.9587   11.9338    8.3000 C   0  0  0  0  0  0  0  0  0  0  0  0
   12.2698   11.0719    7.2064 C   0  0  0  0  0  0  0  0  0  0  0  0
   13.1316   10.0037    7.3679 N   0  0  0  0  0  0  0  0  0  0  0  0
   12.3217   12.0022    9.6046 N   0  0  0  0  0  0  0  0  0  0  0  0
   11.7288   13.0182   10.1653 C   0  0  0  0  0  0  0  0  0  0  0  0
   10.9448   13.6683    9.2524 N   0  0  0  0  0  0  0  0  0  0  0  0
  1  7  2  0  0  0  0
  1  2  1  0  0  0  0
  2  3  1  0  0  0  0
  2  4  2  0  0  0  0
  4  5  1  0  0  0  0
  5  6  2  0  0  0  0
  5 11  1  0  0  0  0
  6  7  1  0  0  0  0
  6  9  1  0  0  0  0
  7  8  1  0  0  0  0
  9 10  1  0  0  0  0
 10 11  2  0  0  0  0
M  END
>  <CHROM.1>
11.52952525,12.18366468,7.53516874,-1.88635437,-0.88260168,1.17643807

>  <Name>
ligand

>  <RI>
0

>  <Rbt.Current_Directory>
/home/itssahil/PROJECTS/Mol_Feturizer/New_Systems/rnas/4FEP

>  <Rbt.Executable>
rbdock ($Id: //depot/dev/client3/rdock/2013.1/src/exe/rbdock.cxx#4 $)

>  <Rbt.Library>
libRbt.so (2013.1, Build901 2013/11/27)

>  <Rbt.Parameter_File>
/export/apps/rDock/src/rDock_2013.1_src/data/scripts/dock_solv.prm

>  <Rbt.Receptor>
prm/blind_docking_40.prm

>  <SCORE>
-9.90154

>  <SCORE.INTER>
-9.90154

>  <SCORE.INTER.CONST>
1

>  <SCORE.INTER.POLAR>
0

>  <SCORE.INTER.ROT>
0

>  <SCORE.INTER.SOLV>
18.1165

>  <SCORE.INTER.VDW>
-16.2399

>  <SCORE.INTER.norm>
-0.90014

>  <SCORE.INTRA>
0

>  <SCORE.INTRA.DIHEDRAL>
0

>  <SCORE.INTRA.DIHEDRAL.0>
0

>  <SCORE.INTRA.POLAR>
0

>  <SCORE.INTRA.POLAR.0>
0

>  <SCORE.INTRA.REPUL>
0

>  <SCORE.INTRA.REPUL.0>
0

>  <SCORE.INTRA.SOLV>
0

>  <SCORE.INTRA.SOLV.lig_0>
-48.9558

>  <SCORE.INTRA.VDW>
0

>  <SCORE.INTRA.VDW.0>
0

>  <SCORE.INTRA.norm>
0

>  <SCORE.RESTR>
0

>  <SCORE.RESTR.CAVITY>
0

>  <SCORE.RESTR.norm>
0

>  <SCORE.SYSTEM>
0

>  <SCORE.SYSTEM.CONST>
0

>  <SCORE.SYSTEM.DIHEDRAL>
0

>  <SCORE.SYSTEM.SOLV>
0

>  <SCORE.SYSTEM.norm>
0

>  <SCORE.heavy>
11

>  <SCORE.norm>
-0.90014

>  <RMSD>
3.400

$$$$
ligand
 OpenBabel11021811493D
libRbt.so/2013.1/901 2013/11/27
 11 12  0  0  0  0  0  0  0  0999 V2000
   11.7270   11.3187    6.0133 N   0  0  0  0  0  0  0  0  0  0  0  0
   10.9041   12.3613    5.8162 C   0  0  0  0  0  0  0  0  0  0  0  0
   10.3814   12.5779    4.5523 N   0  0  0  0  0  0  0  0  0  0  0  0
   10.5782   13.1964    6.8163 N   0  0  0  0  0  0  0  0  0  0  0  0
   11.0715   13.0125    8.0632 C   0  0  0  0  0  0  0  0  0  0  0  0
   11.9436   11.9239    8.3174 C   0  0  0  0  0  0  0  0  0  0  0  0
   12.2632   11.0635    7.2252 C   0  0  0  0  0  0  0  0  0  0  0  0
   13.1066    9.9824    7.3969 N   0  0  0  0  0  0  0  0  0  0  0  0
   12.2828   11.9803    9.6290 N   0  0  0  0  0  0  0  0  0  0  0  0
   11.6938   13.0016   10.1841 C   0  0  0  0  0  0  0  0  0  0  0  0
   10.9365   13.6676    9.2602 N   0  0  0  0  0  0  0  0  0  0  0  0
  1  7  2  0  0  0  0
  1  2  1  0  0  0  0
  2  3  1  0  0  0  0
  2  4  2  0  0  0  0
  4  5  1  0  0  0  0
  5  6  2  0  0  0  0
  5 11  1  0  0  0  0
  6  7  1  0  0  0  0
  6  9  1  0  0  0  0
  7  8  1  0  0  0  0
  9 10  1  0  0  0  0
 10 11  2  0  0  0  0
M  END
>  <CHROM.1>
11.53257930,12.18391045,7.54607450,-1.86689701,-0.90278768,1.19700198

>  <Name>
ligand

>  <RI>
0

>  <Rbt.Current_Directory>
/home/itssahil/PROJECTS/Mol_Feturizer/New_Systems/rnas/4FEP

>  <Rbt.Executable>
rbdock ($Id: //depot/dev/client3/rdock/2013.1/src/exe/rbdock.cxx#4 $)

>  <Rbt.Library>
libRbt.so (2013.1, Build901 2013/11/27)

>  <Rbt.Parameter_File>
/export/apps/rDock/src/rDock_2013.1_src/data/scripts/dock_solv.prm

>  <Rbt.Receptor>
prm/blind_docking_40.prm

>  <SCORE>
-9.93065

>  <SCORE.INTER>
-9.93065

>  <SCORE.INTER.CONST>
1

>  <SCORE.INTER.POLAR>
0

>  <SCORE.INTER.ROT>
0

>  <SCORE.INTER.SOLV>
18.3019

>  <SCORE.INTER.VDW>
-16.3211

>  <SCORE.INTER.norm>
-0.902787

>  <SCORE.INTRA>
0

>  <SCORE.INTRA.DIHEDRAL>
0

>  <SCORE.INTRA.DIHEDRAL.0>
0

>  <SCORE.INTRA.POLAR>
0

>  <SCORE.INTRA.POLAR.0>
0

>  <SCORE.INTRA.REPUL>
0

>  <SCORE.INTRA.REPUL.0>
0

>  <SCORE.INTRA.SOLV>
0

>  <SCORE.INTRA.SOLV.lig_0>
-48.9558

>  <SCORE.INTRA.VDW>
0

>  <SCORE.INTRA.VDW.0>
0

>  <SCORE.INTRA.norm>
0

>  <SCORE.RESTR>
0

>  <SCORE.RESTR.CAVITY>
0

>  <SCORE.RESTR.norm>
0

>  <SCORE.SYSTEM>
0

>  <SCORE.SYSTEM.CONST>
0

>  <SCORE.SYSTEM.DIHEDRAL>
0

>  <SCORE.SYSTEM.SOLV>
0

>  <SCORE.SYSTEM.norm>
0

>  <SCORE.heavy>
11

>  <SCORE.norm>
-0.902787

>  <RMSD>
3.400

$$$$
ligand
 OpenBabel11021811493D
libRbt.so/2013.1/901 2013/11/27
 11 12  0  0  0  0  0  0  0  0999 V2000
   11.7252   11.3106    6.0037 N   0  0  0  0  0  0  0  0  0  0  0  0
   10.9001   12.3512    5.8057 C   0  0  0  0  0  0  0  0  0  0  0  0
   10.3781   12.5663    4.5412 N   0  0  0  0  0  0  0  0  0  0  0  0
   10.5712   13.1857    6.8053 N   0  0  0  0  0  0  0  0  0  0  0  0
   11.0637   13.0033    8.0527 C   0  0  0  0  0  0  0  0  0  0  0  0
   11.9382   11.9168    8.3079 C   0  0  0  0  0  0  0  0  0  0  0  0
   12.2609   11.0570    7.2162 C   0  0  0  0  0  0  0  0  0  0  0  0
   13.1068    9.9779    7.3889 N   0  0  0  0  0  0  0  0  0  0  0  0
   12.2761   11.9743    9.6198 N   0  0  0  0  0  0  0  0  0  0  0  0
   11.6841   12.9943   10.1742 C   0  0  0  0  0  0  0  0  0  0  0  0
   10.9260   13.6583    9.2494 N   0  0  0  0  0  0  0  0  0  0  0  0
  1  7  2  0  0  0  0
  1  2  1  0  0  0  0
  2  3  1  0  0  0  0
  2  4  2  0  0  0  0
  4  5  1  0  0  0  0
  5  6  2  0  0  0  0
  5 11  1  0  0  0  0
  6  7  1  0  0  0  0
  6  9  1  0  0  0  0
  7  8  1  0  0  0  0
  9 10  1  0  0  0  0
 10 11  2  0  0  0  0
M  END
>  <CHROM.1>
11.52732667,12.17568669,7.53615153,-1.86405613,-0.90091065,1.19902571

>  <Name>
ligand

>  <RI>
0

>  <Rbt.Current_Directory>
/home/itssahil/PROJECTS/Mol_Feturizer/New_Systems/rnas/4FEP

>  <Rbt.Executable>
rbdock ($Id: //depot/dev/client3/rdock/2013.1/src/exe/rbdock.cxx#4 $)

>  <Rbt.Library>
libRbt.so (2013.1, Build901 2013/11/27)

>  <Rbt.Parameter_File>
/export/apps/rDock/src/rDock_2013.1_src/data/scripts/dock_solv.prm

>  <Rbt.Receptor>
prm/blind_docking_40.prm

>  <SCORE>
-9.93095

>  <SCORE.INTER>
-9.93095

>  <SCORE.INTER.CONST>
1

>  <SCORE.INTER.POLAR>
0

>  <SCORE.INTER.ROT>
0

>  <SCORE.INTER.SOLV>
18.3482

>  <SCORE.INTER.VDW>
-16.3367

>  <SCORE.INTER.norm>
-0.902813

>  <SCORE.INTRA>
0

>  <SCORE.INTRA.DIHEDRAL>
0

>  <SCORE.INTRA.DIHEDRAL.0>
0

>  <SCORE.INTRA.POLAR>
0

>  <SCORE.INTRA.POLAR.0>
0

>  <SCORE.INTRA.REPUL>
0

>  <SCORE.INTRA.REPUL.0>
0

>  <SCORE.INTRA.SOLV>
0

>  <SCORE.INTRA.SOLV.lig_0>
-48.9558

>  <SCORE.INTRA.VDW>
0

>  <SCORE.INTRA.VDW.0>
0

>  <SCORE.INTRA.norm>
0

>  <SCORE.RESTR>
0

>  <SCORE.RESTR.CAVITY>
0

>  <SCORE.RESTR.norm>
0

>  <SCORE.SYSTEM>
0

>  <SCORE.SYSTEM.CONST>
0

>  <SCORE.SYSTEM.DIHEDRAL>
0

>  <SCORE.SYSTEM.SOLV>
0

>  <SCORE.SYSTEM.norm>
0

>  <SCORE.heavy>
11

>  <SCORE.norm>
-0.902813

>  <RMSD>
3.400

$$$$
ligand
 OpenBabel11021811493D
libRbt.so/2013.1/901 2013/11/27
 11 12  0  0  0  0  0  0  0  0999 V2000
   11.7198   11.3033    6.0058 N   0  0  0  0  0  0  0  0  0  0  0  0
   10.8997   12.3475    5.8063 C   0  0  0  0  0  0  0  0  0  0  0  0
   10.3778   12.5626    4.5418 N   0  0  0  0  0  0  0  0  0  0  0  0
   10.5758   13.1857    6.8044 N   0  0  0  0  0  0  0  0  0  0  0  0
   11.0683   13.0034    8.0518 C   0  0  0  0  0  0  0  0  0  0  0  0
   11.9376   11.9132    8.3086 C   0  0  0  0  0  0  0  0  0  0  0  0
   12.2552   11.0495    7.2184 C   0  0  0  0  0  0  0  0  0  0  0  0
   13.0959    9.9666    7.3927 N   0  0  0  0  0  0  0  0  0  0  0  0
   12.2768   11.9717    9.6201 N   0  0  0  0  0  0  0  0  0  0  0  0
   11.6903   12.9958   10.1728 C   0  0  0  0  0  0  0  0  0  0  0  0
   10.9349   13.6616    9.2473 N   0  0  0  0  0  0  0  0  0  0  0  0
  1  7  2  0  0  0  0
  1  2  1  0  0  0  0
  2  3  1  0  0  0  0
  2  4  2  0  0  0  0
  4  5  1  0  0  0  0
  5  6  2  0  0  0  0
  5 11  1  0  0  0  0
  6  7  1  0  0  0  0
  6  9  1  0  0  0  0
  7  8  1  0  0  0  0
  9 10  1  0  0  0  0
 10 11  2  0  0  0  0
M  END
>  <CHROM.1>
11.52741731,12.17247519,7.53663735,-1.86817211,-0.90523342,1.19372894

>  <Name>
ligand

>  <RI>
0

>  <Rbt.Current_Directory>
/home/itssahil/PROJECTS/Mol_Feturizer/New_Systems/rnas/4FEP

>  <Rbt.Executable>
rbdock ($Id: //depot/dev/client3/rdock/2013.1/src/exe/rbdock.cxx#4 $)

>  <Rbt.Library>
libRbt.so (2013.1, Build901 2013/11/27)

>  <Rbt.Parameter_File>
/export/apps/rDock/src/rDock_2013.1_src/data/scripts/dock_solv.prm

>  <Rbt.Receptor>
prm/blind_docking_40.prm

>  <SCORE>
-9.92318

>  <SCORE.INTER>
-9.92318

>  <SCORE.INTER.CONST>
1

>  <SCORE.INTER.POLAR>
0

>  <SCORE.INTER.ROT>
0

>  <SCORE.INTER.SOLV>
18.3829

>  <SCORE.INTER.VDW>
-16.3431

>  <SCORE.INTER.norm>
-0.902108

>  <SCORE.INTRA>
0

>  <SCORE.INTRA.DIHEDRAL>
0

>  <SCORE.INTRA.DIHEDRAL.0>
0

>  <SCORE.INTRA.POLAR>
0

>  <SCORE.INTRA.POLAR.0>
0

>  <SCORE.INTRA.REPUL>
0

>  <SCORE.INTRA.REPUL.0>
0

>  <SCORE.INTRA.SOLV>
0

>  <SCORE.INTRA.SOLV.lig_0>
-48.9558

>  <SCORE.INTRA.VDW>
0

>  <SCORE.INTRA.VDW.0>
0

>  <SCORE.INTRA.norm>
0

>  <SCORE.RESTR>
0

>  <SCORE.RESTR.CAVITY>
0

>  <SCORE.RESTR.norm>
0

>  <SCORE.SYSTEM>
0

>  <SCORE.SYSTEM.CONST>
0

>  <SCORE.SYSTEM.DIHEDRAL>
0

>  <SCORE.SYSTEM.SOLV>
0

>  <SCORE.SYSTEM.norm>
0

>  <SCORE.heavy>
11

>  <SCORE.norm>
-0.902108

>  <RMSD>
3.400

$$$$
ligand
 OpenBabel11021811493D
libRbt.so/2013.1/901 2013/11/27
 11 12  0  0  0  0  0  0  0  0999 V2000
   11.7283   11.3096    6.0104 N   0  0  0  0  0  0  0  0  0  0  0  0
   10.9049   12.3513    5.8110 C   0  0  0  0  0  0  0  0  0  0  0  0
   10.3833   12.5657    4.5463 N   0  0  0  0  0  0  0  0  0  0  0  0
   10.5773   13.1876    6.8096 N   0  0  0  0  0  0  0  0  0  0  0  0
   11.0695   13.0059    8.0572 C   0  0  0  0  0  0  0  0  0  0  0  0
   11.9422   11.9184    8.3139 C   0  0  0  0  0  0  0  0  0  0  0  0
   12.2635   11.0566    7.2233 C   0  0  0  0  0  0  0  0  0  0  0  0
   13.1076    9.9764    7.3974 N   0  0  0  0  0  0  0  0  0  0  0  0
   12.2800   11.9770    9.6257 N   0  0  0  0  0  0  0  0  0  0  0  0
   11.6897   12.9986   10.1788 C   0  0  0  0  0  0  0  0  0  0  0  0
   10.9328   13.6627    9.2531 N   0  0  0  0  0  0  0  0  0  0  0  0
  1  7  2  0  0  0  0
  1  2  1  0  0  0  0
  2  3  1  0  0  0  0
  2  4  2  0  0  0  0
  4  5  1  0  0  0  0
  5  6  2  0  0  0  0
  5 11  1  0  0  0  0
  6  7  1  0  0  0  0
  6  9  1  0  0  0  0
  7  8  1  0  0  0  0
  9 10  1  0  0  0  0
 10 11  2  0  0  0  0
M  END
>  <CHROM.1>
11.53173725,12.17691771,7.54177112,-1.86494506,-0.90244727,1.19707102

>  <Name>
ligand

>  <RI>
0

>  <Rbt.Current_Directory>
/home/itssahil/PROJECTS/Mol_Feturizer/New_Systems/rnas/4FEP

>  <Rbt.Executable>
rbdock ($Id: //depot/dev/client3/rdock/2013.1/src/exe/rbdock.cxx#4 $)

>  <Rbt.Library>
libRbt.so (2013.1, Build901 2013/11/27)

>  <Rbt.Parameter_File>
/export/apps/rDock/src/rDock_2013.1_src/data/scripts/dock_solv.prm

>  <Rbt.Receptor>
prm/pocket_docking_5.prm

>  <SCORE>
-9.93136

>  <SCORE.INTER>
-9.93136

>  <SCORE.INTER.CONST>
1

>  <SCORE.INTER.POLAR>
0

>  <SCORE.INTER.ROT>
0

>  <SCORE.INTER.SOLV>
18.3393

>  <SCORE.INTER.VDW>
-16.334

>  <SCORE.INTER.norm>
-0.902851

>  <SCORE.INTRA>
0

>  <SCORE.INTRA.DIHEDRAL>
0

>  <SCORE.INTRA.DIHEDRAL.0>
0

>  <SCORE.INTRA.POLAR>
0

>  <SCORE.INTRA.POLAR.0>
0

>  <SCORE.INTRA.REPUL>
0

>  <SCORE.INTRA.REPUL.0>
0

>  <SCORE.INTRA.SOLV>
0

>  <SCORE.INTRA.SOLV.lig_0>
-48.9558

>  <SCORE.INTRA.VDW>
0

>  <SCORE.INTRA.VDW.0>
0

>  <SCORE.INTRA.norm>
0

>  <SCORE.RESTR>
0

>  <SCORE.RESTR.CAVITY>
0

>  <SCORE.RESTR.norm>
0

>  <SCORE.SYSTEM>
0

>  <SCORE.SYSTEM.CONST>
0

>  <SCORE.SYSTEM.DIHEDRAL>
0

>  <SCORE.SYSTEM.SOLV>
0

>  <SCORE.SYSTEM.norm>
0

>  <SCORE.heavy>
11

>  <SCORE.norm>
-0.902851

>  <RMSD>
3.400

$$$$
ligand
 OpenBabel11021811493D
libRbt.so/2013.1/901 2013/11/27
 11 12  0  0  0  0  0  0  0  0999 V2000
   11.7127   11.3082    6.0130 N   0  0  0  0  0  0  0  0  0  0  0  0
   10.8845   12.3472    5.8190 C   0  0  0  0  0  0  0  0  0  0  0  0
   10.3488   12.5560    4.5592 N   0  0  0  0  0  0  0  0  0  0  0  0
   10.5655   13.1859    6.8183 N   0  0  0  0  0  0  0  0  0  0  0  0
   11.0715   13.0096    8.0611 C   0  0  0  0  0  0  0  0  0  0  0  0
   11.9497   11.9252    8.3120 C   0  0  0  0  0  0  0  0  0  0  0  0
   12.2615   11.0606    7.2208 C   0  0  0  0  0  0  0  0  0  0  0  0
   13.1102    9.9831    7.3894 N   0  0  0  0  0  0  0  0  0  0  0  0
   12.3015   11.9890    9.6199 N   0  0  0  0  0  0  0  0  0  0  0  0
   11.7145   13.0110   10.1759 C   0  0  0  0  0  0  0  0  0  0  0  0
   10.9459   13.6700    9.2563 N   0  0  0  0  0  0  0  0  0  0  0  0
  1  7  2  0  0  0  0
  1  2  1  0  0  0  0
  2  3  1  0  0  0  0
  2  4  2  0  0  0  0
  4  5  1  0  0  0  0
  5  6  2  0  0  0  0
  5 11  1  0  0  0  0
  6  7  1  0  0  0  0
  6  9  1  0  0  0  0
  7  8  1  0  0  0  0
  9 10  1  0  0  0  0
 10 11  2  0  0  0  0
M  END
>  <CHROM.1>
11.53031476,12.18012832,7.54348146,-1.87941931,-0.89607038,1.18243785

>  <Name>
ligand

>  <RI>
0

>  <Rbt.Current_Directory>
/home/itssahil/PROJECTS/Mol_Feturizer/New_Systems/rnas/4FEP

>  <Rbt.Executable>
rbdock ($Id: //depot/dev/client3/rdock/2013.1/src/exe/rbdock.cxx#4 $)

>  <Rbt.Library>
libRbt.so (2013.1, Build901 2013/11/27)

>  <Rbt.Parameter_File>
/export/apps/rDock/src/rDock_2013.1_src/data/scripts/dock_solv.prm

>  <Rbt.Receptor>
prm/pocket_docking_7.prm

>  <SCORE>
-9.91435

>  <SCORE.INTER>
-9.91435

>  <SCORE.INTER.CONST>
1

>  <SCORE.INTER.POLAR>
0

>  <SCORE.INTER.ROT>
0

>  <SCORE.INTER.SOLV>
18.2234

>  <SCORE.INTER.VDW>
-16.284

>  <SCORE.INTER.norm>
-0.901304

>  <SCORE.INTRA>
0

>  <SCORE.INTRA.DIHEDRAL>
0

>  <SCORE.INTRA.DIHEDRAL.0>
0

>  <SCORE.INTRA.POLAR>
0

>  <SCORE.INTRA.POLAR.0>
0

>  <SCORE.INTRA.REPUL>
0

>  <SCORE.INTRA.REPUL.0>
0

>  <SCORE.INTRA.SOLV>
0

>  <SCORE.INTRA.SOLV.lig_0>
-48.9558

>  <SCORE.INTRA.VDW>
0

>  <SCORE.INTRA.VDW.0>
0

>  <SCORE.INTRA.norm>
0

>  <SCORE.RESTR>
0

>  <SCORE.RESTR.CAVITY>
0

>  <SCORE.RESTR.norm>
0

>  <SCORE.SYSTEM>
0

>  <SCORE.SYSTEM.CONST>
0

>  <SCORE.SYSTEM.DIHEDRAL>
0

>  <SCORE.SYSTEM.SOLV>
0

>  <SCORE.SYSTEM.norm>
0

>  <SCORE.heavy>
11

>  <SCORE.norm>
-0.901304

>  <RMSD>
3.400

$$$$
ligand
 OpenBabel11021811493D
libRbt.so/2013.1/901 2013/11/27
 11 12  0  0  0  0  0  0  0  0999 V2000
   11.7085   11.3162    6.0129 N   0  0  0  0  0  0  0  0  0  0  0  0
   10.8810   12.3562    5.8217 C   0  0  0  0  0  0  0  0  0  0  0  0
   10.3445   12.5681    4.5628 N   0  0  0  0  0  0  0  0  0  0  0  0
   10.5634   13.1931    6.8230 N   0  0  0  0  0  0  0  0  0  0  0  0
   11.0701   13.0138    8.0651 C   0  0  0  0  0  0  0  0  0  0  0  0
   11.9477   11.9282    8.3130 C   0  0  0  0  0  0  0  0  0  0  0  0
   12.2581   11.0657    7.2198 C   0  0  0  0  0  0  0  0  0  0  0  0
   13.1061    9.9872    7.3855 N   0  0  0  0  0  0  0  0  0  0  0  0
   12.3006   11.9890    9.6208 N   0  0  0  0  0  0  0  0  0  0  0  0
   11.7148   13.0103   10.1794 C   0  0  0  0  0  0  0  0  0  0  0  0
   10.9460   13.6718    9.2617 N   0  0  0  0  0  0  0  0  0  0  0  0
  1  7  2  0  0  0  0
  1  2  1  0  0  0  0
  2  3  1  0  0  0  0
  2  4  2  0  0  0  0
  4  5  1  0  0  0  0
  5  6  2  0  0  0  0
  5 11  1  0  0  0  0
  6  7  1  0  0  0  0
  6  9  1  0  0  0  0
  7  8  1  0  0  0  0
  9 10  1  0  0  0  0
 10 11  2  0  0  0  0
M  END
>  <CHROM.1>
11.52797245,12.18506264,7.54536235,-1.88101137,-0.89648264,1.18328607

>  <Name>
ligand

>  <RI>
0

>  <Rbt.Current_Directory>
/home/itssahil/PROJECTS/Mol_Feturizer/New_Systems/rnas/4FEP

>  <Rbt.Executable>
rbdock ($Id: //depot/dev/client3/rdock/2013.1/src/exe/rbdock.cxx#4 $)

>  <Rbt.Library>
libRbt.so (2013.1, Build901 2013/11/27)

>  <Rbt.Parameter_File>
/export/apps/rDock/src/rDock_2013.1_src/data/scripts/dock_solv.prm

>  <Rbt.Receptor>
prm/pocket_docking_7.prm

>  <SCORE>
-9.91108

>  <SCORE.INTER>
-9.91108

>  <SCORE.INTER.CONST>
1

>  <SCORE.INTER.POLAR>
0

>  <SCORE.INTER.ROT>
0

>  <SCORE.INTER.SOLV>
18.1967

>  <SCORE.INTER.VDW>
-16.2729

>  <SCORE.INTER.norm>
-0.901007

>  <SCORE.INTRA>
0

>  <SCORE.INTRA.DIHEDRAL>
0

>  <SCORE.INTRA.DIHEDRAL.0>
0

>  <SCORE.INTRA.POLAR>
0

>  <SCORE.INTRA.POLAR.0>
0

>  <SCORE.INTRA.REPUL>
0

>  <SCORE.INTRA.REPUL.0>
0

>  <SCORE.INTRA.SOLV>
0

>  <SCORE.INTRA.SOLV.lig_0>
-48.9558

>  <SCORE.INTRA.VDW>
0

>  <SCORE.INTRA.VDW.0>
0

>  <SCORE.INTRA.norm>
0

>  <SCORE.RESTR>
0

>  <SCORE.RESTR.CAVITY>
0

>  <SCORE.RESTR.norm>
0

>  <SCORE.SYSTEM>
0

>  <SCORE.SYSTEM.CONST>
0

>  <SCORE.SYSTEM.DIHEDRAL>
0

>  <SCORE.SYSTEM.SOLV>
0

>  <SCORE.SYSTEM.norm>
0

>  <SCORE.heavy>
11

>  <SCORE.norm>
-0.901007

>  <RMSD>
3.400

$$$$
ligand
 OpenBabel11021811493D
libRbt.so/2013.1/901 2013/11/27
 11 12  0  0  0  0  0  0  0  0999 V2000
   11.7267   11.3165    6.0081 N   0  0  0  0  0  0  0  0  0  0  0  0
   10.9007   12.3564    5.8100 C   0  0  0  0  0  0  0  0  0  0  0  0
   10.3783   12.5709    4.5456 N   0  0  0  0  0  0  0  0  0  0  0  0
   10.5713   13.1907    6.8095 N   0  0  0  0  0  0  0  0  0  0  0  0
   11.0641   13.0089    8.0569 C   0  0  0  0  0  0  0  0  0  0  0  0
   11.9395   11.9232    8.3122 C   0  0  0  0  0  0  0  0  0  0  0  0
   12.2628   11.0635    7.2205 C   0  0  0  0  0  0  0  0  0  0  0  0
   13.1096    9.9851    7.3933 N   0  0  0  0  0  0  0  0  0  0  0  0
   12.2775   11.9812    9.6240 N   0  0  0  0  0  0  0  0  0  0  0  0
   11.6848   13.0008   10.1783 C   0  0  0  0  0  0  0  0  0  0  0  0
   10.9260   13.6640    9.2535 N   0  0  0  0  0  0  0  0  0  0  0  0
  1  7  2  0  0  0  0
  1  2  1  0  0  0  0
  2  3  1  0  0  0  0
  2  4  2  0  0  0  0
  4  5  1  0  0  0  0
  5  6  2  0  0  0  0
  5 11  1  0  0  0  0
  6  7  1  0  0  0  0
  6  9  1  0  0  0  0
  7  8  1  0  0  0  0
  9 10  1  0  0  0  0
 10 11  2  0  0  0  0
M  END
>  <CHROM.1>
11.52831606,12.18161462,7.54042046,-1.86377065,-0.90006695,1.19910776

>  <Name>
ligand

>  <RI>
0

>  <Rbt.Current_Directory>
/home/itssahil/PROJECTS/Mol_Feturizer/New_Systems/rnas/4FEP

>  <Rbt.Executable>
rbdock ($Id: //depot/dev/client3/rdock/2013.1/src/exe/rbdock.cxx#4 $)

>  <Rbt.Library>
libRbt.so (2013.1, Build901 2013/11/27)

>  <Rbt.Parameter_File>
/export/apps/rDock/src/rDock_2013.1_src/data/scripts/dock_solv.prm

>  <Rbt.Receptor>
prm/pocket_docking_8.prm

>  <SCORE>
-9.9285

>  <SCORE.INTER>
-9.9285

>  <SCORE.INTER.CONST>
1

>  <SCORE.INTER.POLAR>
0

>  <SCORE.INTER.ROT>
0

>  <SCORE.INTER.SOLV>
18.3197

>  <SCORE.INTER.VDW>
-16.3256

>  <SCORE.INTER.norm>
-0.902591

>  <SCORE.INTRA>
0

>  <SCORE.INTRA.DIHEDRAL>
0

>  <SCORE.INTRA.DIHEDRAL.0>
0

>  <SCORE.INTRA.POLAR>
0

>  <SCORE.INTRA.POLAR.0>
0

>  <SCORE.INTRA.REPUL>
0

>  <SCORE.INTRA.REPUL.0>
0

>  <SCORE.INTRA.SOLV>
0

>  <SCORE.INTRA.SOLV.lig_0>
-48.9558

>  <SCORE.INTRA.VDW>
0

>  <SCORE.INTRA.VDW.0>
0

>  <SCORE.INTRA.norm>
0

>  <SCORE.RESTR>
0

>  <SCORE.RESTR.CAVITY>
0

>  <SCORE.RESTR.norm>
0

>  <SCORE.SYSTEM>
0

>  <SCORE.SYSTEM.CONST>
0

>  <SCORE.SYSTEM.DIHEDRAL>
0

>  <SCORE.SYSTEM.SOLV>
0

>  <SCORE.SYSTEM.norm>
0

>  <SCORE.heavy>
11

>  <SCORE.norm>
-0.902591

>  <RMSD>
3.400

$$$$
ligand
 OpenBabel11021811493D
libRbt.so/2013.1/901 2013/11/27
 11 12  0  0  0  0  0  0  0  0999 V2000
   11.7464   11.3252    6.0210 N   0  0  0  0  0  0  0  0  0  0  0  0
   10.9166   12.3620    5.8225 C   0  0  0  0  0  0  0  0  0  0  0  0
   10.3956   12.5757    4.5574 N   0  0  0  0  0  0  0  0  0  0  0  0
   10.5820   13.1940    6.8223 N   0  0  0  0  0  0  0  0  0  0  0  0
   11.0733   13.0128    8.0703 C   0  0  0  0  0  0  0  0  0  0  0  0
   11.9526   11.9304    8.3261 C   0  0  0  0  0  0  0  0  0  0  0  0
   12.2812   11.0730    7.2341 C   0  0  0  0  0  0  0  0  0  0  0  0
   13.1320    9.9979    7.4073 N   0  0  0  0  0  0  0  0  0  0  0  0
   12.2880   11.9883    9.6386 N   0  0  0  0  0  0  0  0  0  0  0  0
   11.6902   13.0049   10.1929 C   0  0  0  0  0  0  0  0  0  0  0  0
   10.9305   13.6661    9.2674 N   0  0  0  0  0  0  0  0  0  0  0  0
  1  7  2  0  0  0  0
  1  2  1  0  0  0  0
  2  3  1  0  0  0  0
  2  4  2  0  0  0  0
  4  5  1  0  0  0  0
  5  6  2  0  0  0  0
  5 11  1  0  0  0  0
  6  7  1  0  0  0  0
  6  9  1  0  0  0  0
  7  8  1  0  0  0  0
  9 10  1  0  0  0  0
 10 11  2  0  0  0  0
M  END
>  <CHROM.1>
11.54174687,12.18790956,7.55383993,-1.85878216,-0.89702911,1.20405295

>  <Name>
ligand

>  <RI>
0

>  <Rbt.Current_Directory>
/home/itssahil/PROJECTS/Mol_Feturizer/New_Systems/rnas/4FEP

>  <Rbt.Executable>
rbdock ($Id: //depot/dev/client3/rdock/2013.1/src/exe/rbdock.cxx#4 $)

>  <Rbt.Library>
libRbt.so (2013.1, Build901 2013/11/27)

>  <Rbt.Parameter_File>
/export/apps/rDock/src/rDock_2013.1_src/data/scripts/dock_solv.prm

>  <Rbt.Receptor>
prm/blind_docking_100.prm

>  <SCORE>
-9.93853

>  <SCORE.INTER>
-9.93853

>  <SCORE.INTER.CONST>
1

>  <SCORE.INTER.POLAR>
0

>  <SCORE.INTER.ROT>
0

>  <SCORE.INTER.SOLV>
18.2572

>  <SCORE.INTER.VDW>
-16.3114

>  <SCORE.INTER.norm>
-0.903503

>  <SCORE.INTRA>
0

>  <SCORE.INTRA.DIHEDRAL>
0

>  <SCORE.INTRA.DIHEDRAL.0>
0

>  <SCORE.INTRA.POLAR>
0

>  <SCORE.INTRA.POLAR.0>
0

>  <SCORE.INTRA.REPUL>
0

>  <SCORE.INTRA.REPUL.0>
0

>  <SCORE.INTRA.SOLV>
0

>  <SCORE.INTRA.SOLV.lig_0>
-48.9558

>  <SCORE.INTRA.VDW>
0

>  <SCORE.INTRA.VDW.0>
0

>  <SCORE.INTRA.norm>
0

>  <SCORE.RESTR>
0

>  <SCORE.RESTR.CAVITY>
0

>  <SCORE.RESTR.norm>
0

>  <SCORE.SYSTEM>
0

>  <SCORE.SYSTEM.CONST>
0

>  <SCORE.SYSTEM.DIHEDRAL>
0

>  <SCORE.SYSTEM.SOLV>
0

>  <SCORE.SYSTEM.norm>
0

>  <SCORE.heavy>
11

>  <SCORE.norm>
-0.903503

>  <RMSD>
3.401

$$$$
ligand
 OpenBabel11021811493D
libRbt.so/2013.1/901 2013/11/27
 11 12  0  0  0  0  0  0  0  0999 V2000
   11.7366   11.3177    6.0066 N   0  0  0  0  0  0  0  0  0  0  0  0
   10.9033   12.3518    5.8086 C   0  0  0  0  0  0  0  0  0  0  0  0
   10.3812   12.5640    4.5437 N   0  0  0  0  0  0  0  0  0  0  0  0
   10.5664   13.1825    6.8086 N   0  0  0  0  0  0  0  0  0  0  0  0
   11.0587   13.0028    8.0565 C   0  0  0  0  0  0  0  0  0  0  0  0
   11.9416   11.9232    8.3118 C   0  0  0  0  0  0  0  0  0  0  0  0
   12.2727   11.0671    7.2195 C   0  0  0  0  0  0  0  0  0  0  0  0
   13.1271    9.9947    7.3923 N   0  0  0  0  0  0  0  0  0  0  0  0
   12.2773   11.9820    9.6241 N   0  0  0  0  0  0  0  0  0  0  0  0
   11.6764   12.9966   10.1788 C   0  0  0  0  0  0  0  0  0  0  0  0
   10.9142   13.6554    9.2537 N   0  0  0  0  0  0  0  0  0  0  0  0
  1  7  2  0  0  0  0
  1  2  1  0  0  0  0
  2  3  1  0  0  0  0
  2  4  2  0  0  0  0
  4  5  1  0  0  0  0
  5  6  2  0  0  0  0
  5 11  1  0  0  0  0
  6  7  1  0  0  0  0
  6  9  1  0  0  0  0
  7  8  1  0  0  0  0
  9 10  1  0  0  0  0
 10 11  2  0  0  0  0
M  END
>  <CHROM.1>
11.52966215,12.17950529,7.53970454,-1.85743832,-0.89382532,1.20524238

>  <Name>
ligand

>  <RI>
0

>  <Rbt.Current_Directory>
/home/itssahil/PROJECTS/Mol_Feturizer/New_Systems/rnas/4FEP

>  <Rbt.Executable>
rbdock ($Id: //depot/dev/client3/rdock/2013.1/src/exe/rbdock.cxx#4 $)

>  <Rbt.Library>
libRbt.so (2013.1, Build901 2013/11/27)

>  <Rbt.Parameter_File>
/export/apps/rDock/src/rDock_2013.1_src/data/scripts/dock_solv.prm

>  <Rbt.Receptor>
prm/blind_docking_100.prm

>  <SCORE>
-9.93574

>  <SCORE.INTER>
-9.93574

>  <SCORE.INTER.CONST>
1

>  <SCORE.INTER.POLAR>
0

>  <SCORE.INTER.ROT>
0

>  <SCORE.INTER.SOLV>
18.3005

>  <SCORE.INTER.VDW>
-16.324

>  <SCORE.INTER.norm>
-0.903249

>  <SCORE.INTRA>
0

>  <SCORE.INTRA.DIHEDRAL>
0

>  <SCORE.INTRA.DIHEDRAL.0>
0

>  <SCORE.INTRA.POLAR>
0

>  <SCORE.INTRA.POLAR.0>
0

>  <SCORE.INTRA.REPUL>
0

>  <SCORE.INTRA.REPUL.0>
0

>  <SCORE.INTRA.SOLV>
0

>  <SCORE.INTRA.SOLV.lig_0>
-48.9558

>  <SCORE.INTRA.VDW>
0

>  <SCORE.INTRA.VDW.0>
0

>  <SCORE.INTRA.norm>
0

>  <SCORE.RESTR>
0

>  <SCORE.RESTR.CAVITY>
0

>  <SCORE.RESTR.norm>
0

>  <SCORE.SYSTEM>
0

>  <SCORE.SYSTEM.CONST>
0

>  <SCORE.SYSTEM.DIHEDRAL>
0

>  <SCORE.SYSTEM.SOLV>
0

>  <SCORE.SYSTEM.norm>
0

>  <SCORE.heavy>
11

>  <SCORE.norm>
-0.903249

>  <RMSD>
3.401

$$$$
ligand
 OpenBabel11021811493D
libRbt.so/2013.1/901 2013/11/27
 11 12  0  0  0  0  0  0  0  0999 V2000
   11.7349   11.3194    6.0095 N   0  0  0  0  0  0  0  0  0  0  0  0
   10.9056   12.3568    5.8119 C   0  0  0  0  0  0  0  0  0  0  0  0
   10.3837   12.5711    4.5473 N   0  0  0  0  0  0  0  0  0  0  0  0
   10.5723   13.1888    6.8122 N   0  0  0  0  0  0  0  0  0  0  0  0
   11.0645   13.0070    8.0598 C   0  0  0  0  0  0  0  0  0  0  0  0
   11.9434   11.9240    8.3146 C   0  0  0  0  0  0  0  0  0  0  0  0
   12.2706   11.0667    7.2222 C   0  0  0  0  0  0  0  0  0  0  0  0
   13.1209    9.9910    7.3945 N   0  0  0  0  0  0  0  0  0  0  0  0
   12.2798   11.9814    9.6269 N   0  0  0  0  0  0  0  0  0  0  0  0
   11.6831   12.9983   10.1819 C   0  0  0  0  0  0  0  0  0  0  0  0
   10.9230   13.6601    9.2572 N   0  0  0  0  0  0  0  0  0  0  0  0
  1  7  2  0  0  0  0
  1  2  1  0  0  0  0
  2  3  1  0  0  0  0
  2  4  2  0  0  0  0
  4  5  1  0  0  0  0
  5  6  2  0  0  0  0
  5 11  1  0  0  0  0
  6  7  1  0  0  0  0
  6  9  1  0  0  0  0
  7  8  1  0  0  0  0
  9 10  1  0  0  0  0
 10 11  2  0  0  0  0
M  END
>  <CHROM.1>
11.53203259,12.18194399,7.54278769,-1.86031728,-0.89729473,1.20307992

>  <Name>
ligand

>  <RI>
0

>  <Rbt.Current_Directory>
/home/itssahil/PROJECTS/Mol_Feturizer/New_Systems/rnas/4FEP

>  <Rbt.Executable>
rbdock ($Id: //depot/dev/client3/rdock/2013.1/src/exe/rbdock.cxx#4 $)

>  <Rbt.Library>
libRbt.so (2013.1, Build901 2013/11/27)

>  <Rbt.Parameter_File>
/export/apps/rDock/src/rDock_2013.1_src/data/scripts/dock_solv.prm

>  <Rbt.Receptor>
prm/blind_docking_40.prm

>  <SCORE>
-9.93474

>  <SCORE.INTER>
-9.93474

>  <SCORE.INTER.CONST>
1

>  <SCORE.INTER.POLAR>
0

>  <SCORE.INTER.ROT>
0

>  <SCORE.INTER.SOLV>
18.3001

>  <SCORE.INTER.VDW>
-16.3232

>  <SCORE.INTER.norm>
-0.903158

>  <SCORE.INTRA>
0

>  <SCORE.INTRA.DIHEDRAL>
0

>  <SCORE.INTRA.DIHEDRAL.0>
0

>  <SCORE.INTRA.POLAR>
0

>  <SCORE.INTRA.POLAR.0>
0

>  <SCORE.INTRA.REPUL>
0

>  <SCORE.INTRA.REPUL.0>
0

>  <SCORE.INTRA.SOLV>
0

>  <SCORE.INTRA.SOLV.lig_0>
-48.9558

>  <SCORE.INTRA.VDW>
0

>  <SCORE.INTRA.VDW.0>
0

>  <SCORE.INTRA.norm>
0

>  <SCORE.RESTR>
0

>  <SCORE.RESTR.CAVITY>
0

>  <SCORE.RESTR.norm>
0

>  <SCORE.SYSTEM>
0

>  <SCORE.SYSTEM.CONST>
0

>  <SCORE.SYSTEM.DIHEDRAL>
0

>  <SCORE.SYSTEM.SOLV>
0

>  <SCORE.SYSTEM.norm>
0

>  <SCORE.heavy>
11

>  <SCORE.norm>
-0.903158

>  <RMSD>
3.401

$$$$
ligand
 OpenBabel11021811493D
libRbt.so/2013.1/901 2013/11/27
 11 12  0  0  0  0  0  0  0  0999 V2000
   11.7139   11.3322    5.9944 N   0  0  0  0  0  0  0  0  0  0  0  0
   10.8736   12.3630    5.8093 C   0  0  0  0  0  0  0  0  0  0  0  0
   10.3350   12.5760    4.5515 N   0  0  0  0  0  0  0  0  0  0  0  0
   10.5452   13.1896    6.8156 N   0  0  0  0  0  0  0  0  0  0  0  0
   11.0537   13.0090    8.0568 C   0  0  0  0  0  0  0  0  0  0  0  0
   11.9446   11.9328    8.2984 C   0  0  0  0  0  0  0  0  0  0  0  0
   12.2661   11.0810    7.2000 C   0  0  0  0  0  0  0  0  0  0  0  0
   13.1274   10.0121    7.3594 N   0  0  0  0  0  0  0  0  0  0  0  0
   12.2961   11.9899    9.6067 N   0  0  0  0  0  0  0  0  0  0  0  0
   11.6975   13.0003   10.1713 C   0  0  0  0  0  0  0  0  0  0  0  0
   10.9209   13.6579    9.2574 N   0  0  0  0  0  0  0  0  0  0  0  0
  1  7  2  0  0  0  0
  1  2  1  0  0  0  0
  2  3  1  0  0  0  0
  2  4  2  0  0  0  0
  4  5  1  0  0  0  0
  5  6  2  0  0  0  0
  5 11  1  0  0  0  0
  6  7  1  0  0  0  0
  6  9  1  0  0  0  0
  7  8  1  0  0  0  0
  9 10  1  0  0  0  0
 10 11  2  0  0  0  0
M  END
>  <CHROM.1>
11.52197856,12.18918919,7.53215906,-1.87303143,-0.88511943,1.19569458

>  <Name>
ligand

>  <RI>
0

>  <Rbt.Current_Directory>
/home/itssahil/PROJECTS/Mol_Feturizer/New_Systems/rnas/4FEP

>  <Rbt.Executable>
rbdock ($Id: //depot/dev/client3/rdock/2013.1/src/exe/rbdock.cxx#4 $)

>  <Rbt.Library>
libRbt.so (2013.1, Build901 2013/11/27)

>  <Rbt.Parameter_File>
/export/apps/rDock/src/rDock_2013.1_src/data/scripts/dock_solv.prm

>  <Rbt.Receptor>
prm/blind_docking_40.prm

>  <SCORE>
-9.88405

>  <SCORE.INTER>
-9.88405

>  <SCORE.INTER.CONST>
1

>  <SCORE.INTER.POLAR>
0

>  <SCORE.INTER.ROT>
0

>  <SCORE.INTER.SOLV>
18.1609

>  <SCORE.INTER.VDW>
-16.243

>  <SCORE.INTER.norm>
-0.89855

>  <SCORE.INTRA>
0

>  <SCORE.INTRA.DIHEDRAL>
0

>  <SCORE.INTRA.DIHEDRAL.0>
0

>  <SCORE.INTRA.POLAR>
0

>  <SCORE.INTRA.POLAR.0>
0

>  <SCORE.INTRA.REPUL>
0

>  <SCORE.INTRA.REPUL.0>
0

>  <SCORE.INTRA.SOLV>
0

>  <SCORE.INTRA.SOLV.lig_0>
-48.9558

>  <SCORE.INTRA.VDW>
0

>  <SCORE.INTRA.VDW.0>
0

>  <SCORE.INTRA.norm>
0

>  <SCORE.RESTR>
0

>  <SCORE.RESTR.CAVITY>
0

>  <SCORE.RESTR.norm>
0

>  <SCORE.SYSTEM>
0

>  <SCORE.SYSTEM.CONST>
0

>  <SCORE.SYSTEM.DIHEDRAL>
0

>  <SCORE.SYSTEM.SOLV>
0

>  <SCORE.SYSTEM.norm>
0

>  <SCORE.heavy>
11

>  <SCORE.norm>
-0.89855

>  <RMSD>
3.401

$$$$
ligand
 OpenBabel11021811493D
libRbt.so/2013.1/901 2013/11/27
 11 12  0  0  0  0  0  0  0  0999 V2000
   11.7382   11.3191    6.0184 N   0  0  0  0  0  0  0  0  0  0  0  0
   10.9122   12.3587    5.8185 C   0  0  0  0  0  0  0  0  0  0  0  0
   10.3912   12.5719    4.5533 N   0  0  0  0  0  0  0  0  0  0  0  0
   10.5816   13.1939    6.8169 N   0  0  0  0  0  0  0  0  0  0  0  0
   11.0731   13.0133    8.0649 C   0  0  0  0  0  0  0  0  0  0  0  0
   11.9485   11.9280    8.3222 C   0  0  0  0  0  0  0  0  0  0  0  0
   12.2731   11.0673    7.2317 C   0  0  0  0  0  0  0  0  0  0  0  0
   13.1198    9.9892    7.4063 N   0  0  0  0  0  0  0  0  0  0  0  0
   12.2851   11.9873    9.6343 N   0  0  0  0  0  0  0  0  0  0  0  0
   11.6916   13.0073   10.1870 C   0  0  0  0  0  0  0  0  0  0  0  0
   10.9337   13.6695    9.2608 N   0  0  0  0  0  0  0  0  0  0  0  0
  1  7  2  0  0  0  0
  1  2  1  0  0  0  0
  2  3  1  0  0  0  0
  2  4  2  0  0  0  0
  4  5  1  0  0  0  0
  5  6  2  0  0  0  0
  5 11  1  0  0  0  0
  6  7  1  0  0  0  0
  6  9  1  0  0  0  0
  7  8  1  0  0  0  0
  9 10  1  0  0  0  0
 10 11  2  0  0  0  0
M  END
>  <CHROM.1>
11.53804034,12.18561620,7.54973151,-1.86209626,-0.90030951,1.19948602

>  <Name>
ligand

>  <RI>
0

>  <Rbt.Current_Directory>
/home/itssahil/PROJECTS/Mol_Feturizer/New_Systems/rnas/4FEP

>  <Rbt.Executable>
rbdock ($Id: //depot/dev/client3/rdock/2013.1/src/exe/rbdock.cxx#4 $)

>  <Rbt.Library>
libRbt.so (2013.1, Build901 2013/11/27)

>  <Rbt.Parameter_File>
/export/apps/rDock/src/rDock_2013.1_src/data/scripts/dock_solv.prm

>  <Rbt.Receptor>
prm/blind_docking_60.prm

>  <SCORE>
-9.93294

>  <SCORE.INTER>
-9.93294

>  <SCORE.INTER.CONST>
1

>  <SCORE.INTER.POLAR>
0

>  <SCORE.INTER.ROT>
0

>  <SCORE.INTER.SOLV>
18.2943

>  <SCORE.INTER.VDW>
-16.3201

>  <SCORE.INTER.norm>
-0.902994

>  <SCORE.INTRA>
0

>  <SCORE.INTRA.DIHEDRAL>
0

>  <SCORE.INTRA.DIHEDRAL.0>
0

>  <SCORE.INTRA.POLAR>
0

>  <SCORE.INTRA.POLAR.0>
0

>  <SCORE.INTRA.REPUL>
0

>  <SCORE.INTRA.REPUL.0>
0

>  <SCORE.INTRA.SOLV>
0

>  <SCORE.INTRA.SOLV.lig_0>
-48.9558

>  <SCORE.INTRA.VDW>
0

>  <SCORE.INTRA.VDW.0>
0

>  <SCORE.INTRA.norm>
0

>  <SCORE.RESTR>
0

>  <SCORE.RESTR.CAVITY>
0

>  <SCORE.RESTR.norm>
0

>  <SCORE.SYSTEM>
0

>  <SCORE.SYSTEM.CONST>
0

>  <SCORE.SYSTEM.DIHEDRAL>
0

>  <SCORE.SYSTEM.SOLV>
0

>  <SCORE.SYSTEM.norm>
0

>  <SCORE.heavy>
11

>  <SCORE.norm>
-0.902994

>  <RMSD>
3.401

$$$$
ligand
 OpenBabel11021811493D
libRbt.so/2013.1/901 2013/11/27
 11 12  0  0  0  0  0  0  0  0999 V2000
   11.7164   11.3184    5.9956 N   0  0  0  0  0  0  0  0  0  0  0  0
   10.8870   12.3563    5.8013 C   0  0  0  0  0  0  0  0  0  0  0  0
   10.3629   12.5729    4.5380 N   0  0  0  0  0  0  0  0  0  0  0  0
   10.5559   13.1868    6.8035 N   0  0  0  0  0  0  0  0  0  0  0  0
   11.0504   13.0028    8.0499 C   0  0  0  0  0  0  0  0  0  0  0  0
   11.9294   11.9191    8.3013 C   0  0  0  0  0  0  0  0  0  0  0  0
   12.2543   11.0635    7.2069 C   0  0  0  0  0  0  0  0  0  0  0  0
   13.1045    9.9872    7.3758 N   0  0  0  0  0  0  0  0  0  0  0  0
   12.2683   11.9742    9.6130 N   0  0  0  0  0  0  0  0  0  0  0  0
   11.6729   12.9904   10.1708 C   0  0  0  0  0  0  0  0  0  0  0  0
   10.9114   13.6540    9.2486 N   0  0  0  0  0  0  0  0  0  0  0  0
  1  7  2  0  0  0  0
  1  2  1  0  0  0  0
  2  3  1  0  0  0  0
  2  4  2  0  0  0  0
  4  5  1  0  0  0  0
  5  6  2  0  0  0  0
  5 11  1  0  0  0  0
  6  7  1  0  0  0  0
  6  9  1  0  0  0  0
  7  8  1  0  0  0  0
  9 10  1  0  0  0  0
 10 11  2  0  0  0  0
M  END
>  <CHROM.1>
11.51666863,12.17843525,7.53066310,-1.86331833,-0.89692948,1.20236465

>  <Name>
ligand

>  <RI>
0

>  <Rbt.Current_Directory>
/home/itssahil/PROJECTS/Mol_Feturizer/New_Systems/rnas/4FEP

>  <Rbt.Executable>
rbdock ($Id: //depot/dev/client3/rdock/2013.1/src/exe/rbdock.cxx#4 $)

>  <Rbt.Library>
libRbt.so (2013.1, Build901 2013/11/27)

>  <Rbt.Parameter_File>
/export/apps/rDock/src/rDock_2013.1_src/data/scripts/dock_solv.prm

>  <Rbt.Receptor>
prm/pocket_docking_4.prm

>  <SCORE>
-9.92268

>  <SCORE.INTER>
-9.92268

>  <SCORE.INTER.CONST>
1

>  <SCORE.INTER.POLAR>
0

>  <SCORE.INTER.ROT>
0

>  <SCORE.INTER.SOLV>
18.3247

>  <SCORE.INTER.VDW>
-16.3233

>  <SCORE.INTER.norm>
-0.902062

>  <SCORE.INTRA>
0

>  <SCORE.INTRA.DIHEDRAL>
0

>  <SCORE.INTRA.DIHEDRAL.0>
0

>  <SCORE.INTRA.POLAR>
0

>  <SCORE.INTRA.POLAR.0>
0

>  <SCORE.INTRA.REPUL>
0

>  <SCORE.INTRA.REPUL.0>
0

>  <SCORE.INTRA.SOLV>
0

>  <SCORE.INTRA.SOLV.lig_0>
-48.9558

>  <SCORE.INTRA.VDW>
0

>  <SCORE.INTRA.VDW.0>
0

>  <SCORE.INTRA.norm>
0

>  <SCORE.RESTR>
0

>  <SCORE.RESTR.CAVITY>
0

>  <SCORE.RESTR.norm>
0

>  <SCORE.SYSTEM>
0

>  <SCORE.SYSTEM.CONST>
0

>  <SCORE.SYSTEM.DIHEDRAL>
0

>  <SCORE.SYSTEM.SOLV>
0

>  <SCORE.SYSTEM.norm>
0

>  <SCORE.heavy>
11

>  <SCORE.norm>
-0.902062

>  <RMSD>
3.401

$$$$
ligand
 OpenBabel11021811493D
libRbt.so/2013.1/901 2013/11/27
 11 12  0  0  0  0  0  0  0  0999 V2000
   11.7226   11.3469    5.9688 N   0  0  0  0  0  0  0  0  0  0  0  0
   10.9041   12.3941    5.7780 C   0  0  0  0  0  0  0  0  0  0  0  0
   10.3941   12.6291    4.5122 N   0  0  0  0  0  0  0  0  0  0  0  0
   10.5704   13.2163    6.7862 N   0  0  0  0  0  0  0  0  0  0  0  0
   11.0512   13.0143    8.0352 C   0  0  0  0  0  0  0  0  0  0  0  0
   11.9184   11.9203    8.2829 C   0  0  0  0  0  0  0  0  0  0  0  0
   12.2466   11.0740    7.1822 C   0  0  0  0  0  0  0  0  0  0  0  0
   13.0859    9.9887    7.3473 N   0  0  0  0  0  0  0  0  0  0  0  0
   12.2451   11.9581    9.5983 N   0  0  0  0  0  0  0  0  0  0  0  0
   11.6531   12.9732   10.1616 C   0  0  0  0  0  0  0  0  0  0  0  0
   10.9062   13.6534    9.2396 N   0  0  0  0  0  0  0  0  0  0  0  0
  1  7  2  0  0  0  0
  1  2  1  0  0  0  0
  2  3  1  0  0  0  0
  2  4  2  0  0  0  0
  4  5  1  0  0  0  0
  5  6  2  0  0  0  0
  5 11  1  0  0  0  0
  6  7  1  0  0  0  0
  6  9  1  0  0  0  0
  7  8  1  0  0  0  0
  9 10  1  0  0  0  0
 10 11  2  0  0  0  0
M  END
>  <CHROM.1>
11.51540546,12.19171837,7.51127882,-1.85364080,-0.90835624,1.22102861

>  <Name>
ligand

>  <RI>
0

>  <Rbt.Current_Directory>
/home/itssahil/PROJECTS/Mol_Feturizer/New_Systems/rnas/4FEP

>  <Rbt.Executable>
rbdock ($Id: //depot/dev/client3/rdock/2013.1/src/exe/rbdock.cxx#4 $)

>  <Rbt.Library>
libRbt.so (2013.1, Build901 2013/11/27)

>  <Rbt.Parameter_File>
/export/apps/rDock/src/rDock_2013.1_src/data/scripts/dock_solv.prm

>  <Rbt.Receptor>
prm/pocket_docking_4.prm

>  <SCORE>
-9.9005

>  <SCORE.INTER>
-9.9005

>  <SCORE.INTER.CONST>
1

>  <SCORE.INTER.POLAR>
0

>  <SCORE.INTER.ROT>
0

>  <SCORE.INTER.SOLV>
18.4877

>  <SCORE.INTER.VDW>
-16.3629

>  <SCORE.INTER.norm>
-0.900045

>  <SCORE.INTRA>
0

>  <SCORE.INTRA.DIHEDRAL>
0

>  <SCORE.INTRA.DIHEDRAL.0>
0

>  <SCORE.INTRA.POLAR>
0

>  <SCORE.INTRA.POLAR.0>
0

>  <SCORE.INTRA.REPUL>
0

>  <SCORE.INTRA.REPUL.0>
0

>  <SCORE.INTRA.SOLV>
0

>  <SCORE.INTRA.SOLV.lig_0>
-48.9558

>  <SCORE.INTRA.VDW>
0

>  <SCORE.INTRA.VDW.0>
0

>  <SCORE.INTRA.norm>
0

>  <SCORE.RESTR>
0

>  <SCORE.RESTR.CAVITY>
0

>  <SCORE.RESTR.norm>
0

>  <SCORE.SYSTEM>
0

>  <SCORE.SYSTEM.CONST>
0

>  <SCORE.SYSTEM.DIHEDRAL>
0

>  <SCORE.SYSTEM.SOLV>
0

>  <SCORE.SYSTEM.norm>
0

>  <SCORE.heavy>
11

>  <SCORE.norm>
-0.900045

>  <RMSD>
3.401

$$$$
ligand
 OpenBabel11021811493D
libRbt.so/2013.1/901 2013/11/27
 11 12  0  0  0  0  0  0  0  0999 V2000
   11.7244   11.3103    5.9999 N   0  0  0  0  0  0  0  0  0  0  0  0
   10.8941   12.3466    5.8011 C   0  0  0  0  0  0  0  0  0  0  0  0
   10.3715   12.5586    4.5364 N   0  0  0  0  0  0  0  0  0  0  0  0
   10.5605   13.1798    6.8003 N   0  0  0  0  0  0  0  0  0  0  0  0
   11.0534   13.0002    8.0480 C   0  0  0  0  0  0  0  0  0  0  0  0
   11.9333   11.9184    8.3040 C   0  0  0  0  0  0  0  0  0  0  0  0
   12.2609   11.0598    7.2127 C   0  0  0  0  0  0  0  0  0  0  0  0
   13.1121    9.9851    7.3862 N   0  0  0  0  0  0  0  0  0  0  0  0
   12.2703   11.9781    9.6160 N   0  0  0  0  0  0  0  0  0  0  0  0
   11.6729   12.9952   10.1698 C   0  0  0  0  0  0  0  0  0  0  0  0
   10.9118   13.6550    9.2444 N   0  0  0  0  0  0  0  0  0  0  0  0
  1  7  2  0  0  0  0
  1  2  1  0  0  0  0
  2  3  1  0  0  0  0
  2  4  2  0  0  0  0
  4  5  1  0  0  0  0
  5  6  2  0  0  0  0
  5 11  1  0  0  0  0
  6  7  1  0  0  0  0
  6  9  1  0  0  0  0
  7  8  1  0  0  0  0
  9 10  1  0  0  0  0
 10 11  2  0  0  0  0
M  END
>  <CHROM.1>
11.52141588,12.17486793,7.53196956,-1.86044330,-0.89631288,1.20150196

>  <Name>
ligand

>  <RI>
0

>  <Rbt.Current_Directory>
/home/itssahil/PROJECTS/Mol_Feturizer/New_Systems/rnas/4FEP

>  <Rbt.Executable>
rbdock ($Id: //depot/dev/client3/rdock/2013.1/src/exe/rbdock.cxx#4 $)

>  <Rbt.Library>
libRbt.so (2013.1, Build901 2013/11/27)

>  <Rbt.Parameter_File>
/export/apps/rDock/src/rDock_2013.1_src/data/scripts/dock_solv.prm

>  <Rbt.Receptor>
prm/pocket_docking_5.prm

>  <SCORE>
-9.92569

>  <SCORE.INTER>
-9.92569

>  <SCORE.INTER.CONST>
1

>  <SCORE.INTER.POLAR>
0

>  <SCORE.INTER.ROT>
0

>  <SCORE.INTER.SOLV>
18.3449

>  <SCORE.INTER.VDW>
-16.3321

>  <SCORE.INTER.norm>
-0.902335

>  <SCORE.INTRA>
0

>  <SCORE.INTRA.DIHEDRAL>
0

>  <SCORE.INTRA.DIHEDRAL.0>
0

>  <SCORE.INTRA.POLAR>
0

>  <SCORE.INTRA.POLAR.0>
0

>  <SCORE.INTRA.REPUL>
0

>  <SCORE.INTRA.REPUL.0>
0

>  <SCORE.INTRA.SOLV>
0

>  <SCORE.INTRA.SOLV.lig_0>
-48.9558

>  <SCORE.INTRA.VDW>
0

>  <SCORE.INTRA.VDW.0>
0

>  <SCORE.INTRA.norm>
0

>  <SCORE.RESTR>
0

>  <SCORE.RESTR.CAVITY>
0

>  <SCORE.RESTR.norm>
0

>  <SCORE.SYSTEM>
0

>  <SCORE.SYSTEM.CONST>
0

>  <SCORE.SYSTEM.DIHEDRAL>
0

>  <SCORE.SYSTEM.SOLV>
0

>  <SCORE.SYSTEM.norm>
0

>  <SCORE.heavy>
11

>  <SCORE.norm>
-0.902335

>  <RMSD>
3.401

$$$$
ligand
 OpenBabel11021811493D
libRbt.so/2013.1/901 2013/11/27
 11 12  0  0  0  0  0  0  0  0999 V2000
   11.7559   11.3205    6.0229 N   0  0  0  0  0  0  0  0  0  0  0  0
   10.9238   12.3548    5.8214 C   0  0  0  0  0  0  0  0  0  0  0  0
   10.4045   12.5653    4.5550 N   0  0  0  0  0  0  0  0  0  0  0  0
   10.5854   13.1875    6.8193 N   0  0  0  0  0  0  0  0  0  0  0  0
   11.0750   13.0094    8.0685 C   0  0  0  0  0  0  0  0  0  0  0  0
   11.9566   11.9297    8.3274 C   0  0  0  0  0  0  0  0  0  0  0  0
   12.2894   11.0716    7.2373 C   0  0  0  0  0  0  0  0  0  0  0  0
   13.1426    9.9989    7.4136 N   0  0  0  0  0  0  0  0  0  0  0  0
   12.2896   11.9905    9.6404 N   0  0  0  0  0  0  0  0  0  0  0  0
   11.6882   13.0064   10.1921 C   0  0  0  0  0  0  0  0  0  0  0  0
   10.9284   13.6642    9.2643 N   0  0  0  0  0  0  0  0  0  0  0  0
  1  7  2  0  0  0  0
  1  2  1  0  0  0  0
  2  3  1  0  0  0  0
  2  4  2  0  0  0  0
  4  5  1  0  0  0  0
  5  6  2  0  0  0  0
  5 11  1  0  0  0  0
  6  7  1  0  0  0  0
  6  9  1  0  0  0  0
  7  8  1  0  0  0  0
  9 10  1  0  0  0  0
 10 11  2  0  0  0  0
M  END
>  <CHROM.1>
11.54642713,12.18502466,7.55408838,-1.85469598,-0.89520664,1.20572303

>  <Name>
ligand

>  <RI>
0

>  <Rbt.Current_Directory>
/home/itssahil/PROJECTS/Mol_Feturizer/New_Systems/rnas/4FEP

>  <Rbt.Executable>
rbdock ($Id: //depot/dev/client3/rdock/2013.1/src/exe/rbdock.cxx#4 $)

>  <Rbt.Library>
libRbt.so (2013.1, Build901 2013/11/27)

>  <Rbt.Parameter_File>
/export/apps/rDock/src/rDock_2013.1_src/data/scripts/dock_solv.prm

>  <Rbt.Receptor>
prm/pocket_docking_5.prm

>  <SCORE>
-9.90759

>  <SCORE.INTER>
-9.90759

>  <SCORE.INTER.CONST>
1

>  <SCORE.INTER.POLAR>
0

>  <SCORE.INTER.ROT>
0

>  <SCORE.INTER.SOLV>
18.2715

>  <SCORE.INTER.VDW>
-16.2956

>  <SCORE.INTER.norm>
-0.90069

>  <SCORE.INTRA>
0

>  <SCORE.INTRA.DIHEDRAL>
0

>  <SCORE.INTRA.DIHEDRAL.0>
0

>  <SCORE.INTRA.POLAR>
0

>  <SCORE.INTRA.POLAR.0>
0

>  <SCORE.INTRA.REPUL>
0

>  <SCORE.INTRA.REPUL.0>
0

>  <SCORE.INTRA.SOLV>
0

>  <SCORE.INTRA.SOLV.lig_0>
-48.9558

>  <SCORE.INTRA.VDW>
0

>  <SCORE.INTRA.VDW.0>
0

>  <SCORE.INTRA.norm>
0

>  <SCORE.RESTR>
0

>  <SCORE.RESTR.CAVITY>
0

>  <SCORE.RESTR.norm>
0

>  <SCORE.SYSTEM>
0

>  <SCORE.SYSTEM.CONST>
0

>  <SCORE.SYSTEM.DIHEDRAL>
0

>  <SCORE.SYSTEM.SOLV>
0

>  <SCORE.SYSTEM.norm>
0

>  <SCORE.heavy>
11

>  <SCORE.norm>
-0.90069

>  <RMSD>
3.401

$$$$
ligand
 OpenBabel11021811493D
libRbt.so/2013.1/901 2013/11/27
 11 12  0  0  0  0  0  0  0  0999 V2000
   11.7392   11.3229    6.0088 N   0  0  0  0  0  0  0  0  0  0  0  0
   10.9063   12.3575    5.8115 C   0  0  0  0  0  0  0  0  0  0  0  0
   10.3846   12.5711    4.5467 N   0  0  0  0  0  0  0  0  0  0  0  0
   10.5696   13.1874    6.8123 N   0  0  0  0  0  0  0  0  0  0  0  0
   11.0616   13.0063    8.0600 C   0  0  0  0  0  0  0  0  0  0  0  0
   11.9440   11.9261    8.3145 C   0  0  0  0  0  0  0  0  0  0  0  0
   12.2750   11.0710    7.2216 C   0  0  0  0  0  0  0  0  0  0  0  0
   13.1289    9.9981    7.3934 N   0  0  0  0  0  0  0  0  0  0  0  0
   12.2794   11.9836    9.6270 N   0  0  0  0  0  0  0  0  0  0  0  0
   11.6788   12.9979   10.1825 C   0  0  0  0  0  0  0  0  0  0  0  0
   10.9170   13.6579    9.2579 N   0  0  0  0  0  0  0  0  0  0  0  0
  1  7  2  0  0  0  0
  1  2  1  0  0  0  0
  2  3  1  0  0  0  0
  2  4  2  0  0  0  0
  4  5  1  0  0  0  0
  5  6  2  0  0  0  0
  5 11  1  0  0  0  0
  6  7  1  0  0  0  0
  6  9  1  0  0  0  0
  7  8  1  0  0  0  0
  9 10  1  0  0  0  0
 10 11  2  0  0  0  0
M  END
>  <CHROM.1>
11.53228995,12.18334717,7.54260597,-1.85735658,-0.89426869,1.20624658

>  <Name>
ligand

>  <RI>
0

>  <Rbt.Current_Directory>
/home/itssahil/PROJECTS/Mol_Feturizer/New_Systems/rnas/4FEP

>  <Rbt.Executable>
rbdock ($Id: //depot/dev/client3/rdock/2013.1/src/exe/rbdock.cxx#4 $)

>  <Rbt.Library>
libRbt.so (2013.1, Build901 2013/11/27)

>  <Rbt.Parameter_File>
/export/apps/rDock/src/rDock_2013.1_src/data/scripts/dock_solv.prm

>  <Rbt.Receptor>
prm/pocket_docking_6.prm

>  <SCORE>
-9.93726

>  <SCORE.INTER>
-9.93726

>  <SCORE.INTER.CONST>
1

>  <SCORE.INTER.POLAR>
0

>  <SCORE.INTER.ROT>
0

>  <SCORE.INTER.SOLV>
18.2852

>  <SCORE.INTER.VDW>
-16.3199

>  <SCORE.INTER.norm>
-0.903387

>  <SCORE.INTRA>
0

>  <SCORE.INTRA.DIHEDRAL>
0

>  <SCORE.INTRA.DIHEDRAL.0>
0

>  <SCORE.INTRA.POLAR>
0

>  <SCORE.INTRA.POLAR.0>
0

>  <SCORE.INTRA.REPUL>
0

>  <SCORE.INTRA.REPUL.0>
0

>  <SCORE.INTRA.SOLV>
0

>  <SCORE.INTRA.SOLV.lig_0>
-48.9558

>  <SCORE.INTRA.VDW>
0

>  <SCORE.INTRA.VDW.0>
0

>  <SCORE.INTRA.norm>
0

>  <SCORE.RESTR>
0

>  <SCORE.RESTR.CAVITY>
0

>  <SCORE.RESTR.norm>
0

>  <SCORE.SYSTEM>
0

>  <SCORE.SYSTEM.CONST>
0

>  <SCORE.SYSTEM.DIHEDRAL>
0

>  <SCORE.SYSTEM.SOLV>
0

>  <SCORE.SYSTEM.norm>
0

>  <SCORE.heavy>
11

>  <SCORE.norm>
-0.903387

>  <RMSD>
3.401

$$$$
ligand
 OpenBabel11021811493D
libRbt.so/2013.1/901 2013/11/27
 11 12  0  0  0  0  0  0  0  0999 V2000
   11.7455   11.3263    6.0183 N   0  0  0  0  0  0  0  0  0  0  0  0
   10.9132   12.3608    5.8186 C   0  0  0  0  0  0  0  0  0  0  0  0
   10.3923   12.5722    4.5530 N   0  0  0  0  0  0  0  0  0  0  0  0
   10.5760   13.1928    6.8175 N   0  0  0  0  0  0  0  0  0  0  0  0
   11.0672   13.0139    8.0660 C   0  0  0  0  0  0  0  0  0  0  0  0
   11.9491   11.9339    8.3231 C   0  0  0  0  0  0  0  0  0  0  0  0
   12.2805   11.0765    7.2320 C   0  0  0  0  0  0  0  0  0  0  0  0
   13.1339   10.0037    7.4064 N   0  0  0  0  0  0  0  0  0  0  0  0
   12.2837   11.9938    9.6357 N   0  0  0  0  0  0  0  0  0  0  0  0
   11.6831   13.0094   10.1888 C   0  0  0  0  0  0  0  0  0  0  0  0
   10.9221   13.6678    9.2624 N   0  0  0  0  0  0  0  0  0  0  0  0
  1  7  2  0  0  0  0
  1  2  1  0  0  0  0
  2  3  1  0  0  0  0
  2  4  2  0  0  0  0
  4  5  1  0  0  0  0
  5  6  2  0  0  0  0
  5 11  1  0  0  0  0
  6  7  1  0  0  0  0
  6  9  1  0  0  0  0
  7  8  1  0  0  0  0
  9 10  1  0  0  0  0
 10 11  2  0  0  0  0
M  END
>  <CHROM.1>
11.53796438,12.18976476,7.55040461,-1.85659571,-0.89480741,1.20492745

>  <Name>
ligand

>  <RI>
0

>  <Rbt.Current_Directory>
/home/itssahil/PROJECTS/Mol_Feturizer/New_Systems/rnas/4FEP

>  <Rbt.Executable>
rbdock ($Id: //depot/dev/client3/rdock/2013.1/src/exe/rbdock.cxx#4 $)

>  <Rbt.Library>
libRbt.so (2013.1, Build901 2013/11/27)

>  <Rbt.Parameter_File>
/export/apps/rDock/src/rDock_2013.1_src/data/scripts/dock_solv.prm

>  <Rbt.Receptor>
prm/pocket_docking_7.prm

>  <SCORE>
-9.9343

>  <SCORE.INTER>
-9.9343

>  <SCORE.INTER.CONST>
1

>  <SCORE.INTER.POLAR>
0

>  <SCORE.INTER.ROT>
0

>  <SCORE.INTER.SOLV>
18.2626

>  <SCORE.INTER.VDW>
-16.3104

>  <SCORE.INTER.norm>
-0.903118

>  <SCORE.INTRA>
0

>  <SCORE.INTRA.DIHEDRAL>
0

>  <SCORE.INTRA.DIHEDRAL.0>
0

>  <SCORE.INTRA.POLAR>
0

>  <SCORE.INTRA.POLAR.0>
0

>  <SCORE.INTRA.REPUL>
0

>  <SCORE.INTRA.REPUL.0>
0

>  <SCORE.INTRA.SOLV>
0

>  <SCORE.INTRA.SOLV.lig_0>
-48.9558

>  <SCORE.INTRA.VDW>
0

>  <SCORE.INTRA.VDW.0>
0

>  <SCORE.INTRA.norm>
0

>  <SCORE.RESTR>
0

>  <SCORE.RESTR.CAVITY>
0

>  <SCORE.RESTR.norm>
0

>  <SCORE.SYSTEM>
0

>  <SCORE.SYSTEM.CONST>
0

>  <SCORE.SYSTEM.DIHEDRAL>
0

>  <SCORE.SYSTEM.SOLV>
0

>  <SCORE.SYSTEM.norm>
0

>  <SCORE.heavy>
11

>  <SCORE.norm>
-0.903118

>  <RMSD>
3.401

$$$$
ligand
 OpenBabel11021811493D
libRbt.so/2013.1/901 2013/11/27
 11 12  0  0  0  0  0  0  0  0999 V2000
   11.7433   11.3148    6.0223 N   0  0  0  0  0  0  0  0  0  0  0  0
   10.9119   12.3499    5.8219 C   0  0  0  0  0  0  0  0  0  0  0  0
   10.3892   12.5594    4.5567 N   0  0  0  0  0  0  0  0  0  0  0  0
   10.5772   13.1841    6.8197 N   0  0  0  0  0  0  0  0  0  0  0  0
   11.0701   13.0071    8.0677 C   0  0  0  0  0  0  0  0  0  0  0  0
   11.9512   11.9266    8.3255 C   0  0  0  0  0  0  0  0  0  0  0  0
   12.2799   11.0667    7.2356 C   0  0  0  0  0  0  0  0  0  0  0  0
   13.1323    9.9932    7.4107 N   0  0  0  0  0  0  0  0  0  0  0  0
   12.2879   11.9886    9.6375 N   0  0  0  0  0  0  0  0  0  0  0  0
   11.6893   13.0059   10.1896 C   0  0  0  0  0  0  0  0  0  0  0  0
   10.9277   13.6634    9.2632 N   0  0  0  0  0  0  0  0  0  0  0  0
  1  7  2  0  0  0  0
  1  2  1  0  0  0  0
  2  3  1  0  0  0  0
  2  4  2  0  0  0  0
  4  5  1  0  0  0  0
  5  6  2  0  0  0  0
  5 11  1  0  0  0  0
  6  7  1  0  0  0  0
  6  9  1  0  0  0  0
  7  8  1  0  0  0  0
  9 10  1  0  0  0  0
 10 11  2  0  0  0  0
M  END
>  <CHROM.1>
11.53915768,12.18143072,7.55302826,-1.85958604,-0.89531968,1.20068140

>  <Name>
ligand

>  <RI>
0

>  <Rbt.Current_Directory>
/home/itssahil/PROJECTS/Mol_Feturizer/New_Systems/rnas/4FEP

>  <Rbt.Executable>
rbdock ($Id: //depot/dev/client3/rdock/2013.1/src/exe/rbdock.cxx#4 $)

>  <Rbt.Library>
libRbt.so (2013.1, Build901 2013/11/27)

>  <Rbt.Parameter_File>
/export/apps/rDock/src/rDock_2013.1_src/data/scripts/dock_solv.prm

>  <Rbt.Receptor>
prm/pocket_docking_8.prm

>  <SCORE>
-9.93715

>  <SCORE.INTER>
-9.93715

>  <SCORE.INTER.CONST>
1

>  <SCORE.INTER.POLAR>
0

>  <SCORE.INTER.ROT>
0

>  <SCORE.INTER.SOLV>
18.2628

>  <SCORE.INTER.VDW>
-16.3124

>  <SCORE.INTER.norm>
-0.903378

>  <SCORE.INTRA>
0

>  <SCORE.INTRA.DIHEDRAL>
0

>  <SCORE.INTRA.DIHEDRAL.0>
0

>  <SCORE.INTRA.POLAR>
0

>  <SCORE.INTRA.POLAR.0>
0

>  <SCORE.INTRA.REPUL>
0

>  <SCORE.INTRA.REPUL.0>
0

>  <SCORE.INTRA.SOLV>
0

>  <SCORE.INTRA.SOLV.lig_0>
-48.9558

>  <SCORE.INTRA.VDW>
0

>  <SCORE.INTRA.VDW.0>
0

>  <SCORE.INTRA.norm>
0

>  <SCORE.RESTR>
0

>  <SCORE.RESTR.CAVITY>
0

>  <SCORE.RESTR.norm>
0

>  <SCORE.SYSTEM>
0

>  <SCORE.SYSTEM.CONST>
0

>  <SCORE.SYSTEM.DIHEDRAL>
0

>  <SCORE.SYSTEM.SOLV>
0

>  <SCORE.SYSTEM.norm>
0

>  <SCORE.heavy>
11

>  <SCORE.norm>
-0.903378

>  <RMSD>
3.401

$$$$
ligand
 OpenBabel11021811493D
libRbt.so/2013.1/901 2013/11/27
 11 12  0  0  0  0  0  0  0  0999 V2000
   11.8334   11.3360    5.9425 N   0  0  0  0  0  0  0  0  0  0  0  0
   11.0379   12.3958    5.7261 C   0  0  0  0  0  0  0  0  0  0  0  0
   10.5715   12.6381    4.4449 N   0  0  0  0  0  0  0  0  0  0  0  0
   10.6858   13.2238    6.7232 N   0  0  0  0  0  0  0  0  0  0  0  0
   11.1240   13.0150    7.9867 C   0  0  0  0  0  0  0  0  0  0  0  0
   11.9657   11.9076    8.2616 C   0  0  0  0  0  0  0  0  0  0  0  0
   12.3147   11.0556    7.1718 C   0  0  0  0  0  0  0  0  0  0  0  0
   13.1312    9.9572    7.3632 N   0  0  0  0  0  0  0  0  0  0  0  0
   12.2516   11.9411    9.5866 N   0  0  0  0  0  0  0  0  0  0  0  0
   11.6583   12.9657   10.1309 C   0  0  0  0  0  0  0  0  0  0  0  0
   10.9515   13.6571    9.1859 N   0  0  0  0  0  0  0  0  0  0  0  0
  1  7  2  0  0  0  0
  1  2  1  0  0  0  0
  2  3  1  0  0  0  0
  2  4  2  0  0  0  0
  4  5  1  0  0  0  0
  5  6  2  0  0  0  0
  5 11  1  0  0  0  0
  6  7  1  0  0  0  0
  6  9  1  0  0  0  0
  7  8  1  0  0  0  0
  9 10  1  0  0  0  0
 10 11  2  0  0  0  0
M  END
>  <CHROM.1>
11.59137532,12.18488477,7.47766688,-1.81330623,-0.93355774,1.25276714

>  <Name>
ligand

>  <RI>
0

>  <Rbt.Current_Directory>
/home/itssahil/PROJECTS/Mol_Feturizer/New_Systems/rnas/4FEP

>  <Rbt.Executable>
rbdock ($Id: //depot/dev/client3/rdock/2013.1/src/exe/rbdock.cxx#4 $)

>  <Rbt.Library>
libRbt.so (2013.1, Build901 2013/11/27)

>  <Rbt.Parameter_File>
/export/apps/rDock/src/rDock_2013.1_src/data/scripts/dock_solv.prm

>  <Rbt.Receptor>
prm/pocket_docking_8.prm

>  <SCORE>
-9.86326

>  <SCORE.INTER>
-9.86326

>  <SCORE.INTER.CONST>
1

>  <SCORE.INTER.POLAR>
0

>  <SCORE.INTER.ROT>
0

>  <SCORE.INTER.SOLV>
18.9447

>  <SCORE.INTER.VDW>
-16.4904

>  <SCORE.INTER.norm>
-0.89666

>  <SCORE.INTRA>
0

>  <SCORE.INTRA.DIHEDRAL>
0

>  <SCORE.INTRA.DIHEDRAL.0>
0

>  <SCORE.INTRA.POLAR>
0

>  <SCORE.INTRA.POLAR.0>
0

>  <SCORE.INTRA.REPUL>
0

>  <SCORE.INTRA.REPUL.0>
0

>  <SCORE.INTRA.SOLV>
0

>  <SCORE.INTRA.SOLV.lig_0>
-48.9558

>  <SCORE.INTRA.VDW>
0

>  <SCORE.INTRA.VDW.0>
0

>  <SCORE.INTRA.norm>
0

>  <SCORE.RESTR>
0

>  <SCORE.RESTR.CAVITY>
0

>  <SCORE.RESTR.norm>
0

>  <SCORE.SYSTEM>
0

>  <SCORE.SYSTEM.CONST>
0

>  <SCORE.SYSTEM.DIHEDRAL>
0

>  <SCORE.SYSTEM.SOLV>
0

>  <SCORE.SYSTEM.norm>
0

>  <SCORE.heavy>
11

>  <SCORE.norm>
-0.89666

>  <RMSD>
3.401

$$$$
ligand
 OpenBabel11021811493D
libRbt.so/2013.1/901 2013/11/27
 11 12  0  0  0  0  0  0  0  0999 V2000
   11.7513   11.3385    6.0188 N   0  0  0  0  0  0  0  0  0  0  0  0
   10.9108   12.3674    5.8243 C   0  0  0  0  0  0  0  0  0  0  0  0
   10.3874   12.5805    4.5601 N   0  0  0  0  0  0  0  0  0  0  0  0
   10.5679   13.1921    6.8273 N   0  0  0  0  0  0  0  0  0  0  0  0
   11.0613   13.0113    8.0746 C   0  0  0  0  0  0  0  0  0  0  0  0
   11.9518   11.9370    8.3261 C   0  0  0  0  0  0  0  0  0  0  0  0
   12.2891   11.0873    7.2309 C   0  0  0  0  0  0  0  0  0  0  0  0
   13.1509   10.0203    7.3998 N   0  0  0  0  0  0  0  0  0  0  0  0
   12.2869   11.9935    9.6388 N   0  0  0  0  0  0  0  0  0  0  0  0
   11.6787   13.0018   10.1970 C   0  0  0  0  0  0  0  0  0  0  0  0
   10.9120   13.6585    9.2742 N   0  0  0  0  0  0  0  0  0  0  0  0
  1  7  2  0  0  0  0
  1  2  1  0  0  0  0
  2  3  1  0  0  0  0
  2  4  2  0  0  0  0
  4  5  1  0  0  0  0
  5  6  2  0  0  0  0
  5 11  1  0  0  0  0
  6  7  1  0  0  0  0
  6  9  1  0  0  0  0
  7  8  1  0  0  0  0
  9 10  1  0  0  0  0
 10 11  2  0  0  0  0
M  END
>  <CHROM.1>
11.53813804,12.19323108,7.55493036,-1.85323985,-0.88727713,1.21214219

>  <Name>
ligand

>  <RI>
0

>  <Rbt.Current_Directory>
/home/itssahil/PROJECTS/Mol_Feturizer/New_Systems/rnas/4FEP

>  <Rbt.Executable>
rbdock ($Id: //depot/dev/client3/rdock/2013.1/src/exe/rbdock.cxx#4 $)

>  <Rbt.Library>
libRbt.so (2013.1, Build901 2013/11/27)

>  <Rbt.Parameter_File>
/export/apps/rDock/src/rDock_2013.1_src/data/scripts/dock_solv.prm

>  <Rbt.Receptor>
prm/pocket_docking_3.prm

>  <SCORE>
-9.90358

>  <SCORE.INTER>
-9.90358

>  <SCORE.INTER.CONST>
1

>  <SCORE.INTER.POLAR>
0

>  <SCORE.INTER.ROT>
0

>  <SCORE.INTER.SOLV>
18.1786

>  <SCORE.INTER.VDW>
-16.2619

>  <SCORE.INTER.norm>
-0.900325

>  <SCORE.INTRA>
0

>  <SCORE.INTRA.DIHEDRAL>
0

>  <SCORE.INTRA.DIHEDRAL.0>
0

>  <SCORE.INTRA.POLAR>
0

>  <SCORE.INTRA.POLAR.0>
0

>  <SCORE.INTRA.REPUL>
0

>  <SCORE.INTRA.REPUL.0>
0

>  <SCORE.INTRA.SOLV>
0

>  <SCORE.INTRA.SOLV.lig_0>
-48.9558

>  <SCORE.INTRA.VDW>
0

>  <SCORE.INTRA.VDW.0>
0

>  <SCORE.INTRA.norm>
0

>  <SCORE.RESTR>
0

>  <SCORE.RESTR.CAVITY>
0

>  <SCORE.RESTR.norm>
0

>  <SCORE.SYSTEM>
0

>  <SCORE.SYSTEM.CONST>
0

>  <SCORE.SYSTEM.DIHEDRAL>
0

>  <SCORE.SYSTEM.SOLV>
0

>  <SCORE.SYSTEM.norm>
0

>  <SCORE.heavy>
11

>  <SCORE.norm>
-0.900325

>  <RMSD>
3.402

$$$$
ligand
 OpenBabel11021811493D
libRbt.so/2013.1/901 2013/11/27
 11 12  0  0  0  0  0  0  0  0999 V2000
   11.7205   11.3121    5.9822 N   0  0  0  0  0  0  0  0  0  0  0  0
   10.8785   12.3397    5.7877 C   0  0  0  0  0  0  0  0  0  0  0  0
   10.3544   12.5517    4.5236 N   0  0  0  0  0  0  0  0  0  0  0  0
   10.5347   13.1643    6.7905 N   0  0  0  0  0  0  0  0  0  0  0  0
   11.0288   12.9846    8.0377 C   0  0  0  0  0  0  0  0  0  0  0  0
   11.9209   11.9117    8.2893 C   0  0  0  0  0  0  0  0  0  0  0  0
   12.2590   11.0621    7.1942 C   0  0  0  0  0  0  0  0  0  0  0  0
   13.1224    9.9964    7.3632 N   0  0  0  0  0  0  0  0  0  0  0  0
   12.2562   11.9690    9.6018 N   0  0  0  0  0  0  0  0  0  0  0  0
   11.6468   12.9767   10.1599 C   0  0  0  0  0  0  0  0  0  0  0  0
   10.8789   13.6320    9.2371 N   0  0  0  0  0  0  0  0  0  0  0  0
  1  7  2  0  0  0  0
  1  2  1  0  0  0  0
  2  3  1  0  0  0  0
  2  4  2  0  0  0  0
  4  5  1  0  0  0  0
  5  6  2  0  0  0  0
  5 11  1  0  0  0  0
  6  7  1  0  0  0  0
  6  9  1  0  0  0  0
  7  8  1  0  0  0  0
  9 10  1  0  0  0  0
 10 11  2  0  0  0  0
M  END
>  <CHROM.1>
11.50659354,12.16706895,7.51813433,-1.85289977,-0.88585344,1.21207686

>  <Name>
ligand

>  <RI>
0

>  <Rbt.Current_Directory>
/home/itssahil/PROJECTS/Mol_Feturizer/New_Systems/rnas/4FEP

>  <Rbt.Executable>
rbdock ($Id: //depot/dev/client3/rdock/2013.1/src/exe/rbdock.cxx#4 $)

>  <Rbt.Library>
libRbt.so (2013.1, Build901 2013/11/27)

>  <Rbt.Parameter_File>
/export/apps/rDock/src/rDock_2013.1_src/data/scripts/dock_solv.prm

>  <Rbt.Receptor>
prm/pocket_docking_6.prm

>  <SCORE>
-9.88873

>  <SCORE.INTER>
-9.88873

>  <SCORE.INTER.CONST>
1

>  <SCORE.INTER.POLAR>
0

>  <SCORE.INTER.ROT>
0

>  <SCORE.INTER.SOLV>
18.3415

>  <SCORE.INTER.VDW>
-16.3063

>  <SCORE.INTER.norm>
-0.898976

>  <SCORE.INTRA>
0

>  <SCORE.INTRA.DIHEDRAL>
0

>  <SCORE.INTRA.DIHEDRAL.0>
0

>  <SCORE.INTRA.POLAR>
0

>  <SCORE.INTRA.POLAR.0>
0

>  <SCORE.INTRA.REPUL>
0

>  <SCORE.INTRA.REPUL.0>
0

>  <SCORE.INTRA.SOLV>
0

>  <SCORE.INTRA.SOLV.lig_0>
-48.9558

>  <SCORE.INTRA.VDW>
0

>  <SCORE.INTRA.VDW.0>
0

>  <SCORE.INTRA.norm>
0

>  <SCORE.RESTR>
0

>  <SCORE.RESTR.CAVITY>
0

>  <SCORE.RESTR.norm>
0

>  <SCORE.SYSTEM>
0

>  <SCORE.SYSTEM.CONST>
0

>  <SCORE.SYSTEM.DIHEDRAL>
0

>  <SCORE.SYSTEM.SOLV>
0

>  <SCORE.SYSTEM.norm>
0

>  <SCORE.heavy>
11

>  <SCORE.norm>
-0.898976

>  <RMSD>
3.402

$$$$
ligand
 OpenBabel11021811493D
libRbt.so/2013.1/901 2013/11/27
 11 12  0  0  0  0  0  0  0  0999 V2000
   11.8002   11.3631    5.9443 N   0  0  0  0  0  0  0  0  0  0  0  0
   10.9848   12.4112    5.7457 C   0  0  0  0  0  0  0  0  0  0  0  0
   10.4987   12.6552    4.4722 N   0  0  0  0  0  0  0  0  0  0  0  0
   10.6317   13.2260    6.7533 N   0  0  0  0  0  0  0  0  0  0  0  0
   11.0889   13.0152    8.0096 C   0  0  0  0  0  0  0  0  0  0  0  0
   11.9519   11.9198    8.2658 C   0  0  0  0  0  0  0  0  0  0  0  0
   12.3013   11.0816    7.1654 C   0  0  0  0  0  0  0  0  0  0  0  0
   13.1379    9.9955    7.3385 N   0  0  0  0  0  0  0  0  0  0  0  0
   12.2537   11.9482    9.5874 N   0  0  0  0  0  0  0  0  0  0  0  0
   11.6506   12.9589   10.1467 C   0  0  0  0  0  0  0  0  0  0  0  0
   10.9208   13.6455    9.2157 N   0  0  0  0  0  0  0  0  0  0  0  0
  1  7  2  0  0  0  0
  1  2  1  0  0  0  0
  2  3  1  0  0  0  0
  2  4  2  0  0  0  0
  4  5  1  0  0  0  0
  5  6  2  0  0  0  0
  5 11  1  0  0  0  0
  6  7  1  0  0  0  0
  6  9  1  0  0  0  0
  7  8  1  0  0  0  0
  9 10  1  0  0  0  0
 10 11  2  0  0  0  0
M  END
>  <CHROM.1>
11.56342979,12.19660056,7.48868722,-1.82425890,-0.91410070,1.25146508

>  <Name>
ligand

>  <RI>
0

>  <Rbt.Current_Directory>
/home/itssahil/PROJECTS/Mol_Feturizer/New_Systems/rnas/4FEP

>  <Rbt.Executable>
rbdock ($Id: //depot/dev/client3/rdock/2013.1/src/exe/rbdock.cxx#4 $)

>  <Rbt.Library>
libRbt.so (2013.1, Build901 2013/11/27)

>  <Rbt.Parameter_File>
/export/apps/rDock/src/rDock_2013.1_src/data/scripts/dock_solv.prm

>  <Rbt.Receptor>
prm/pocket_docking_8.prm

>  <SCORE>
-9.80075

>  <SCORE.INTER>
-9.80075

>  <SCORE.INTER.CONST>
1

>  <SCORE.INTER.POLAR>
0

>  <SCORE.INTER.ROT>
0

>  <SCORE.INTER.SOLV>
18.6742

>  <SCORE.INTER.VDW>
-16.3586

>  <SCORE.INTER.norm>
-0.890977

>  <SCORE.INTRA>
0

>  <SCORE.INTRA.DIHEDRAL>
0

>  <SCORE.INTRA.DIHEDRAL.0>
0

>  <SCORE.INTRA.POLAR>
0

>  <SCORE.INTRA.POLAR.0>
0

>  <SCORE.INTRA.REPUL>
0

>  <SCORE.INTRA.REPUL.0>
0

>  <SCORE.INTRA.SOLV>
0

>  <SCORE.INTRA.SOLV.lig_0>
-48.9558

>  <SCORE.INTRA.VDW>
0

>  <SCORE.INTRA.VDW.0>
0

>  <SCORE.INTRA.norm>
0

>  <SCORE.RESTR>
0

>  <SCORE.RESTR.CAVITY>
0

>  <SCORE.RESTR.norm>
0

>  <SCORE.SYSTEM>
0

>  <SCORE.SYSTEM.CONST>
0

>  <SCORE.SYSTEM.DIHEDRAL>
0

>  <SCORE.SYSTEM.SOLV>
0

>  <SCORE.SYSTEM.norm>
0

>  <SCORE.heavy>
11

>  <SCORE.norm>
-0.890977

>  <RMSD>
3.402

$$$$
ligand
 OpenBabel11021811493D
libRbt.so/2013.1/901 2013/11/27
 11 12  0  0  0  0  0  0  0  0999 V2000
   11.7639   11.3356    6.0304 N   0  0  0  0  0  0  0  0  0  0  0  0
   10.9207   12.3616    5.8324 C   0  0  0  0  0  0  0  0  0  0  0  0
   10.3984   12.5703    4.5670 N   0  0  0  0  0  0  0  0  0  0  0  0
   10.5741   13.1877    6.8330 N   0  0  0  0  0  0  0  0  0  0  0  0
   11.0663   13.0113    8.0813 C   0  0  0  0  0  0  0  0  0  0  0  0
   11.9596   11.9402    8.3366 C   0  0  0  0  0  0  0  0  0  0  0  0
   12.3008   11.0889    7.2438 C   0  0  0  0  0  0  0  0  0  0  0  0
   13.1655   10.0248    7.4164 N   0  0  0  0  0  0  0  0  0  0  0  0
   12.2927   12.0007    9.6495 N   0  0  0  0  0  0  0  0  0  0  0  0
   11.6809   13.0086   10.2046 C   0  0  0  0  0  0  0  0  0  0  0  0
   10.9135   13.6609    9.2792 N   0  0  0  0  0  0  0  0  0  0  0  0
  1  7  2  0  0  0  0
  1  2  1  0  0  0  0
  2  3  1  0  0  0  0
  2  4  2  0  0  0  0
  4  5  1  0  0  0  0
  5  6  2  0  0  0  0
  5 11  1  0  0  0  0
  6  7  1  0  0  0  0
  6  9  1  0  0  0  0
  7  8  1  0  0  0  0
  9 10  1  0  0  0  0
 10 11  2  0  0  0  0
M  END
>  <CHROM.1>
11.54621113,12.19341025,7.56424140,-1.84965032,-0.88503326,1.21256580

>  <Name>
ligand

>  <RI>
0

>  <Rbt.Current_Directory>
/home/itssahil/PROJECTS/Mol_Feturizer/New_Systems/rnas/4FEP

>  <Rbt.Executable>
rbdock ($Id: //depot/dev/client3/rdock/2013.1/src/exe/rbdock.cxx#4 $)

>  <Rbt.Library>
libRbt.so (2013.1, Build901 2013/11/27)

>  <Rbt.Parameter_File>
/export/apps/rDock/src/rDock_2013.1_src/data/scripts/dock_solv.prm

>  <Rbt.Receptor>
prm/blind_docking_100.prm

>  <SCORE>
-9.90582

>  <SCORE.INTER>
-9.90582

>  <SCORE.INTER.CONST>
1

>  <SCORE.INTER.POLAR>
0

>  <SCORE.INTER.ROT>
0

>  <SCORE.INTER.SOLV>
18.1514

>  <SCORE.INTER.VDW>
-16.2543

>  <SCORE.INTER.norm>
-0.900529

>  <SCORE.INTRA>
0

>  <SCORE.INTRA.DIHEDRAL>
0

>  <SCORE.INTRA.DIHEDRAL.0>
0

>  <SCORE.INTRA.POLAR>
0

>  <SCORE.INTRA.POLAR.0>
0

>  <SCORE.INTRA.REPUL>
0

>  <SCORE.INTRA.REPUL.0>
0

>  <SCORE.INTRA.SOLV>
0

>  <SCORE.INTRA.SOLV.lig_0>
-48.9558

>  <SCORE.INTRA.VDW>
0

>  <SCORE.INTRA.VDW.0>
0

>  <SCORE.INTRA.norm>
0

>  <SCORE.RESTR>
0

>  <SCORE.RESTR.CAVITY>
0

>  <SCORE.RESTR.norm>
0

>  <SCORE.SYSTEM>
0

>  <SCORE.SYSTEM.CONST>
0

>  <SCORE.SYSTEM.DIHEDRAL>
0

>  <SCORE.SYSTEM.SOLV>
0

>  <SCORE.SYSTEM.norm>
0

>  <SCORE.heavy>
11

>  <SCORE.norm>
-0.900529

>  <RMSD>
3.403

$$$$
ligand
 OpenBabel11021811493D
libRbt.so/2013.1/901 2013/11/27
 11 12  0  0  0  0  0  0  0  0999 V2000
   11.7204   11.3620    5.9682 N   0  0  0  0  0  0  0  0  0  0  0  0
   10.8595   12.3782    5.7978 C   0  0  0  0  0  0  0  0  0  0  0  0
   10.3029   12.5876    4.5472 N   0  0  0  0  0  0  0  0  0  0  0  0
   10.5277   13.1938    6.8119 N   0  0  0  0  0  0  0  0  0  0  0  0
   11.0534   13.0163    8.0464 C   0  0  0  0  0  0  0  0  0  0  0  0
   11.9663   11.9554    8.2725 C   0  0  0  0  0  0  0  0  0  0  0  0
   12.2907   11.1150    7.1661 C   0  0  0  0  0  0  0  0  0  0  0  0
   13.1730   10.0611    7.3104 N   0  0  0  0  0  0  0  0  0  0  0  0
   12.3315   12.0123    9.5770 N   0  0  0  0  0  0  0  0  0  0  0  0
   11.7211   13.0089   10.1535 C   0  0  0  0  0  0  0  0  0  0  0  0
   10.9225   13.6568    9.2517 N   0  0  0  0  0  0  0  0  0  0  0  0
  1  7  2  0  0  0  0
  1  2  1  0  0  0  0
  2  3  1  0  0  0  0
  2  4  2  0  0  0  0
  4  5  1  0  0  0  0
  5  6  2  0  0  0  0
  5 11  1  0  0  0  0
  6  7  1  0  0  0  0
  6  9  1  0  0  0  0
  7  8  1  0  0  0  0
  9 10  1  0  0  0  0
 10 11  2  0  0  0  0
M  END
>  <CHROM.1>
11.53044900,12.20779010,7.51232860,-1.87904201,-0.86409234,1.19611102

>  <Name>
ligand

>  <RI>
0

>  <Rbt.Current_Directory>
/home/itssahil/PROJECTS/Mol_Feturizer/New_Systems/rnas/4FEP

>  <Rbt.Executable>
rbdock ($Id: //depot/dev/client3/rdock/2013.1/src/exe/rbdock.cxx#4 $)

>  <Rbt.Library>
libRbt.so (2013.1, Build901 2013/11/27)

>  <Rbt.Parameter_File>
/export/apps/rDock/src/rDock_2013.1_src/data/scripts/dock_solv.prm

>  <Rbt.Receptor>
prm/blind_docking_80.prm

>  <SCORE>
-9.88767

>  <SCORE.INTER>
-9.88767

>  <SCORE.INTER.CONST>
1

>  <SCORE.INTER.POLAR>
0

>  <SCORE.INTER.ROT>
0

>  <SCORE.INTER.SOLV>
17.9889

>  <SCORE.INTER.VDW>
-16.1881

>  <SCORE.INTER.norm>
-0.898879

>  <SCORE.INTRA>
0

>  <SCORE.INTRA.DIHEDRAL>
0

>  <SCORE.INTRA.DIHEDRAL.0>
0

>  <SCORE.INTRA.POLAR>
0

>  <SCORE.INTRA.POLAR.0>
0

>  <SCORE.INTRA.REPUL>
0

>  <SCORE.INTRA.REPUL.0>
0

>  <SCORE.INTRA.SOLV>
0

>  <SCORE.INTRA.SOLV.lig_0>
-48.9558

>  <SCORE.INTRA.VDW>
0

>  <SCORE.INTRA.VDW.0>
0

>  <SCORE.INTRA.norm>
0

>  <SCORE.RESTR>
0

>  <SCORE.RESTR.CAVITY>
0

>  <SCORE.RESTR.norm>
0

>  <SCORE.SYSTEM>
0

>  <SCORE.SYSTEM.CONST>
0

>  <SCORE.SYSTEM.DIHEDRAL>
0

>  <SCORE.SYSTEM.SOLV>
0

>  <SCORE.SYSTEM.norm>
0

>  <SCORE.heavy>
11

>  <SCORE.norm>
-0.898879

>  <RMSD>
3.403

$$$$
ligand
 OpenBabel11021811493D
libRbt.so/2013.1/901 2013/11/27
 11 12  0  0  0  0  0  0  0  0999 V2000
   11.7308   11.3623    5.9712 N   0  0  0  0  0  0  0  0  0  0  0  0
   10.8719   12.3797    5.7977 C   0  0  0  0  0  0  0  0  0  0  0  0
   10.3202   12.5900    4.5451 N   0  0  0  0  0  0  0  0  0  0  0  0
   10.5373   13.1955    6.8108 N   0  0  0  0  0  0  0  0  0  0  0  0
   11.0582   13.0171    8.0472 C   0  0  0  0  0  0  0  0  0  0  0  0
   11.9689   11.9550    8.2765 C   0  0  0  0  0  0  0  0  0  0  0  0
   12.2963   11.1143    7.1712 C   0  0  0  0  0  0  0  0  0  0  0  0
   13.1766   10.0593    7.3186 N   0  0  0  0  0  0  0  0  0  0  0  0
   12.3293   12.0113    9.5824 N   0  0  0  0  0  0  0  0  0  0  0  0
   11.7181   13.0086   10.1567 C   0  0  0  0  0  0  0  0  0  0  0  0
   10.9237   13.6577    9.2521 N   0  0  0  0  0  0  0  0  0  0  0  0
  1  7  2  0  0  0  0
  1  2  1  0  0  0  0
  2  3  1  0  0  0  0
  2  4  2  0  0  0  0
  4  5  1  0  0  0  0
  5  6  2  0  0  0  0
  5 11  1  0  0  0  0
  6  7  1  0  0  0  0
  6  9  1  0  0  0  0
  7  8  1  0  0  0  0
  9 10  1  0  0  0  0
 10 11  2  0  0  0  0
M  END
>  <CHROM.1>
11.53620185,12.20807560,7.51474034,-1.87443157,-0.86667352,1.19977507

>  <Name>
ligand

>  <RI>
0

>  <Rbt.Current_Directory>
/home/itssahil/PROJECTS/Mol_Feturizer/New_Systems/rnas/4FEP

>  <Rbt.Executable>
rbdock ($Id: //depot/dev/client3/rdock/2013.1/src/exe/rbdock.cxx#4 $)

>  <Rbt.Library>
libRbt.so (2013.1, Build901 2013/11/27)

>  <Rbt.Parameter_File>
/export/apps/rDock/src/rDock_2013.1_src/data/scripts/dock_solv.prm

>  <Rbt.Receptor>
prm/pocket_docking_3.prm

>  <SCORE>
-9.88815

>  <SCORE.INTER>
-9.88815

>  <SCORE.INTER.CONST>
1

>  <SCORE.INTER.POLAR>
0

>  <SCORE.INTER.ROT>
0

>  <SCORE.INTER.SOLV>
18.0262

>  <SCORE.INTER.VDW>
-16.2008

>  <SCORE.INTER.norm>
-0.898923

>  <SCORE.INTRA>
0

>  <SCORE.INTRA.DIHEDRAL>
0

>  <SCORE.INTRA.DIHEDRAL.0>
0

>  <SCORE.INTRA.POLAR>
0

>  <SCORE.INTRA.POLAR.0>
0

>  <SCORE.INTRA.REPUL>
0

>  <SCORE.INTRA.REPUL.0>
0

>  <SCORE.INTRA.SOLV>
0

>  <SCORE.INTRA.SOLV.lig_0>
-48.9558

>  <SCORE.INTRA.VDW>
0

>  <SCORE.INTRA.VDW.0>
0

>  <SCORE.INTRA.norm>
0

>  <SCORE.RESTR>
0

>  <SCORE.RESTR.CAVITY>
0

>  <SCORE.RESTR.norm>
0

>  <SCORE.SYSTEM>
0

>  <SCORE.SYSTEM.CONST>
0

>  <SCORE.SYSTEM.DIHEDRAL>
0

>  <SCORE.SYSTEM.SOLV>
0

>  <SCORE.SYSTEM.norm>
0

>  <SCORE.heavy>
11

>  <SCORE.norm>
-0.898923

>  <RMSD>
3.403

$$$$
ligand
 OpenBabel11021811493D
libRbt.so/2013.1/901 2013/11/27
 11 12  0  0  0  0  0  0  0  0999 V2000
   11.7390   11.3435    5.9385 N   0  0  0  0  0  0  0  0  0  0  0  0
   10.8819   12.3637    5.7725 C   0  0  0  0  0  0  0  0  0  0  0  0
   10.3220   12.5773    4.5242 N   0  0  0  0  0  0  0  0  0  0  0  0
   10.5571   13.1793    6.7889 N   0  0  0  0  0  0  0  0  0  0  0  0
   11.0862   12.9977    8.0214 C   0  0  0  0  0  0  0  0  0  0  0  0
   11.9952   11.9324    8.2428 C   0  0  0  0  0  0  0  0  0  0  0  0
   12.3122   11.0922    7.1342 C   0  0  0  0  0  0  0  0  0  0  0  0
   13.1904   10.0344    7.2739 N   0  0  0  0  0  0  0  0  0  0  0  0
   12.3651   11.9859    9.5462 N   0  0  0  0  0  0  0  0  0  0  0  0
   11.7610   12.9843   10.1262 C   0  0  0  0  0  0  0  0  0  0  0  0
   10.9622   13.6370    9.2281 N   0  0  0  0  0  0  0  0  0  0  0  0
  1  7  2  0  0  0  0
  1  2  1  0  0  0  0
  2  3  1  0  0  0  0
  2  4  2  0  0  0  0
  4  5  1  0  0  0  0
  5  6  2  0  0  0  0
  5 11  1  0  0  0  0
  6  7  1  0  0  0  0
  6  9  1  0  0  0  0
  7  8  1  0  0  0  0
  9 10  1  0  0  0  0
 10 11  2  0  0  0  0
M  END
>  <CHROM.1>
11.55791183,12.18784536,7.48452955,-1.88638216,-0.86689381,1.19195489

>  <Name>
ligand

>  <RI>
0

>  <Rbt.Current_Directory>
/home/itssahil/PROJECTS/Mol_Feturizer/New_Systems/rnas/4FEP

>  <Rbt.Executable>
rbdock ($Id: //depot/dev/client3/rdock/2013.1/src/exe/rbdock.cxx#4 $)

>  <Rbt.Library>
libRbt.so (2013.1, Build901 2013/11/27)

>  <Rbt.Parameter_File>
/export/apps/rDock/src/rDock_2013.1_src/data/scripts/dock_solv.prm

>  <Rbt.Receptor>
prm/pocket_docking_4.prm

>  <SCORE>
-9.85724

>  <SCORE.INTER>
-9.85724

>  <SCORE.INTER.CONST>
1

>  <SCORE.INTER.POLAR>
0

>  <SCORE.INTER.ROT>
0

>  <SCORE.INTER.SOLV>
18.1288

>  <SCORE.INTER.VDW>
-16.2144

>  <SCORE.INTER.norm>
-0.896113

>  <SCORE.INTRA>
0

>  <SCORE.INTRA.DIHEDRAL>
0

>  <SCORE.INTRA.DIHEDRAL.0>
0

>  <SCORE.INTRA.POLAR>
0

>  <SCORE.INTRA.POLAR.0>
0

>  <SCORE.INTRA.REPUL>
0

>  <SCORE.INTRA.REPUL.0>
0

>  <SCORE.INTRA.SOLV>
0

>  <SCORE.INTRA.SOLV.lig_0>
-48.9558

>  <SCORE.INTRA.VDW>
0

>  <SCORE.INTRA.VDW.0>
0

>  <SCORE.INTRA.norm>
0

>  <SCORE.RESTR>
0

>  <SCORE.RESTR.CAVITY>
0

>  <SCORE.RESTR.norm>
0

>  <SCORE.SYSTEM>
0

>  <SCORE.SYSTEM.CONST>
0

>  <SCORE.SYSTEM.DIHEDRAL>
0

>  <SCORE.SYSTEM.SOLV>
0

>  <SCORE.SYSTEM.norm>
0

>  <SCORE.heavy>
11

>  <SCORE.norm>
-0.896113

>  <RMSD>
3.403

$$$$
ligand
 OpenBabel11021811493D
libRbt.so/2013.1/901 2013/11/27
 11 12  0  0  0  0  0  0  0  0999 V2000
   11.7307   11.3571    5.9725 N   0  0  0  0  0  0  0  0  0  0  0  0
   10.8788   12.3800    5.7966 C   0  0  0  0  0  0  0  0  0  0  0  0
   10.3296   12.5918    4.5432 N   0  0  0  0  0  0  0  0  0  0  0  0
   10.5491   13.2000    6.8078 N   0  0  0  0  0  0  0  0  0  0  0  0
   11.0678   13.0203    8.0450 C   0  0  0  0  0  0  0  0  0  0  0  0
   11.9711   11.9524    8.2769 C   0  0  0  0  0  0  0  0  0  0  0  0
   12.2936   11.1075    7.1734 C   0  0  0  0  0  0  0  0  0  0  0  0
   13.1666   10.0468    7.3234 N   0  0  0  0  0  0  0  0  0  0  0  0
   12.3309   12.0086    9.5830 N   0  0  0  0  0  0  0  0  0  0  0  0
   11.7260   13.0111   10.1550 C   0  0  0  0  0  0  0  0  0  0  0  0
   10.9367   13.6639    9.2486 N   0  0  0  0  0  0  0  0  0  0  0  0
  1  7  2  0  0  0  0
  1  2  1  0  0  0  0
  2  3  1  0  0  0  0
  2  4  2  0  0  0  0
  4  5  1  0  0  0  0
  5  6  2  0  0  0  0
  5 11  1  0  0  0  0
  6  7  1  0  0  0  0
  6  9  1  0  0  0  0
  7  8  1  0  0  0  0
  9 10  1  0  0  0  0
 10 11  2  0  0  0  0
M  END
>  <CHROM.1>
11.54070373,12.20705183,7.51438925,-1.87718077,-0.87327927,1.19584567

>  <Name>
ligand

>  <RI>
0

>  <Rbt.Current_Directory>
/home/itssahil/PROJECTS/Mol_Feturizer/New_Systems/rnas/4FEP

>  <Rbt.Executable>
rbdock ($Id: //depot/dev/client3/rdock/2013.1/src/exe/rbdock.cxx#4 $)

>  <Rbt.Library>
libRbt.so (2013.1, Build901 2013/11/27)

>  <Rbt.Parameter_File>
/export/apps/rDock/src/rDock_2013.1_src/data/scripts/dock_solv.prm

>  <Rbt.Receptor>
prm/pocket_docking_5.prm

>  <SCORE>
-9.88416

>  <SCORE.INTER>
-9.88416

>  <SCORE.INTER.CONST>
1

>  <SCORE.INTER.POLAR>
0

>  <SCORE.INTER.ROT>
0

>  <SCORE.INTER.SOLV>
18.0801

>  <SCORE.INTER.VDW>
-16.2162

>  <SCORE.INTER.norm>
-0.89856

>  <SCORE.INTRA>
0

>  <SCORE.INTRA.DIHEDRAL>
0

>  <SCORE.INTRA.DIHEDRAL.0>
0

>  <SCORE.INTRA.POLAR>
0

>  <SCORE.INTRA.POLAR.0>
0

>  <SCORE.INTRA.REPUL>
0

>  <SCORE.INTRA.REPUL.0>
0

>  <SCORE.INTRA.SOLV>
0

>  <SCORE.INTRA.SOLV.lig_0>
-48.9558

>  <SCORE.INTRA.VDW>
0

>  <SCORE.INTRA.VDW.0>
0

>  <SCORE.INTRA.norm>
0

>  <SCORE.RESTR>
0

>  <SCORE.RESTR.CAVITY>
0

>  <SCORE.RESTR.norm>
0

>  <SCORE.SYSTEM>
0

>  <SCORE.SYSTEM.CONST>
0

>  <SCORE.SYSTEM.DIHEDRAL>
0

>  <SCORE.SYSTEM.SOLV>
0

>  <SCORE.SYSTEM.norm>
0

>  <SCORE.heavy>
11

>  <SCORE.norm>
-0.89856

>  <RMSD>
3.403

$$$$
ligand
 OpenBabel11021811493D
libRbt.so/2013.1/901 2013/11/27
 11 12  0  0  0  0  0  0  0  0999 V2000
   11.7466   11.3439    5.9740 N   0  0  0  0  0  0  0  0  0  0  0  0
   10.8889   12.3607    5.7920 C   0  0  0  0  0  0  0  0  0  0  0  0
   10.3430   12.5654    4.5359 N   0  0  0  0  0  0  0  0  0  0  0  0
   10.5500   13.1814    6.7996 N   0  0  0  0  0  0  0  0  0  0  0  0
   11.0652   13.0086    8.0392 C   0  0  0  0  0  0  0  0  0  0  0  0
   11.9744   11.9472    8.2776 C   0  0  0  0  0  0  0  0  0  0  0  0
   12.3065   11.1013    7.1778 C   0  0  0  0  0  0  0  0  0  0  0  0
   13.1858   10.0466    7.3341 N   0  0  0  0  0  0  0  0  0  0  0  0
   12.3290   12.0095    9.5849 N   0  0  0  0  0  0  0  0  0  0  0  0
   11.7155   13.0096   10.1518 C   0  0  0  0  0  0  0  0  0  0  0  0
   10.9255   13.6548    9.2405 N   0  0  0  0  0  0  0  0  0  0  0  0
  1  7  2  0  0  0  0
  1  2  1  0  0  0  0
  2  3  1  0  0  0  0
  2  4  2  0  0  0  0
  4  5  1  0  0  0  0
  5  6  2  0  0  0  0
  5 11  1  0  0  0  0
  6  7  1  0  0  0  0
  6  9  1  0  0  0  0
  7  8  1  0  0  0  0
  9 10  1  0  0  0  0
 10 11  2  0  0  0  0
M  END
>  <CHROM.1>
11.54532207,12.19690370,7.51275653,-1.86809019,-0.86867546,1.19994791

>  <Name>
ligand

>  <RI>
0

>  <Rbt.Current_Directory>
/home/itssahil/PROJECTS/Mol_Feturizer/New_Systems/rnas/4FEP

>  <Rbt.Executable>
rbdock ($Id: //depot/dev/client3/rdock/2013.1/src/exe/rbdock.cxx#4 $)

>  <Rbt.Library>
libRbt.so (2013.1, Build901 2013/11/27)

>  <Rbt.Parameter_File>
/export/apps/rDock/src/rDock_2013.1_src/data/scripts/dock_solv.prm

>  <Rbt.Receptor>
prm/pocket_docking_5.prm

>  <SCORE>
-9.89419

>  <SCORE.INTER>
-9.89419

>  <SCORE.INTER.CONST>
1

>  <SCORE.INTER.POLAR>
0

>  <SCORE.INTER.ROT>
0

>  <SCORE.INTER.SOLV>
18.1195

>  <SCORE.INTER.VDW>
-16.236

>  <SCORE.INTER.norm>
-0.899472

>  <SCORE.INTRA>
0

>  <SCORE.INTRA.DIHEDRAL>
0

>  <SCORE.INTRA.DIHEDRAL.0>
0

>  <SCORE.INTRA.POLAR>
0

>  <SCORE.INTRA.POLAR.0>
0

>  <SCORE.INTRA.REPUL>
0

>  <SCORE.INTRA.REPUL.0>
0

>  <SCORE.INTRA.SOLV>
0

>  <SCORE.INTRA.SOLV.lig_0>
-48.9558

>  <SCORE.INTRA.VDW>
0

>  <SCORE.INTRA.VDW.0>
0

>  <SCORE.INTRA.norm>
0

>  <SCORE.RESTR>
0

>  <SCORE.RESTR.CAVITY>
0

>  <SCORE.RESTR.norm>
0

>  <SCORE.SYSTEM>
0

>  <SCORE.SYSTEM.CONST>
0

>  <SCORE.SYSTEM.DIHEDRAL>
0

>  <SCORE.SYSTEM.SOLV>
0

>  <SCORE.SYSTEM.norm>
0

>  <SCORE.heavy>
11

>  <SCORE.norm>
-0.899472

>  <RMSD>
3.403

$$$$
ligand
 OpenBabel11021811493D
libRbt.so/2013.1/901 2013/11/27
 11 12  0  0  0  0  0  0  0  0999 V2000
   11.7493   11.3449    6.0183 N   0  0  0  0  0  0  0  0  0  0  0  0
   10.8945   12.3626    5.8275 C   0  0  0  0  0  0  0  0  0  0  0  0
   10.3655   12.5709    4.5648 N   0  0  0  0  0  0  0  0  0  0  0  0
   10.5426   13.1809    6.8327 N   0  0  0  0  0  0  0  0  0  0  0  0
   11.0411   13.0046    8.0786 C   0  0  0  0  0  0  0  0  0  0  0  0
   11.9466   11.9421    8.3263 C   0  0  0  0  0  0  0  0  0  0  0  0
   12.2930   11.0989    7.2288 C   0  0  0  0  0  0  0  0  0  0  0  0
   13.1696   10.0434    7.3940 N   0  0  0  0  0  0  0  0  0  0  0  0
   12.2837   12.0007    9.6383 N   0  0  0  0  0  0  0  0  0  0  0  0
   11.6631   12.9997   10.1996 C   0  0  0  0  0  0  0  0  0  0  0  0
   10.8856   13.6476    9.2796 N   0  0  0  0  0  0  0  0  0  0  0  0
  1  7  2  0  0  0  0
  1  2  1  0  0  0  0
  2  3  1  0  0  0  0
  2  4  2  0  0  0  0
  4  5  1  0  0  0  0
  5  6  2  0  0  0  0
  5 11  1  0  0  0  0
  6  7  1  0  0  0  0
  6  9  1  0  0  0  0
  7  8  1  0  0  0  0
  9 10  1  0  0  0  0
 10 11  2  0  0  0  0
M  END
>  <CHROM.1>
11.52783889,12.19398709,7.55641054,-1.84895928,-0.87382227,1.21721415

>  <Name>
ligand

>  <RI>
0

>  <Rbt.Current_Directory>
/home/itssahil/PROJECTS/Mol_Feturizer/New_Systems/rnas/4FEP

>  <Rbt.Executable>
rbdock ($Id: //depot/dev/client3/rdock/2013.1/src/exe/rbdock.cxx#4 $)

>  <Rbt.Library>
libRbt.so (2013.1, Build901 2013/11/27)

>  <Rbt.Parameter_File>
/export/apps/rDock/src/rDock_2013.1_src/data/scripts/dock_solv.prm

>  <Rbt.Receptor>
prm/blind_docking_40.prm

>  <SCORE>
-9.87156

>  <SCORE.INTER>
-9.87156

>  <SCORE.INTER.CONST>
1

>  <SCORE.INTER.POLAR>
0

>  <SCORE.INTER.ROT>
0

>  <SCORE.INTER.SOLV>
18.0745

>  <SCORE.INTER.VDW>
-16.2059

>  <SCORE.INTER.norm>
-0.897414

>  <SCORE.INTRA>
0

>  <SCORE.INTRA.DIHEDRAL>
0

>  <SCORE.INTRA.DIHEDRAL.0>
0

>  <SCORE.INTRA.POLAR>
0

>  <SCORE.INTRA.POLAR.0>
0

>  <SCORE.INTRA.REPUL>
0

>  <SCORE.INTRA.REPUL.0>
0

>  <SCORE.INTRA.SOLV>
0

>  <SCORE.INTRA.SOLV.lig_0>
-48.9558

>  <SCORE.INTRA.VDW>
0

>  <SCORE.INTRA.VDW.0>
0

>  <SCORE.INTRA.norm>
0

>  <SCORE.RESTR>
0

>  <SCORE.RESTR.CAVITY>
0

>  <SCORE.RESTR.norm>
0

>  <SCORE.SYSTEM>
0

>  <SCORE.SYSTEM.CONST>
0

>  <SCORE.SYSTEM.DIHEDRAL>
0

>  <SCORE.SYSTEM.SOLV>
0

>  <SCORE.SYSTEM.norm>
0

>  <SCORE.heavy>
11

>  <SCORE.norm>
-0.897414

>  <RMSD>
3.404

$$$$
ligand
 OpenBabel11021811493D
libRbt.so/2013.1/901 2013/11/27
 11 12  0  0  0  0  0  0  0  0999 V2000
   11.7079   11.3357    5.9875 N   0  0  0  0  0  0  0  0  0  0  0  0
   10.8489   12.3520    5.8085 C   0  0  0  0  0  0  0  0  0  0  0  0
   10.3118   12.5670    4.5504 N   0  0  0  0  0  0  0  0  0  0  0  0
   10.5004   13.1624    6.8213 N   0  0  0  0  0  0  0  0  0  0  0  0
   11.0069   12.9793    8.0630 C   0  0  0  0  0  0  0  0  0  0  0  0
   11.9171   11.9180    8.2982 C   0  0  0  0  0  0  0  0  0  0  0  0
   12.2595   11.0832    7.1930 C   0  0  0  0  0  0  0  0  0  0  0  0
   13.1403   10.0294    7.3460 N   0  0  0  0  0  0  0  0  0  0  0  0
   12.2618   11.9689    9.6086 N   0  0  0  0  0  0  0  0  0  0  0  0
   11.6415   12.9622   10.1802 C   0  0  0  0  0  0  0  0  0  0  0  0
   10.8566   13.6138    9.2692 N   0  0  0  0  0  0  0  0  0  0  0  0
  1  7  2  0  0  0  0
  1  2  1  0  0  0  0
  2  3  1  0  0  0  0
  2  4  2  0  0  0  0
  4  5  1  0  0  0  0
  5  6  2  0  0  0  0
  5 11  1  0  0  0  0
  6  7  1  0  0  0  0
  6  9  1  0  0  0  0
  7  8  1  0  0  0  0
  9 10  1  0  0  0  0
 10 11  2  0  0  0  0
M  END
>  <CHROM.1>
11.49298586,12.17374997,7.53254407,-1.85594260,-0.86888666,1.21857124

>  <Name>
ligand

>  <RI>
0

>  <Rbt.Current_Directory>
/home/itssahil/PROJECTS/Mol_Feturizer/New_Systems/rnas/4FEP

>  <Rbt.Executable>
rbdock ($Id: //depot/dev/client3/rdock/2013.1/src/exe/rbdock.cxx#4 $)

>  <Rbt.Library>
libRbt.so (2013.1, Build901 2013/11/27)

>  <Rbt.Parameter_File>
/export/apps/rDock/src/rDock_2013.1_src/data/scripts/dock_solv.prm

>  <Rbt.Receptor>
prm/blind_docking_60.prm

>  <SCORE>
-9.81991

>  <SCORE.INTER>
-9.81991

>  <SCORE.INTER.CONST>
1

>  <SCORE.INTER.POLAR>
0

>  <SCORE.INTER.ROT>
0

>  <SCORE.INTER.SOLV>
18.0847

>  <SCORE.INTER.VDW>
-16.1748

>  <SCORE.INTER.norm>
-0.892719

>  <SCORE.INTRA>
0

>  <SCORE.INTRA.DIHEDRAL>
0

>  <SCORE.INTRA.DIHEDRAL.0>
0

>  <SCORE.INTRA.POLAR>
0

>  <SCORE.INTRA.POLAR.0>
0

>  <SCORE.INTRA.REPUL>
0

>  <SCORE.INTRA.REPUL.0>
0

>  <SCORE.INTRA.SOLV>
0

>  <SCORE.INTRA.SOLV.lig_0>
-48.9558

>  <SCORE.INTRA.VDW>
0

>  <SCORE.INTRA.VDW.0>
0

>  <SCORE.INTRA.norm>
0

>  <SCORE.RESTR>
0

>  <SCORE.RESTR.CAVITY>
0

>  <SCORE.RESTR.norm>
0

>  <SCORE.SYSTEM>
0

>  <SCORE.SYSTEM.CONST>
0

>  <SCORE.SYSTEM.DIHEDRAL>
0

>  <SCORE.SYSTEM.SOLV>
0

>  <SCORE.SYSTEM.norm>
0

>  <SCORE.heavy>
11

>  <SCORE.norm>
-0.892719

>  <RMSD>
3.404

$$$$
ligand
 OpenBabel11021811493D
libRbt.so/2013.1/901 2013/11/27
 11 12  0  0  0  0  0  0  0  0999 V2000
   11.7539   11.3431    5.9605 N   0  0  0  0  0  0  0  0  0  0  0  0
   10.8900   12.3603    5.8135 C   0  0  0  0  0  0  0  0  0  0  0  0
   10.3033   12.5732    4.5774 N   0  0  0  0  0  0  0  0  0  0  0  0
   10.5836   13.1738    6.8373 N   0  0  0  0  0  0  0  0  0  0  0  0
   11.1390   12.9929    8.0582 C   0  0  0  0  0  0  0  0  0  0  0  0
   12.0563   11.9307    8.2595 C   0  0  0  0  0  0  0  0  0  0  0  0
   12.3530   11.0927    7.1436 C   0  0  0  0  0  0  0  0  0  0  0  0
   13.2376   10.0379    7.2638 N   0  0  0  0  0  0  0  0  0  0  0  0
   12.4532   11.9843    9.5549 N   0  0  0  0  0  0  0  0  0  0  0  0
   11.8578   12.9799   10.1484 C   0  0  0  0  0  0  0  0  0  0  0  0
   11.0380   13.6306    9.2679 N   0  0  0  0  0  0  0  0  0  0  0  0
  1  7  2  0  0  0  0
  1  2  1  0  0  0  0
  2  3  1  0  0  0  0
  2  4  2  0  0  0  0
  4  5  1  0  0  0  0
  5  6  2  0  0  0  0
  5 11  1  0  0  0  0
  6  7  1  0  0  0  0
  6  9  1  0  0  0  0
  7  8  1  0  0  0  0
  9 10  1  0  0  0  0
 10 11  2  0  0  0  0
M  END
>  <CHROM.1>
11.60227086,12.18527133,7.51080276,-1.91403780,-0.85564968,1.17197822

>  <Name>
ligand

>  <RI>
0

>  <Rbt.Current_Directory>
/home/itssahil/PROJECTS/Mol_Feturizer/New_Systems/rnas/4FEP

>  <Rbt.Executable>
rbdock ($Id: //depot/dev/client3/rdock/2013.1/src/exe/rbdock.cxx#4 $)

>  <Rbt.Library>
libRbt.so (2013.1, Build901 2013/11/27)

>  <Rbt.Parameter_File>
/export/apps/rDock/src/rDock_2013.1_src/data/scripts/dock_solv.prm

>  <Rbt.Receptor>
prm/pocket_docking_6.prm

>  <SCORE>
-9.84274

>  <SCORE.INTER>
-9.84274

>  <SCORE.INTER.CONST>
1

>  <SCORE.INTER.POLAR>
0

>  <SCORE.INTER.ROT>
0

>  <SCORE.INTER.SOLV>
17.8357

>  <SCORE.INTER.VDW>
-16.1071

>  <SCORE.INTER.norm>
-0.894795

>  <SCORE.INTRA>
0

>  <SCORE.INTRA.DIHEDRAL>
0

>  <SCORE.INTRA.DIHEDRAL.0>
0

>  <SCORE.INTRA.POLAR>
0

>  <SCORE.INTRA.POLAR.0>
0

>  <SCORE.INTRA.REPUL>
0

>  <SCORE.INTRA.REPUL.0>
0

>  <SCORE.INTRA.SOLV>
0

>  <SCORE.INTRA.SOLV.lig_0>
-48.9558

>  <SCORE.INTRA.VDW>
0

>  <SCORE.INTRA.VDW.0>
0

>  <SCORE.INTRA.norm>
0

>  <SCORE.RESTR>
0

>  <SCORE.RESTR.CAVITY>
0

>  <SCORE.RESTR.norm>
0

>  <SCORE.SYSTEM>
0

>  <SCORE.SYSTEM.CONST>
0

>  <SCORE.SYSTEM.DIHEDRAL>
0

>  <SCORE.SYSTEM.SOLV>
0

>  <SCORE.SYSTEM.norm>
0

>  <SCORE.heavy>
11

>  <SCORE.norm>
-0.894795

>  <RMSD>
3.404

$$$$
ligand
 OpenBabel11021811493D
libRbt.so/2013.1/901 2013/11/27
 11 12  0  0  0  0  0  0  0  0999 V2000
   11.7143   11.3336    5.9871 N   0  0  0  0  0  0  0  0  0  0  0  0
   10.8557   12.3491    5.8012 C   0  0  0  0  0  0  0  0  0  0  0  0
   10.3225   12.5586    4.5405 N   0  0  0  0  0  0  0  0  0  0  0  0
   10.5042   13.1639    6.8093 N   0  0  0  0  0  0  0  0  0  0  0  0
   11.0069   12.9862    8.0533 C   0  0  0  0  0  0  0  0  0  0  0  0
   11.9164   11.9260    8.2959 C   0  0  0  0  0  0  0  0  0  0  0  0
   12.2622   11.0864    7.1955 C   0  0  0  0  0  0  0  0  0  0  0  0
   13.1426   10.0333    7.3557 N   0  0  0  0  0  0  0  0  0  0  0  0
   12.2570   11.9827    9.6071 N   0  0  0  0  0  0  0  0  0  0  0  0
   11.6350   12.9784   10.1725 C   0  0  0  0  0  0  0  0  0  0  0  0
   10.8528   13.6260    9.2563 N   0  0  0  0  0  0  0  0  0  0  0  0
  1  7  2  0  0  0  0
  1  2  1  0  0  0  0
  2  3  1  0  0  0  0
  2  4  2  0  0  0  0
  4  5  1  0  0  0  0
  5  6  2  0  0  0  0
  5 11  1  0  0  0  0
  6  7  1  0  0  0  0
  6  9  1  0  0  0  0
  7  8  1  0  0  0  0
  9 10  1  0  0  0  0
 10 11  2  0  0  0  0
M  END
>  <CHROM.1>
11.49460470,12.17839817,7.52788389,-1.85148831,-0.86991758,1.21760793

>  <Name>
ligand

>  <RI>
0

>  <Rbt.Current_Directory>
/home/itssahil/PROJECTS/Mol_Feturizer/New_Systems/rnas/4FEP

>  <Rbt.Executable>
rbdock ($Id: //depot/dev/client3/rdock/2013.1/src/exe/rbdock.cxx#4 $)

>  <Rbt.Library>
libRbt.so (2013.1, Build901 2013/11/27)

>  <Rbt.Parameter_File>
/export/apps/rDock/src/rDock_2013.1_src/data/scripts/dock_solv.prm

>  <Rbt.Receptor>
prm/pocket_docking_7.prm

>  <SCORE>
-9.85012

>  <SCORE.INTER>
-9.85012

>  <SCORE.INTER.CONST>
1

>  <SCORE.INTER.POLAR>
0

>  <SCORE.INTER.ROT>
0

>  <SCORE.INTER.SOLV>
18.1435

>  <SCORE.INTER.VDW>
-16.2146

>  <SCORE.INTER.norm>
-0.895465

>  <SCORE.INTRA>
0

>  <SCORE.INTRA.DIHEDRAL>
0

>  <SCORE.INTRA.DIHEDRAL.0>
0

>  <SCORE.INTRA.POLAR>
0

>  <SCORE.INTRA.POLAR.0>
0

>  <SCORE.INTRA.REPUL>
0

>  <SCORE.INTRA.REPUL.0>
0

>  <SCORE.INTRA.SOLV>
0

>  <SCORE.INTRA.SOLV.lig_0>
-48.9558

>  <SCORE.INTRA.VDW>
0

>  <SCORE.INTRA.VDW.0>
0

>  <SCORE.INTRA.norm>
0

>  <SCORE.RESTR>
0

>  <SCORE.RESTR.CAVITY>
0

>  <SCORE.RESTR.norm>
0

>  <SCORE.SYSTEM>
0

>  <SCORE.SYSTEM.CONST>
0

>  <SCORE.SYSTEM.DIHEDRAL>
0

>  <SCORE.SYSTEM.SOLV>
0

>  <SCORE.SYSTEM.norm>
0

>  <SCORE.heavy>
11

>  <SCORE.norm>
-0.895465

>  <RMSD>
3.404

$$$$
ligand
 OpenBabel11021811493D
libRbt.so/2013.1/901 2013/11/27
 11 12  0  0  0  0  0  0  0  0999 V2000
   11.7585   11.3506    5.9573 N   0  0  0  0  0  0  0  0  0  0  0  0
   10.8929   12.3670    5.8135 C   0  0  0  0  0  0  0  0  0  0  0  0
   10.3051   12.5820    4.5783 N   0  0  0  0  0  0  0  0  0  0  0  0
   10.5861   13.1774    6.8396 N   0  0  0  0  0  0  0  0  0  0  0  0
   11.1426   12.9943    8.0596 C   0  0  0  0  0  0  0  0  0  0  0  0
   12.0616   11.9329    8.2576 C   0  0  0  0  0  0  0  0  0  0  0  0
   12.3587   11.0981    7.1395 C   0  0  0  0  0  0  0  0  0  0  0  0
   13.2449   10.0443    7.2564 N   0  0  0  0  0  0  0  0  0  0  0  0
   12.4593   11.9838    9.5529 N   0  0  0  0  0  0  0  0  0  0  0  0
   11.8628   12.9772   10.1493 C   0  0  0  0  0  0  0  0  0  0  0  0
   11.0415   13.6288    9.2710 N   0  0  0  0  0  0  0  0  0  0  0  0
  1  7  2  0  0  0  0
  1  2  1  0  0  0  0
  2  3  1  0  0  0  0
  2  4  2  0  0  0  0
  4  5  1  0  0  0  0
  5  6  2  0  0  0  0
  5 11  1  0  0  0  0
  6  7  1  0  0  0  0
  6  9  1  0  0  0  0
  7  8  1  0  0  0  0
  9 10  1  0  0  0  0
 10 11  2  0  0  0  0
M  END
>  <CHROM.1>
11.60666852,12.18869631,7.50985819,-1.91414673,-0.85404841,1.17438173

>  <Name>
ligand

>  <RI>
0

>  <Rbt.Current_Directory>
/home/itssahil/PROJECTS/Mol_Feturizer/New_Systems/rnas/4FEP

>  <Rbt.Executable>
rbdock ($Id: //depot/dev/client3/rdock/2013.1/src/exe/rbdock.cxx#4 $)

>  <Rbt.Library>
libRbt.so (2013.1, Build901 2013/11/27)

>  <Rbt.Parameter_File>
/export/apps/rDock/src/rDock_2013.1_src/data/scripts/dock_solv.prm

>  <Rbt.Receptor>
prm/pocket_docking_8.prm

>  <SCORE>
-9.84267

>  <SCORE.INTER>
-9.84267

>  <SCORE.INTER.CONST>
1

>  <SCORE.INTER.POLAR>
0

>  <SCORE.INTER.ROT>
0

>  <SCORE.INTER.SOLV>
17.8331

>  <SCORE.INTER.VDW>
-16.1062

>  <SCORE.INTER.norm>
-0.894789

>  <SCORE.INTRA>
0

>  <SCORE.INTRA.DIHEDRAL>
0

>  <SCORE.INTRA.DIHEDRAL.0>
0

>  <SCORE.INTRA.POLAR>
0

>  <SCORE.INTRA.POLAR.0>
0

>  <SCORE.INTRA.REPUL>
0

>  <SCORE.INTRA.REPUL.0>
0

>  <SCORE.INTRA.SOLV>
0

>  <SCORE.INTRA.SOLV.lig_0>
-48.9558

>  <SCORE.INTRA.VDW>
0

>  <SCORE.INTRA.VDW.0>
0

>  <SCORE.INTRA.norm>
0

>  <SCORE.RESTR>
0

>  <SCORE.RESTR.CAVITY>
0

>  <SCORE.RESTR.norm>
0

>  <SCORE.SYSTEM>
0

>  <SCORE.SYSTEM.CONST>
0

>  <SCORE.SYSTEM.DIHEDRAL>
0

>  <SCORE.SYSTEM.SOLV>
0

>  <SCORE.SYSTEM.norm>
0

>  <SCORE.heavy>
11

>  <SCORE.norm>
-0.894789

>  <RMSD>
3.404

$$$$
ligand
 OpenBabel11021811493D
libRbt.so/2013.1/901 2013/11/27
 11 12  0  0  0  0  0  0  0  0999 V2000
   11.7601   11.3471    5.9499 N   0  0  0  0  0  0  0  0  0  0  0  0
   10.8928   12.3611    5.7997 C   0  0  0  0  0  0  0  0  0  0  0  0
   10.3181   12.5782    4.5587 N   0  0  0  0  0  0  0  0  0  0  0  0
   10.5719   13.1672    6.8248 N   0  0  0  0  0  0  0  0  0  0  0  0
   11.1154   12.9819    8.0504 C   0  0  0  0  0  0  0  0  0  0  0  0
   12.0357   11.9230    8.2552 C   0  0  0  0  0  0  0  0  0  0  0  0
   12.3480   11.0928    7.1378 C   0  0  0  0  0  0  0  0  0  0  0  0
   13.2364   10.0415    7.2612 N   0  0  0  0  0  0  0  0  0  0  0  0
   12.4188   11.9710    9.5550 N   0  0  0  0  0  0  0  0  0  0  0  0
   11.8125   12.9604   10.1479 C   0  0  0  0  0  0  0  0  0  0  0  0
   10.9988   13.6122    9.2626 N   0  0  0  0  0  0  0  0  0  0  0  0
  1  7  2  0  0  0  0
  1  2  1  0  0  0  0
  2  3  1  0  0  0  0
  2  4  2  0  0  0  0
  4  5  1  0  0  0  0
  5  6  2  0  0  0  0
  5 11  1  0  0  0  0
  6  7  1  0  0  0  0
  6  9  1  0  0  0  0
  7  8  1  0  0  0  0
  9 10  1  0  0  0  0
 10 11  2  0  0  0  0
M  END
>  <CHROM.1>
11.58827589,12.17968869,7.50328660,-1.89655283,-0.85517756,1.19087778

>  <Name>
ligand

>  <RI>
0

>  <Rbt.Current_Directory>
/home/itssahil/PROJECTS/Mol_Feturizer/New_Systems/rnas/4FEP

>  <Rbt.Executable>
rbdock ($Id: //depot/dev/client3/rdock/2013.1/src/exe/rbdock.cxx#4 $)

>  <Rbt.Library>
libRbt.so (2013.1, Build901 2013/11/27)

>  <Rbt.Parameter_File>
/export/apps/rDock/src/rDock_2013.1_src/data/scripts/dock_solv.prm

>  <Rbt.Receptor>
prm/blind_docking_100.prm

>  <SCORE>
-9.81724

>  <SCORE.INTER>
-9.81724

>  <SCORE.INTER.CONST>
1

>  <SCORE.INTER.POLAR>
0

>  <SCORE.INTER.ROT>
0

>  <SCORE.INTER.SOLV>
17.918

>  <SCORE.INTER.VDW>
-16.1175

>  <SCORE.INTER.norm>
-0.892476

>  <SCORE.INTRA>
0

>  <SCORE.INTRA.DIHEDRAL>
0

>  <SCORE.INTRA.DIHEDRAL.0>
0

>  <SCORE.INTRA.POLAR>
0

>  <SCORE.INTRA.POLAR.0>
0

>  <SCORE.INTRA.REPUL>
0

>  <SCORE.INTRA.REPUL.0>
0

>  <SCORE.INTRA.SOLV>
0

>  <SCORE.INTRA.SOLV.lig_0>
-48.9558

>  <SCORE.INTRA.VDW>
0

>  <SCORE.INTRA.VDW.0>
0

>  <SCORE.INTRA.norm>
0

>  <SCORE.RESTR>
0

>  <SCORE.RESTR.CAVITY>
0

>  <SCORE.RESTR.norm>
0

>  <SCORE.SYSTEM>
0

>  <SCORE.SYSTEM.CONST>
0

>  <SCORE.SYSTEM.DIHEDRAL>
0

>  <SCORE.SYSTEM.SOLV>
0

>  <SCORE.SYSTEM.norm>
0

>  <SCORE.heavy>
11

>  <SCORE.norm>
-0.892476

>  <RMSD>
3.405

$$$$
ligand
 OpenBabel11021811493D
libRbt.so/2013.1/901 2013/11/27
 11 12  0  0  0  0  0  0  0  0999 V2000
   11.7618   11.3501    5.9530 N   0  0  0  0  0  0  0  0  0  0  0  0
   10.8896   12.3601    5.8039 C   0  0  0  0  0  0  0  0  0  0  0  0
   10.3050   12.5686    4.5661 N   0  0  0  0  0  0  0  0  0  0  0  0
   10.5731   13.1702    6.8273 N   0  0  0  0  0  0  0  0  0  0  0  0
   11.1263   12.9934    8.0498 C   0  0  0  0  0  0  0  0  0  0  0  0
   12.0520   11.9390    8.2533 C   0  0  0  0  0  0  0  0  0  0  0  0
   12.3593   11.1042    7.1378 C   0  0  0  0  0  0  0  0  0  0  0  0
   13.2526   10.0569    7.2602 N   0  0  0  0  0  0  0  0  0  0  0  0
   12.4445   11.9952    9.5499 N   0  0  0  0  0  0  0  0  0  0  0  0
   11.8387   12.9854   10.1422 C   0  0  0  0  0  0  0  0  0  0  0  0
   11.0161   13.6295    9.2595 N   0  0  0  0  0  0  0  0  0  0  0  0
  1  7  2  0  0  0  0
  1  2  1  0  0  0  0
  2  3  1  0  0  0  0
  2  4  2  0  0  0  0
  4  5  1  0  0  0  0
  5  6  2  0  0  0  0
  5 11  1  0  0  0  0
  6  7  1  0  0  0  0
  6  9  1  0  0  0  0
  7  8  1  0  0  0  0
  9 10  1  0  0  0  0
 10 11  2  0  0  0  0
M  END
>  <CHROM.1>
11.59816504,12.19010827,7.50329364,-1.90471167,-0.84894254,1.17957719

>  <Name>
ligand

>  <RI>
0

>  <Rbt.Current_Directory>
/home/itssahil/PROJECTS/Mol_Feturizer/New_Systems/rnas/4FEP

>  <Rbt.Executable>
rbdock ($Id: //depot/dev/client3/rdock/2013.1/src/exe/rbdock.cxx#4 $)

>  <Rbt.Library>
libRbt.so (2013.1, Build901 2013/11/27)

>  <Rbt.Parameter_File>
/export/apps/rDock/src/rDock_2013.1_src/data/scripts/dock_solv.prm

>  <Rbt.Receptor>
prm/blind_docking_40.prm

>  <SCORE>
-9.83837

>  <SCORE.INTER>
-9.83837

>  <SCORE.INTER.CONST>
1

>  <SCORE.INTER.POLAR>
0

>  <SCORE.INTER.ROT>
0

>  <SCORE.INTER.SOLV>
17.8769

>  <SCORE.INTER.VDW>
-16.1179

>  <SCORE.INTER.norm>
-0.894397

>  <SCORE.INTRA>
0

>  <SCORE.INTRA.DIHEDRAL>
0

>  <SCORE.INTRA.DIHEDRAL.0>
0

>  <SCORE.INTRA.POLAR>
0

>  <SCORE.INTRA.POLAR.0>
0

>  <SCORE.INTRA.REPUL>
0

>  <SCORE.INTRA.REPUL.0>
0

>  <SCORE.INTRA.SOLV>
0

>  <SCORE.INTRA.SOLV.lig_0>
-48.9558

>  <SCORE.INTRA.VDW>
0

>  <SCORE.INTRA.VDW.0>
0

>  <SCORE.INTRA.norm>
0

>  <SCORE.RESTR>
0

>  <SCORE.RESTR.CAVITY>
0

>  <SCORE.RESTR.norm>
0

>  <SCORE.SYSTEM>
0

>  <SCORE.SYSTEM.CONST>
0

>  <SCORE.SYSTEM.DIHEDRAL>
0

>  <SCORE.SYSTEM.SOLV>
0

>  <SCORE.SYSTEM.norm>
0

>  <SCORE.heavy>
11

>  <SCORE.norm>
-0.894397

>  <RMSD>
3.405

$$$$
ligand
 OpenBabel11021811493D
libRbt.so/2013.1/901 2013/11/27
 11 12  0  0  0  0  0  0  0  0999 V2000
   11.8272   11.3561    5.9311 N   0  0  0  0  0  0  0  0  0  0  0  0
   10.9775   12.3771    5.7352 C   0  0  0  0  0  0  0  0  0  0  0  0
   10.4627   12.5918    4.4677 N   0  0  0  0  0  0  0  0  0  0  0  0
   10.6173   13.1925    6.7397 N   0  0  0  0  0  0  0  0  0  0  0  0
   11.1019   13.0100    7.9901 C   0  0  0  0  0  0  0  0  0  0  0  0
   12.0016   11.9438    8.2434 C   0  0  0  0  0  0  0  0  0  0  0  0
   12.3572   11.1038    7.1464 C   0  0  0  0  0  0  0  0  0  0  0  0
   13.2289   10.0451    7.3169 N   0  0  0  0  0  0  0  0  0  0  0  0
   12.3248   11.9965    9.5592 N   0  0  0  0  0  0  0  0  0  0  0  0
   11.7012   12.9951   10.1177 C   0  0  0  0  0  0  0  0  0  0  0  0
   10.9355   13.6489    9.1919 N   0  0  0  0  0  0  0  0  0  0  0  0
  1  7  2  0  0  0  0
  1  2  1  0  0  0  0
  2  3  1  0  0  0  0
  2  4  2  0  0  0  0
  4  5  1  0  0  0  0
  5  6  2  0  0  0  0
  5 11  1  0  0  0  0
  6  7  1  0  0  0  0
  6  9  1  0  0  0  0
  7  8  1  0  0  0  0
  9 10  1  0  0  0  0
 10 11  2  0  0  0  0
M  END
>  <CHROM.1>
11.59183636,12.19994510,7.47010329,-1.83481091,-0.88024646,1.23194067

>  <Name>
ligand

>  <RI>
0

>  <Rbt.Current_Directory>
/home/itssahil/PROJECTS/Mol_Feturizer/New_Systems/rnas/4FEP

>  <Rbt.Executable>
rbdock ($Id: //depot/dev/client3/rdock/2013.1/src/exe/rbdock.cxx#4 $)

>  <Rbt.Library>
libRbt.so (2013.1, Build901 2013/11/27)

>  <Rbt.Parameter_File>
/export/apps/rDock/src/rDock_2013.1_src/data/scripts/dock_solv.prm

>  <Rbt.Receptor>
prm/blind_docking_40.prm

>  <SCORE>
-9.81769

>  <SCORE.INTER>
-9.81769

>  <SCORE.INTER.CONST>
1

>  <SCORE.INTER.POLAR>
0

>  <SCORE.INTER.ROT>
0

>  <SCORE.INTER.SOLV>
18.5014

>  <SCORE.INTER.VDW>
-16.3123

>  <SCORE.INTER.norm>
-0.892518

>  <SCORE.INTRA>
0

>  <SCORE.INTRA.DIHEDRAL>
0

>  <SCORE.INTRA.DIHEDRAL.0>
0

>  <SCORE.INTRA.POLAR>
0

>  <SCORE.INTRA.POLAR.0>
0

>  <SCORE.INTRA.REPUL>
0

>  <SCORE.INTRA.REPUL.0>
0

>  <SCORE.INTRA.SOLV>
0

>  <SCORE.INTRA.SOLV.lig_0>
-48.9558

>  <SCORE.INTRA.VDW>
0

>  <SCORE.INTRA.VDW.0>
0

>  <SCORE.INTRA.norm>
0

>  <SCORE.RESTR>
0

>  <SCORE.RESTR.CAVITY>
0

>  <SCORE.RESTR.norm>
0

>  <SCORE.SYSTEM>
0

>  <SCORE.SYSTEM.CONST>
0

>  <SCORE.SYSTEM.DIHEDRAL>
0

>  <SCORE.SYSTEM.SOLV>
0

>  <SCORE.SYSTEM.norm>
0

>  <SCORE.heavy>
11

>  <SCORE.norm>
-0.892518

>  <RMSD>
3.405

$$$$
ligand
 OpenBabel11021811493D
libRbt.so/2013.1/901 2013/11/27
 11 12  0  0  0  0  0  0  0  0999 V2000
   11.7691   11.3570    5.9731 N   0  0  0  0  0  0  0  0  0  0  0  0
   10.8990   12.3636    5.7925 C   0  0  0  0  0  0  0  0  0  0  0  0
   10.3512   12.5637    4.5365 N   0  0  0  0  0  0  0  0  0  0  0  0
   10.5496   13.1783    6.8014 N   0  0  0  0  0  0  0  0  0  0  0  0
   11.0663   13.0096    8.0409 C   0  0  0  0  0  0  0  0  0  0  0  0
   11.9885   11.9590    8.2779 C   0  0  0  0  0  0  0  0  0  0  0  0
   12.3314   11.1192    7.1767 C   0  0  0  0  0  0  0  0  0  0  0  0
   13.2235   10.0752    7.3315 N   0  0  0  0  0  0  0  0  0  0  0  0
   12.3416   12.0233    9.5854 N   0  0  0  0  0  0  0  0  0  0  0  0
   11.7157   13.0149   10.1538 C   0  0  0  0  0  0  0  0  0  0  0  0
   10.9181   13.6519    9.2433 N   0  0  0  0  0  0  0  0  0  0  0  0
  1  7  2  0  0  0  0
  1  2  1  0  0  0  0
  2  3  1  0  0  0  0
  2  4  2  0  0  0  0
  4  5  1  0  0  0  0
  5  6  2  0  0  0  0
  5 11  1  0  0  0  0
  6  7  1  0  0  0  0
  6  9  1  0  0  0  0
  7  8  1  0  0  0  0
  9 10  1  0  0  0  0
 10 11  2  0  0  0  0
M  END
>  <CHROM.1>
11.55664245,12.20479321,7.51325986,-1.86065480,-0.85733836,1.20736611

>  <Name>
ligand

>  <RI>
0

>  <Rbt.Current_Directory>
/home/itssahil/PROJECTS/Mol_Feturizer/New_Systems/rnas/4FEP

>  <Rbt.Executable>
rbdock ($Id: //depot/dev/client3/rdock/2013.1/src/exe/rbdock.cxx#4 $)

>  <Rbt.Library>
libRbt.so (2013.1, Build901 2013/11/27)

>  <Rbt.Parameter_File>
/export/apps/rDock/src/rDock_2013.1_src/data/scripts/dock_solv.prm

>  <Rbt.Receptor>
prm/blind_docking_60.prm

>  <SCORE>
-9.84718

>  <SCORE.INTER>
-9.84718

>  <SCORE.INTER.CONST>
1

>  <SCORE.INTER.POLAR>
0

>  <SCORE.INTER.ROT>
0

>  <SCORE.INTER.SOLV>
18.069

>  <SCORE.INTER.VDW>
-16.1878

>  <SCORE.INTER.norm>
-0.895198

>  <SCORE.INTRA>
0

>  <SCORE.INTRA.DIHEDRAL>
0

>  <SCORE.INTRA.DIHEDRAL.0>
0

>  <SCORE.INTRA.POLAR>
0

>  <SCORE.INTRA.POLAR.0>
0

>  <SCORE.INTRA.REPUL>
0

>  <SCORE.INTRA.REPUL.0>
0

>  <SCORE.INTRA.SOLV>
0

>  <SCORE.INTRA.SOLV.lig_0>
-48.9558

>  <SCORE.INTRA.VDW>
0

>  <SCORE.INTRA.VDW.0>
0

>  <SCORE.INTRA.norm>
0

>  <SCORE.RESTR>
0

>  <SCORE.RESTR.CAVITY>
0

>  <SCORE.RESTR.norm>
0

>  <SCORE.SYSTEM>
0

>  <SCORE.SYSTEM.CONST>
0

>  <SCORE.SYSTEM.DIHEDRAL>
0

>  <SCORE.SYSTEM.SOLV>
0

>  <SCORE.SYSTEM.norm>
0

>  <SCORE.heavy>
11

>  <SCORE.norm>
-0.895198

>  <RMSD>
3.405

$$$$
ligand
 OpenBabel11021811493D
libRbt.so/2013.1/901 2013/11/27
 11 12  0  0  0  0  0  0  0  0999 V2000
   11.8263   11.3639    5.9183 N   0  0  0  0  0  0  0  0  0  0  0  0
   10.9869   12.3944    5.7278 C   0  0  0  0  0  0  0  0  0  0  0  0
   10.4797   12.6251    4.4600 N   0  0  0  0  0  0  0  0  0  0  0  0
   10.6297   13.2041    6.7380 N   0  0  0  0  0  0  0  0  0  0  0  0
   11.1070   13.0058    7.9889 C   0  0  0  0  0  0  0  0  0  0  0  0
   11.9957   11.9292    8.2365 C   0  0  0  0  0  0  0  0  0  0  0  0
   12.3485   11.0958    7.1335 C   0  0  0  0  0  0  0  0  0  0  0  0
   13.2097   10.0277    7.2983 N   0  0  0  0  0  0  0  0  0  0  0  0
   12.3135   11.9671    9.5541 N   0  0  0  0  0  0  0  0  0  0  0  0
   11.6967   12.9664   10.1188 C   0  0  0  0  0  0  0  0  0  0  0  0
   10.9411   13.6355    9.1956 N   0  0  0  0  0  0  0  0  0  0  0  0
  1  7  2  0  0  0  0
  1  2  1  0  0  0  0
  2  3  1  0  0  0  0
  2  4  2  0  0  0  0
  4  5  1  0  0  0  0
  5  6  2  0  0  0  0
  5 11  1  0  0  0  0
  6  7  1  0  0  0  0
  6  9  1  0  0  0  0
  7  8  1  0  0  0  0
  9 10  1  0  0  0  0
 10 11  2  0  0  0  0
M  END
>  <CHROM.1>
11.59179960,12.19602508,7.46372708,-1.83296421,-0.89039217,1.24235695

>  <Name>
ligand

>  <RI>
0

>  <Rbt.Current_Directory>
/home/itssahil/PROJECTS/Mol_Feturizer/New_Systems/rnas/4FEP

>  <Rbt.Executable>
rbdock ($Id: //depot/dev/client3/rdock/2013.1/src/exe/rbdock.cxx#4 $)

>  <Rbt.Library>
libRbt.so (2013.1, Build901 2013/11/27)

>  <Rbt.Parameter_File>
/export/apps/rDock/src/rDock_2013.1_src/data/scripts/dock_solv.prm

>  <Rbt.Receptor>
prm/blind_docking_80.prm

>  <SCORE>
-9.8583

>  <SCORE.INTER>
-9.8583

>  <SCORE.INTER.CONST>
1

>  <SCORE.INTER.POLAR>
0

>  <SCORE.INTER.ROT>
0

>  <SCORE.INTER.SOLV>
18.5659

>  <SCORE.INTER.VDW>
-16.3608

>  <SCORE.INTER.norm>
-0.896209

>  <SCORE.INTRA>
0

>  <SCORE.INTRA.DIHEDRAL>
0

>  <SCORE.INTRA.DIHEDRAL.0>
0

>  <SCORE.INTRA.POLAR>
0

>  <SCORE.INTRA.POLAR.0>
0

>  <SCORE.INTRA.REPUL>
0

>  <SCORE.INTRA.REPUL.0>
0

>  <SCORE.INTRA.SOLV>
0

>  <SCORE.INTRA.SOLV.lig_0>
-48.9558

>  <SCORE.INTRA.VDW>
0

>  <SCORE.INTRA.VDW.0>
0

>  <SCORE.INTRA.norm>
0

>  <SCORE.RESTR>
0

>  <SCORE.RESTR.CAVITY>
0

>  <SCORE.RESTR.norm>
0

>  <SCORE.SYSTEM>
0

>  <SCORE.SYSTEM.CONST>
0

>  <SCORE.SYSTEM.DIHEDRAL>
0

>  <SCORE.SYSTEM.SOLV>
0

>  <SCORE.SYSTEM.norm>
0

>  <SCORE.heavy>
11

>  <SCORE.norm>
-0.896209

>  <RMSD>
3.405

$$$$
ligand
 OpenBabel11021811493D
libRbt.so/2013.1/901 2013/11/27
 11 12  0  0  0  0  0  0  0  0999 V2000
   11.7409   11.3574    6.0135 N   0  0  0  0  0  0  0  0  0  0  0  0
   10.8777   12.3692    5.8285 C   0  0  0  0  0  0  0  0  0  0  0  0
   10.3443   12.5781    4.5678 N   0  0  0  0  0  0  0  0  0  0  0  0
   10.5216   13.1807    6.8376 N   0  0  0  0  0  0  0  0  0  0  0  0
   11.0242   13.0035    8.0817 C   0  0  0  0  0  0  0  0  0  0  0  0
   11.9385   11.9472    8.3234 C   0  0  0  0  0  0  0  0  0  0  0  0
   12.2891   11.1110    7.2218 C   0  0  0  0  0  0  0  0  0  0  0  0
   13.1744   10.0618    7.3810 N   0  0  0  0  0  0  0  0  0  0  0  0
   12.2780   12.0034    9.6349 N   0  0  0  0  0  0  0  0  0  0  0  0
   11.6508   12.9953   10.2014 C   0  0  0  0  0  0  0  0  0  0  0  0
   10.8662   13.6406    9.2856 N   0  0  0  0  0  0  0  0  0  0  0  0
  1  7  2  0  0  0  0
  1  2  1  0  0  0  0
  2  3  1  0  0  0  0
  2  4  2  0  0  0  0
  4  5  1  0  0  0  0
  5  6  2  0  0  0  0
  5 11  1  0  0  0  0
  6  7  1  0  0  0  0
  6  9  1  0  0  0  0
  7  8  1  0  0  0  0
  9 10  1  0  0  0  0
 10 11  2  0  0  0  0
M  END
>  <CHROM.1>
11.51611207,12.19877711,7.55539953,-1.84791947,-0.86570422,1.22190555

>  <Name>
ligand

>  <RI>
0

>  <Rbt.Current_Directory>
/home/itssahil/PROJECTS/Mol_Feturizer/New_Systems/rnas/4FEP

>  <Rbt.Executable>
rbdock ($Id: //depot/dev/client3/rdock/2013.1/src/exe/rbdock.cxx#4 $)

>  <Rbt.Library>
libRbt.so (2013.1, Build901 2013/11/27)

>  <Rbt.Parameter_File>
/export/apps/rDock/src/rDock_2013.1_src/data/scripts/dock_solv.prm

>  <Rbt.Receptor>
prm/pocket_docking_4.prm

>  <SCORE>
-9.86817

>  <SCORE.INTER>
-9.86817

>  <SCORE.INTER.CONST>
1

>  <SCORE.INTER.POLAR>
0

>  <SCORE.INTER.ROT>
0

>  <SCORE.INTER.SOLV>
17.9913

>  <SCORE.INTER.VDW>
-16.1759

>  <SCORE.INTER.norm>
-0.897107

>  <SCORE.INTRA>
0

>  <SCORE.INTRA.DIHEDRAL>
0

>  <SCORE.INTRA.DIHEDRAL.0>
0

>  <SCORE.INTRA.POLAR>
0

>  <SCORE.INTRA.POLAR.0>
0

>  <SCORE.INTRA.REPUL>
0

>  <SCORE.INTRA.REPUL.0>
0

>  <SCORE.INTRA.SOLV>
0

>  <SCORE.INTRA.SOLV.lig_0>
-48.9558

>  <SCORE.INTRA.VDW>
0

>  <SCORE.INTRA.VDW.0>
0

>  <SCORE.INTRA.norm>
0

>  <SCORE.RESTR>
0

>  <SCORE.RESTR.CAVITY>
0

>  <SCORE.RESTR.norm>
0

>  <SCORE.SYSTEM>
0

>  <SCORE.SYSTEM.CONST>
0

>  <SCORE.SYSTEM.DIHEDRAL>
0

>  <SCORE.SYSTEM.SOLV>
0

>  <SCORE.SYSTEM.norm>
0

>  <SCORE.heavy>
11

>  <SCORE.norm>
-0.897107

>  <RMSD>
3.405

$$$$
ligand
 OpenBabel11021811493D
libRbt.so/2013.1/901 2013/11/27
 11 12  0  0  0  0  0  0  0  0999 V2000
   11.7670   11.3627    5.9333 N   0  0  0  0  0  0  0  0  0  0  0  0
   10.8911   12.3702    5.7905 C   0  0  0  0  0  0  0  0  0  0  0  0
   10.3037   12.5826    4.5546 N   0  0  0  0  0  0  0  0  0  0  0  0
   10.5733   13.1744    6.8182 N   0  0  0  0  0  0  0  0  0  0  0  0
   11.1290   12.9936    8.0390 C   0  0  0  0  0  0  0  0  0  0  0  0
   12.0588   11.9415    8.2360 C   0  0  0  0  0  0  0  0  0  0  0  0
   12.3672   11.1132    7.1161 C   0  0  0  0  0  0  0  0  0  0  0  0
   13.2643   10.0684    7.2321 N   0  0  0  0  0  0  0  0  0  0  0  0
   12.4530   11.9929    9.5323 N   0  0  0  0  0  0  0  0  0  0  0  0
   11.8448   12.9781   10.1302 C   0  0  0  0  0  0  0  0  0  0  0  0
   11.0185   13.6236    9.2519 N   0  0  0  0  0  0  0  0  0  0  0  0
  1  7  2  0  0  0  0
  1  2  1  0  0  0  0
  2  3  1  0  0  0  0
  2  4  2  0  0  0  0
  4  5  1  0  0  0  0
  5  6  2  0  0  0  0
  5 11  1  0  0  0  0
  6  7  1  0  0  0  0
  6  9  1  0  0  0  0
  7  8  1  0  0  0  0
  9 10  1  0  0  0  0
 10 11  2  0  0  0  0
M  END
>  <CHROM.1>
11.60284944,12.19461845,7.48794850,-1.90486843,-0.84510653,1.18424772

>  <Name>
ligand

>  <RI>
0

>  <Rbt.Current_Directory>
/home/itssahil/PROJECTS/Mol_Feturizer/New_Systems/rnas/4FEP

>  <Rbt.Executable>
rbdock ($Id: //depot/dev/client3/rdock/2013.1/src/exe/rbdock.cxx#4 $)

>  <Rbt.Library>
libRbt.so (2013.1, Build901 2013/11/27)

>  <Rbt.Parameter_File>
/export/apps/rDock/src/rDock_2013.1_src/data/scripts/dock_solv.prm

>  <Rbt.Receptor>
prm/pocket_docking_5.prm

>  <SCORE>
-9.80027

>  <SCORE.INTER>
-9.80027

>  <SCORE.INTER.CONST>
1

>  <SCORE.INTER.POLAR>
0

>  <SCORE.INTER.ROT>
0

>  <SCORE.INTER.SOLV>
17.989

>  <SCORE.INTER.VDW>
-16.1298

>  <SCORE.INTER.norm>
-0.890934

>  <SCORE.INTRA>
0

>  <SCORE.INTRA.DIHEDRAL>
0

>  <SCORE.INTRA.DIHEDRAL.0>
0

>  <SCORE.INTRA.POLAR>
0

>  <SCORE.INTRA.POLAR.0>
0

>  <SCORE.INTRA.REPUL>
0

>  <SCORE.INTRA.REPUL.0>
0

>  <SCORE.INTRA.SOLV>
0

>  <SCORE.INTRA.SOLV.lig_0>
-48.9558

>  <SCORE.INTRA.VDW>
0

>  <SCORE.INTRA.VDW.0>
0

>  <SCORE.INTRA.norm>
0

>  <SCORE.RESTR>
0

>  <SCORE.RESTR.CAVITY>
0

>  <SCORE.RESTR.norm>
0

>  <SCORE.SYSTEM>
0

>  <SCORE.SYSTEM.CONST>
0

>  <SCORE.SYSTEM.DIHEDRAL>
0

>  <SCORE.SYSTEM.SOLV>
0

>  <SCORE.SYSTEM.norm>
0

>  <SCORE.heavy>
11

>  <SCORE.norm>
-0.890934

>  <RMSD>
3.405

$$$$
ligand
 OpenBabel11021811493D
libRbt.so/2013.1/901 2013/11/27
 11 12  0  0  0  0  0  0  0  0999 V2000
   11.8587   11.3968    5.9109 N   0  0  0  0  0  0  0  0  0  0  0  0
   11.0369   12.4405    5.7158 C   0  0  0  0  0  0  0  0  0  0  0  0
   10.5526   12.6883    4.4423 N   0  0  0  0  0  0  0  0  0  0  0  0
   10.6755   13.2472    6.7269 N   0  0  0  0  0  0  0  0  0  0  0  0
   11.1306   13.0325    7.9833 C   0  0  0  0  0  0  0  0  0  0  0  0
   12.0002   11.9415    8.2359 C   0  0  0  0  0  0  0  0  0  0  0  0
   12.3583   11.1119    7.1318 C   0  0  0  0  0  0  0  0  0  0  0  0
   13.2018   10.0304    7.3012 N   0  0  0  0  0  0  0  0  0  0  0  0
   12.2981   11.9646    9.5585 N   0  0  0  0  0  0  0  0  0  0  0  0
   11.6866   12.9681   10.1217 C   0  0  0  0  0  0  0  0  0  0  0  0
   10.9549   13.6550    9.1924 N   0  0  0  0  0  0  0  0  0  0  0  0
  1  7  2  0  0  0  0
  1  2  1  0  0  0  0
  2  3  1  0  0  0  0
  2  4  2  0  0  0  0
  4  5  1  0  0  0  0
  5  6  2  0  0  0  0
  5 11  1  0  0  0  0
  6  7  1  0  0  0  0
  6  9  1  0  0  0  0
  7  8  1  0  0  0  0
  9 10  1  0  0  0  0
 10 11  2  0  0  0  0
M  END
>  <CHROM.1>
11.61203552,12.22004625,7.45918440,-1.81651848,-0.90855995,1.26315490

>  <Name>
ligand

>  <RI>
0

>  <Rbt.Current_Directory>
/home/itssahil/PROJECTS/Mol_Feturizer/New_Systems/rnas/4FEP

>  <Rbt.Executable>
rbdock ($Id: //depot/dev/client3/rdock/2013.1/src/exe/rbdock.cxx#4 $)

>  <Rbt.Library>
libRbt.so (2013.1, Build901 2013/11/27)

>  <Rbt.Parameter_File>
/export/apps/rDock/src/rDock_2013.1_src/data/scripts/dock_solv.prm

>  <Rbt.Receptor>
prm/pocket_docking_7.prm

>  <SCORE>
-9.8386

>  <SCORE.INTER>
-9.8386

>  <SCORE.INTER.CONST>
1

>  <SCORE.INTER.POLAR>
0

>  <SCORE.INTER.ROT>
0

>  <SCORE.INTER.SOLV>
18.7084

>  <SCORE.INTER.VDW>
-16.3952

>  <SCORE.INTER.norm>
-0.894418

>  <SCORE.INTRA>
0

>  <SCORE.INTRA.DIHEDRAL>
0

>  <SCORE.INTRA.DIHEDRAL.0>
0

>  <SCORE.INTRA.POLAR>
0

>  <SCORE.INTRA.POLAR.0>
0

>  <SCORE.INTRA.REPUL>
0

>  <SCORE.INTRA.REPUL.0>
0

>  <SCORE.INTRA.SOLV>
0

>  <SCORE.INTRA.SOLV.lig_0>
-48.9558

>  <SCORE.INTRA.VDW>
0

>  <SCORE.INTRA.VDW.0>
0

>  <SCORE.INTRA.norm>
0

>  <SCORE.RESTR>
0

>  <SCORE.RESTR.CAVITY>
0

>  <SCORE.RESTR.norm>
0

>  <SCORE.SYSTEM>
0

>  <SCORE.SYSTEM.CONST>
0

>  <SCORE.SYSTEM.DIHEDRAL>
0

>  <SCORE.SYSTEM.SOLV>
0

>  <SCORE.SYSTEM.norm>
0

>  <SCORE.heavy>
11

>  <SCORE.norm>
-0.894418

>  <RMSD>
3.405

$$$$
ligand
 OpenBabel11021811493D
libRbt.so/2013.1/901 2013/11/27
 11 12  0  0  0  0  0  0  0  0999 V2000
   11.9056   11.3944    5.9264 N   0  0  0  0  0  0  0  0  0  0  0  0
   11.0774   12.4310    5.7204 C   0  0  0  0  0  0  0  0  0  0  0  0
   10.6039   12.6715    4.4415 N   0  0  0  0  0  0  0  0  0  0  0  0
   10.6995   13.2374    6.7257 N   0  0  0  0  0  0  0  0  0  0  0  0
   11.1438   13.0296    7.9871 C   0  0  0  0  0  0  0  0  0  0  0  0
   12.0196   11.9463    8.2512 C   0  0  0  0  0  0  0  0  0  0  0  0
   12.3953   11.1167    7.1530 C   0  0  0  0  0  0  0  0  0  0  0  0
   13.2457   10.0425    7.3337 N   0  0  0  0  0  0  0  0  0  0  0  0
   12.3041   11.9752    9.5766 N   0  0  0  0  0  0  0  0  0  0  0  0
   11.6790   12.9753   10.1310 C   0  0  0  0  0  0  0  0  0  0  0  0
   10.9511   13.6538    9.1927 N   0  0  0  0  0  0  0  0  0  0  0  0
  1  7  2  0  0  0  0
  1  2  1  0  0  0  0
  2  3  1  0  0  0  0
  2  4  2  0  0  0  0
  4  5  1  0  0  0  0
  5  6  2  0  0  0  0
  5 11  1  0  0  0  0
  6  7  1  0  0  0  0
  6  9  1  0  0  0  0
  7  8  1  0  0  0  0
  9 10  1  0  0  0  0
 10 11  2  0  0  0  0
M  END
>  <CHROM.1>
11.63693714,12.21969612,7.46995630,-1.79726885,-0.90384711,1.27565673

>  <Name>
ligand

>  <RI>
0

>  <Rbt.Current_Directory>
/home/itssahil/PROJECTS/Mol_Feturizer/New_Systems/rnas/4FEP

>  <Rbt.Executable>
rbdock ($Id: //depot/dev/client3/rdock/2013.1/src/exe/rbdock.cxx#4 $)

>  <Rbt.Library>
libRbt.so (2013.1, Build901 2013/11/27)

>  <Rbt.Parameter_File>
/export/apps/rDock/src/rDock_2013.1_src/data/scripts/dock_solv.prm

>  <Rbt.Receptor>
prm/blind_docking_60.prm

>  <SCORE>
-9.8351

>  <SCORE.INTER>
-9.8351

>  <SCORE.INTER.CONST>
1

>  <SCORE.INTER.POLAR>
0

>  <SCORE.INTER.ROT>
0

>  <SCORE.INTER.SOLV>
18.7368

>  <SCORE.INTER.VDW>
-16.4023

>  <SCORE.INTER.norm>
-0.8941

>  <SCORE.INTRA>
0

>  <SCORE.INTRA.DIHEDRAL>
0

>  <SCORE.INTRA.DIHEDRAL.0>
0

>  <SCORE.INTRA.POLAR>
0

>  <SCORE.INTRA.POLAR.0>
0

>  <SCORE.INTRA.REPUL>
0

>  <SCORE.INTRA.REPUL.0>
0

>  <SCORE.INTRA.SOLV>
0

>  <SCORE.INTRA.SOLV.lig_0>
-48.9558

>  <SCORE.INTRA.VDW>
0

>  <SCORE.INTRA.VDW.0>
0

>  <SCORE.INTRA.norm>
0

>  <SCORE.RESTR>
0

>  <SCORE.RESTR.CAVITY>
0

>  <SCORE.RESTR.norm>
0

>  <SCORE.SYSTEM>
0

>  <SCORE.SYSTEM.CONST>
0

>  <SCORE.SYSTEM.DIHEDRAL>
0

>  <SCORE.SYSTEM.SOLV>
0

>  <SCORE.SYSTEM.norm>
0

>  <SCORE.heavy>
11

>  <SCORE.norm>
-0.8941

>  <RMSD>
3.406

$$$$
ligand
 OpenBabel11021811493D
libRbt.so/2013.1/901 2013/11/27
 11 12  0  0  0  0  0  0  0  0999 V2000
   11.7527   11.3466    5.9386 N   0  0  0  0  0  0  0  0  0  0  0  0
   10.8701   12.3442    5.7691 C   0  0  0  0  0  0  0  0  0  0  0  0
   10.3191   12.5509    4.5157 N   0  0  0  0  0  0  0  0  0  0  0  0
   10.5114   13.1438    6.7869 N   0  0  0  0  0  0  0  0  0  0  0  0
   11.0310   12.9684    8.0242 C   0  0  0  0  0  0  0  0  0  0  0  0
   11.9662   11.9268    8.2495 C   0  0  0  0  0  0  0  0  0  0  0  0
   12.3188   11.1030    7.1393 C   0  0  0  0  0  0  0  0  0  0  0  0
   13.2238   10.0685    7.2826 N   0  0  0  0  0  0  0  0  0  0  0  0
   12.3194   11.9816    9.5574 N   0  0  0  0  0  0  0  0  0  0  0  0
   11.6816   12.9593   10.1367 C   0  0  0  0  0  0  0  0  0  0  0  0
   10.8757   13.5960    9.2335 N   0  0  0  0  0  0  0  0  0  0  0  0
  1  7  2  0  0  0  0
  1  2  1  0  0  0  0
  2  3  1  0  0  0  0
  2  4  2  0  0  0  0
  4  5  1  0  0  0  0
  5  6  2  0  0  0  0
  5 11  1  0  0  0  0
  6  7  1  0  0  0  0
  6  9  1  0  0  0  0
  7  8  1  0  0  0  0
  9 10  1  0  0  0  0
 10 11  2  0  0  0  0
M  END
>  <CHROM.1>
11.53085538,12.17530401,7.48778037,-1.85497874,-0.84556086,1.22224286

>  <Name>
ligand

>  <RI>
0

>  <Rbt.Current_Directory>
/home/itssahil/PROJECTS/Mol_Feturizer/New_Systems/rnas/4FEP

>  <Rbt.Executable>
rbdock ($Id: //depot/dev/client3/rdock/2013.1/src/exe/rbdock.cxx#4 $)

>  <Rbt.Library>
libRbt.so (2013.1, Build901 2013/11/27)

>  <Rbt.Parameter_File>
/export/apps/rDock/src/rDock_2013.1_src/data/scripts/dock_solv.prm

>  <Rbt.Receptor>
prm/pocket_docking_6.prm

>  <SCORE>
-9.84172

>  <SCORE.INTER>
-9.84172

>  <SCORE.INTER.CONST>
1

>  <SCORE.INTER.POLAR>
0

>  <SCORE.INTER.ROT>
0

>  <SCORE.INTER.SOLV>
18.08

>  <SCORE.INTER.VDW>
-16.1878

>  <SCORE.INTER.norm>
-0.894702

>  <SCORE.INTRA>
0

>  <SCORE.INTRA.DIHEDRAL>
0

>  <SCORE.INTRA.DIHEDRAL.0>
0

>  <SCORE.INTRA.POLAR>
0

>  <SCORE.INTRA.POLAR.0>
0

>  <SCORE.INTRA.REPUL>
0

>  <SCORE.INTRA.REPUL.0>
0

>  <SCORE.INTRA.SOLV>
0

>  <SCORE.INTRA.SOLV.lig_0>
-48.9558

>  <SCORE.INTRA.VDW>
0

>  <SCORE.INTRA.VDW.0>
0

>  <SCORE.INTRA.norm>
0

>  <SCORE.RESTR>
0

>  <SCORE.RESTR.CAVITY>
0

>  <SCORE.RESTR.norm>
0

>  <SCORE.SYSTEM>
0

>  <SCORE.SYSTEM.CONST>
0

>  <SCORE.SYSTEM.DIHEDRAL>
0

>  <SCORE.SYSTEM.SOLV>
0

>  <SCORE.SYSTEM.norm>
0

>  <SCORE.heavy>
11

>  <SCORE.norm>
-0.894702

>  <RMSD>
3.406

$$$$
ligand
 OpenBabel11021811493D
libRbt.so/2013.1/901 2013/11/27
 11 12  0  0  0  0  0  0  0  0999 V2000
   11.8967   11.3896    6.0002 N   0  0  0  0  0  0  0  0  0  0  0  0
   11.0687   12.4250    5.7875 C   0  0  0  0  0  0  0  0  0  0  0  0
   10.5953   12.6576    4.5071 N   0  0  0  0  0  0  0  0  0  0  0  0
   10.6908   13.2379    6.7876 N   0  0  0  0  0  0  0  0  0  0  0  0
   11.1350   13.0380    8.0504 C   0  0  0  0  0  0  0  0  0  0  0  0
   12.0105   11.9562    8.3214 C   0  0  0  0  0  0  0  0  0  0  0  0
   12.3862   11.1196    7.2285 C   0  0  0  0  0  0  0  0  0  0  0  0
   13.2363   10.0464    7.4161 N   0  0  0  0  0  0  0  0  0  0  0  0
   12.2949   11.9935    9.6467 N   0  0  0  0  0  0  0  0  0  0  0  0
   11.6700   12.9971   10.1947 C   0  0  0  0  0  0  0  0  0  0  0  0
   10.9423   13.6698    9.2520 N   0  0  0  0  0  0  0  0  0  0  0  0
  1  7  2  0  0  0  0
  1  2  1  0  0  0  0
  2  3  1  0  0  0  0
  2  4  2  0  0  0  0
  4  5  1  0  0  0  0
  5  6  2  0  0  0  0
  5 11  1  0  0  0  0
  6  7  1  0  0  0  0
  6  9  1  0  0  0  0
  7  8  1  0  0  0  0
  9 10  1  0  0  0  0
 10 11  2  0  0  0  0
M  END
>  <CHROM.1>
11.62801369,12.22471447,7.53843517,-1.79721536,-0.90406857,1.26937237

>  <Name>
ligand

>  <RI>
0

>  <Rbt.Current_Directory>
/home/itssahil/PROJECTS/Mol_Feturizer/New_Systems/rnas/4FEP

>  <Rbt.Executable>
rbdock ($Id: //depot/dev/client3/rdock/2013.1/src/exe/rbdock.cxx#4 $)

>  <Rbt.Library>
libRbt.so (2013.1, Build901 2013/11/27)

>  <Rbt.Parameter_File>
/export/apps/rDock/src/rDock_2013.1_src/data/scripts/dock_solv.prm

>  <Rbt.Receptor>
prm/pocket_docking_7.prm

>  <SCORE>
-9.76664

>  <SCORE.INTER>
-9.76664

>  <SCORE.INTER.CONST>
1

>  <SCORE.INTER.POLAR>
0

>  <SCORE.INTER.ROT>
0

>  <SCORE.INTER.SOLV>
18.4978

>  <SCORE.INTER.VDW>
-16.277

>  <SCORE.INTER.norm>
-0.887876

>  <SCORE.INTRA>
0

>  <SCORE.INTRA.DIHEDRAL>
0

>  <SCORE.INTRA.DIHEDRAL.0>
0

>  <SCORE.INTRA.POLAR>
0

>  <SCORE.INTRA.POLAR.0>
0

>  <SCORE.INTRA.REPUL>
0

>  <SCORE.INTRA.REPUL.0>
0

>  <SCORE.INTRA.SOLV>
0

>  <SCORE.INTRA.SOLV.lig_0>
-48.9558

>  <SCORE.INTRA.VDW>
0

>  <SCORE.INTRA.VDW.0>
0

>  <SCORE.INTRA.norm>
0

>  <SCORE.RESTR>
0

>  <SCORE.RESTR.CAVITY>
0

>  <SCORE.RESTR.norm>
0

>  <SCORE.SYSTEM>
0

>  <SCORE.SYSTEM.CONST>
0

>  <SCORE.SYSTEM.DIHEDRAL>
0

>  <SCORE.SYSTEM.SOLV>
0

>  <SCORE.SYSTEM.norm>
0

>  <SCORE.heavy>
11

>  <SCORE.norm>
-0.887876

>  <RMSD>
3.406

$$$$
ligand
 OpenBabel11021811493D
libRbt.so/2013.1/901 2013/11/27
 11 12  0  0  0  0  0  0  0  0999 V2000
   11.9147   11.4347    5.9013 N   0  0  0  0  0  0  0  0  0  0  0  0
   11.0973   12.4816    5.7041 C   0  0  0  0  0  0  0  0  0  0  0  0
   10.6339   12.7434    4.4257 N   0  0  0  0  0  0  0  0  0  0  0  0
   10.7206   13.2780    6.7177 N   0  0  0  0  0  0  0  0  0  0  0  0
   11.1553   13.0494    7.9790 C   0  0  0  0  0  0  0  0  0  0  0  0
   12.0195   11.9547    8.2339 C   0  0  0  0  0  0  0  0  0  0  0  0
   12.3943   11.1363    7.1270 C   0  0  0  0  0  0  0  0  0  0  0  0
   13.2337   10.0520    7.2984 N   0  0  0  0  0  0  0  0  0  0  0  0
   12.2961   11.9634    9.5612 N   0  0  0  0  0  0  0  0  0  0  0  0
   11.6768   12.9617   10.1251 C   0  0  0  0  0  0  0  0  0  0  0  0
   10.9609   13.6593    9.1916 N   0  0  0  0  0  0  0  0  0  0  0  0
  1  7  2  0  0  0  0
  1  2  1  0  0  0  0
  2  3  1  0  0  0  0
  2  4  2  0  0  0  0
  4  5  1  0  0  0  0
  5  6  2  0  0  0  0
  5 11  1  0  0  0  0
  6  7  1  0  0  0  0
  6  9  1  0  0  0  0
  7  8  1  0  0  0  0
  9 10  1  0  0  0  0
 10 11  2  0  0  0  0
M  END
>  <CHROM.1>
11.64413734,12.24194786,7.45403293,-1.79200973,-0.91438845,1.29310048

>  <Name>
ligand

>  <RI>
0

>  <Rbt.Current_Directory>
/home/itssahil/PROJECTS/Mol_Feturizer/New_Systems/rnas/4FEP

>  <Rbt.Executable>
rbdock ($Id: //depot/dev/client3/rdock/2013.1/src/exe/rbdock.cxx#4 $)

>  <Rbt.Library>
libRbt.so (2013.1, Build901 2013/11/27)

>  <Rbt.Parameter_File>
/export/apps/rDock/src/rDock_2013.1_src/data/scripts/dock_solv.prm

>  <Rbt.Receptor>
prm/blind_docking_80.prm

>  <SCORE>
-9.82983

>  <SCORE.INTER>
-9.82983

>  <SCORE.INTER.CONST>
1

>  <SCORE.INTER.POLAR>
0

>  <SCORE.INTER.ROT>
0

>  <SCORE.INTER.SOLV>
18.8032

>  <SCORE.INTER.VDW>
-16.421

>  <SCORE.INTER.norm>
-0.89362

>  <SCORE.INTRA>
0

>  <SCORE.INTRA.DIHEDRAL>
0

>  <SCORE.INTRA.DIHEDRAL.0>
0

>  <SCORE.INTRA.POLAR>
0

>  <SCORE.INTRA.POLAR.0>
0

>  <SCORE.INTRA.REPUL>
0

>  <SCORE.INTRA.REPUL.0>
0

>  <SCORE.INTRA.SOLV>
0

>  <SCORE.INTRA.SOLV.lig_0>
-48.9558

>  <SCORE.INTRA.VDW>
0

>  <SCORE.INTRA.VDW.0>
0

>  <SCORE.INTRA.norm>
0

>  <SCORE.RESTR>
0

>  <SCORE.RESTR.CAVITY>
0

>  <SCORE.RESTR.norm>
0

>  <SCORE.SYSTEM>
0

>  <SCORE.SYSTEM.CONST>
0

>  <SCORE.SYSTEM.DIHEDRAL>
0

>  <SCORE.SYSTEM.SOLV>
0

>  <SCORE.SYSTEM.norm>
0

>  <SCORE.heavy>
11

>  <SCORE.norm>
-0.89362

>  <RMSD>
3.407

$$$$
ligand
 OpenBabel11021811493D
libRbt.so/2013.1/901 2013/11/27
 11 12  0  0  0  0  0  0  0  0999 V2000
   11.6897   11.3638    5.9912 N   0  0  0  0  0  0  0  0  0  0  0  0
   10.8086   12.3635    5.8260 C   0  0  0  0  0  0  0  0  0  0  0  0
   10.2578   12.5763    4.5734 N   0  0  0  0  0  0  0  0  0  0  0  0
   10.4512   13.1593    6.8471 N   0  0  0  0  0  0  0  0  0  0  0  0
   10.9706   12.9779    8.0837 C   0  0  0  0  0  0  0  0  0  0  0  0
   11.9042   11.9339    8.3045 C   0  0  0  0  0  0  0  0  0  0  0  0
   12.2554   11.1143    7.1908 C   0  0  0  0  0  0  0  0  0  0  0  0
   13.1589   10.0778    7.3296 N   0  0  0  0  0  0  0  0  0  0  0  0
   12.2576   11.9826    9.6126 N   0  0  0  0  0  0  0  0  0  0  0  0
   11.6213   12.9588   10.1960 C   0  0  0  0  0  0  0  0  0  0  0  0
   10.8163   13.6006    9.2955 N   0  0  0  0  0  0  0  0  0  0  0  0
  1  7  2  0  0  0  0
  1  2  1  0  0  0  0
  2  3  1  0  0  0  0
  2  4  2  0  0  0  0
  4  5  1  0  0  0  0
  5  6  2  0  0  0  0
  5 11  1  0  0  0  0
  6  7  1  0  0  0  0
  6  9  1  0  0  0  0
  7  8  1  0  0  0  0
  9 10  1  0  0  0  0
 10 11  2  0  0  0  0
M  END
>  <CHROM.1>
11.46919091,12.18631451,7.54382945,-1.85585982,-0.84698626,1.22580999

>  <Name>
ligand

>  <RI>
0

>  <Rbt.Current_Directory>
/home/itssahil/PROJECTS/Mol_Feturizer/New_Systems/rnas/4FEP

>  <Rbt.Executable>
rbdock ($Id: //depot/dev/client3/rdock/2013.1/src/exe/rbdock.cxx#4 $)

>  <Rbt.Library>
libRbt.so (2013.1, Build901 2013/11/27)

>  <Rbt.Parameter_File>
/export/apps/rDock/src/rDock_2013.1_src/data/scripts/dock_solv.prm

>  <Rbt.Receptor>
prm/pocket_docking_7.prm

>  <SCORE>
-9.84143

>  <SCORE.INTER>
-9.84143

>  <SCORE.INTER.CONST>
1

>  <SCORE.INTER.POLAR>
0

>  <SCORE.INTER.ROT>
0

>  <SCORE.INTER.SOLV>
17.8053

>  <SCORE.INTER.VDW>
-16.0961

>  <SCORE.INTER.norm>
-0.894675

>  <SCORE.INTRA>
0

>  <SCORE.INTRA.DIHEDRAL>
0

>  <SCORE.INTRA.DIHEDRAL.0>
0

>  <SCORE.INTRA.POLAR>
0

>  <SCORE.INTRA.POLAR.0>
0

>  <SCORE.INTRA.REPUL>
0

>  <SCORE.INTRA.REPUL.0>
0

>  <SCORE.INTRA.SOLV>
0

>  <SCORE.INTRA.SOLV.lig_0>
-48.9558

>  <SCORE.INTRA.VDW>
0

>  <SCORE.INTRA.VDW.0>
0

>  <SCORE.INTRA.norm>
0

>  <SCORE.RESTR>
0

>  <SCORE.RESTR.CAVITY>
0

>  <SCORE.RESTR.norm>
0

>  <SCORE.SYSTEM>
0

>  <SCORE.SYSTEM.CONST>
0

>  <SCORE.SYSTEM.DIHEDRAL>
0

>  <SCORE.SYSTEM.SOLV>
0

>  <SCORE.SYSTEM.norm>
0

>  <SCORE.heavy>
11

>  <SCORE.norm>
-0.894675

>  <RMSD>
3.407

$$$$
ligand
 OpenBabel11021811493D
libRbt.so/2013.1/901 2013/11/27
 11 12  0  0  0  0  0  0  0  0999 V2000
   11.9192   11.4413    5.8841 N   0  0  0  0  0  0  0  0  0  0  0  0
   11.1042   12.4903    5.6887 C   0  0  0  0  0  0  0  0  0  0  0  0
   10.6445   12.7577    4.4101 N   0  0  0  0  0  0  0  0  0  0  0  0
   10.7263   13.2837    6.7043 N   0  0  0  0  0  0  0  0  0  0  0  0
   11.1573   13.0497    7.9658 C   0  0  0  0  0  0  0  0  0  0  0  0
   12.0189   11.9526    8.2189 C   0  0  0  0  0  0  0  0  0  0  0  0
   12.3951   11.1376    7.1100 C   0  0  0  0  0  0  0  0  0  0  0  0
   13.2321   10.0511    7.2796 N   0  0  0  0  0  0  0  0  0  0  0  0
   12.2921   11.9559    9.5470 N   0  0  0  0  0  0  0  0  0  0  0  0
   11.6732   12.9533   10.1129 C   0  0  0  0  0  0  0  0  0  0  0  0
   10.9609   13.6555    9.1801 N   0  0  0  0  0  0  0  0  0  0  0  0
  1  7  2  0  0  0  0
  1  2  1  0  0  0  0
  2  3  1  0  0  0  0
  2  4  2  0  0  0  0
  4  5  1  0  0  0  0
  5  6  2  0  0  0  0
  5 11  1  0  0  0  0
  6  7  1  0  0  0  0
  6  9  1  0  0  0  0
  7  8  1  0  0  0  0
  9 10  1  0  0  0  0
 10 11  2  0  0  0  0
M  END
>  <CHROM.1>
11.64609385,12.24330840,7.43913764,-1.78873057,-0.91679306,1.29936441

>  <Name>
ligand

>  <RI>
0

>  <Rbt.Current_Directory>
/home/itssahil/PROJECTS/Mol_Feturizer/New_Systems/rnas/4FEP

>  <Rbt.Executable>
rbdock ($Id: //depot/dev/client3/rdock/2013.1/src/exe/rbdock.cxx#4 $)

>  <Rbt.Library>
libRbt.so (2013.1, Build901 2013/11/27)

>  <Rbt.Parameter_File>
/export/apps/rDock/src/rDock_2013.1_src/data/scripts/dock_solv.prm

>  <Rbt.Receptor>
prm/pocket_docking_7.prm

>  <SCORE>
-9.85137

>  <SCORE.INTER>
-9.85137

>  <SCORE.INTER.CONST>
1

>  <SCORE.INTER.POLAR>
0

>  <SCORE.INTER.ROT>
0

>  <SCORE.INTER.SOLV>
18.8795

>  <SCORE.INTER.VDW>
-16.4608

>  <SCORE.INTER.norm>
-0.895579

>  <SCORE.INTRA>
0

>  <SCORE.INTRA.DIHEDRAL>
0

>  <SCORE.INTRA.DIHEDRAL.0>
0

>  <SCORE.INTRA.POLAR>
0

>  <SCORE.INTRA.POLAR.0>
0

>  <SCORE.INTRA.REPUL>
0

>  <SCORE.INTRA.REPUL.0>
0

>  <SCORE.INTRA.SOLV>
0

>  <SCORE.INTRA.SOLV.lig_0>
-48.9558

>  <SCORE.INTRA.VDW>
0

>  <SCORE.INTRA.VDW.0>
0

>  <SCORE.INTRA.norm>
0

>  <SCORE.RESTR>
0

>  <SCORE.RESTR.CAVITY>
0

>  <SCORE.RESTR.norm>
0

>  <SCORE.SYSTEM>
0

>  <SCORE.SYSTEM.CONST>
0

>  <SCORE.SYSTEM.DIHEDRAL>
0

>  <SCORE.SYSTEM.SOLV>
0

>  <SCORE.SYSTEM.norm>
0

>  <SCORE.heavy>
11

>  <SCORE.norm>
-0.895579

>  <RMSD>
3.407

$$$$
ligand
 OpenBabel11021811493D
libRbt.so/2013.1/901 2013/11/27
 11 12  0  0  0  0  0  0  0  0999 V2000
   11.7064   11.3771    6.0214 N   0  0  0  0  0  0  0  0  0  0  0  0
   10.8262   12.3766    5.8506 C   0  0  0  0  0  0  0  0  0  0  0  0
   10.2749   12.5823    4.5970 N   0  0  0  0  0  0  0  0  0  0  0  0
   10.4701   13.1790    6.8670 N   0  0  0  0  0  0  0  0  0  0  0  0
   10.9900   13.0046    8.1044 C   0  0  0  0  0  0  0  0  0  0  0  0
   11.9227   11.9611    8.3311 C   0  0  0  0  0  0  0  0  0  0  0  0
   12.2725   11.1343    7.2223 C   0  0  0  0  0  0  0  0  0  0  0  0
   13.1750   10.0978    7.3669 N   0  0  0  0  0  0  0  0  0  0  0  0
   12.2768   12.0175    9.6387 N   0  0  0  0  0  0  0  0  0  0  0  0
   11.6419   12.9979   10.2165 C   0  0  0  0  0  0  0  0  0  0  0  0
   10.8370   13.6349    9.3125 N   0  0  0  0  0  0  0  0  0  0  0  0
  1  7  2  0  0  0  0
  1  2  1  0  0  0  0
  2  3  1  0  0  0  0
  2  4  2  0  0  0  0
  4  5  1  0  0  0  0
  5  6  2  0  0  0  0
  5 11  1  0  0  0  0
  6  7  1  0  0  0  0
  6  9  1  0  0  0  0
  7  8  1  0  0  0  0
  9 10  1  0  0  0  0
 10 11  2  0  0  0  0
M  END
>  <CHROM.1>
11.48752713,12.20929078,7.56914425,-1.85713995,-0.84774245,1.21872941

>  <Name>
ligand

>  <RI>
0

>  <Rbt.Current_Directory>
/home/itssahil/PROJECTS/Mol_Feturizer/New_Systems/rnas/4FEP

>  <Rbt.Executable>
rbdock ($Id: //depot/dev/client3/rdock/2013.1/src/exe/rbdock.cxx#4 $)

>  <Rbt.Library>
libRbt.so (2013.1, Build901 2013/11/27)

>  <Rbt.Parameter_File>
/export/apps/rDock/src/rDock_2013.1_src/data/scripts/dock_solv.prm

>  <Rbt.Receptor>
prm/pocket_docking_8.prm

>  <SCORE>
-9.86637

>  <SCORE.INTER>
-9.86637

>  <SCORE.INTER.CONST>
1

>  <SCORE.INTER.POLAR>
0

>  <SCORE.INTER.ROT>
0

>  <SCORE.INTER.SOLV>
17.7249

>  <SCORE.INTER.VDW>
-16.0859

>  <SCORE.INTER.norm>
-0.896943

>  <SCORE.INTRA>
0

>  <SCORE.INTRA.DIHEDRAL>
0

>  <SCORE.INTRA.DIHEDRAL.0>
0

>  <SCORE.INTRA.POLAR>
0

>  <SCORE.INTRA.POLAR.0>
0

>  <SCORE.INTRA.REPUL>
0

>  <SCORE.INTRA.REPUL.0>
0

>  <SCORE.INTRA.SOLV>
0

>  <SCORE.INTRA.SOLV.lig_0>
-48.9558

>  <SCORE.INTRA.VDW>
0

>  <SCORE.INTRA.VDW.0>
0

>  <SCORE.INTRA.norm>
0

>  <SCORE.RESTR>
0

>  <SCORE.RESTR.CAVITY>
0

>  <SCORE.RESTR.norm>
0

>  <SCORE.SYSTEM>
0

>  <SCORE.SYSTEM.CONST>
0

>  <SCORE.SYSTEM.DIHEDRAL>
0

>  <SCORE.SYSTEM.SOLV>
0

>  <SCORE.SYSTEM.norm>
0

>  <SCORE.heavy>
11

>  <SCORE.norm>
-0.896943

>  <RMSD>
3.407

$$$$
ligand
 OpenBabel11021811493D
libRbt.so/2013.1/901 2013/11/27
 11 12  0  0  0  0  0  0  0  0999 V2000
   11.9467   11.4886    5.8760 N   0  0  0  0  0  0  0  0  0  0  0  0
   11.1480   12.5503    5.6814 C   0  0  0  0  0  0  0  0  0  0  0  0
   10.7117   12.8394    4.3993 N   0  0  0  0  0  0  0  0  0  0  0  0
   10.7642   13.3356    6.7010 N   0  0  0  0  0  0  0  0  0  0  0  0
   11.1725   13.0804    7.9659 C   0  0  0  0  0  0  0  0  0  0  0  0
   12.0163   11.9693    8.2183 C   0  0  0  0  0  0  0  0  0  0  0  0
   12.3995   11.1635    7.1051 C   0  0  0  0  0  0  0  0  0  0  0  0
   13.2202   10.0645    7.2738 N   0  0  0  0  0  0  0  0  0  0  0  0
   12.2688   11.9525    9.5504 N   0  0  0  0  0  0  0  0  0  0  0  0
   11.6535   12.9505   10.1194 C   0  0  0  0  0  0  0  0  0  0  0  0
   10.9647   13.6734    9.1847 N   0  0  0  0  0  0  0  0  0  0  0  0
  1  7  2  0  0  0  0
  1  2  1  0  0  0  0
  2  3  1  0  0  0  0
  2  4  2  0  0  0  0
  4  5  1  0  0  0  0
  5  6  2  0  0  0  0
  5 11  1  0  0  0  0
  6  7  1  0  0  0  0
  6  9  1  0  0  0  0
  7  8  1  0  0  0  0
  9 10  1  0  0  0  0
 10 11  2  0  0  0  0
M  END
>  <CHROM.1>
11.65935516,12.27450293,7.43670819,-1.76909533,-0.93292580,1.32767183

>  <Name>
ligand

>  <RI>
0

>  <Rbt.Current_Directory>
/home/itssahil/PROJECTS/Mol_Feturizer/New_Systems/rnas/4FEP

>  <Rbt.Executable>
rbdock ($Id: //depot/dev/client3/rdock/2013.1/src/exe/rbdock.cxx#4 $)

>  <Rbt.Library>
libRbt.so (2013.1, Build901 2013/11/27)

>  <Rbt.Parameter_File>
/export/apps/rDock/src/rDock_2013.1_src/data/scripts/dock_solv.prm

>  <Rbt.Receptor>
prm/blind_docking_60.prm

>  <SCORE>
-9.7918

>  <SCORE.INTER>
-9.7918

>  <SCORE.INTER.CONST>
1

>  <SCORE.INTER.POLAR>
0

>  <SCORE.INTER.ROT>
0

>  <SCORE.INTER.SOLV>
19.0613

>  <SCORE.INTER.VDW>
-16.4816

>  <SCORE.INTER.norm>
-0.890164

>  <SCORE.INTRA>
0

>  <SCORE.INTRA.DIHEDRAL>
0

>  <SCORE.INTRA.DIHEDRAL.0>
0

>  <SCORE.INTRA.POLAR>
0

>  <SCORE.INTRA.POLAR.0>
0

>  <SCORE.INTRA.REPUL>
0

>  <SCORE.INTRA.REPUL.0>
0

>  <SCORE.INTRA.SOLV>
0

>  <SCORE.INTRA.SOLV.lig_0>
-48.9558

>  <SCORE.INTRA.VDW>
0

>  <SCORE.INTRA.VDW.0>
0

>  <SCORE.INTRA.norm>
0

>  <SCORE.RESTR>
0

>  <SCORE.RESTR.CAVITY>
0

>  <SCORE.RESTR.norm>
0

>  <SCORE.SYSTEM>
0

>  <SCORE.SYSTEM.CONST>
0

>  <SCORE.SYSTEM.DIHEDRAL>
0

>  <SCORE.SYSTEM.SOLV>
0

>  <SCORE.SYSTEM.norm>
0

>  <SCORE.heavy>
11

>  <SCORE.norm>
-0.890164

>  <RMSD>
3.408

$$$$
ligand
 OpenBabel11021811493D
libRbt.so/2013.1/901 2013/11/27
 11 12  0  0  0  0  0  0  0  0999 V2000
   11.7087   11.3822    5.9897 N   0  0  0  0  0  0  0  0  0  0  0  0
   10.8222   12.3760    5.8178 C   0  0  0  0  0  0  0  0  0  0  0  0
   10.2830   12.5881    4.5601 N   0  0  0  0  0  0  0  0  0  0  0  0
   10.4485   13.1665    6.8371 N   0  0  0  0  0  0  0  0  0  0  0  0
   10.9562   12.9856    8.0786 C   0  0  0  0  0  0  0  0  0  0  0  0
   11.8949   11.9477    8.3065 C   0  0  0  0  0  0  0  0  0  0  0  0
   12.2636   11.1335    7.1945 C   0  0  0  0  0  0  0  0  0  0  0  0
   13.1729   10.1032    7.3401 N   0  0  0  0  0  0  0  0  0  0  0  0
   12.2342   11.9955    9.6184 N   0  0  0  0  0  0  0  0  0  0  0  0
   11.5849   12.9656   10.1976 C   0  0  0  0  0  0  0  0  0  0  0  0
   10.7847   13.6040    9.2904 N   0  0  0  0  0  0  0  0  0  0  0  0
  1  7  2  0  0  0  0
  1  2  1  0  0  0  0
  2  3  1  0  0  0  0
  2  4  2  0  0  0  0
  4  5  1  0  0  0  0
  5  6  2  0  0  0  0
  5 11  1  0  0  0  0
  6  7  1  0  0  0  0
  6  9  1  0  0  0  0
  7  8  1  0  0  0  0
  9 10  1  0  0  0  0
 10 11  2  0  0  0  0
M  END
>  <CHROM.1>
11.46603288,12.19900123,7.54202291,-1.83739639,-0.84369666,1.24221633

>  <Name>
ligand

>  <RI>
0

>  <Rbt.Current_Directory>
/home/itssahil/PROJECTS/Mol_Feturizer/New_Systems/rnas/4FEP

>  <Rbt.Executable>
rbdock ($Id: //depot/dev/client3/rdock/2013.1/src/exe/rbdock.cxx#4 $)

>  <Rbt.Library>
libRbt.so (2013.1, Build901 2013/11/27)

>  <Rbt.Parameter_File>
/export/apps/rDock/src/rDock_2013.1_src/data/scripts/dock_solv.prm

>  <Rbt.Receptor>
prm/pocket_docking_6.prm

>  <SCORE>
-9.8436

>  <SCORE.INTER>
-9.8436

>  <SCORE.INTER.CONST>
1

>  <SCORE.INTER.POLAR>
0

>  <SCORE.INTER.ROT>
0

>  <SCORE.INTER.SOLV>
17.8751

>  <SCORE.INTER.VDW>
-16.1208

>  <SCORE.INTER.norm>
-0.894873

>  <SCORE.INTRA>
0

>  <SCORE.INTRA.DIHEDRAL>
0

>  <SCORE.INTRA.DIHEDRAL.0>
0

>  <SCORE.INTRA.POLAR>
0

>  <SCORE.INTRA.POLAR.0>
0

>  <SCORE.INTRA.REPUL>
0

>  <SCORE.INTRA.REPUL.0>
0

>  <SCORE.INTRA.SOLV>
0

>  <SCORE.INTRA.SOLV.lig_0>
-48.9558

>  <SCORE.INTRA.VDW>
0

>  <SCORE.INTRA.VDW.0>
0

>  <SCORE.INTRA.norm>
0

>  <SCORE.RESTR>
0

>  <SCORE.RESTR.CAVITY>
0

>  <SCORE.RESTR.norm>
0

>  <SCORE.SYSTEM>
0

>  <SCORE.SYSTEM.CONST>
0

>  <SCORE.SYSTEM.DIHEDRAL>
0

>  <SCORE.SYSTEM.SOLV>
0

>  <SCORE.SYSTEM.norm>
0

>  <SCORE.heavy>
11

>  <SCORE.norm>
-0.894873

>  <RMSD>
3.408

$$$$
ligand
 OpenBabel11021811493D
libRbt.so/2013.1/901 2013/11/27
 11 12  0  0  0  0  0  0  0  0999 V2000
   11.9171   11.4454    5.8803 N   0  0  0  0  0  0  0  0  0  0  0  0
   11.1025   12.4952    5.6868 C   0  0  0  0  0  0  0  0  0  0  0  0
   10.6426   12.7648    4.4087 N   0  0  0  0  0  0  0  0  0  0  0  0
   10.7254   13.2872    6.7038 N   0  0  0  0  0  0  0  0  0  0  0  0
   11.1566   13.0509    7.9647 C   0  0  0  0  0  0  0  0  0  0  0  0
   12.0177   11.9529    8.2158 C   0  0  0  0  0  0  0  0  0  0  0  0
   12.3932   11.1395    7.1055 C   0  0  0  0  0  0  0  0  0  0  0  0
   13.2297   10.0523    7.2731 N   0  0  0  0  0  0  0  0  0  0  0  0
   12.2914   11.9540    9.5438 N   0  0  0  0  0  0  0  0  0  0  0  0
   11.6731   12.9508   10.1116 C   0  0  0  0  0  0  0  0  0  0  0  0
   10.9609   13.6549    9.1801 N   0  0  0  0  0  0  0  0  0  0  0  0
  1  7  2  0  0  0  0
  1  2  1  0  0  0  0
  2  3  1  0  0  0  0
  2  4  2  0  0  0  0
  4  5  1  0  0  0  0
  5  6  2  0  0  0  0
  5 11  1  0  0  0  0
  6  7  1  0  0  0  0
  6  9  1  0  0  0  0
  7  8  1  0  0  0  0
  9 10  1  0  0  0  0
 10 11  2  0  0  0  0
M  END
>  <CHROM.1>
11.64485460,12.24510028,7.43667338,-1.78943529,-0.91721144,1.30040245

>  <Name>
ligand

>  <RI>
0

>  <Rbt.Current_Directory>
/home/itssahil/PROJECTS/Mol_Feturizer/New_Systems/rnas/4FEP

>  <Rbt.Executable>
rbdock ($Id: //depot/dev/client3/rdock/2013.1/src/exe/rbdock.cxx#4 $)

>  <Rbt.Library>
libRbt.so (2013.1, Build901 2013/11/27)

>  <Rbt.Parameter_File>
/export/apps/rDock/src/rDock_2013.1_src/data/scripts/dock_solv.prm

>  <Rbt.Receptor>
prm/pocket_docking_7.prm

>  <SCORE>
-9.85136

>  <SCORE.INTER>
-9.85136

>  <SCORE.INTER.CONST>
1

>  <SCORE.INTER.POLAR>
0

>  <SCORE.INTER.ROT>
0

>  <SCORE.INTER.SOLV>
18.8762

>  <SCORE.INTER.VDW>
-16.4597

>  <SCORE.INTER.norm>
-0.895578

>  <SCORE.INTRA>
0

>  <SCORE.INTRA.DIHEDRAL>
0

>  <SCORE.INTRA.DIHEDRAL.0>
0

>  <SCORE.INTRA.POLAR>
0

>  <SCORE.INTRA.POLAR.0>
0

>  <SCORE.INTRA.REPUL>
0

>  <SCORE.INTRA.REPUL.0>
0

>  <SCORE.INTRA.SOLV>
0

>  <SCORE.INTRA.SOLV.lig_0>
-48.9558

>  <SCORE.INTRA.VDW>
0

>  <SCORE.INTRA.VDW.0>
0

>  <SCORE.INTRA.norm>
0

>  <SCORE.RESTR>
0

>  <SCORE.RESTR.CAVITY>
0

>  <SCORE.RESTR.norm>
0

>  <SCORE.SYSTEM>
0

>  <SCORE.SYSTEM.CONST>
0

>  <SCORE.SYSTEM.DIHEDRAL>
0

>  <SCORE.SYSTEM.SOLV>
0

>  <SCORE.SYSTEM.norm>
0

>  <SCORE.heavy>
11

>  <SCORE.norm>
-0.895578

>  <RMSD>
3.408

$$$$
ligand
 OpenBabel11021811493D
libRbt.so/2013.1/901 2013/11/27
 11 12  0  0  0  0  0  0  0  0999 V2000
   11.6740   11.4089    5.9826 N   0  0  0  0  0  0  0  0  0  0  0  0
   10.7796   12.3983    5.8268 C   0  0  0  0  0  0  0  0  0  0  0  0
   10.2221   12.6124    4.5775 N   0  0  0  0  0  0  0  0  0  0  0  0
   10.4152   13.1825    6.8544 N   0  0  0  0  0  0  0  0  0  0  0  0
   10.9408   12.9995    8.0881 C   0  0  0  0  0  0  0  0  0  0  0  0
   11.8884   11.9662    8.2990 C   0  0  0  0  0  0  0  0  0  0  0  0
   12.2466   11.1587    7.1787 C   0  0  0  0  0  0  0  0  0  0  0  0
   13.1637   10.1330    7.3078 N   0  0  0  0  0  0  0  0  0  0  0  0
   12.2453   12.0107    9.6064 N   0  0  0  0  0  0  0  0  0  0  0  0
   11.5984   12.9747   10.1983 C   0  0  0  0  0  0  0  0  0  0  0  0
   10.7824   13.6121    9.3046 N   0  0  0  0  0  0  0  0  0  0  0  0
  1  7  2  0  0  0  0
  1  2  1  0  0  0  0
  2  3  1  0  0  0  0
  2  4  2  0  0  0  0
  4  5  1  0  0  0  0
  5  6  2  0  0  0  0
  5 11  1  0  0  0  0
  6  7  1  0  0  0  0
  6  9  1  0  0  0  0
  7  8  1  0  0  0  0
  9 10  1  0  0  0  0
 10 11  2  0  0  0  0
M  END
>  <CHROM.1>
11.44780361,12.21808697,7.54143187,-1.85382254,-0.83383066,1.23406195

>  <Name>
ligand

>  <RI>
0

>  <Rbt.Current_Directory>
/home/itssahil/PROJECTS/Mol_Feturizer/New_Systems/rnas/4FEP

>  <Rbt.Executable>
rbdock ($Id: //depot/dev/client3/rdock/2013.1/src/exe/rbdock.cxx#4 $)

>  <Rbt.Library>
libRbt.so (2013.1, Build901 2013/11/27)

>  <Rbt.Parameter_File>
/export/apps/rDock/src/rDock_2013.1_src/data/scripts/dock_solv.prm

>  <Rbt.Receptor>
prm/pocket_docking_6.prm

>  <SCORE>
-9.8261

>  <SCORE.INTER>
-9.8261

>  <SCORE.INTER.CONST>
1

>  <SCORE.INTER.POLAR>
0

>  <SCORE.INTER.ROT>
0

>  <SCORE.INTER.SOLV>
17.6753

>  <SCORE.INTER.VDW>
-16.0425

>  <SCORE.INTER.norm>
-0.893282

>  <SCORE.INTRA>
0

>  <SCORE.INTRA.DIHEDRAL>
0

>  <SCORE.INTRA.DIHEDRAL.0>
0

>  <SCORE.INTRA.POLAR>
0

>  <SCORE.INTRA.POLAR.0>
0

>  <SCORE.INTRA.REPUL>
0

>  <SCORE.INTRA.REPUL.0>
0

>  <SCORE.INTRA.SOLV>
0

>  <SCORE.INTRA.SOLV.lig_0>
-48.9558

>  <SCORE.INTRA.VDW>
0

>  <SCORE.INTRA.VDW.0>
0

>  <SCORE.INTRA.norm>
0

>  <SCORE.RESTR>
0

>  <SCORE.RESTR.CAVITY>
0

>  <SCORE.RESTR.norm>
0

>  <SCORE.SYSTEM>
0

>  <SCORE.SYSTEM.CONST>
0

>  <SCORE.SYSTEM.DIHEDRAL>
0

>  <SCORE.SYSTEM.SOLV>
0

>  <SCORE.SYSTEM.norm>
0

>  <SCORE.heavy>
11

>  <SCORE.norm>
-0.893282

>  <RMSD>
3.409

$$$$
ligand
 OpenBabel11021811493D
libRbt.so/2013.1/901 2013/11/27
 11 12  0  0  0  0  0  0  0  0999 V2000
   10.7955   13.2868    7.8706 N   0  0  0  0  0  0  0  0  0  0  0  0
   10.5460   12.8578    6.6229 C   0  0  0  0  0  0  0  0  0  0  0  0
    9.7474   13.6265    5.7929 N   0  0  0  0  0  0  0  0  0  0  0  0
   11.0533   11.7020    6.1641 N   0  0  0  0  0  0  0  0  0  0  0  0
   11.8377   10.9276    6.9494 C   0  0  0  0  0  0  0  0  0  0  0  0
   12.1282   11.3417    8.2739 C   0  0  0  0  0  0  0  0  0  0  0  0
   11.5671   12.5755    8.7191 C   0  0  0  0  0  0  0  0  0  0  0  0
   11.8061   13.0434    9.9973 N   0  0  0  0  0  0  0  0  0  0  0  0
   12.9205   10.3901    8.8264 N   0  0  0  0  0  0  0  0  0  0  0  0
   13.1321    9.4447    7.9550 C   0  0  0  0  0  0  0  0  0  0  0  0
   12.4865    9.7310    6.7837 N   0  0  0  0  0  0  0  0  0  0  0  0
  1  7  2  0  0  0  0
  1  2  1  0  0  0  0
  2  3  1  0  0  0  0
  2  4  2  0  0  0  0
  4  5  1  0  0  0  0
  5  6  2  0  0  0  0
  5 11  1  0  0  0  0
  6  7  1  0  0  0  0
  6  9  1  0  0  0  0
  7  8  1  0  0  0  0
  9 10  1  0  0  0  0
 10 11  2  0  0  0  0
M  END
>  <CHROM.1>
11.62409196,11.74081513,7.62732953,-2.96775993,0.94396497,-2.16635059

>  <Name>
ligand

>  <RI>
0

>  <Rbt.Current_Directory>
/home/itssahil/PROJECTS/Mol_Feturizer/New_Systems/rnas/4FEP

>  <Rbt.Executable>
rbdock ($Id: //depot/dev/client3/rdock/2013.1/src/exe/rbdock.cxx#4 $)

>  <Rbt.Library>
libRbt.so (2013.1, Build901 2013/11/27)

>  <Rbt.Parameter_File>
/export/apps/rDock/src/rDock_2013.1_src/data/scripts/dock_solv.prm

>  <Rbt.Receptor>
prm/blind_docking_80.prm

>  <SCORE>
-5.54127

>  <SCORE.INTER>
-5.54127

>  <SCORE.INTER.CONST>
1

>  <SCORE.INTER.POLAR>
0

>  <SCORE.INTER.ROT>
0

>  <SCORE.INTER.SOLV>
20.3581

>  <SCORE.INTER.VDW>
-14.0802

>  <SCORE.INTER.norm>
-0.503752

>  <SCORE.INTRA>
0

>  <SCORE.INTRA.DIHEDRAL>
0

>  <SCORE.INTRA.DIHEDRAL.0>
0

>  <SCORE.INTRA.POLAR>
0

>  <SCORE.INTRA.POLAR.0>
0

>  <SCORE.INTRA.REPUL>
0

>  <SCORE.INTRA.REPUL.0>
0

>  <SCORE.INTRA.SOLV>
0

>  <SCORE.INTRA.SOLV.lig_0>
-48.9558

>  <SCORE.INTRA.VDW>
0

>  <SCORE.INTRA.VDW.0>
0

>  <SCORE.INTRA.norm>
0

>  <SCORE.RESTR>
0

>  <SCORE.RESTR.CAVITY>
0

>  <SCORE.RESTR.norm>
0

>  <SCORE.SYSTEM>
0

>  <SCORE.SYSTEM.CONST>
0

>  <SCORE.SYSTEM.DIHEDRAL>
0

>  <SCORE.SYSTEM.SOLV>
0

>  <SCORE.SYSTEM.norm>
0

>  <SCORE.heavy>
11

>  <SCORE.norm>
-0.503752

>  <RMSD>
3.505

$$$$
ligand
 OpenBabel11021811493D
libRbt.so/2013.1/901 2013/11/27
 11 12  0  0  0  0  0  0  0  0999 V2000
   10.7995   13.2932    7.8374 N   0  0  0  0  0  0  0  0  0  0  0  0
   10.5806   12.8691    6.5824 C   0  0  0  0  0  0  0  0  0  0  0  0
    9.8069   13.6436    5.7344 N   0  0  0  0  0  0  0  0  0  0  0  0
   11.0948   11.7125    6.1332 N   0  0  0  0  0  0  0  0  0  0  0  0
   11.8555   10.9324    6.9362 C   0  0  0  0  0  0  0  0  0  0  0  0
   12.1133   11.3413    8.2691 C   0  0  0  0  0  0  0  0  0  0  0  0
   11.5459   12.5762    8.7035 C   0  0  0  0  0  0  0  0  0  0  0  0
   11.7536   13.0391    9.9889 N   0  0  0  0  0  0  0  0  0  0  0  0
   12.8871   10.3848    8.8389 N   0  0  0  0  0  0  0  0  0  0  0  0
   13.1173    9.4411    7.9703 C   0  0  0  0  0  0  0  0  0  0  0  0
   12.5034    9.7336    6.7836 N   0  0  0  0  0  0  0  0  0  0  0  0
  1  7  2  0  0  0  0
  1  2  1  0  0  0  0
  2  3  1  0  0  0  0
  2  4  2  0  0  0  0
  4  5  1  0  0  0  0
  5  6  2  0  0  0  0
  5 11  1  0  0  0  0
  6  7  1  0  0  0  0
  6  9  1  0  0  0  0
  7  8  1  0  0  0  0
  9 10  1  0  0  0  0
 10 11  2  0  0  0  0
M  END
>  <CHROM.1>
11.62771380,11.74451534,7.61089852,-3.00123416,0.96164524,-2.13597743

>  <Name>
ligand

>  <RI>
0

>  <Rbt.Current_Directory>
/home/itssahil/PROJECTS/Mol_Feturizer/New_Systems/rnas/4FEP

>  <Rbt.Executable>
rbdock ($Id: //depot/dev/client3/rdock/2013.1/src/exe/rbdock.cxx#4 $)

>  <Rbt.Library>
libRbt.so (2013.1, Build901 2013/11/27)

>  <Rbt.Parameter_File>
/export/apps/rDock/src/rDock_2013.1_src/data/scripts/dock_solv.prm

>  <Rbt.Receptor>
prm/blind_docking_60.prm

>  <SCORE>
-5.55912

>  <SCORE.INTER>
-5.55912

>  <SCORE.INTER.CONST>
1

>  <SCORE.INTER.POLAR>
0

>  <SCORE.INTER.ROT>
0

>  <SCORE.INTER.SOLV>
20.4048

>  <SCORE.INTER.VDW>
-14.1077

>  <SCORE.INTER.norm>
-0.505375

>  <SCORE.INTRA>
0

>  <SCORE.INTRA.DIHEDRAL>
0

>  <SCORE.INTRA.DIHEDRAL.0>
0

>  <SCORE.INTRA.POLAR>
0

>  <SCORE.INTRA.POLAR.0>
0

>  <SCORE.INTRA.REPUL>
0

>  <SCORE.INTRA.REPUL.0>
0

>  <SCORE.INTRA.SOLV>
0

>  <SCORE.INTRA.SOLV.lig_0>
-48.9558

>  <SCORE.INTRA.VDW>
0

>  <SCORE.INTRA.VDW.0>
0

>  <SCORE.INTRA.norm>
0

>  <SCORE.RESTR>
0

>  <SCORE.RESTR.CAVITY>
0

>  <SCORE.RESTR.norm>
0

>  <SCORE.SYSTEM>
0

>  <SCORE.SYSTEM.CONST>
0

>  <SCORE.SYSTEM.DIHEDRAL>
0

>  <SCORE.SYSTEM.SOLV>
0

>  <SCORE.SYSTEM.norm>
0

>  <SCORE.heavy>
11

>  <SCORE.norm>
-0.505375

>  <RMSD>
3.516

$$$$
ligand
 OpenBabel11021811493D
libRbt.so/2013.1/901 2013/11/27
 11 12  0  0  0  0  0  0  0  0999 V2000
   10.7964   13.2986    7.8346 N   0  0  0  0  0  0  0  0  0  0  0  0
   10.5741   12.8698    6.5817 C   0  0  0  0  0  0  0  0  0  0  0  0
    9.7988   13.6417    5.7328 N   0  0  0  0  0  0  0  0  0  0  0  0
   11.0863   11.7112    6.1357 N   0  0  0  0  0  0  0  0  0  0  0  0
   11.8484   10.9336    6.9397 C   0  0  0  0  0  0  0  0  0  0  0  0
   12.1099   11.3474    8.2703 C   0  0  0  0  0  0  0  0  0  0  0  0
   11.5445   12.5843    8.7015 C   0  0  0  0  0  0  0  0  0  0  0  0
   11.7557   13.0520    9.9846 N   0  0  0  0  0  0  0  0  0  0  0  0
   12.8844   10.3925    8.8419 N   0  0  0  0  0  0  0  0  0  0  0  0
   13.1118    9.4453    7.9763 C   0  0  0  0  0  0  0  0  0  0  0  0
   12.4952    9.7338    6.7900 N   0  0  0  0  0  0  0  0  0  0  0  0
  1  7  2  0  0  0  0
  1  2  1  0  0  0  0
  2  3  1  0  0  0  0
  2  4  2  0  0  0  0
  4  5  1  0  0  0  0
  5  6  2  0  0  0  0
  5 11  1  0  0  0  0
  6  7  1  0  0  0  0
  6  9  1  0  0  0  0
  7  8  1  0  0  0  0
  9 10  1  0  0  0  0
 10 11  2  0  0  0  0
M  END
>  <CHROM.1>
11.62294249,11.74841462,7.61187526,-2.99686196,0.96088884,-2.14336667

>  <Name>
ligand

>  <RI>
0

>  <Rbt.Current_Directory>
/home/itssahil/PROJECTS/Mol_Feturizer/New_Systems/rnas/4FEP

>  <Rbt.Executable>
rbdock ($Id: //depot/dev/client3/rdock/2013.1/src/exe/rbdock.cxx#4 $)

>  <Rbt.Library>
libRbt.so (2013.1, Build901 2013/11/27)

>  <Rbt.Parameter_File>
/export/apps/rDock/src/rDock_2013.1_src/data/scripts/dock_solv.prm

>  <Rbt.Receptor>
prm/blind_docking_40.prm

>  <SCORE>
-5.56112

>  <SCORE.INTER>
-5.56112

>  <SCORE.INTER.CONST>
1

>  <SCORE.INTER.POLAR>
0

>  <SCORE.INTER.ROT>
0

>  <SCORE.INTER.SOLV>
20.4257

>  <SCORE.INTER.VDW>
-14.116

>  <SCORE.INTER.norm>
-0.505556

>  <SCORE.INTRA>
0

>  <SCORE.INTRA.DIHEDRAL>
0

>  <SCORE.INTRA.DIHEDRAL.0>
0

>  <SCORE.INTRA.POLAR>
0

>  <SCORE.INTRA.POLAR.0>
0

>  <SCORE.INTRA.REPUL>
0

>  <SCORE.INTRA.REPUL.0>
0

>  <SCORE.INTRA.SOLV>
0

>  <SCORE.INTRA.SOLV.lig_0>
-48.9558

>  <SCORE.INTRA.VDW>
0

>  <SCORE.INTRA.VDW.0>
0

>  <SCORE.INTRA.norm>
0

>  <SCORE.RESTR>
0

>  <SCORE.RESTR.CAVITY>
0

>  <SCORE.RESTR.norm>
0

>  <SCORE.SYSTEM>
0

>  <SCORE.SYSTEM.CONST>
0

>  <SCORE.SYSTEM.DIHEDRAL>
0

>  <SCORE.SYSTEM.SOLV>
0

>  <SCORE.SYSTEM.norm>
0

>  <SCORE.heavy>
11

>  <SCORE.norm>
-0.505556

>  <RMSD>
3.517

$$$$
ligand
 OpenBabel11021811493D
libRbt.so/2013.1/901 2013/11/27
 11 12  0  0  0  0  0  0  0  0999 V2000
   11.7097   10.5465    6.4302 N   0  0  0  0  0  0  0  0  0  0  0  0
   12.2610    9.8345    7.4262 C   0  0  0  0  0  0  0  0  0  0  0  0
   12.7043    8.5479    7.1699 N   0  0  0  0  0  0  0  0  0  0  0  0
   12.3913   10.3425    8.6627 N   0  0  0  0  0  0  0  0  0  0  0  0
   11.9687   11.5966    8.9463 C   0  0  0  0  0  0  0  0  0  0  0  0
   11.3809   12.3849    7.9249 C   0  0  0  0  0  0  0  0  0  0  0  0
   11.2618   11.8042    6.6272 C   0  0  0  0  0  0  0  0  0  0  0  0
   10.6992   12.5120    5.5821 N   0  0  0  0  0  0  0  0  0  0  0  0
   11.0519   13.5779    8.4790 N   0  0  0  0  0  0  0  0  0  0  0  0
   11.3891   13.5774    9.7378 C   0  0  0  0  0  0  0  0  0  0  0  0
   11.9579   12.3793   10.0721 N   0  0  0  0  0  0  0  0  0  0  0  0
  1  7  2  0  0  0  0
  1  2  1  0  0  0  0
  2  3  1  0  0  0  0
  2  4  2  0  0  0  0
  4  5  1  0  0  0  0
  5  6  2  0  0  0  0
  5 11  1  0  0  0  0
  6  7  1  0  0  0  0
  6  9  1  0  0  0  0
  7  8  1  0  0  0  0
  9 10  1  0  0  0  0
 10 11  2  0  0  0  0
M  END
>  <CHROM.1>
11.71067008,11.53517575,7.89929692,1.09766041,1.12287733,-2.16384765

>  <Name>
ligand

>  <RI>
0

>  <Rbt.Current_Directory>
/home/itssahil/PROJECTS/Mol_Feturizer/New_Systems/rnas/4FEP

>  <Rbt.Executable>
rbdock ($Id: //depot/dev/client3/rdock/2013.1/src/exe/rbdock.cxx#4 $)

>  <Rbt.Library>
libRbt.so (2013.1, Build901 2013/11/27)

>  <Rbt.Parameter_File>
/export/apps/rDock/src/rDock_2013.1_src/data/scripts/dock_solv.prm

>  <Rbt.Receptor>
prm/pocket_docking_4.prm

>  <SCORE>
-10.014

>  <SCORE.INTER>
-10.014

>  <SCORE.INTER.CONST>
1

>  <SCORE.INTER.POLAR>
0

>  <SCORE.INTER.ROT>
0

>  <SCORE.INTER.SOLV>
16.7936

>  <SCORE.INTER.VDW>
-15.8739

>  <SCORE.INTER.norm>
-0.910362

>  <SCORE.INTRA>
0

>  <SCORE.INTRA.DIHEDRAL>
0

>  <SCORE.INTRA.DIHEDRAL.0>
0

>  <SCORE.INTRA.POLAR>
0

>  <SCORE.INTRA.POLAR.0>
0

>  <SCORE.INTRA.REPUL>
0

>  <SCORE.INTRA.REPUL.0>
0

>  <SCORE.INTRA.SOLV>
0

>  <SCORE.INTRA.SOLV.lig_0>
-48.9558

>  <SCORE.INTRA.VDW>
0

>  <SCORE.INTRA.VDW.0>
0

>  <SCORE.INTRA.norm>
0

>  <SCORE.RESTR>
0

>  <SCORE.RESTR.CAVITY>
0

>  <SCORE.RESTR.norm>
0

>  <SCORE.SYSTEM>
0

>  <SCORE.SYSTEM.CONST>
0

>  <SCORE.SYSTEM.DIHEDRAL>
0

>  <SCORE.SYSTEM.SOLV>
0

>  <SCORE.SYSTEM.norm>
0

>  <SCORE.heavy>
11

>  <SCORE.norm>
-0.910362

>  <RMSD>
3.739

$$$$
ligand
 OpenBabel11021811493D
libRbt.so/2013.1/901 2013/11/27
 11 12  0  0  0  0  0  0  0  0999 V2000
   11.6964   10.5686    6.4421 N   0  0  0  0  0  0  0  0  0  0  0  0
   12.2634    9.8523    7.4261 C   0  0  0  0  0  0  0  0  0  0  0  0
   12.7085    8.5693    7.1554 N   0  0  0  0  0  0  0  0  0  0  0  0
   12.4075   10.3525    8.6642 N   0  0  0  0  0  0  0  0  0  0  0  0
   11.9836   11.6029    8.9617 C   0  0  0  0  0  0  0  0  0  0  0  0
   11.3795   12.3957    7.9533 C   0  0  0  0  0  0  0  0  0  0  0  0
   11.2460   11.8232    6.6534 C   0  0  0  0  0  0  0  0  0  0  0  0
   10.6672   12.5356    5.6204 N   0  0  0  0  0  0  0  0  0  0  0  0
   11.0529   13.5836    8.5196 N   0  0  0  0  0  0  0  0  0  0  0  0
   11.4063   13.5760    9.7739 C   0  0  0  0  0  0  0  0  0  0  0  0
   11.9843   12.3781   10.0928 N   0  0  0  0  0  0  0  0  0  0  0  0
  1  7  2  0  0  0  0
  1  2  1  0  0  0  0
  2  3  1  0  0  0  0
  2  4  2  0  0  0  0
  4  5  1  0  0  0  0
  5  6  2  0  0  0  0
  5 11  1  0  0  0  0
  6  7  1  0  0  0  0
  6  9  1  0  0  0  0
  7  8  1  0  0  0  0
  9 10  1  0  0  0  0
 10 11  2  0  0  0  0
M  END
>  <CHROM.1>
11.71235841,11.54746006,7.91771274,1.11679024,1.11225786,-2.17433239

>  <Name>
ligand

>  <RI>
0

>  <Rbt.Current_Directory>
/home/itssahil/PROJECTS/Mol_Feturizer/New_Systems/rnas/4FEP

>  <Rbt.Executable>
rbdock ($Id: //depot/dev/client3/rdock/2013.1/src/exe/rbdock.cxx#4 $)

>  <Rbt.Library>
libRbt.so (2013.1, Build901 2013/11/27)

>  <Rbt.Parameter_File>
/export/apps/rDock/src/rDock_2013.1_src/data/scripts/dock_solv.prm

>  <Rbt.Receptor>
prm/blind_docking_40.prm

>  <SCORE>
-10.0485

>  <SCORE.INTER>
-10.0485

>  <SCORE.INTER.CONST>
1

>  <SCORE.INTER.POLAR>
0

>  <SCORE.INTER.ROT>
0

>  <SCORE.INTER.SOLV>
16.5235

>  <SCORE.INTER.VDW>
-15.8069

>  <SCORE.INTER.norm>
-0.913504

>  <SCORE.INTRA>
0

>  <SCORE.INTRA.DIHEDRAL>
0

>  <SCORE.INTRA.DIHEDRAL.0>
0

>  <SCORE.INTRA.POLAR>
0

>  <SCORE.INTRA.POLAR.0>
0

>  <SCORE.INTRA.REPUL>
0

>  <SCORE.INTRA.REPUL.0>
0

>  <SCORE.INTRA.SOLV>
0

>  <SCORE.INTRA.SOLV.lig_0>
-48.9558

>  <SCORE.INTRA.VDW>
0

>  <SCORE.INTRA.VDW.0>
0

>  <SCORE.INTRA.norm>
0

>  <SCORE.RESTR>
0

>  <SCORE.RESTR.CAVITY>
0

>  <SCORE.RESTR.norm>
0

>  <SCORE.SYSTEM>
0

>  <SCORE.SYSTEM.CONST>
0

>  <SCORE.SYSTEM.DIHEDRAL>
0

>  <SCORE.SYSTEM.SOLV>
0

>  <SCORE.SYSTEM.norm>
0

>  <SCORE.heavy>
11

>  <SCORE.norm>
-0.913504

>  <RMSD>
3.749

$$$$
ligand
 OpenBabel11021811493D
libRbt.so/2013.1/901 2013/11/27
 11 12  0  0  0  0  0  0  0  0999 V2000
   11.7031   10.5711    6.4437 N   0  0  0  0  0  0  0  0  0  0  0  0
   12.2669    9.8540    7.4290 C   0  0  0  0  0  0  0  0  0  0  0  0
   12.7111    8.5704    7.1592 N   0  0  0  0  0  0  0  0  0  0  0  0
   12.4086   10.3538    8.6675 N   0  0  0  0  0  0  0  0  0  0  0  0
   11.9855   11.6047    8.9642 C   0  0  0  0  0  0  0  0  0  0  0  0
   11.3848   12.3983    7.9544 C   0  0  0  0  0  0  0  0  0  0  0  0
   11.2538   11.8261    6.6541 C   0  0  0  0  0  0  0  0  0  0  0  0
   10.6783   12.5394    5.6197 N   0  0  0  0  0  0  0  0  0  0  0  0
   11.0583   13.5865    8.5201 N   0  0  0  0  0  0  0  0  0  0  0  0
   11.4086   13.5783    9.7752 C   0  0  0  0  0  0  0  0  0  0  0  0
   11.9843   12.3797   10.0954 N   0  0  0  0  0  0  0  0  0  0  0  0
  1  7  2  0  0  0  0
  1  2  1  0  0  0  0
  2  3  1  0  0  0  0
  2  4  2  0  0  0  0
  4  5  1  0  0  0  0
  5  6  2  0  0  0  0
  5 11  1  0  0  0  0
  6  7  1  0  0  0  0
  6  9  1  0  0  0  0
  7  8  1  0  0  0  0
  9 10  1  0  0  0  0
 10 11  2  0  0  0  0
M  END
>  <CHROM.1>
11.71671170,11.54971012,7.91950478,1.11379328,1.11463089,-2.17150973

>  <Name>
ligand

>  <RI>
0

>  <Rbt.Current_Directory>
/home/itssahil/PROJECTS/Mol_Feturizer/New_Systems/rnas/4FEP

>  <Rbt.Executable>
rbdock ($Id: //depot/dev/client3/rdock/2013.1/src/exe/rbdock.cxx#4 $)

>  <Rbt.Library>
libRbt.so (2013.1, Build901 2013/11/27)

>  <Rbt.Parameter_File>
/export/apps/rDock/src/rDock_2013.1_src/data/scripts/dock_solv.prm

>  <Rbt.Receptor>
prm/pocket_docking_6.prm

>  <SCORE>
-10.0478

>  <SCORE.INTER>
-10.0478

>  <SCORE.INTER.CONST>
1

>  <SCORE.INTER.POLAR>
0

>  <SCORE.INTER.ROT>
0

>  <SCORE.INTER.SOLV>
16.5381

>  <SCORE.INTER.VDW>
-15.8113

>  <SCORE.INTER.norm>
-0.913441

>  <SCORE.INTRA>
0

>  <SCORE.INTRA.DIHEDRAL>
0

>  <SCORE.INTRA.DIHEDRAL.0>
0

>  <SCORE.INTRA.POLAR>
0

>  <SCORE.INTRA.POLAR.0>
0

>  <SCORE.INTRA.REPUL>
0

>  <SCORE.INTRA.REPUL.0>
0

>  <SCORE.INTRA.SOLV>
0

>  <SCORE.INTRA.SOLV.lig_0>
-48.9558

>  <SCORE.INTRA.VDW>
0

>  <SCORE.INTRA.VDW.0>
0

>  <SCORE.INTRA.norm>
0

>  <SCORE.RESTR>
0

>  <SCORE.RESTR.CAVITY>
0

>  <SCORE.RESTR.norm>
0

>  <SCORE.SYSTEM>
0

>  <SCORE.SYSTEM.CONST>
0

>  <SCORE.SYSTEM.DIHEDRAL>
0

>  <SCORE.SYSTEM.SOLV>
0

>  <SCORE.SYSTEM.norm>
0

>  <SCORE.heavy>
11

>  <SCORE.norm>
-0.913441

>  <RMSD>
3.749

$$$$
ligand
 OpenBabel11021811493D
libRbt.so/2013.1/901 2013/11/27
 11 12  0  0  0  0  0  0  0  0999 V2000
   11.6996   10.5621    6.4447 N   0  0  0  0  0  0  0  0  0  0  0  0
   12.2682    9.8483    7.4296 C   0  0  0  0  0  0  0  0  0  0  0  0
   12.7161    8.5659    7.1606 N   0  0  0  0  0  0  0  0  0  0  0  0
   12.4114   10.3505    8.6670 N   0  0  0  0  0  0  0  0  0  0  0  0
   11.9849   11.6004    8.9630 C   0  0  0  0  0  0  0  0  0  0  0  0
   11.3789   12.3905    7.9536 C   0  0  0  0  0  0  0  0  0  0  0  0
   11.2465   11.8160    6.6544 C   0  0  0  0  0  0  0  0  0  0  0  0
   10.6660   12.5258    5.6206 N   0  0  0  0  0  0  0  0  0  0  0  0
   11.0498   13.5784    8.5184 N   0  0  0  0  0  0  0  0  0  0  0  0
   11.4034   13.5732    9.7726 C   0  0  0  0  0  0  0  0  0  0  0  0
   11.9840   12.3770   10.0931 N   0  0  0  0  0  0  0  0  0  0  0  0
  1  7  2  0  0  0  0
  1  2  1  0  0  0  0
  2  3  1  0  0  0  0
  2  4  2  0  0  0  0
  4  5  1  0  0  0  0
  5  6  2  0  0  0  0
  5 11  1  0  0  0  0
  6  7  1  0  0  0  0
  6  9  1  0  0  0  0
  7  8  1  0  0  0  0
  9 10  1  0  0  0  0
 10 11  2  0  0  0  0
M  END
>  <CHROM.1>
11.71359929,11.54293312,7.91907133,1.11423784,1.11040088,-2.17335235

>  <Name>
ligand

>  <RI>
0

>  <Rbt.Current_Directory>
/home/itssahil/PROJECTS/Mol_Feturizer/New_Systems/rnas/4FEP

>  <Rbt.Executable>
rbdock ($Id: //depot/dev/client3/rdock/2013.1/src/exe/rbdock.cxx#4 $)

>  <Rbt.Library>
libRbt.so (2013.1, Build901 2013/11/27)

>  <Rbt.Parameter_File>
/export/apps/rDock/src/rDock_2013.1_src/data/scripts/dock_solv.prm

>  <Rbt.Receptor>
prm/pocket_docking_8.prm

>  <SCORE>
-10.0496

>  <SCORE.INTER>
-10.0496

>  <SCORE.INTER.CONST>
1

>  <SCORE.INTER.POLAR>
0

>  <SCORE.INTER.ROT>
0

>  <SCORE.INTER.SOLV>
16.4905

>  <SCORE.INTER.VDW>
-15.7966

>  <SCORE.INTER.norm>
-0.9136

>  <SCORE.INTRA>
0

>  <SCORE.INTRA.DIHEDRAL>
0

>  <SCORE.INTRA.DIHEDRAL.0>
0

>  <SCORE.INTRA.POLAR>
0

>  <SCORE.INTRA.POLAR.0>
0

>  <SCORE.INTRA.REPUL>
0

>  <SCORE.INTRA.REPUL.0>
0

>  <SCORE.INTRA.SOLV>
0

>  <SCORE.INTRA.SOLV.lig_0>
-48.9558

>  <SCORE.INTRA.VDW>
0

>  <SCORE.INTRA.VDW.0>
0

>  <SCORE.INTRA.norm>
0

>  <SCORE.RESTR>
0

>  <SCORE.RESTR.CAVITY>
0

>  <SCORE.RESTR.norm>
0

>  <SCORE.SYSTEM>
0

>  <SCORE.SYSTEM.CONST>
0

>  <SCORE.SYSTEM.DIHEDRAL>
0

>  <SCORE.SYSTEM.SOLV>
0

>  <SCORE.SYSTEM.norm>
0

>  <SCORE.heavy>
11

>  <SCORE.norm>
-0.9136

>  <RMSD>
3.749

$$$$
ligand
 OpenBabel11021811493D
libRbt.so/2013.1/901 2013/11/27
 11 12  0  0  0  0  0  0  0  0999 V2000
   11.6777   10.5693    6.4237 N   0  0  0  0  0  0  0  0  0  0  0  0
   12.2412    9.8492    7.4070 C   0  0  0  0  0  0  0  0  0  0  0  0
   12.6894    8.5681    7.1323 N   0  0  0  0  0  0  0  0  0  0  0  0
   12.3790   10.3437    8.6480 N   0  0  0  0  0  0  0  0  0  0  0  0
   11.9519   11.5922    8.9495 C   0  0  0  0  0  0  0  0  0  0  0  0
   11.3513   12.3888    7.9421 C   0  0  0  0  0  0  0  0  0  0  0  0
   11.2246   11.8222    6.6389 C   0  0  0  0  0  0  0  0  0  0  0  0
   10.6494   12.5387    5.6066 N   0  0  0  0  0  0  0  0  0  0  0  0
   11.0204   13.5735    8.5125 N   0  0  0  0  0  0  0  0  0  0  0  0
   11.3681   13.5605    9.7683 C   0  0  0  0  0  0  0  0  0  0  0  0
   11.9463   12.3619   10.0843 N   0  0  0  0  0  0  0  0  0  0  0  0
  1  7  2  0  0  0  0
  1  2  1  0  0  0  0
  2  3  1  0  0  0  0
  2  4  2  0  0  0  0
  4  5  1  0  0  0  0
  5  6  2  0  0  0  0
  5 11  1  0  0  0  0
  6  7  1  0  0  0  0
  6  9  1  0  0  0  0
  7  8  1  0  0  0  0
  9 10  1  0  0  0  0
 10 11  2  0  0  0  0
M  END
>  <CHROM.1>
11.68552638,11.54122803,7.90402124,1.10640722,1.11364132,-2.16029741

>  <Name>
ligand

>  <RI>
0

>  <Rbt.Current_Directory>
/home/itssahil/PROJECTS/Mol_Feturizer/New_Systems/rnas/4FEP

>  <Rbt.Executable>
rbdock ($Id: //depot/dev/client3/rdock/2013.1/src/exe/rbdock.cxx#4 $)

>  <Rbt.Library>
libRbt.so (2013.1, Build901 2013/11/27)

>  <Rbt.Parameter_File>
/export/apps/rDock/src/rDock_2013.1_src/data/scripts/dock_solv.prm

>  <Rbt.Receptor>
prm/pocket_docking_5.prm

>  <SCORE>
-9.98418

>  <SCORE.INTER>
-9.98418

>  <SCORE.INTER.CONST>
1

>  <SCORE.INTER.POLAR>
0

>  <SCORE.INTER.ROT>
0

>  <SCORE.INTER.SOLV>
16.6231

>  <SCORE.INTER.VDW>
-15.7971

>  <SCORE.INTER.norm>
-0.907653

>  <SCORE.INTRA>
0

>  <SCORE.INTRA.DIHEDRAL>
0

>  <SCORE.INTRA.DIHEDRAL.0>
0

>  <SCORE.INTRA.POLAR>
0

>  <SCORE.INTRA.POLAR.0>
0

>  <SCORE.INTRA.REPUL>
0

>  <SCORE.INTRA.REPUL.0>
0

>  <SCORE.INTRA.SOLV>
0

>  <SCORE.INTRA.SOLV.lig_0>
-48.9558

>  <SCORE.INTRA.VDW>
0

>  <SCORE.INTRA.VDW.0>
0

>  <SCORE.INTRA.norm>
0

>  <SCORE.RESTR>
0

>  <SCORE.RESTR.CAVITY>
0

>  <SCORE.RESTR.norm>
0

>  <SCORE.SYSTEM>
0

>  <SCORE.SYSTEM.CONST>
0

>  <SCORE.SYSTEM.DIHEDRAL>
0

>  <SCORE.SYSTEM.SOLV>
0

>  <SCORE.SYSTEM.norm>
0

>  <SCORE.heavy>
11

>  <SCORE.norm>
-0.907653

>  <RMSD>
3.750

$$$$
ligand
 OpenBabel11021811493D
libRbt.so/2013.1/901 2013/11/27
 11 12  0  0  0  0  0  0  0  0999 V2000
   11.7610   10.5611    6.4427 N   0  0  0  0  0  0  0  0  0  0  0  0
   12.3477    9.8592    7.4256 C   0  0  0  0  0  0  0  0  0  0  0  0
   12.8412    8.5952    7.1491 N   0  0  0  0  0  0  0  0  0  0  0  0
   12.4656   10.3557    8.6679 N   0  0  0  0  0  0  0  0  0  0  0  0
   11.9942   11.5876    8.9710 C   0  0  0  0  0  0  0  0  0  0  0  0
   11.3678   12.3647    7.9641 C   0  0  0  0  0  0  0  0  0  0  0  0
   11.2636   11.7968    6.6595 C   0  0  0  0  0  0  0  0  0  0  0  0
   10.6655   12.4948    5.6275 N   0  0  0  0  0  0  0  0  0  0  0  0
   10.9943   13.5359    8.5362 N   0  0  0  0  0  0  0  0  0  0  0  0
   11.3399   13.5325    9.7927 C   0  0  0  0  0  0  0  0  0  0  0  0
   11.9593   12.3543   10.1073 N   0  0  0  0  0  0  0  0  0  0  0  0
  1  7  2  0  0  0  0
  1  2  1  0  0  0  0
  2  3  1  0  0  0  0
  2  4  2  0  0  0  0
  4  5  1  0  0  0  0
  5  6  2  0  0  0  0
  5 11  1  0  0  0  0
  6  7  1  0  0  0  0
  6  9  1  0  0  0  0
  7  8  1  0  0  0  0
  9 10  1  0  0  0  0
 10 11  2  0  0  0  0
M  END
>  <CHROM.1>
11.73175930,11.52953540,7.92493960,1.06107426,1.08499031,-2.11784098

>  <Name>
ligand

>  <RI>
0

>  <Rbt.Current_Directory>
/home/itssahil/PROJECTS/Mol_Feturizer/New_Systems/rnas/4FEP

>  <Rbt.Executable>
rbdock ($Id: //depot/dev/client3/rdock/2013.1/src/exe/rbdock.cxx#4 $)

>  <Rbt.Library>
libRbt.so (2013.1, Build901 2013/11/27)

>  <Rbt.Parameter_File>
/export/apps/rDock/src/rDock_2013.1_src/data/scripts/dock_solv.prm

>  <Rbt.Receptor>
prm/pocket_docking_4.prm

>  <SCORE>
-10.0234

>  <SCORE.INTER>
-10.0234

>  <SCORE.INTER.CONST>
1

>  <SCORE.INTER.POLAR>
0

>  <SCORE.INTER.ROT>
0

>  <SCORE.INTER.SOLV>
16.0001

>  <SCORE.INTER.VDW>
-15.6156

>  <SCORE.INTER.norm>
-0.911216

>  <SCORE.INTRA>
0

>  <SCORE.INTRA.DIHEDRAL>
0

>  <SCORE.INTRA.DIHEDRAL.0>
0

>  <SCORE.INTRA.POLAR>
0

>  <SCORE.INTRA.POLAR.0>
0

>  <SCORE.INTRA.REPUL>
0

>  <SCORE.INTRA.REPUL.0>
0

>  <SCORE.INTRA.SOLV>
0

>  <SCORE.INTRA.SOLV.lig_0>
-48.9558

>  <SCORE.INTRA.VDW>
0

>  <SCORE.INTRA.VDW.0>
0

>  <SCORE.INTRA.norm>
0

>  <SCORE.RESTR>
0

>  <SCORE.RESTR.CAVITY>
0

>  <SCORE.RESTR.norm>
0

>  <SCORE.SYSTEM>
0

>  <SCORE.SYSTEM.CONST>
0

>  <SCORE.SYSTEM.DIHEDRAL>
0

>  <SCORE.SYSTEM.SOLV>
0

>  <SCORE.SYSTEM.norm>
0

>  <SCORE.heavy>
11

>  <SCORE.norm>
-0.911216

>  <RMSD>
3.751

$$$$
ligand
 OpenBabel11021811493D
libRbt.so/2013.1/901 2013/11/27
 11 12  0  0  0  0  0  0  0  0999 V2000
   11.7632   10.5900    6.4381 N   0  0  0  0  0  0  0  0  0  0  0  0
   12.3335    9.8780    7.4234 C   0  0  0  0  0  0  0  0  0  0  0  0
   12.8309    8.6165    7.1424 N   0  0  0  0  0  0  0  0  0  0  0  0
   12.4314   10.3620    8.6723 N   0  0  0  0  0  0  0  0  0  0  0  0
   11.9557   11.5912    8.9800 C   0  0  0  0  0  0  0  0  0  0  0  0
   11.3462   12.3787    7.9708 C   0  0  0  0  0  0  0  0  0  0  0  0
   11.2629   11.8238    6.6591 C   0  0  0  0  0  0  0  0  0  0  0  0
   10.6820   12.5324    5.6245 N   0  0  0  0  0  0  0  0  0  0  0  0
   10.9640   13.5443    8.5485 N   0  0  0  0  0  0  0  0  0  0  0  0
   11.2890   13.5282    9.8103 C   0  0  0  0  0  0  0  0  0  0  0  0
   11.9028   12.3466   10.1232 N   0  0  0  0  0  0  0  0  0  0  0  0
  1  7  2  0  0  0  0
  1  2  1  0  0  0  0
  2  3  1  0  0  0  0
  2  4  2  0  0  0  0
  4  5  1  0  0  0  0
  5  6  2  0  0  0  0
  5 11  1  0  0  0  0
  6  7  1  0  0  0  0
  6  9  1  0  0  0  0
  7  8  1  0  0  0  0
  9 10  1  0  0  0  0
 10 11  2  0  0  0  0
M  END
>  <CHROM.1>
11.71030299,11.54368420,7.92927893,1.03137751,1.09366301,-2.08157370

>  <Name>
ligand

>  <RI>
0

>  <Rbt.Current_Directory>
/home/itssahil/PROJECTS/Mol_Feturizer/New_Systems/rnas/4FEP

>  <Rbt.Executable>
rbdock ($Id: //depot/dev/client3/rdock/2013.1/src/exe/rbdock.cxx#4 $)

>  <Rbt.Library>
libRbt.so (2013.1, Build901 2013/11/27)

>  <Rbt.Parameter_File>
/export/apps/rDock/src/rDock_2013.1_src/data/scripts/dock_solv.prm

>  <Rbt.Receptor>
prm/pocket_docking_7.prm

>  <SCORE>
-10.0427

>  <SCORE.INTER>
-10.0427

>  <SCORE.INTER.CONST>
1

>  <SCORE.INTER.POLAR>
0

>  <SCORE.INTER.ROT>
0

>  <SCORE.INTER.SOLV>
16.0703

>  <SCORE.INTER.VDW>
-15.6519

>  <SCORE.INTER.norm>
-0.912976

>  <SCORE.INTRA>
0

>  <SCORE.INTRA.DIHEDRAL>
0

>  <SCORE.INTRA.DIHEDRAL.0>
0

>  <SCORE.INTRA.POLAR>
0

>  <SCORE.INTRA.POLAR.0>
0

>  <SCORE.INTRA.REPUL>
0

>  <SCORE.INTRA.REPUL.0>
0

>  <SCORE.INTRA.SOLV>
0

>  <SCORE.INTRA.SOLV.lig_0>
-48.9558

>  <SCORE.INTRA.VDW>
0

>  <SCORE.INTRA.VDW.0>
0

>  <SCORE.INTRA.norm>
0

>  <SCORE.RESTR>
0

>  <SCORE.RESTR.CAVITY>
0

>  <SCORE.RESTR.norm>
0

>  <SCORE.SYSTEM>
0

>  <SCORE.SYSTEM.CONST>
0

>  <SCORE.SYSTEM.DIHEDRAL>
0

>  <SCORE.SYSTEM.SOLV>
0

>  <SCORE.SYSTEM.norm>
0

>  <SCORE.heavy>
11

>  <SCORE.norm>
-0.912976

>  <RMSD>
3.751

$$$$
ligand
 OpenBabel11021811493D
libRbt.so/2013.1/901 2013/11/27
 11 12  0  0  0  0  0  0  0  0999 V2000
   11.7555   10.5752    6.4311 N   0  0  0  0  0  0  0  0  0  0  0  0
   12.3353    9.8679    7.4143 C   0  0  0  0  0  0  0  0  0  0  0  0
   12.8361    8.6079    7.1331 N   0  0  0  0  0  0  0  0  0  0  0  0
   12.4394   10.3554    8.6614 N   0  0  0  0  0  0  0  0  0  0  0  0
   11.9607   11.5833    8.9693 C   0  0  0  0  0  0  0  0  0  0  0  0
   11.3412   12.3658    7.9623 C   0  0  0  0  0  0  0  0  0  0  0  0
   11.2515   11.8074    6.6525 C   0  0  0  0  0  0  0  0  0  0  0  0
   10.6609   12.5111    5.6201 N   0  0  0  0  0  0  0  0  0  0  0  0
   10.9580   13.5313    8.5396 N   0  0  0  0  0  0  0  0  0  0  0  0
   11.2914   13.5195    9.7993 C   0  0  0  0  0  0  0  0  0  0  0  0
   11.9121   12.3413   10.1110 N   0  0  0  0  0  0  0  0  0  0  0  0
  1  7  2  0  0  0  0
  1  2  1  0  0  0  0
  2  3  1  0  0  0  0
  2  4  2  0  0  0  0
  4  5  1  0  0  0  0
  5  6  2  0  0  0  0
  5 11  1  0  0  0  0
  6  7  1  0  0  0  0
  6  9  1  0  0  0  0
  7  8  1  0  0  0  0
  9 10  1  0  0  0  0
 10 11  2  0  0  0  0
M  END
>  <CHROM.1>
11.70851241,11.53225974,7.92032636,1.03937830,1.08677472,-2.09107271

>  <Name>
ligand

>  <RI>
0

>  <Rbt.Current_Directory>
/home/itssahil/PROJECTS/Mol_Feturizer/New_Systems/rnas/4FEP

>  <Rbt.Executable>
rbdock ($Id: //depot/dev/client3/rdock/2013.1/src/exe/rbdock.cxx#4 $)

>  <Rbt.Library>
libRbt.so (2013.1, Build901 2013/11/27)

>  <Rbt.Parameter_File>
/export/apps/rDock/src/rDock_2013.1_src/data/scripts/dock_solv.prm

>  <Rbt.Receptor>
prm/blind_docking_40.prm

>  <SCORE>
-10.0329

>  <SCORE.INTER>
-10.0329

>  <SCORE.INTER.CONST>
1

>  <SCORE.INTER.POLAR>
0

>  <SCORE.INTER.ROT>
0

>  <SCORE.INTER.SOLV>
16.0364

>  <SCORE.INTER.VDW>
-15.634

>  <SCORE.INTER.norm>
-0.912081

>  <SCORE.INTRA>
0

>  <SCORE.INTRA.DIHEDRAL>
0

>  <SCORE.INTRA.DIHEDRAL.0>
0

>  <SCORE.INTRA.POLAR>
0

>  <SCORE.INTRA.POLAR.0>
0

>  <SCORE.INTRA.REPUL>
0

>  <SCORE.INTRA.REPUL.0>
0

>  <SCORE.INTRA.SOLV>
0

>  <SCORE.INTRA.SOLV.lig_0>
-48.9558

>  <SCORE.INTRA.VDW>
0

>  <SCORE.INTRA.VDW.0>
0

>  <SCORE.INTRA.norm>
0

>  <SCORE.RESTR>
0

>  <SCORE.RESTR.CAVITY>
0

>  <SCORE.RESTR.norm>
0

>  <SCORE.SYSTEM>
0

>  <SCORE.SYSTEM.CONST>
0

>  <SCORE.SYSTEM.DIHEDRAL>
0

>  <SCORE.SYSTEM.SOLV>
0

>  <SCORE.SYSTEM.norm>
0

>  <SCORE.heavy>
11

>  <SCORE.norm>
-0.912081

>  <RMSD>
3.752

$$$$
ligand
 OpenBabel11021811493D
libRbt.so/2013.1/901 2013/11/27
 11 12  0  0  0  0  0  0  0  0999 V2000
   11.8550   10.6103    6.4487 N   0  0  0  0  0  0  0  0  0  0  0  0
   12.5315    9.9501    7.4023 C   0  0  0  0  0  0  0  0  0  0  0  0
   13.0612    8.7038    7.1127 N   0  0  0  0  0  0  0  0  0  0  0  0
   12.7049   10.4714    8.6279 N   0  0  0  0  0  0  0  0  0  0  0  0
   12.2005   11.6871    8.9431 C   0  0  0  0  0  0  0  0  0  0  0  0
   11.4796   12.4204    7.9670 C   0  0  0  0  0  0  0  0  0  0  0  0
   11.3190   11.8273    6.6794 C   0  0  0  0  0  0  0  0  0  0  0  0
   10.6283   12.4823    5.6776 N   0  0  0  0  0  0  0  0  0  0  0  0
   11.0921   13.5839    8.5454 N   0  0  0  0  0  0  0  0  0  0  0  0
   11.5150   13.6157    9.7776 C   0  0  0  0  0  0  0  0  0  0  0  0
   12.2032   12.4702   10.0688 N   0  0  0  0  0  0  0  0  0  0  0  0
  1  7  2  0  0  0  0
  1  2  1  0  0  0  0
  2  3  1  0  0  0  0
  2  4  2  0  0  0  0
  4  5  1  0  0  0  0
  5  6  2  0  0  0  0
  5 11  1  0  0  0  0
  6  7  1  0  0  0  0
  6  9  1  0  0  0  0
  7  8  1  0  0  0  0
  9 10  1  0  0  0  0
 10 11  2  0  0  0  0
M  END
>  <CHROM.1>
11.87617536,11.60083487,7.91650088,1.11915460,1.01481700,-2.18331502

>  <Name>
ligand

>  <RI>
0

>  <Rbt.Current_Directory>
/home/itssahil/PROJECTS/Mol_Feturizer/New_Systems/rnas/4FEP

>  <Rbt.Executable>
rbdock ($Id: //depot/dev/client3/rdock/2013.1/src/exe/rbdock.cxx#4 $)

>  <Rbt.Library>
libRbt.so (2013.1, Build901 2013/11/27)

>  <Rbt.Parameter_File>
/export/apps/rDock/src/rDock_2013.1_src/data/scripts/dock_solv.prm

>  <Rbt.Receptor>
prm/blind_docking_80.prm

>  <SCORE>
-10.006

>  <SCORE.INTER>
-10.006

>  <SCORE.INTER.CONST>
1

>  <SCORE.INTER.POLAR>
0

>  <SCORE.INTER.ROT>
0

>  <SCORE.INTER.SOLV>
14.9195

>  <SCORE.INTER.VDW>
-15.2438

>  <SCORE.INTER.norm>
-0.909635

>  <SCORE.INTRA>
0

>  <SCORE.INTRA.DIHEDRAL>
0

>  <SCORE.INTRA.DIHEDRAL.0>
0

>  <SCORE.INTRA.POLAR>
0

>  <SCORE.INTRA.POLAR.0>
0

>  <SCORE.INTRA.REPUL>
0

>  <SCORE.INTRA.REPUL.0>
0

>  <SCORE.INTRA.SOLV>
0

>  <SCORE.INTRA.SOLV.lig_0>
-48.9558

>  <SCORE.INTRA.VDW>
0

>  <SCORE.INTRA.VDW.0>
0

>  <SCORE.INTRA.norm>
0

>  <SCORE.RESTR>
0

>  <SCORE.RESTR.CAVITY>
0

>  <SCORE.RESTR.norm>
0

>  <SCORE.SYSTEM>
0

>  <SCORE.SYSTEM.CONST>
0

>  <SCORE.SYSTEM.DIHEDRAL>
0

>  <SCORE.SYSTEM.SOLV>
0

>  <SCORE.SYSTEM.norm>
0

>  <SCORE.heavy>
11

>  <SCORE.norm>
-0.909635

>  <RMSD>
3.752

$$$$
ligand
 OpenBabel11021811493D
libRbt.so/2013.1/901 2013/11/27
 11 12  0  0  0  0  0  0  0  0999 V2000
   11.6818   10.5844    6.4353 N   0  0  0  0  0  0  0  0  0  0  0  0
   12.2476    9.8613    7.4150 C   0  0  0  0  0  0  0  0  0  0  0  0
   12.6868    8.5776    7.1377 N   0  0  0  0  0  0  0  0  0  0  0  0
   12.3960   10.3552    8.6551 N   0  0  0  0  0  0  0  0  0  0  0  0
   11.9779   11.6060    8.9591 C   0  0  0  0  0  0  0  0  0  0  0  0
   11.3753   12.4059    7.9554 C   0  0  0  0  0  0  0  0  0  0  0  0
   11.2371   11.8399    6.6531 C   0  0  0  0  0  0  0  0  0  0  0  0
   10.6593   12.5594    5.6244 N   0  0  0  0  0  0  0  0  0  0  0  0
   11.0548   13.5925    8.5277 N   0  0  0  0  0  0  0  0  0  0  0  0
   11.4104   13.5777    9.7813 C   0  0  0  0  0  0  0  0  0  0  0  0
   11.9839   12.3760   10.0937 N   0  0  0  0  0  0  0  0  0  0  0  0
  1  7  2  0  0  0  0
  1  2  1  0  0  0  0
  2  3  1  0  0  0  0
  2  4  2  0  0  0  0
  4  5  1  0  0  0  0
  5  6  2  0  0  0  0
  5 11  1  0  0  0  0
  6  7  1  0  0  0  0
  6  9  1  0  0  0  0
  7  8  1  0  0  0  0
  9 10  1  0  0  0  0
 10 11  2  0  0  0  0
M  END
>  <CHROM.1>
11.70454170,11.55645433,7.91533023,1.12557246,1.11466662,-2.17765819

>  <Name>
ligand

>  <RI>
0

>  <Rbt.Current_Directory>
/home/itssahil/PROJECTS/Mol_Feturizer/New_Systems/rnas/4FEP

>  <Rbt.Executable>
rbdock ($Id: //depot/dev/client3/rdock/2013.1/src/exe/rbdock.cxx#4 $)

>  <Rbt.Library>
libRbt.so (2013.1, Build901 2013/11/27)

>  <Rbt.Parameter_File>
/export/apps/rDock/src/rDock_2013.1_src/data/scripts/dock_solv.prm

>  <Rbt.Receptor>
prm/blind_docking_80.prm

>  <SCORE>
-10.0413

>  <SCORE.INTER>
-10.0413

>  <SCORE.INTER.CONST>
1

>  <SCORE.INTER.POLAR>
0

>  <SCORE.INTER.ROT>
0

>  <SCORE.INTER.SOLV>
16.5774

>  <SCORE.INTER.VDW>
-15.82

>  <SCORE.INTER.norm>
-0.912841

>  <SCORE.INTRA>
0

>  <SCORE.INTRA.DIHEDRAL>
0

>  <SCORE.INTRA.DIHEDRAL.0>
0

>  <SCORE.INTRA.POLAR>
0

>  <SCORE.INTRA.POLAR.0>
0

>  <SCORE.INTRA.REPUL>
0

>  <SCORE.INTRA.REPUL.0>
0

>  <SCORE.INTRA.SOLV>
0

>  <SCORE.INTRA.SOLV.lig_0>
-48.9558

>  <SCORE.INTRA.VDW>
0

>  <SCORE.INTRA.VDW.0>
0

>  <SCORE.INTRA.norm>
0

>  <SCORE.RESTR>
0

>  <SCORE.RESTR.CAVITY>
0

>  <SCORE.RESTR.norm>
0

>  <SCORE.SYSTEM>
0

>  <SCORE.SYSTEM.CONST>
0

>  <SCORE.SYSTEM.DIHEDRAL>
0

>  <SCORE.SYSTEM.SOLV>
0

>  <SCORE.SYSTEM.norm>
0

>  <SCORE.heavy>
11

>  <SCORE.norm>
-0.912841

>  <RMSD>
3.753

$$$$
ligand
 OpenBabel11021811493D
libRbt.so/2013.1/901 2013/11/27
 11 12  0  0  0  0  0  0  0  0999 V2000
   11.7665   10.6089    6.4261 N   0  0  0  0  0  0  0  0  0  0  0  0
   12.3622    9.9029    7.4007 C   0  0  0  0  0  0  0  0  0  0  0  0
   12.8730    8.6493    7.1090 N   0  0  0  0  0  0  0  0  0  0  0  0
   12.4728   10.3856    8.6491 N   0  0  0  0  0  0  0  0  0  0  0  0
   11.9846   11.6072    8.9671 C   0  0  0  0  0  0  0  0  0  0  0  0
   11.3481   12.3881    7.9694 C   0  0  0  0  0  0  0  0  0  0  0  0
   11.2522   11.8350    6.6578 C   0  0  0  0  0  0  0  0  0  0  0  0
   10.6452   12.5374    5.6342 N   0  0  0  0  0  0  0  0  0  0  0  0
   10.9585   13.5469    8.5558 N   0  0  0  0  0  0  0  0  0  0  0  0
   11.3035   13.5327    9.8123 C   0  0  0  0  0  0  0  0  0  0  0  0
   11.9388   12.3593   10.1128 N   0  0  0  0  0  0  0  0  0  0  0  0
  1  7  2  0  0  0  0
  1  2  1  0  0  0  0
  2  3  1  0  0  0  0
  2  4  2  0  0  0  0
  4  5  1  0  0  0  0
  5  6  2  0  0  0  0
  5 11  1  0  0  0  0
  6  7  1  0  0  0  0
  6  9  1  0  0  0  0
  7  8  1  0  0  0  0
  9 10  1  0  0  0  0
 10 11  2  0  0  0  0
M  END
>  <CHROM.1>
11.72343226,11.55848852,7.92021523,1.04542609,1.07356263,-2.09171000

>  <Name>
ligand

>  <RI>
0

>  <Rbt.Current_Directory>
/home/itssahil/PROJECTS/Mol_Feturizer/New_Systems/rnas/4FEP

>  <Rbt.Executable>
rbdock ($Id: //depot/dev/client3/rdock/2013.1/src/exe/rbdock.cxx#4 $)

>  <Rbt.Library>
libRbt.so (2013.1, Build901 2013/11/27)

>  <Rbt.Parameter_File>
/export/apps/rDock/src/rDock_2013.1_src/data/scripts/dock_solv.prm

>  <Rbt.Receptor>
prm/blind_docking_80.prm

>  <SCORE>
-10.0772

>  <SCORE.INTER>
-10.0772

>  <SCORE.INTER.CONST>
1

>  <SCORE.INTER.POLAR>
0

>  <SCORE.INTER.ROT>
0

>  <SCORE.INTER.SOLV>
15.7835

>  <SCORE.INTER.VDW>
-15.5793

>  <SCORE.INTER.norm>
-0.916112

>  <SCORE.INTRA>
0

>  <SCORE.INTRA.DIHEDRAL>
0

>  <SCORE.INTRA.DIHEDRAL.0>
0

>  <SCORE.INTRA.POLAR>
0

>  <SCORE.INTRA.POLAR.0>
0

>  <SCORE.INTRA.REPUL>
0

>  <SCORE.INTRA.REPUL.0>
0

>  <SCORE.INTRA.SOLV>
0

>  <SCORE.INTRA.SOLV.lig_0>
-48.9558

>  <SCORE.INTRA.VDW>
0

>  <SCORE.INTRA.VDW.0>
0

>  <SCORE.INTRA.norm>
0

>  <SCORE.RESTR>
0

>  <SCORE.RESTR.CAVITY>
0

>  <SCORE.RESTR.norm>
0

>  <SCORE.SYSTEM>
0

>  <SCORE.SYSTEM.CONST>
0

>  <SCORE.SYSTEM.DIHEDRAL>
0

>  <SCORE.SYSTEM.SOLV>
0

>  <SCORE.SYSTEM.norm>
0

>  <SCORE.heavy>
11

>  <SCORE.norm>
-0.916112

>  <RMSD>
3.754

$$$$
ligand
 OpenBabel11021811493D
libRbt.so/2013.1/901 2013/11/27
 11 12  0  0  0  0  0  0  0  0999 V2000
   11.7719   10.6124    6.4180 N   0  0  0  0  0  0  0  0  0  0  0  0
   12.3630    9.9033    7.3929 C   0  0  0  0  0  0  0  0  0  0  0  0
   12.8729    8.6495    7.1001 N   0  0  0  0  0  0  0  0  0  0  0  0
   12.4699   10.3828    8.6429 N   0  0  0  0  0  0  0  0  0  0  0  0
   11.9825   11.6045    8.9620 C   0  0  0  0  0  0  0  0  0  0  0  0
   11.3508   12.3887    7.9639 C   0  0  0  0  0  0  0  0  0  0  0  0
   11.2588   11.8388    6.6507 C   0  0  0  0  0  0  0  0  0  0  0  0
   10.6565   12.5446    5.6265 N   0  0  0  0  0  0  0  0  0  0  0  0
   10.9609   13.5467    8.5516 N   0  0  0  0  0  0  0  0  0  0  0  0
   11.3014   13.5290    9.8093 C   0  0  0  0  0  0  0  0  0  0  0  0
   11.9337   12.3539   10.1093 N   0  0  0  0  0  0  0  0  0  0  0  0
  1  7  2  0  0  0  0
  1  2  1  0  0  0  0
  2  3  1  0  0  0  0
  2  4  2  0  0  0  0
  4  5  1  0  0  0  0
  5  6  2  0  0  0  0
  5 11  1  0  0  0  0
  6  7  1  0  0  0  0
  6  9  1  0  0  0  0
  7  8  1  0  0  0  0
  9 10  1  0  0  0  0
 10 11  2  0  0  0  0
M  END
>  <CHROM.1>
11.72498849,11.55859261,7.91408830,1.04052335,1.07669830,-2.08505119

>  <Name>
ligand

>  <RI>
0

>  <Rbt.Current_Directory>
/home/itssahil/PROJECTS/Mol_Feturizer/New_Systems/rnas/4FEP

>  <Rbt.Executable>
rbdock ($Id: //depot/dev/client3/rdock/2013.1/src/exe/rbdock.cxx#4 $)

>  <Rbt.Library>
libRbt.so (2013.1, Build901 2013/11/27)

>  <Rbt.Parameter_File>
/export/apps/rDock/src/rDock_2013.1_src/data/scripts/dock_solv.prm

>  <Rbt.Receptor>
prm/pocket_docking_8.prm

>  <SCORE>
-10.0763

>  <SCORE.INTER>
-10.0763

>  <SCORE.INTER.CONST>
1

>  <SCORE.INTER.POLAR>
0

>  <SCORE.INTER.ROT>
0

>  <SCORE.INTER.SOLV>
15.8384

>  <SCORE.INTER.VDW>
-15.597

>  <SCORE.INTER.norm>
-0.916028

>  <SCORE.INTRA>
0

>  <SCORE.INTRA.DIHEDRAL>
0

>  <SCORE.INTRA.DIHEDRAL.0>
0

>  <SCORE.INTRA.POLAR>
0

>  <SCORE.INTRA.POLAR.0>
0

>  <SCORE.INTRA.REPUL>
0

>  <SCORE.INTRA.REPUL.0>
0

>  <SCORE.INTRA.SOLV>
0

>  <SCORE.INTRA.SOLV.lig_0>
-48.9558

>  <SCORE.INTRA.VDW>
0

>  <SCORE.INTRA.VDW.0>
0

>  <SCORE.INTRA.norm>
0

>  <SCORE.RESTR>
0

>  <SCORE.RESTR.CAVITY>
0

>  <SCORE.RESTR.norm>
0

>  <SCORE.SYSTEM>
0

>  <SCORE.SYSTEM.CONST>
0

>  <SCORE.SYSTEM.DIHEDRAL>
0

>  <SCORE.SYSTEM.SOLV>
0

>  <SCORE.SYSTEM.norm>
0

>  <SCORE.heavy>
11

>  <SCORE.norm>
-0.916028

>  <RMSD>
3.755

$$$$
ligand
 OpenBabel11021811493D
libRbt.so/2013.1/901 2013/11/27
 11 12  0  0  0  0  0  0  0  0999 V2000
   11.7089   10.5660    6.4479 N   0  0  0  0  0  0  0  0  0  0  0  0
   12.2709    9.8435    7.4302 C   0  0  0  0  0  0  0  0  0  0  0  0
   12.7116    8.5599    7.1552 N   0  0  0  0  0  0  0  0  0  0  0  0
   12.4142   10.3381    8.6706 N   0  0  0  0  0  0  0  0  0  0  0  0
   11.9945   11.5889    8.9723 C   0  0  0  0  0  0  0  0  0  0  0  0
   11.3958   12.3881    7.9658 C   0  0  0  0  0  0  0  0  0  0  0  0
   11.2629   11.8215    6.6633 C   0  0  0  0  0  0  0  0  0  0  0  0
   10.6892   12.5404    5.6319 N   0  0  0  0  0  0  0  0  0  0  0  0
   11.0726   13.5750    8.5363 N   0  0  0  0  0  0  0  0  0  0  0  0
   11.4232   13.5609    9.7913 C   0  0  0  0  0  0  0  0  0  0  0  0
   11.9957   12.3594   10.1066 N   0  0  0  0  0  0  0  0  0  0  0  0
  1  7  2  0  0  0  0
  1  2  1  0  0  0  0
  2  3  1  0  0  0  0
  2  4  2  0  0  0  0
  4  5  1  0  0  0  0
  5  6  2  0  0  0  0
  5 11  1  0  0  0  0
  6  7  1  0  0  0  0
  6  9  1  0  0  0  0
  7  8  1  0  0  0  0
  9 10  1  0  0  0  0
 10 11  2  0  0  0  0
M  END
>  <CHROM.1>
11.72540403,11.53879912,7.92750509,1.11765862,1.11673722,-2.17101907

>  <Name>
ligand

>  <RI>
0

>  <Rbt.Current_Directory>
/home/itssahil/PROJECTS/Mol_Feturizer/New_Systems/rnas/4FEP

>  <Rbt.Executable>
rbdock ($Id: //depot/dev/client3/rdock/2013.1/src/exe/rbdock.cxx#4 $)

>  <Rbt.Library>
libRbt.so (2013.1, Build901 2013/11/27)

>  <Rbt.Parameter_File>
/export/apps/rDock/src/rDock_2013.1_src/data/scripts/dock_solv.prm

>  <Rbt.Receptor>
prm/blind_docking_100.prm

>  <SCORE>
-10.0802

>  <SCORE.INTER>
-10.0802

>  <SCORE.INTER.CONST>
1

>  <SCORE.INTER.POLAR>
0

>  <SCORE.INTER.ROT>
0

>  <SCORE.INTER.SOLV>
16.517

>  <SCORE.INTER.VDW>
-15.8258

>  <SCORE.INTER.norm>
-0.916379

>  <SCORE.INTRA>
0

>  <SCORE.INTRA.DIHEDRAL>
0

>  <SCORE.INTRA.DIHEDRAL.0>
0

>  <SCORE.INTRA.POLAR>
0

>  <SCORE.INTRA.POLAR.0>
0

>  <SCORE.INTRA.REPUL>
0

>  <SCORE.INTRA.REPUL.0>
0

>  <SCORE.INTRA.SOLV>
0

>  <SCORE.INTRA.SOLV.lig_0>
-48.9558

>  <SCORE.INTRA.VDW>
0

>  <SCORE.INTRA.VDW.0>
0

>  <SCORE.INTRA.norm>
0

>  <SCORE.RESTR>
0

>  <SCORE.RESTR.CAVITY>
0

>  <SCORE.RESTR.norm>
0

>  <SCORE.SYSTEM>
0

>  <SCORE.SYSTEM.CONST>
0

>  <SCORE.SYSTEM.DIHEDRAL>
0

>  <SCORE.SYSTEM.SOLV>
0

>  <SCORE.SYSTEM.norm>
0

>  <SCORE.heavy>
11

>  <SCORE.norm>
-0.916379

>  <RMSD>
3.756

$$$$
ligand
 OpenBabel11021811493D
libRbt.so/2013.1/901 2013/11/27
 11 12  0  0  0  0  0  0  0  0999 V2000
   11.7137   10.5575    6.4157 N   0  0  0  0  0  0  0  0  0  0  0  0
   12.2914    9.8417    7.3939 C   0  0  0  0  0  0  0  0  0  0  0  0
   12.7684    8.5732    7.1091 N   0  0  0  0  0  0  0  0  0  0  0  0
   12.4160   10.3285    8.6393 N   0  0  0  0  0  0  0  0  0  0  0  0
   11.9608   11.5645    8.9506 C   0  0  0  0  0  0  0  0  0  0  0  0
   11.3444   12.3562    7.9489 C   0  0  0  0  0  0  0  0  0  0  0  0
   11.2326   11.7982    6.6407 C   0  0  0  0  0  0  0  0  0  0  0  0
   10.6435   12.5106    5.6134 N   0  0  0  0  0  0  0  0  0  0  0  0
   10.9864   13.5284    8.5288 N   0  0  0  0  0  0  0  0  0  0  0  0
   11.3321   13.5123    9.7851 C   0  0  0  0  0  0  0  0  0  0  0  0
   11.9362   12.3242   10.0919 N   0  0  0  0  0  0  0  0  0  0  0  0
  1  7  2  0  0  0  0
  1  2  1  0  0  0  0
  2  3  1  0  0  0  0
  2  4  2  0  0  0  0
  4  5  1  0  0  0  0
  5  6  2  0  0  0  0
  5 11  1  0  0  0  0
  6  7  1  0  0  0  0
  6  9  1  0  0  0  0
  7  8  1  0  0  0  0
  9 10  1  0  0  0  0
 10 11  2  0  0  0  0
M  END
>  <CHROM.1>
11.69745213,11.51663512,7.90424228,1.07628493,1.09597936,-2.12483215

>  <Name>
ligand

>  <RI>
0

>  <Rbt.Current_Directory>
/home/itssahil/PROJECTS/Mol_Feturizer/New_Systems/rnas/4FEP

>  <Rbt.Executable>
rbdock ($Id: //depot/dev/client3/rdock/2013.1/src/exe/rbdock.cxx#4 $)

>  <Rbt.Library>
libRbt.so (2013.1, Build901 2013/11/27)

>  <Rbt.Parameter_File>
/export/apps/rDock/src/rDock_2013.1_src/data/scripts/dock_solv.prm

>  <Rbt.Receptor>
prm/pocket_docking_7.prm

>  <SCORE>
-10.0254

>  <SCORE.INTER>
-10.0254

>  <SCORE.INTER.CONST>
1

>  <SCORE.INTER.POLAR>
0

>  <SCORE.INTER.ROT>
0

>  <SCORE.INTER.SOLV>
16.2937

>  <SCORE.INTER.VDW>
-15.7148

>  <SCORE.INTER.norm>
-0.9114

>  <SCORE.INTRA>
0

>  <SCORE.INTRA.DIHEDRAL>
0

>  <SCORE.INTRA.DIHEDRAL.0>
0

>  <SCORE.INTRA.POLAR>
0

>  <SCORE.INTRA.POLAR.0>
0

>  <SCORE.INTRA.REPUL>
0

>  <SCORE.INTRA.REPUL.0>
0

>  <SCORE.INTRA.SOLV>
0

>  <SCORE.INTRA.SOLV.lig_0>
-48.9558

>  <SCORE.INTRA.VDW>
0

>  <SCORE.INTRA.VDW.0>
0

>  <SCORE.INTRA.norm>
0

>  <SCORE.RESTR>
0

>  <SCORE.RESTR.CAVITY>
0

>  <SCORE.RESTR.norm>
0

>  <SCORE.SYSTEM>
0

>  <SCORE.SYSTEM.CONST>
0

>  <SCORE.SYSTEM.DIHEDRAL>
0

>  <SCORE.SYSTEM.SOLV>
0

>  <SCORE.SYSTEM.norm>
0

>  <SCORE.heavy>
11

>  <SCORE.norm>
-0.9114

>  <RMSD>
3.758

$$$$
ligand
 OpenBabel11021811493D
libRbt.so/2013.1/901 2013/11/27
 11 12  0  0  0  0  0  0  0  0999 V2000
   11.7118   10.5946    6.4329 N   0  0  0  0  0  0  0  0  0  0  0  0
   12.2822    9.8694    7.4084 C   0  0  0  0  0  0  0  0  0  0  0  0
   12.7347    8.5923    7.1221 N   0  0  0  0  0  0  0  0  0  0  0  0
   12.4227   10.3550    8.6527 N   0  0  0  0  0  0  0  0  0  0  0  0
   11.9916   11.5993    8.9653 C   0  0  0  0  0  0  0  0  0  0  0  0
   11.3836   12.4010    7.9664 C   0  0  0  0  0  0  0  0  0  0  0  0
   11.2542   11.8439    6.6594 C   0  0  0  0  0  0  0  0  0  0  0  0
   10.6720   12.5658    5.6348 N   0  0  0  0  0  0  0  0  0  0  0  0
   11.0500   13.5800    8.5471 N   0  0  0  0  0  0  0  0  0  0  0  0
   11.4026   13.5588    9.8015 C   0  0  0  0  0  0  0  0  0  0  0  0
   11.9871   12.3603   10.1060 N   0  0  0  0  0  0  0  0  0  0  0  0
  1  7  2  0  0  0  0
  1  2  1  0  0  0  0
  2  3  1  0  0  0  0
  2  4  2  0  0  0  0
  4  5  1  0  0  0  0
  5  6  2  0  0  0  0
  5 11  1  0  0  0  0
  6  7  1  0  0  0  0
  6  9  1  0  0  0  0
  7  8  1  0  0  0  0
  9 10  1  0  0  0  0
 10 11  2  0  0  0  0
M  END
>  <CHROM.1>
11.72128987,11.55520567,7.92052771,1.10843946,1.10797246,-2.15446826

>  <Name>
ligand

>  <RI>
0

>  <Rbt.Current_Directory>
/home/itssahil/PROJECTS/Mol_Feturizer/New_Systems/rnas/4FEP

>  <Rbt.Executable>
rbdock ($Id: //depot/dev/client3/rdock/2013.1/src/exe/rbdock.cxx#4 $)

>  <Rbt.Library>
libRbt.so (2013.1, Build901 2013/11/27)

>  <Rbt.Parameter_File>
/export/apps/rDock/src/rDock_2013.1_src/data/scripts/dock_solv.prm

>  <Rbt.Receptor>
prm/pocket_docking_7.prm

>  <SCORE>
-10.0281

>  <SCORE.INTER>
-10.0281

>  <SCORE.INTER.CONST>
1

>  <SCORE.INTER.POLAR>
0

>  <SCORE.INTER.ROT>
0

>  <SCORE.INTER.SOLV>
16.3637

>  <SCORE.INTER.VDW>
-15.74

>  <SCORE.INTER.norm>
-0.911648

>  <SCORE.INTRA>
0

>  <SCORE.INTRA.DIHEDRAL>
0

>  <SCORE.INTRA.DIHEDRAL.0>
0

>  <SCORE.INTRA.POLAR>
0

>  <SCORE.INTRA.POLAR.0>
0

>  <SCORE.INTRA.REPUL>
0

>  <SCORE.INTRA.REPUL.0>
0

>  <SCORE.INTRA.SOLV>
0

>  <SCORE.INTRA.SOLV.lig_0>
-48.9558

>  <SCORE.INTRA.VDW>
0

>  <SCORE.INTRA.VDW.0>
0

>  <SCORE.INTRA.norm>
0

>  <SCORE.RESTR>
0

>  <SCORE.RESTR.CAVITY>
0

>  <SCORE.RESTR.norm>
0

>  <SCORE.SYSTEM>
0

>  <SCORE.SYSTEM.CONST>
0

>  <SCORE.SYSTEM.DIHEDRAL>
0

>  <SCORE.SYSTEM.SOLV>
0

>  <SCORE.SYSTEM.norm>
0

>  <SCORE.heavy>
11

>  <SCORE.norm>
-0.911648

>  <RMSD>
3.759

$$$$
ligand
 OpenBabel11021811493D
libRbt.so/2013.1/901 2013/11/27
 11 12  0  0  0  0  0  0  0  0999 V2000
   11.7434   10.6174    6.3537 N   0  0  0  0  0  0  0  0  0  0  0  0
   12.3209    9.8901    7.3235 C   0  0  0  0  0  0  0  0  0  0  0  0
   12.8370    8.6429    7.0141 N   0  0  0  0  0  0  0  0  0  0  0  0
   12.4082   10.3454    8.5840 N   0  0  0  0  0  0  0  0  0  0  0  0
   11.9142   11.5599    8.9195 C   0  0  0  0  0  0  0  0  0  0  0  0
   11.2965   12.3627    7.9274 C   0  0  0  0  0  0  0  0  0  0  0  0
   11.2250   11.8383    6.6025 C   0  0  0  0  0  0  0  0  0  0  0  0
   10.6371   12.5632    5.5833 N   0  0  0  0  0  0  0  0  0  0  0  0
   10.8960   13.5086    8.5316 N   0  0  0  0  0  0  0  0  0  0  0  0
   11.2176   13.4668    9.7937 C   0  0  0  0  0  0  0  0  0  0  0  0
   11.8471   12.2869   10.0802 N   0  0  0  0  0  0  0  0  0  0  0  0
  1  7  2  0  0  0  0
  1  2  1  0  0  0  0
  2  3  1  0  0  0  0
  2  4  2  0  0  0  0
  4  5  1  0  0  0  0
  5  6  2  0  0  0  0
  5 11  1  0  0  0  0
  6  7  1  0  0  0  0
  6  9  1  0  0  0  0
  7  8  1  0  0  0  0
  9 10  1  0  0  0  0
 10 11  2  0  0  0  0
M  END
>  <CHROM.1>
11.67257822,11.53418914,7.86710070,1.01105273,1.08260590,-2.03959522

>  <Name>
ligand

>  <RI>
0

>  <Rbt.Current_Directory>
/home/itssahil/PROJECTS/Mol_Feturizer/New_Systems/rnas/4FEP

>  <Rbt.Executable>
rbdock ($Id: //depot/dev/client3/rdock/2013.1/src/exe/rbdock.cxx#4 $)

>  <Rbt.Library>
libRbt.so (2013.1, Build901 2013/11/27)

>  <Rbt.Parameter_File>
/export/apps/rDock/src/rDock_2013.1_src/data/scripts/dock_solv.prm

>  <Rbt.Receptor>
prm/pocket_docking_5.prm

>  <SCORE>
-10.0145

>  <SCORE.INTER>
-10.0145

>  <SCORE.INTER.CONST>
1

>  <SCORE.INTER.POLAR>
0

>  <SCORE.INTER.ROT>
0

>  <SCORE.INTER.SOLV>
16.1225

>  <SCORE.INTER.VDW>
-15.6505

>  <SCORE.INTER.norm>
-0.910405

>  <SCORE.INTRA>
0

>  <SCORE.INTRA.DIHEDRAL>
0

>  <SCORE.INTRA.DIHEDRAL.0>
0

>  <SCORE.INTRA.POLAR>
0

>  <SCORE.INTRA.POLAR.0>
0

>  <SCORE.INTRA.REPUL>
0

>  <SCORE.INTRA.REPUL.0>
0

>  <SCORE.INTRA.SOLV>
0

>  <SCORE.INTRA.SOLV.lig_0>
-48.9558

>  <SCORE.INTRA.VDW>
0

>  <SCORE.INTRA.VDW.0>
0

>  <SCORE.INTRA.norm>
0

>  <SCORE.RESTR>
0

>  <SCORE.RESTR.CAVITY>
0

>  <SCORE.RESTR.norm>
0

>  <SCORE.SYSTEM>
0

>  <SCORE.SYSTEM.CONST>
0

>  <SCORE.SYSTEM.DIHEDRAL>
0

>  <SCORE.SYSTEM.SOLV>
0

>  <SCORE.SYSTEM.norm>
0

>  <SCORE.heavy>
11

>  <SCORE.norm>
-0.910405

>  <RMSD>
3.763

$$$$
ligand
 OpenBabel11021811493D
libRbt.so/2013.1/901 2013/11/27
 11 12  0  0  0  0  0  0  0  0999 V2000
   11.7231   10.5882    6.4253 N   0  0  0  0  0  0  0  0  0  0  0  0
   12.2958    9.8618    7.3986 C   0  0  0  0  0  0  0  0  0  0  0  0
   12.7598    8.5903    7.1065 N   0  0  0  0  0  0  0  0  0  0  0  0
   12.4276   10.3411    8.6463 N   0  0  0  0  0  0  0  0  0  0  0  0
   11.9851   11.5799    8.9647 C   0  0  0  0  0  0  0  0  0  0  0  0
   11.3743   12.3826    7.9683 C   0  0  0  0  0  0  0  0  0  0  0  0
   11.2544   11.8323    6.6575 C   0  0  0  0  0  0  0  0  0  0  0  0
   10.6702   12.5556    5.6351 N   0  0  0  0  0  0  0  0  0  0  0  0
   11.0289   13.5552    8.5548 N   0  0  0  0  0  0  0  0  0  0  0  0
   11.3769   13.5295    9.8103 C   0  0  0  0  0  0  0  0  0  0  0  0
   11.9701   12.3340   10.1099 N   0  0  0  0  0  0  0  0  0  0  0  0
  1  7  2  0  0  0  0
  1  2  1  0  0  0  0
  2  3  1  0  0  0  0
  2  4  2  0  0  0  0
  4  5  1  0  0  0  0
  5  6  2  0  0  0  0
  5 11  1  0  0  0  0
  6  7  1  0  0  0  0
  6  9  1  0  0  0  0
  7  8  1  0  0  0  0
  9 10  1  0  0  0  0
 10 11  2  0  0  0  0
M  END
>  <CHROM.1>
11.71910729,11.53986282,7.91868028,1.09142198,1.10312114,-2.13326993

>  <Name>
ligand

>  <RI>
0

>  <Rbt.Current_Directory>
/home/itssahil/PROJECTS/Mol_Feturizer/New_Systems/rnas/4FEP

>  <Rbt.Executable>
rbdock ($Id: //depot/dev/client3/rdock/2013.1/src/exe/rbdock.cxx#4 $)

>  <Rbt.Library>
libRbt.so (2013.1, Build901 2013/11/27)

>  <Rbt.Parameter_File>
/export/apps/rDock/src/rDock_2013.1_src/data/scripts/dock_solv.prm

>  <Rbt.Receptor>
prm/pocket_docking_3.prm

>  <SCORE>
-10.0216

>  <SCORE.INTER>
-10.0216

>  <SCORE.INTER.CONST>
1

>  <SCORE.INTER.POLAR>
0

>  <SCORE.INTER.ROT>
0

>  <SCORE.INTER.SOLV>
16.2713

>  <SCORE.INTER.VDW>
-15.7048

>  <SCORE.INTER.norm>
-0.911054

>  <SCORE.INTRA>
0

>  <SCORE.INTRA.DIHEDRAL>
0

>  <SCORE.INTRA.DIHEDRAL.0>
0

>  <SCORE.INTRA.POLAR>
0

>  <SCORE.INTRA.POLAR.0>
0

>  <SCORE.INTRA.REPUL>
0

>  <SCORE.INTRA.REPUL.0>
0

>  <SCORE.INTRA.SOLV>
0

>  <SCORE.INTRA.SOLV.lig_0>
-48.9558

>  <SCORE.INTRA.VDW>
0

>  <SCORE.INTRA.VDW.0>
0

>  <SCORE.INTRA.norm>
0

>  <SCORE.RESTR>
0

>  <SCORE.RESTR.CAVITY>
0

>  <SCORE.RESTR.norm>
0

>  <SCORE.SYSTEM>
0

>  <SCORE.SYSTEM.CONST>
0

>  <SCORE.SYSTEM.DIHEDRAL>
0

>  <SCORE.SYSTEM.SOLV>
0

>  <SCORE.SYSTEM.norm>
0

>  <SCORE.heavy>
11

>  <SCORE.norm>
-0.911054

>  <RMSD>
3.764

$$$$
ligand
 OpenBabel11021811493D
libRbt.so/2013.1/901 2013/11/27
 11 12  0  0  0  0  0  0  0  0999 V2000
   11.7635   10.6268    6.4293 N   0  0  0  0  0  0  0  0  0  0  0  0
   12.3657    9.9140    7.3948 C   0  0  0  0  0  0  0  0  0  0  0  0
   12.8874    8.6687    7.0874 N   0  0  0  0  0  0  0  0  0  0  0  0
   12.4724   10.3820    8.6492 N   0  0  0  0  0  0  0  0  0  0  0  0
   11.9736   11.5953    8.9825 C   0  0  0  0  0  0  0  0  0  0  0  0
   11.3301   12.3829    7.9947 C   0  0  0  0  0  0  0  0  0  0  0  0
   11.2387   11.8454    6.6764 C   0  0  0  0  0  0  0  0  0  0  0  0
   10.6253   12.5552    5.6617 N   0  0  0  0  0  0  0  0  0  0  0  0
   10.9305   13.5309    8.5956 N   0  0  0  0  0  0  0  0  0  0  0  0
   11.2760   13.5040    9.8518 C   0  0  0  0  0  0  0  0  0  0  0  0
   11.9216   12.3326   10.1375 N   0  0  0  0  0  0  0  0  0  0  0  0
  1  7  2  0  0  0  0
  1  2  1  0  0  0  0
  2  3  1  0  0  0  0
  2  4  2  0  0  0  0
  4  5  1  0  0  0  0
  5  6  2  0  0  0  0
  5 11  1  0  0  0  0
  6  7  1  0  0  0  0
  6  9  1  0  0  0  0
  7  8  1  0  0  0  0
  9 10  1  0  0  0  0
 10 11  2  0  0  0  0
M  END
>  <CHROM.1>
11.71260989,11.55732059,7.93512152,1.03695092,1.06582907,-2.07179406

>  <Name>
ligand

>  <RI>
0

>  <Rbt.Current_Directory>
/home/itssahil/PROJECTS/Mol_Feturizer/New_Systems/rnas/4FEP

>  <Rbt.Executable>
rbdock ($Id: //depot/dev/client3/rdock/2013.1/src/exe/rbdock.cxx#4 $)

>  <Rbt.Library>
libRbt.so (2013.1, Build901 2013/11/27)

>  <Rbt.Parameter_File>
/export/apps/rDock/src/rDock_2013.1_src/data/scripts/dock_solv.prm

>  <Rbt.Receptor>
prm/pocket_docking_4.prm

>  <SCORE>
-10.0126

>  <SCORE.INTER>
-10.0126

>  <SCORE.INTER.CONST>
1

>  <SCORE.INTER.POLAR>
0

>  <SCORE.INTER.ROT>
0

>  <SCORE.INTER.SOLV>
15.5776

>  <SCORE.INTER.VDW>
-15.4676

>  <SCORE.INTER.norm>
-0.910234

>  <SCORE.INTRA>
0

>  <SCORE.INTRA.DIHEDRAL>
0

>  <SCORE.INTRA.DIHEDRAL.0>
0

>  <SCORE.INTRA.POLAR>
0

>  <SCORE.INTRA.POLAR.0>
0

>  <SCORE.INTRA.REPUL>
0

>  <SCORE.INTRA.REPUL.0>
0

>  <SCORE.INTRA.SOLV>
0

>  <SCORE.INTRA.SOLV.lig_0>
-48.9558

>  <SCORE.INTRA.VDW>
0

>  <SCORE.INTRA.VDW.0>
0

>  <SCORE.INTRA.norm>
0

>  <SCORE.RESTR>
0

>  <SCORE.RESTR.CAVITY>
0

>  <SCORE.RESTR.norm>
0

>  <SCORE.SYSTEM>
0

>  <SCORE.SYSTEM.CONST>
0

>  <SCORE.SYSTEM.DIHEDRAL>
0

>  <SCORE.SYSTEM.SOLV>
0

>  <SCORE.SYSTEM.norm>
0

>  <SCORE.heavy>
11

>  <SCORE.norm>
-0.910234

>  <RMSD>
3.765

$$$$
ligand
 OpenBabel11021811493D
libRbt.so/2013.1/901 2013/11/27
 11 12  0  0  0  0  0  0  0  0999 V2000
   11.8046   10.6505    6.4234 N   0  0  0  0  0  0  0  0  0  0  0  0
   12.3817    9.9242    7.3943 C   0  0  0  0  0  0  0  0  0  0  0  0
   12.8994    8.6774    7.0861 N   0  0  0  0  0  0  0  0  0  0  0  0
   12.4672   10.3803    8.6546 N   0  0  0  0  0  0  0  0  0  0  0  0
   11.9716   11.5946    8.9889 C   0  0  0  0  0  0  0  0  0  0  0  0
   11.3542   12.3962    7.9957 C   0  0  0  0  0  0  0  0  0  0  0  0
   11.2847   11.8710    6.6710 C   0  0  0  0  0  0  0  0  0  0  0  0
   10.6973   12.5948    5.6508 N   0  0  0  0  0  0  0  0  0  0  0  0
   10.9520   13.5420    8.5988 N   0  0  0  0  0  0  0  0  0  0  0  0
   11.2721   13.5012    9.8613 C   0  0  0  0  0  0  0  0  0  0  0  0
   11.9025   12.3220   10.1492 N   0  0  0  0  0  0  0  0  0  0  0  0
  1  7  2  0  0  0  0
  1  2  1  0  0  0  0
  2  3  1  0  0  0  0
  2  4  2  0  0  0  0
  4  5  1  0  0  0  0
  5  6  2  0  0  0  0
  5 11  1  0  0  0  0
  6  7  1  0  0  0  0
  6  9  1  0  0  0  0
  7  8  1  0  0  0  0
  9 10  1  0  0  0  0
 10 11  2  0  0  0  0
M  END
>  <CHROM.1>
11.73121069,11.56800208,7.93625315,1.00797171,1.08224306,-2.03740950

>  <Name>
ligand

>  <RI>
0

>  <Rbt.Current_Directory>
/home/itssahil/PROJECTS/Mol_Feturizer/New_Systems/rnas/4FEP

>  <Rbt.Executable>
rbdock ($Id: //depot/dev/client3/rdock/2013.1/src/exe/rbdock.cxx#4 $)

>  <Rbt.Library>
libRbt.so (2013.1, Build901 2013/11/27)

>  <Rbt.Parameter_File>
/export/apps/rDock/src/rDock_2013.1_src/data/scripts/dock_solv.prm

>  <Rbt.Receptor>
prm/blind_docking_100.prm

>  <SCORE>
-10.0195

>  <SCORE.INTER>
-10.0195

>  <SCORE.INTER.CONST>
1

>  <SCORE.INTER.POLAR>
0

>  <SCORE.INTER.ROT>
0

>  <SCORE.INTER.SOLV>
15.7049

>  <SCORE.INTER.VDW>
-15.5147

>  <SCORE.INTER.norm>
-0.910866

>  <SCORE.INTRA>
0

>  <SCORE.INTRA.DIHEDRAL>
0

>  <SCORE.INTRA.DIHEDRAL.0>
0

>  <SCORE.INTRA.POLAR>
0

>  <SCORE.INTRA.POLAR.0>
0

>  <SCORE.INTRA.REPUL>
0

>  <SCORE.INTRA.REPUL.0>
0

>  <SCORE.INTRA.SOLV>
0

>  <SCORE.INTRA.SOLV.lig_0>
-48.9558

>  <SCORE.INTRA.VDW>
0

>  <SCORE.INTRA.VDW.0>
0

>  <SCORE.INTRA.norm>
0

>  <SCORE.RESTR>
0

>  <SCORE.RESTR.CAVITY>
0

>  <SCORE.RESTR.norm>
0

>  <SCORE.SYSTEM>
0

>  <SCORE.SYSTEM.CONST>
0

>  <SCORE.SYSTEM.DIHEDRAL>
0

>  <SCORE.SYSTEM.SOLV>
0

>  <SCORE.SYSTEM.norm>
0

>  <SCORE.heavy>
11

>  <SCORE.norm>
-0.910866

>  <RMSD>
3.766

$$$$
ligand
 OpenBabel11021811493D
libRbt.so/2013.1/901 2013/11/27
 11 12  0  0  0  0  0  0  0  0999 V2000
   11.7217   10.6220    6.4262 N   0  0  0  0  0  0  0  0  0  0  0  0
   12.2866    9.8860    7.3968 C   0  0  0  0  0  0  0  0  0  0  0  0
   12.7432    8.6132    7.0984 N   0  0  0  0  0  0  0  0  0  0  0  0
   12.4178   10.3570    8.6477 N   0  0  0  0  0  0  0  0  0  0  0  0
   11.9825   11.5967    8.9723 C   0  0  0  0  0  0  0  0  0  0  0  0
   11.3801   12.4094    7.9788 C   0  0  0  0  0  0  0  0  0  0  0  0
   11.2605   11.8678    6.6644 C   0  0  0  0  0  0  0  0  0  0  0  0
   10.6841   12.6010    5.6446 N   0  0  0  0  0  0  0  0  0  0  0  0
   11.0406   13.5808    8.5713 N   0  0  0  0  0  0  0  0  0  0  0  0
   11.3846   13.5452    9.8277 C   0  0  0  0  0  0  0  0  0  0  0  0
   11.9690   12.3441   10.1218 N   0  0  0  0  0  0  0  0  0  0  0  0
  1  7  2  0  0  0  0
  1  2  1  0  0  0  0
  2  3  1  0  0  0  0
  2  4  2  0  0  0  0
  4  5  1  0  0  0  0
  5  6  2  0  0  0  0
  5 11  1  0  0  0  0
  6  7  1  0  0  0  0
  6  9  1  0  0  0  0
  7  8  1  0  0  0  0
  9 10  1  0  0  0  0
 10 11  2  0  0  0  0
M  END
>  <CHROM.1>
11.71944538,11.56472718,7.92519368,1.09355224,1.11030265,-2.12918632

>  <Name>
ligand

>  <RI>
0

>  <Rbt.Current_Directory>
/home/itssahil/PROJECTS/Mol_Feturizer/New_Systems/rnas/4FEP

>  <Rbt.Executable>
rbdock ($Id: //depot/dev/client3/rdock/2013.1/src/exe/rbdock.cxx#4 $)

>  <Rbt.Library>
libRbt.so (2013.1, Build901 2013/11/27)

>  <Rbt.Parameter_File>
/export/apps/rDock/src/rDock_2013.1_src/data/scripts/dock_solv.prm

>  <Rbt.Receptor>
prm/blind_docking_60.prm

>  <SCORE>
-10.0102

>  <SCORE.INTER>
-10.0102

>  <SCORE.INTER.CONST>
1

>  <SCORE.INTER.POLAR>
0

>  <SCORE.INTER.ROT>
0

>  <SCORE.INTER.SOLV>
16.3101

>  <SCORE.INTER.VDW>
-15.7101

>  <SCORE.INTER.norm>
-0.910017

>  <SCORE.INTRA>
0

>  <SCORE.INTRA.DIHEDRAL>
0

>  <SCORE.INTRA.DIHEDRAL.0>
0

>  <SCORE.INTRA.POLAR>
0

>  <SCORE.INTRA.POLAR.0>
0

>  <SCORE.INTRA.REPUL>
0

>  <SCORE.INTRA.REPUL.0>
0

>  <SCORE.INTRA.SOLV>
0

>  <SCORE.INTRA.SOLV.lig_0>
-48.9558

>  <SCORE.INTRA.VDW>
0

>  <SCORE.INTRA.VDW.0>
0

>  <SCORE.INTRA.norm>
0

>  <SCORE.RESTR>
0

>  <SCORE.RESTR.CAVITY>
0

>  <SCORE.RESTR.norm>
0

>  <SCORE.SYSTEM>
0

>  <SCORE.SYSTEM.CONST>
0

>  <SCORE.SYSTEM.DIHEDRAL>
0

>  <SCORE.SYSTEM.SOLV>
0

>  <SCORE.SYSTEM.norm>
0

>  <SCORE.heavy>
11

>  <SCORE.norm>
-0.910017

>  <RMSD>
3.766

$$$$
ligand
 OpenBabel11021811493D
libRbt.so/2013.1/901 2013/11/27
 11 12  0  0  0  0  0  0  0  0999 V2000
   11.7122   10.6295    6.3870 N   0  0  0  0  0  0  0  0  0  0  0  0
   12.3093    9.9059    7.3476 C   0  0  0  0  0  0  0  0  0  0  0  0
   12.8069    8.6518    7.0357 N   0  0  0  0  0  0  0  0  0  0  0  0
   12.4337   10.3713    8.6013 N   0  0  0  0  0  0  0  0  0  0  0  0
   11.9586   11.5928    8.9389 C   0  0  0  0  0  0  0  0  0  0  0  0
   11.3213   12.3920    7.9565 C   0  0  0  0  0  0  0  0  0  0  0  0
   11.2104   11.8569    6.6386 C   0  0  0  0  0  0  0  0  0  0  0  0
   10.6017   12.5778    5.6289 N   0  0  0  0  0  0  0  0  0  0  0  0
   10.9463   13.5464    8.5608 N   0  0  0  0  0  0  0  0  0  0  0  0
   11.3008   13.5129    9.8143 C   0  0  0  0  0  0  0  0  0  0  0  0
   11.9282   12.3302   10.0946 N   0  0  0  0  0  0  0  0  0  0  0  0
  1  7  2  0  0  0  0
  1  2  1  0  0  0  0
  2  3  1  0  0  0  0
  2  4  2  0  0  0  0
  4  5  1  0  0  0  0
  5  6  2  0  0  0  0
  5 11  1  0  0  0  0
  6  7  1  0  0  0  0
  6  9  1  0  0  0  0
  7  8  1  0  0  0  0
  9 10  1  0  0  0  0
 10 11  2  0  0  0  0
M  END
>  <CHROM.1>
11.68895708,11.55992773,7.89356582,1.06871098,1.07714154,-2.09919743

>  <Name>
ligand

>  <RI>
0

>  <Rbt.Current_Directory>
/home/itssahil/PROJECTS/Mol_Feturizer/New_Systems/rnas/4FEP

>  <Rbt.Executable>
rbdock ($Id: //depot/dev/client3/rdock/2013.1/src/exe/rbdock.cxx#4 $)

>  <Rbt.Library>
libRbt.so (2013.1, Build901 2013/11/27)

>  <Rbt.Parameter_File>
/export/apps/rDock/src/rDock_2013.1_src/data/scripts/dock_solv.prm

>  <Rbt.Receptor>
prm/pocket_docking_5.prm

>  <SCORE>
-10.0677

>  <SCORE.INTER>
-10.0677

>  <SCORE.INTER.CONST>
1

>  <SCORE.INTER.POLAR>
0

>  <SCORE.INTER.ROT>
0

>  <SCORE.INTER.SOLV>
15.9578

>  <SCORE.INTER.VDW>
-15.6311

>  <SCORE.INTER.norm>
-0.915246

>  <SCORE.INTRA>
0

>  <SCORE.INTRA.DIHEDRAL>
0

>  <SCORE.INTRA.DIHEDRAL.0>
0

>  <SCORE.INTRA.POLAR>
0

>  <SCORE.INTRA.POLAR.0>
0

>  <SCORE.INTRA.REPUL>
0

>  <SCORE.INTRA.REPUL.0>
0

>  <SCORE.INTRA.SOLV>
0

>  <SCORE.INTRA.SOLV.lig_0>
-48.9558

>  <SCORE.INTRA.VDW>
0

>  <SCORE.INTRA.VDW.0>
0

>  <SCORE.INTRA.norm>
0

>  <SCORE.RESTR>
0

>  <SCORE.RESTR.CAVITY>
0

>  <SCORE.RESTR.norm>
0

>  <SCORE.SYSTEM>
0

>  <SCORE.SYSTEM.CONST>
0

>  <SCORE.SYSTEM.DIHEDRAL>
0

>  <SCORE.SYSTEM.SOLV>
0

>  <SCORE.SYSTEM.norm>
0

>  <SCORE.heavy>
11

>  <SCORE.norm>
-0.915246

>  <RMSD>
3.766

$$$$
ligand
 OpenBabel11021811493D
libRbt.so/2013.1/901 2013/11/27
 11 12  0  0  0  0  0  0  0  0999 V2000
   11.7114   10.6332    6.3845 N   0  0  0  0  0  0  0  0  0  0  0  0
   12.3128    9.9086    7.3416 C   0  0  0  0  0  0  0  0  0  0  0  0
   12.8126    8.6565    7.0253 N   0  0  0  0  0  0  0  0  0  0  0  0
   12.4396   10.3712    8.5961 N   0  0  0  0  0  0  0  0  0  0  0  0
   11.9625   11.5908    8.9380 C   0  0  0  0  0  0  0  0  0  0  0  0
   11.3206   12.3909    7.9593 C   0  0  0  0  0  0  0  0  0  0  0  0
   11.2074   11.8587    6.6404 C   0  0  0  0  0  0  0  0  0  0  0  0
   10.5941   12.5806    5.6342 N   0  0  0  0  0  0  0  0  0  0  0  0
   10.9445   13.5429    8.5675 N   0  0  0  0  0  0  0  0  0  0  0  0
   11.3025   13.5071    9.8200 C   0  0  0  0  0  0  0  0  0  0  0  0
   11.9335   12.3253   10.0955 N   0  0  0  0  0  0  0  0  0  0  0  0
  1  7  2  0  0  0  0
  1  2  1  0  0  0  0
  2  3  1  0  0  0  0
  2  4  2  0  0  0  0
  4  5  1  0  0  0  0
  5  6  2  0  0  0  0
  5 11  1  0  0  0  0
  6  7  1  0  0  0  0
  6  9  1  0  0  0  0
  7  8  1  0  0  0  0
  9 10  1  0  0  0  0
 10 11  2  0  0  0  0
M  END
>  <CHROM.1>
11.69003424,11.55982755,7.89334031,1.07117321,1.07368493,-2.09891087

>  <Name>
ligand

>  <RI>
0

>  <Rbt.Current_Directory>
/home/itssahil/PROJECTS/Mol_Feturizer/New_Systems/rnas/4FEP

>  <Rbt.Executable>
rbdock ($Id: //depot/dev/client3/rdock/2013.1/src/exe/rbdock.cxx#4 $)

>  <Rbt.Library>
libRbt.so (2013.1, Build901 2013/11/27)

>  <Rbt.Parameter_File>
/export/apps/rDock/src/rDock_2013.1_src/data/scripts/dock_solv.prm

>  <Rbt.Receptor>
prm/pocket_docking_5.prm

>  <SCORE>
-10.0995

>  <SCORE.INTER>
-10.0995

>  <SCORE.INTER.CONST>
1

>  <SCORE.INTER.POLAR>
0

>  <SCORE.INTER.ROT>
0

>  <SCORE.INTER.SOLV>
15.907

>  <SCORE.INTER.VDW>
-15.6353

>  <SCORE.INTER.norm>
-0.918132

>  <SCORE.INTRA>
0

>  <SCORE.INTRA.DIHEDRAL>
0

>  <SCORE.INTRA.DIHEDRAL.0>
0

>  <SCORE.INTRA.POLAR>
0

>  <SCORE.INTRA.POLAR.0>
0

>  <SCORE.INTRA.REPUL>
0

>  <SCORE.INTRA.REPUL.0>
0

>  <SCORE.INTRA.SOLV>
0

>  <SCORE.INTRA.SOLV.lig_0>
-48.9558

>  <SCORE.INTRA.VDW>
0

>  <SCORE.INTRA.VDW.0>
0

>  <SCORE.INTRA.norm>
0

>  <SCORE.RESTR>
0

>  <SCORE.RESTR.CAVITY>
0

>  <SCORE.RESTR.norm>
0

>  <SCORE.SYSTEM>
0

>  <SCORE.SYSTEM.CONST>
0

>  <SCORE.SYSTEM.DIHEDRAL>
0

>  <SCORE.SYSTEM.SOLV>
0

>  <SCORE.SYSTEM.norm>
0

>  <SCORE.heavy>
11

>  <SCORE.norm>
-0.918132

>  <RMSD>
3.769

$$$$
ligand
 OpenBabel11021811493D
libRbt.so/2013.1/901 2013/11/27
 11 12  0  0  0  0  0  0  0  0999 V2000
   11.7247   10.6257    6.4274 N   0  0  0  0  0  0  0  0  0  0  0  0
   12.2876    9.8860    7.3964 C   0  0  0  0  0  0  0  0  0  0  0  0
   12.7426    8.6134    7.0946 N   0  0  0  0  0  0  0  0  0  0  0  0
   12.4182   10.3530    8.6488 N   0  0  0  0  0  0  0  0  0  0  0  0
   11.9844   11.5924    8.9767 C   0  0  0  0  0  0  0  0  0  0  0  0
   11.3842   12.4089    7.9851 C   0  0  0  0  0  0  0  0  0  0  0  0
   11.2651   11.8714    6.6689 C   0  0  0  0  0  0  0  0  0  0  0  0
   10.6909   12.6085    5.6508 N   0  0  0  0  0  0  0  0  0  0  0  0
   11.0458   13.5790    8.5808 N   0  0  0  0  0  0  0  0  0  0  0  0
   11.3886   13.5392    9.8374 C   0  0  0  0  0  0  0  0  0  0  0  0
   11.9709   12.3363   10.1285 N   0  0  0  0  0  0  0  0  0  0  0  0
  1  7  2  0  0  0  0
  1  2  1  0  0  0  0
  2  3  1  0  0  0  0
  2  4  2  0  0  0  0
  4  5  1  0  0  0  0
  5  6  2  0  0  0  0
  5 11  1  0  0  0  0
  6  7  1  0  0  0  0
  6  9  1  0  0  0  0
  7  8  1  0  0  0  0
  9 10  1  0  0  0  0
 10 11  2  0  0  0  0
M  END
>  <CHROM.1>
11.72237075,11.56391552,7.92925331,1.09340810,1.11209251,-2.12605134

>  <Name>
ligand

>  <RI>
0

>  <Rbt.Current_Directory>
/home/itssahil/PROJECTS/Mol_Feturizer/New_Systems/rnas/4FEP

>  <Rbt.Executable>
rbdock ($Id: //depot/dev/client3/rdock/2013.1/src/exe/rbdock.cxx#4 $)

>  <Rbt.Library>
libRbt.so (2013.1, Build901 2013/11/27)

>  <Rbt.Parameter_File>
/export/apps/rDock/src/rDock_2013.1_src/data/scripts/dock_solv.prm

>  <Rbt.Receptor>
prm/pocket_docking_4.prm

>  <SCORE>
-10.0131

>  <SCORE.INTER>
-10.0131

>  <SCORE.INTER.CONST>
1

>  <SCORE.INTER.POLAR>
0

>  <SCORE.INTER.ROT>
0

>  <SCORE.INTER.SOLV>
16.3025

>  <SCORE.INTER.VDW>
-15.7096

>  <SCORE.INTER.norm>
-0.910283

>  <SCORE.INTRA>
0

>  <SCORE.INTRA.DIHEDRAL>
0

>  <SCORE.INTRA.DIHEDRAL.0>
0

>  <SCORE.INTRA.POLAR>
0

>  <SCORE.INTRA.POLAR.0>
0

>  <SCORE.INTRA.REPUL>
0

>  <SCORE.INTRA.REPUL.0>
0

>  <SCORE.INTRA.SOLV>
0

>  <SCORE.INTRA.SOLV.lig_0>
-48.9558

>  <SCORE.INTRA.VDW>
0

>  <SCORE.INTRA.VDW.0>
0

>  <SCORE.INTRA.norm>
0

>  <SCORE.RESTR>
0

>  <SCORE.RESTR.CAVITY>
0

>  <SCORE.RESTR.norm>
0

>  <SCORE.SYSTEM>
0

>  <SCORE.SYSTEM.CONST>
0

>  <SCORE.SYSTEM.DIHEDRAL>
0

>  <SCORE.SYSTEM.SOLV>
0

>  <SCORE.SYSTEM.norm>
0

>  <SCORE.heavy>
11

>  <SCORE.norm>
-0.910283

>  <RMSD>
3.770

$$$$
ligand
 OpenBabel11021811493D
libRbt.so/2013.1/901 2013/11/27
 11 12  0  0  0  0  0  0  0  0999 V2000
   11.7281   10.6583    6.3773 N   0  0  0  0  0  0  0  0  0  0  0  0
   12.3254    9.9253    7.3307 C   0  0  0  0  0  0  0  0  0  0  0  0
   12.8281    8.6768    7.0051 N   0  0  0  0  0  0  0  0  0  0  0  0
   12.4452   10.3763    8.5901 N   0  0  0  0  0  0  0  0  0  0  0  0
   11.9651   11.5921    8.9410 C   0  0  0  0  0  0  0  0  0  0  0  0
   11.3274   12.4007    7.9666 C   0  0  0  0  0  0  0  0  0  0  0  0
   11.2215   11.8808    6.6422 C   0  0  0  0  0  0  0  0  0  0  0  0
   10.6126   12.6116    5.6397 N   0  0  0  0  0  0  0  0  0  0  0  0
   10.9470   13.5466    8.5836 N   0  0  0  0  0  0  0  0  0  0  0  0
   11.2987   13.4994    9.8375 C   0  0  0  0  0  0  0  0  0  0  0  0
   11.9294   12.3157   10.1052 N   0  0  0  0  0  0  0  0  0  0  0  0
  1  7  2  0  0  0  0
  1  2  1  0  0  0  0
  2  3  1  0  0  0  0
  2  4  2  0  0  0  0
  4  5  1  0  0  0  0
  5  6  2  0  0  0  0
  5 11  1  0  0  0  0
  6  7  1  0  0  0  0
  6  9  1  0  0  0  0
  7  8  1  0  0  0  0
  9 10  1  0  0  0  0
 10 11  2  0  0  0  0
M  END
>  <CHROM.1>
11.69805214,11.57070169,7.89468999,1.06078755,1.07533107,-2.08037869

>  <Name>
ligand

>  <RI>
0

>  <Rbt.Current_Directory>
/home/itssahil/PROJECTS/Mol_Feturizer/New_Systems/rnas/4FEP

>  <Rbt.Executable>
rbdock ($Id: //depot/dev/client3/rdock/2013.1/src/exe/rbdock.cxx#4 $)

>  <Rbt.Library>
libRbt.so (2013.1, Build901 2013/11/27)

>  <Rbt.Parameter_File>
/export/apps/rDock/src/rDock_2013.1_src/data/scripts/dock_solv.prm

>  <Rbt.Receptor>
prm/pocket_docking_7.prm

>  <SCORE>
-10.1036

>  <SCORE.INTER>
-10.1036

>  <SCORE.INTER.CONST>
1

>  <SCORE.INTER.POLAR>
0

>  <SCORE.INTER.ROT>
0

>  <SCORE.INTER.SOLV>
15.8328

>  <SCORE.INTER.VDW>
-15.6133

>  <SCORE.INTER.norm>
-0.918506

>  <SCORE.INTRA>
0

>  <SCORE.INTRA.DIHEDRAL>
0

>  <SCORE.INTRA.DIHEDRAL.0>
0

>  <SCORE.INTRA.POLAR>
0

>  <SCORE.INTRA.POLAR.0>
0

>  <SCORE.INTRA.REPUL>
0

>  <SCORE.INTRA.REPUL.0>
0

>  <SCORE.INTRA.SOLV>
0

>  <SCORE.INTRA.SOLV.lig_0>
-48.9558

>  <SCORE.INTRA.VDW>
0

>  <SCORE.INTRA.VDW.0>
0

>  <SCORE.INTRA.norm>
0

>  <SCORE.RESTR>
0

>  <SCORE.RESTR.CAVITY>
0

>  <SCORE.RESTR.norm>
0

>  <SCORE.SYSTEM>
0

>  <SCORE.SYSTEM.CONST>
0

>  <SCORE.SYSTEM.DIHEDRAL>
0

>  <SCORE.SYSTEM.SOLV>
0

>  <SCORE.SYSTEM.norm>
0

>  <SCORE.heavy>
11

>  <SCORE.norm>
-0.918506

>  <RMSD>
3.774

$$$$
ligand
 OpenBabel11021811493D
libRbt.so/2013.1/901 2013/11/27
 11 12  0  0  0  0  0  0  0  0999 V2000
   11.6975   10.6697    6.3925 N   0  0  0  0  0  0  0  0  0  0  0  0
   12.2760    9.9242    7.3477 C   0  0  0  0  0  0  0  0  0  0  0  0
   12.7419    8.6603    7.0266 N   0  0  0  0  0  0  0  0  0  0  0  0
   12.4118   10.3770    8.6048 N   0  0  0  0  0  0  0  0  0  0  0  0
   11.9676   11.6076    8.9515 C   0  0  0  0  0  0  0  0  0  0  0  0
   11.3508   12.4299    7.9749 C   0  0  0  0  0  0  0  0  0  0  0  0
   11.2268   11.9074    6.6531 C   0  0  0  0  0  0  0  0  0  0  0  0
   10.6367   12.6509    5.6488 N   0  0  0  0  0  0  0  0  0  0  0  0
   11.0050   13.5889    8.5877 N   0  0  0  0  0  0  0  0  0  0  0  0
   11.3582   13.5372    9.8410 C   0  0  0  0  0  0  0  0  0  0  0  0
   11.9555   12.3371   10.1125 N   0  0  0  0  0  0  0  0  0  0  0  0
  1  7  2  0  0  0  0
  1  2  1  0  0  0  0
  2  3  1  0  0  0  0
  2  4  2  0  0  0  0
  4  5  1  0  0  0  0
  5  6  2  0  0  0  0
  5 11  1  0  0  0  0
  6  7  1  0  0  0  0
  6  9  1  0  0  0  0
  7  8  1  0  0  0  0
  9 10  1  0  0  0  0
 10 11  2  0  0  0  0
M  END
>  <CHROM.1>
11.69742459,11.58929594,7.90587117,1.09625963,1.09889051,-2.11622379

>  <Name>
ligand

>  <RI>
0

>  <Rbt.Current_Directory>
/home/itssahil/PROJECTS/Mol_Feturizer/New_Systems/rnas/4FEP

>  <Rbt.Executable>
rbdock ($Id: //depot/dev/client3/rdock/2013.1/src/exe/rbdock.cxx#4 $)

>  <Rbt.Library>
libRbt.so (2013.1, Build901 2013/11/27)

>  <Rbt.Parameter_File>
/export/apps/rDock/src/rDock_2013.1_src/data/scripts/dock_solv.prm

>  <Rbt.Receptor>
prm/pocket_docking_8.prm

>  <SCORE>
-10.0314

>  <SCORE.INTER>
-10.0314

>  <SCORE.INTER.CONST>
1

>  <SCORE.INTER.POLAR>
0

>  <SCORE.INTER.ROT>
0

>  <SCORE.INTER.SOLV>
16.1901

>  <SCORE.INTER.VDW>
-15.6843

>  <SCORE.INTER.norm>
-0.91195

>  <SCORE.INTRA>
0

>  <SCORE.INTRA.DIHEDRAL>
0

>  <SCORE.INTRA.DIHEDRAL.0>
0

>  <SCORE.INTRA.POLAR>
0

>  <SCORE.INTRA.POLAR.0>
0

>  <SCORE.INTRA.REPUL>
0

>  <SCORE.INTRA.REPUL.0>
0

>  <SCORE.INTRA.SOLV>
0

>  <SCORE.INTRA.SOLV.lig_0>
-48.9558

>  <SCORE.INTRA.VDW>
0

>  <SCORE.INTRA.VDW.0>
0

>  <SCORE.INTRA.norm>
0

>  <SCORE.RESTR>
0

>  <SCORE.RESTR.CAVITY>
0

>  <SCORE.RESTR.norm>
0

>  <SCORE.SYSTEM>
0

>  <SCORE.SYSTEM.CONST>
0

>  <SCORE.SYSTEM.DIHEDRAL>
0

>  <SCORE.SYSTEM.SOLV>
0

>  <SCORE.SYSTEM.norm>
0

>  <SCORE.heavy>
11

>  <SCORE.norm>
-0.91195

>  <RMSD>
3.774

$$$$
ligand
 OpenBabel11021811493D
libRbt.so/2013.1/901 2013/11/27
 11 12  0  0  0  0  0  0  0  0999 V2000
   11.7157   10.7212    6.3746 N   0  0  0  0  0  0  0  0  0  0  0  0
   12.3090    9.9761    7.3209 C   0  0  0  0  0  0  0  0  0  0  0  0
   12.7973    8.7244    6.9855 N   0  0  0  0  0  0  0  0  0  0  0  0
   12.4387   10.4178    8.5826 N   0  0  0  0  0  0  0  0  0  0  0  0
   11.9728   11.6363    8.9431 C   0  0  0  0  0  0  0  0  0  0  0  0
   11.3397   12.4577    7.9763 C   0  0  0  0  0  0  0  0  0  0  0  0
   11.2230   11.9473    6.6492 C   0  0  0  0  0  0  0  0  0  0  0  0
   10.6178   12.6907    5.6538 N   0  0  0  0  0  0  0  0  0  0  0  0
   10.9738   13.6036    8.6021 N   0  0  0  0  0  0  0  0  0  0  0  0
   11.3300   13.5448    9.8542 C   0  0  0  0  0  0  0  0  0  0  0  0
   11.9494   12.3529   10.1119 N   0  0  0  0  0  0  0  0  0  0  0  0
  1  7  2  0  0  0  0
  1  2  1  0  0  0  0
  2  3  1  0  0  0  0
  2  4  2  0  0  0  0
  4  5  1  0  0  0  0
  5  6  2  0  0  0  0
  5 11  1  0  0  0  0
  6  7  1  0  0  0  0
  6  9  1  0  0  0  0
  7  8  1  0  0  0  0
  9 10  1  0  0  0  0
 10 11  2  0  0  0  0
M  END
>  <CHROM.1>
11.70132062,11.62433691,7.89776367,1.07916063,1.08248897,-2.09029567

>  <Name>
ligand

>  <RI>
0

>  <Rbt.Current_Directory>
/home/itssahil/PROJECTS/Mol_Feturizer/New_Systems/rnas/4FEP

>  <Rbt.Executable>
rbdock ($Id: //depot/dev/client3/rdock/2013.1/src/exe/rbdock.cxx#4 $)

>  <Rbt.Library>
libRbt.so (2013.1, Build901 2013/11/27)

>  <Rbt.Parameter_File>
/export/apps/rDock/src/rDock_2013.1_src/data/scripts/dock_solv.prm

>  <Rbt.Receptor>
prm/blind_docking_80.prm

>  <SCORE>
-10.0641

>  <SCORE.INTER>
-10.0641

>  <SCORE.INTER.CONST>
1

>  <SCORE.INTER.POLAR>
0

>  <SCORE.INTER.ROT>
0

>  <SCORE.INTER.SOLV>
15.8775

>  <SCORE.INTER.VDW>
-15.6019

>  <SCORE.INTER.norm>
-0.914915

>  <SCORE.INTRA>
0

>  <SCORE.INTRA.DIHEDRAL>
0

>  <SCORE.INTRA.DIHEDRAL.0>
0

>  <SCORE.INTRA.POLAR>
0

>  <SCORE.INTRA.POLAR.0>
0

>  <SCORE.INTRA.REPUL>
0

>  <SCORE.INTRA.REPUL.0>
0

>  <SCORE.INTRA.SOLV>
0

>  <SCORE.INTRA.SOLV.lig_0>
-48.9558

>  <SCORE.INTRA.VDW>
0

>  <SCORE.INTRA.VDW.0>
0

>  <SCORE.INTRA.norm>
0

>  <SCORE.RESTR>
0

>  <SCORE.RESTR.CAVITY>
0

>  <SCORE.RESTR.norm>
0

>  <SCORE.SYSTEM>
0

>  <SCORE.SYSTEM.CONST>
0

>  <SCORE.SYSTEM.DIHEDRAL>
0

>  <SCORE.SYSTEM.SOLV>
0

>  <SCORE.SYSTEM.norm>
0

>  <SCORE.heavy>
11

>  <SCORE.norm>
-0.914915

>  <RMSD>
3.775

$$$$
ligand
 OpenBabel11021811493D
libRbt.so/2013.1/901 2013/11/27
 11 12  0  0  0  0  0  0  0  0999 V2000
   11.6986   10.7026    6.3655 N   0  0  0  0  0  0  0  0  0  0  0  0
   12.2768    9.9521    7.3170 C   0  0  0  0  0  0  0  0  0  0  0  0
   12.7570    8.6962    6.9856 N   0  0  0  0  0  0  0  0  0  0  0  0
   12.3990   10.3924    8.5799 N   0  0  0  0  0  0  0  0  0  0  0  0
   11.9407   11.6149    8.9365 C   0  0  0  0  0  0  0  0  0  0  0  0
   11.3235   12.4420    7.9643 C   0  0  0  0  0  0  0  0  0  0  0  0
   11.2143   11.9330    6.6360 C   0  0  0  0  0  0  0  0  0  0  0  0
   10.6247   12.6819    5.6354 N   0  0  0  0  0  0  0  0  0  0  0  0
   10.9622   13.5910    8.5871 N   0  0  0  0  0  0  0  0  0  0  0  0
   11.3065   13.5288    9.8424 C   0  0  0  0  0  0  0  0  0  0  0  0
   11.9130   12.3314   10.1053 N   0  0  0  0  0  0  0  0  0  0  0  0
  1  7  2  0  0  0  0
  1  2  1  0  0  0  0
  2  3  1  0  0  0  0
  2  4  2  0  0  0  0
  4  5  1  0  0  0  0
  5  6  2  0  0  0  0
  5 11  1  0  0  0  0
  6  7  1  0  0  0  0
  6  9  1  0  0  0  0
  7  8  1  0  0  0  0
  9 10  1  0  0  0  0
 10 11  2  0  0  0  0
M  END
>  <CHROM.1>
11.67850466,11.60549774,7.88879118,1.07166115,1.09459741,-2.08340573

>  <Name>
ligand

>  <RI>
0

>  <Rbt.Current_Directory>
/home/itssahil/PROJECTS/Mol_Feturizer/New_Systems/rnas/4FEP

>  <Rbt.Executable>
rbdock ($Id: //depot/dev/client3/rdock/2013.1/src/exe/rbdock.cxx#4 $)

>  <Rbt.Library>
libRbt.so (2013.1, Build901 2013/11/27)

>  <Rbt.Parameter_File>
/export/apps/rDock/src/rDock_2013.1_src/data/scripts/dock_solv.prm

>  <Rbt.Receptor>
prm/pocket_docking_8.prm

>  <SCORE>
-10.0503

>  <SCORE.INTER>
-10.0503

>  <SCORE.INTER.CONST>
1

>  <SCORE.INTER.POLAR>
0

>  <SCORE.INTER.ROT>
0

>  <SCORE.INTER.SOLV>
16.1399

>  <SCORE.INTER.VDW>
-15.6802

>  <SCORE.INTER.norm>
-0.913659

>  <SCORE.INTRA>
0

>  <SCORE.INTRA.DIHEDRAL>
0

>  <SCORE.INTRA.DIHEDRAL.0>
0

>  <SCORE.INTRA.POLAR>
0

>  <SCORE.INTRA.POLAR.0>
0

>  <SCORE.INTRA.REPUL>
0

>  <SCORE.INTRA.REPUL.0>
0

>  <SCORE.INTRA.SOLV>
0

>  <SCORE.INTRA.SOLV.lig_0>
-48.9558

>  <SCORE.INTRA.VDW>
0

>  <SCORE.INTRA.VDW.0>
0

>  <SCORE.INTRA.norm>
0

>  <SCORE.RESTR>
0

>  <SCORE.RESTR.CAVITY>
0

>  <SCORE.RESTR.norm>
0

>  <SCORE.SYSTEM>
0

>  <SCORE.SYSTEM.CONST>
0

>  <SCORE.SYSTEM.DIHEDRAL>
0

>  <SCORE.SYSTEM.SOLV>
0

>  <SCORE.SYSTEM.norm>
0

>  <SCORE.heavy>
11

>  <SCORE.norm>
-0.913659

>  <RMSD>
3.775

$$$$
ligand
 OpenBabel11021811493D
libRbt.so/2013.1/901 2013/11/27
 11 12  0  0  0  0  0  0  0  0999 V2000
   11.7387   10.6872    6.3708 N   0  0  0  0  0  0  0  0  0  0  0  0
   12.3289    9.9458    7.3220 C   0  0  0  0  0  0  0  0  0  0  0  0
   12.8314    8.6989    6.9899 N   0  0  0  0  0  0  0  0  0  0  0  0
   12.4419   10.3868    8.5856 N   0  0  0  0  0  0  0  0  0  0  0  0
   11.9619   11.6007    8.9430 C   0  0  0  0  0  0  0  0  0  0  0  0
   11.3315   12.4180    7.9710 C   0  0  0  0  0  0  0  0  0  0  0  0
   11.2327   11.9085    6.6420 C   0  0  0  0  0  0  0  0  0  0  0  0
   10.6312   12.6481    5.6415 N   0  0  0  0  0  0  0  0  0  0  0  0
   10.9494   13.5598    8.5945 N   0  0  0  0  0  0  0  0  0  0  0  0
   11.2933   13.5023    9.8501 C   0  0  0  0  0  0  0  0  0  0  0  0
   11.9204   12.3154   10.1125 N   0  0  0  0  0  0  0  0  0  0  0  0
  1  7  2  0  0  0  0
  1  2  1  0  0  0  0
  2  3  1  0  0  0  0
  2  4  2  0  0  0  0
  4  5  1  0  0  0  0
  5  6  2  0  0  0  0
  5 11  1  0  0  0  0
  6  7  1  0  0  0  0
  6  9  1  0  0  0  0
  7  8  1  0  0  0  0
  9 10  1  0  0  0  0
 10 11  2  0  0  0  0
M  END
>  <CHROM.1>
11.70111138,11.58789737,7.89493472,1.05136260,1.07981747,-2.06437004

>  <Name>
ligand

>  <RI>
0

>  <Rbt.Current_Directory>
/home/itssahil/PROJECTS/Mol_Feturizer/New_Systems/rnas/4FEP

>  <Rbt.Executable>
rbdock ($Id: //depot/dev/client3/rdock/2013.1/src/exe/rbdock.cxx#4 $)

>  <Rbt.Library>
libRbt.so (2013.1, Build901 2013/11/27)

>  <Rbt.Parameter_File>
/export/apps/rDock/src/rDock_2013.1_src/data/scripts/dock_solv.prm

>  <Rbt.Receptor>
prm/pocket_docking_6.prm

>  <SCORE>
-10.0841

>  <SCORE.INTER>
-10.0841

>  <SCORE.INTER.CONST>
1

>  <SCORE.INTER.POLAR>
0

>  <SCORE.INTER.ROT>
0

>  <SCORE.INTER.SOLV>
15.8339

>  <SCORE.INTER.VDW>
-15.6007

>  <SCORE.INTER.norm>
-0.916732

>  <SCORE.INTRA>
0

>  <SCORE.INTRA.DIHEDRAL>
0

>  <SCORE.INTRA.DIHEDRAL.0>
0

>  <SCORE.INTRA.POLAR>
0

>  <SCORE.INTRA.POLAR.0>
0

>  <SCORE.INTRA.REPUL>
0

>  <SCORE.INTRA.REPUL.0>
0

>  <SCORE.INTRA.SOLV>
0

>  <SCORE.INTRA.SOLV.lig_0>
-48.9558

>  <SCORE.INTRA.VDW>
0

>  <SCORE.INTRA.VDW.0>
0

>  <SCORE.INTRA.norm>
0

>  <SCORE.RESTR>
0

>  <SCORE.RESTR.CAVITY>
0

>  <SCORE.RESTR.norm>
0

>  <SCORE.SYSTEM>
0

>  <SCORE.SYSTEM.CONST>
0

>  <SCORE.SYSTEM.DIHEDRAL>
0

>  <SCORE.SYSTEM.SOLV>
0

>  <SCORE.SYSTEM.norm>
0

>  <SCORE.heavy>
11

>  <SCORE.norm>
-0.916732

>  <RMSD>
3.776

$$$$
ligand
 OpenBabel11021811493D
libRbt.so/2013.1/901 2013/11/27
 11 12  0  0  0  0  0  0  0  0999 V2000
   11.7319   10.6753    6.3827 N   0  0  0  0  0  0  0  0  0  0  0  0
   12.3252    9.9364    7.3339 C   0  0  0  0  0  0  0  0  0  0  0  0
   12.8229    8.6869    7.0043 N   0  0  0  0  0  0  0  0  0  0  0  0
   12.4458   10.3822    8.5950 N   0  0  0  0  0  0  0  0  0  0  0  0
   11.9705   11.5987    8.9500 C   0  0  0  0  0  0  0  0  0  0  0  0
   11.3371   12.4136    7.9779 C   0  0  0  0  0  0  0  0  0  0  0  0
   11.2302   11.8990    6.6515 C   0  0  0  0  0  0  0  0  0  0  0  0
   10.6253   12.6359    5.6511 N   0  0  0  0  0  0  0  0  0  0  0  0
   10.9609   13.5588    8.5988 N   0  0  0  0  0  0  0  0  0  0  0  0
   11.3113   13.5056    9.8528 C   0  0  0  0  0  0  0  0  0  0  0  0
   11.9368   12.3182   10.1168 N   0  0  0  0  0  0  0  0  0  0  0  0
  1  7  2  0  0  0  0
  1  2  1  0  0  0  0
  2  3  1  0  0  0  0
  2  4  2  0  0  0  0
  4  5  1  0  0  0  0
  5  6  2  0  0  0  0
  5 11  1  0  0  0  0
  6  7  1  0  0  0  0
  6  9  1  0  0  0  0
  7  8  1  0  0  0  0
  9 10  1  0  0  0  0
 10 11  2  0  0  0  0
M  END
>  <CHROM.1>
11.70430104,11.58228404,7.90333673,1.06342277,1.07946996,-2.07906513

>  <Name>
ligand

>  <RI>
0

>  <Rbt.Current_Directory>
/home/itssahil/PROJECTS/Mol_Feturizer/New_Systems/rnas/4FEP

>  <Rbt.Executable>
rbdock ($Id: //depot/dev/client3/rdock/2013.1/src/exe/rbdock.cxx#4 $)

>  <Rbt.Library>
libRbt.so (2013.1, Build901 2013/11/27)

>  <Rbt.Parameter_File>
/export/apps/rDock/src/rDock_2013.1_src/data/scripts/dock_solv.prm

>  <Rbt.Receptor>
prm/blind_docking_80.prm

>  <SCORE>
-10.1031

>  <SCORE.INTER>
-10.1031

>  <SCORE.INTER.CONST>
1

>  <SCORE.INTER.POLAR>
0

>  <SCORE.INTER.ROT>
0

>  <SCORE.INTER.SOLV>
15.8216

>  <SCORE.INTER.VDW>
-15.6093

>  <SCORE.INTER.norm>
-0.918465

>  <SCORE.INTRA>
0

>  <SCORE.INTRA.DIHEDRAL>
0

>  <SCORE.INTRA.DIHEDRAL.0>
0

>  <SCORE.INTRA.POLAR>
0

>  <SCORE.INTRA.POLAR.0>
0

>  <SCORE.INTRA.REPUL>
0

>  <SCORE.INTRA.REPUL.0>
0

>  <SCORE.INTRA.SOLV>
0

>  <SCORE.INTRA.SOLV.lig_0>
-48.9558

>  <SCORE.INTRA.VDW>
0

>  <SCORE.INTRA.VDW.0>
0

>  <SCORE.INTRA.norm>
0

>  <SCORE.RESTR>
0

>  <SCORE.RESTR.CAVITY>
0

>  <SCORE.RESTR.norm>
0

>  <SCORE.SYSTEM>
0

>  <SCORE.SYSTEM.CONST>
0

>  <SCORE.SYSTEM.DIHEDRAL>
0

>  <SCORE.SYSTEM.SOLV>
0

>  <SCORE.SYSTEM.norm>
0

>  <SCORE.heavy>
11

>  <SCORE.norm>
-0.918465

>  <RMSD>
3.777

$$$$
ligand
 OpenBabel11021811493D
libRbt.so/2013.1/901 2013/11/27
 11 12  0  0  0  0  0  0  0  0999 V2000
   11.7287   10.6783    6.3817 N   0  0  0  0  0  0  0  0  0  0  0  0
   12.3219    9.9385    7.3322 C   0  0  0  0  0  0  0  0  0  0  0  0
   12.8188    8.6889    7.0016 N   0  0  0  0  0  0  0  0  0  0  0  0
   12.4433   10.3835    8.5936 N   0  0  0  0  0  0  0  0  0  0  0  0
   11.9689   11.6001    8.9494 C   0  0  0  0  0  0  0  0  0  0  0  0
   11.3356   12.4159    7.9781 C   0  0  0  0  0  0  0  0  0  0  0  0
   11.2279   11.9022    6.6515 C   0  0  0  0  0  0  0  0  0  0  0  0
   10.6230   12.6401    5.6518 N   0  0  0  0  0  0  0  0  0  0  0  0
   10.9604   13.5610    8.5999 N   0  0  0  0  0  0  0  0  0  0  0  0
   11.3112   13.5068    9.8537 C   0  0  0  0  0  0  0  0  0  0  0  0
   11.9361   12.3189   10.1167 N   0  0  0  0  0  0  0  0  0  0  0  0
  1  7  2  0  0  0  0
  1  2  1  0  0  0  0
  2  3  1  0  0  0  0
  2  4  2  0  0  0  0
  4  5  1  0  0  0  0
  5  6  2  0  0  0  0
  5 11  1  0  0  0  0
  6  7  1  0  0  0  0
  6  9  1  0  0  0  0
  7  8  1  0  0  0  0
  9 10  1  0  0  0  0
 10 11  2  0  0  0  0
M  END
>  <CHROM.1>
11.70226512,11.58442780,7.90291304,1.06479992,1.07980893,-2.07966379

>  <Name>
ligand

>  <RI>
0

>  <Rbt.Current_Directory>
/home/itssahil/PROJECTS/Mol_Feturizer/New_Systems/rnas/4FEP

>  <Rbt.Executable>
rbdock ($Id: //depot/dev/client3/rdock/2013.1/src/exe/rbdock.cxx#4 $)

>  <Rbt.Library>
libRbt.so (2013.1, Build901 2013/11/27)

>  <Rbt.Parameter_File>
/export/apps/rDock/src/rDock_2013.1_src/data/scripts/dock_solv.prm

>  <Rbt.Receptor>
prm/pocket_docking_5.prm

>  <SCORE>
-10.0995

>  <SCORE.INTER>
-10.0995

>  <SCORE.INTER.CONST>
1

>  <SCORE.INTER.POLAR>
0

>  <SCORE.INTER.ROT>
0

>  <SCORE.INTER.SOLV>
15.832

>  <SCORE.INTER.VDW>
-15.6103

>  <SCORE.INTER.norm>
-0.918135

>  <SCORE.INTRA>
0

>  <SCORE.INTRA.DIHEDRAL>
0

>  <SCORE.INTRA.DIHEDRAL.0>
0

>  <SCORE.INTRA.POLAR>
0

>  <SCORE.INTRA.POLAR.0>
0

>  <SCORE.INTRA.REPUL>
0

>  <SCORE.INTRA.REPUL.0>
0

>  <SCORE.INTRA.SOLV>
0

>  <SCORE.INTRA.SOLV.lig_0>
-48.9558

>  <SCORE.INTRA.VDW>
0

>  <SCORE.INTRA.VDW.0>
0

>  <SCORE.INTRA.norm>
0

>  <SCORE.RESTR>
0

>  <SCORE.RESTR.CAVITY>
0

>  <SCORE.RESTR.norm>
0

>  <SCORE.SYSTEM>
0

>  <SCORE.SYSTEM.CONST>
0

>  <SCORE.SYSTEM.DIHEDRAL>
0

>  <SCORE.SYSTEM.SOLV>
0

>  <SCORE.SYSTEM.norm>
0

>  <SCORE.heavy>
11

>  <SCORE.norm>
-0.918135

>  <RMSD>
3.777

$$$$
ligand
 OpenBabel11021811493D
libRbt.so/2013.1/901 2013/11/27
 11 12  0  0  0  0  0  0  0  0999 V2000
   11.7079   10.7074    6.3768 N   0  0  0  0  0  0  0  0  0  0  0  0
   12.2827    9.9537    7.3278 C   0  0  0  0  0  0  0  0  0  0  0  0
   12.7574    8.6959    6.9958 N   0  0  0  0  0  0  0  0  0  0  0  0
   12.4067   10.3927    8.5911 N   0  0  0  0  0  0  0  0  0  0  0  0
   11.9537   11.6170    8.9484 C   0  0  0  0  0  0  0  0  0  0  0  0
   11.3403   12.4474    7.9767 C   0  0  0  0  0  0  0  0  0  0  0  0
   11.2290   11.9397    6.6481 C   0  0  0  0  0  0  0  0  0  0  0  0
   10.6428   12.6918    5.6478 N   0  0  0  0  0  0  0  0  0  0  0  0
   10.9840   13.5976    8.6001 N   0  0  0  0  0  0  0  0  0  0  0  0
   11.3279   13.5331    9.8554 C   0  0  0  0  0  0  0  0  0  0  0  0
   11.9291   12.3329   10.1177 N   0  0  0  0  0  0  0  0  0  0  0  0
  1  7  2  0  0  0  0
  1  2  1  0  0  0  0
  2  3  1  0  0  0  0
  2  4  2  0  0  0  0
  4  5  1  0  0  0  0
  5  6  2  0  0  0  0
  5 11  1  0  0  0  0
  6  7  1  0  0  0  0
  6  9  1  0  0  0  0
  7  8  1  0  0  0  0
  9 10  1  0  0  0  0
 10 11  2  0  0  0  0
M  END
>  <CHROM.1>
11.69160961,11.60940253,7.90064260,1.07619863,1.09850091,-2.08681787

>  <Name>
ligand

>  <RI>
0

>  <Rbt.Current_Directory>
/home/itssahil/PROJECTS/Mol_Feturizer/New_Systems/rnas/4FEP

>  <Rbt.Executable>
rbdock ($Id: //depot/dev/client3/rdock/2013.1/src/exe/rbdock.cxx#4 $)

>  <Rbt.Library>
libRbt.so (2013.1, Build901 2013/11/27)

>  <Rbt.Parameter_File>
/export/apps/rDock/src/rDock_2013.1_src/data/scripts/dock_solv.prm

>  <Rbt.Receptor>
prm/pocket_docking_5.prm

>  <SCORE>
-10.1025

>  <SCORE.INTER>
-10.1025

>  <SCORE.INTER.CONST>
1

>  <SCORE.INTER.POLAR>
0

>  <SCORE.INTER.ROT>
0

>  <SCORE.INTER.SOLV>
16.1152

>  <SCORE.INTER.VDW>
-15.7067

>  <SCORE.INTER.norm>
-0.918406

>  <SCORE.INTRA>
0

>  <SCORE.INTRA.DIHEDRAL>
0

>  <SCORE.INTRA.DIHEDRAL.0>
0

>  <SCORE.INTRA.POLAR>
0

>  <SCORE.INTRA.POLAR.0>
0

>  <SCORE.INTRA.REPUL>
0

>  <SCORE.INTRA.REPUL.0>
0

>  <SCORE.INTRA.SOLV>
0

>  <SCORE.INTRA.SOLV.lig_0>
-48.9558

>  <SCORE.INTRA.VDW>
0

>  <SCORE.INTRA.VDW.0>
0

>  <SCORE.INTRA.norm>
0

>  <SCORE.RESTR>
0

>  <SCORE.RESTR.CAVITY>
0

>  <SCORE.RESTR.norm>
0

>  <SCORE.SYSTEM>
0

>  <SCORE.SYSTEM.CONST>
0

>  <SCORE.SYSTEM.DIHEDRAL>
0

>  <SCORE.SYSTEM.SOLV>
0

>  <SCORE.SYSTEM.norm>
0

>  <SCORE.heavy>
11

>  <SCORE.norm>
-0.918406

>  <RMSD>
3.777

$$$$
ligand
 OpenBabel11021811493D
libRbt.so/2013.1/901 2013/11/27
 11 12  0  0  0  0  0  0  0  0999 V2000
   11.7209   10.6757    6.3757 N   0  0  0  0  0  0  0  0  0  0  0  0
   12.3166    9.9367    7.3254 C   0  0  0  0  0  0  0  0  0  0  0  0
   12.8146    8.6878    6.9942 N   0  0  0  0  0  0  0  0  0  0  0  0
   12.4393   10.3820    8.5866 N   0  0  0  0  0  0  0  0  0  0  0  0
   11.9639   11.5981    8.9430 C   0  0  0  0  0  0  0  0  0  0  0  0
   11.3280   12.4130    7.9726 C   0  0  0  0  0  0  0  0  0  0  0  0
   11.2189   11.8989    6.6462 C   0  0  0  0  0  0  0  0  0  0  0  0
   10.6116   12.6359    5.6473 N   0  0  0  0  0  0  0  0  0  0  0  0
   10.9523   13.5576    8.5947 N   0  0  0  0  0  0  0  0  0  0  0  0
   11.3051   13.5040    9.8481 C   0  0  0  0  0  0  0  0  0  0  0  0
   11.9319   12.3170   10.1102 N   0  0  0  0  0  0  0  0  0  0  0  0
  1  7  2  0  0  0  0
  1  2  1  0  0  0  0
  2  3  1  0  0  0  0
  2  4  2  0  0  0  0
  4  5  1  0  0  0  0
  5  6  2  0  0  0  0
  5 11  1  0  0  0  0
  6  7  1  0  0  0  0
  6  9  1  0  0  0  0
  7  8  1  0  0  0  0
  9 10  1  0  0  0  0
 10 11  2  0  0  0  0
M  END
>  <CHROM.1>
11.69567443,11.58193939,7.89689417,1.06629961,1.07790454,-2.08111117

>  <Name>
ligand

>  <RI>
0

>  <Rbt.Current_Directory>
/home/itssahil/PROJECTS/Mol_Feturizer/New_Systems/rnas/4FEP

>  <Rbt.Executable>
rbdock ($Id: //depot/dev/client3/rdock/2013.1/src/exe/rbdock.cxx#4 $)

>  <Rbt.Library>
libRbt.so (2013.1, Build901 2013/11/27)

>  <Rbt.Parameter_File>
/export/apps/rDock/src/rDock_2013.1_src/data/scripts/dock_solv.prm

>  <Rbt.Receptor>
prm/pocket_docking_7.prm

>  <SCORE>
-10.093

>  <SCORE.INTER>
-10.093

>  <SCORE.INTER.CONST>
1

>  <SCORE.INTER.POLAR>
0

>  <SCORE.INTER.ROT>
0

>  <SCORE.INTER.SOLV>
15.8531

>  <SCORE.INTER.VDW>
-15.613

>  <SCORE.INTER.norm>
-0.917542

>  <SCORE.INTRA>
0

>  <SCORE.INTRA.DIHEDRAL>
0

>  <SCORE.INTRA.DIHEDRAL.0>
0

>  <SCORE.INTRA.POLAR>
0

>  <SCORE.INTRA.POLAR.0>
0

>  <SCORE.INTRA.REPUL>
0

>  <SCORE.INTRA.REPUL.0>
0

>  <SCORE.INTRA.SOLV>
0

>  <SCORE.INTRA.SOLV.lig_0>
-48.9558

>  <SCORE.INTRA.VDW>
0

>  <SCORE.INTRA.VDW.0>
0

>  <SCORE.INTRA.norm>
0

>  <SCORE.RESTR>
0

>  <SCORE.RESTR.CAVITY>
0

>  <SCORE.RESTR.norm>
0

>  <SCORE.SYSTEM>
0

>  <SCORE.SYSTEM.CONST>
0

>  <SCORE.SYSTEM.DIHEDRAL>
0

>  <SCORE.SYSTEM.SOLV>
0

>  <SCORE.SYSTEM.norm>
0

>  <SCORE.heavy>
11

>  <SCORE.norm>
-0.917542

>  <RMSD>
3.777

$$$$
ligand
 OpenBabel11021811493D
libRbt.so/2013.1/901 2013/11/27
 11 12  0  0  0  0  0  0  0  0999 V2000
   11.7435   10.6797    6.3892 N   0  0  0  0  0  0  0  0  0  0  0  0
   12.3359    9.9403    7.3406 C   0  0  0  0  0  0  0  0  0  0  0  0
   12.8344    8.6912    7.0106 N   0  0  0  0  0  0  0  0  0  0  0  0
   12.4550   10.3852    8.6022 N   0  0  0  0  0  0  0  0  0  0  0  0
   11.9789   11.6013    8.9575 C   0  0  0  0  0  0  0  0  0  0  0  0
   11.3463   12.4167    7.9853 C   0  0  0  0  0  0  0  0  0  0  0  0
   11.2411   11.9031    6.6584 C   0  0  0  0  0  0  0  0  0  0  0  0
   10.6371   12.6406    5.6579 N   0  0  0  0  0  0  0  0  0  0  0  0
   10.9691   13.5613    8.6066 N   0  0  0  0  0  0  0  0  0  0  0  0
   11.3180   13.5073    9.8610 C   0  0  0  0  0  0  0  0  0  0  0  0
   11.9436   12.3199   10.1248 N   0  0  0  0  0  0  0  0  0  0  0  0
  1  7  2  0  0  0  0
  1  2  1  0  0  0  0
  2  3  1  0  0  0  0
  2  4  2  0  0  0  0
  4  5  1  0  0  0  0
  5  6  2  0  0  0  0
  5 11  1  0  0  0  0
  6  7  1  0  0  0  0
  6  9  1  0  0  0  0
  7  8  1  0  0  0  0
  9 10  1  0  0  0  0
 10 11  2  0  0  0  0
M  END
>  <CHROM.1>
11.71388096,11.58557739,7.91053530,1.06100653,1.07974296,-2.07618034

>  <Name>
ligand

>  <RI>
0

>  <Rbt.Current_Directory>
/home/itssahil/PROJECTS/Mol_Feturizer/New_Systems/rnas/4FEP

>  <Rbt.Executable>
rbdock ($Id: //depot/dev/client3/rdock/2013.1/src/exe/rbdock.cxx#4 $)

>  <Rbt.Library>
libRbt.so (2013.1, Build901 2013/11/27)

>  <Rbt.Parameter_File>
/export/apps/rDock/src/rDock_2013.1_src/data/scripts/dock_solv.prm

>  <Rbt.Receptor>
prm/blind_docking_40.prm

>  <SCORE>
-10.0686

>  <SCORE.INTER>
-10.0686

>  <SCORE.INTER.CONST>
1

>  <SCORE.INTER.POLAR>
0

>  <SCORE.INTER.ROT>
0

>  <SCORE.INTER.SOLV>
15.7608

>  <SCORE.INTER.VDW>
-15.566

>  <SCORE.INTER.norm>
-0.91533

>  <SCORE.INTRA>
0

>  <SCORE.INTRA.DIHEDRAL>
0

>  <SCORE.INTRA.DIHEDRAL.0>
0

>  <SCORE.INTRA.POLAR>
0

>  <SCORE.INTRA.POLAR.0>
0

>  <SCORE.INTRA.REPUL>
0

>  <SCORE.INTRA.REPUL.0>
0

>  <SCORE.INTRA.SOLV>
0

>  <SCORE.INTRA.SOLV.lig_0>
-48.9558

>  <SCORE.INTRA.VDW>
0

>  <SCORE.INTRA.VDW.0>
0

>  <SCORE.INTRA.norm>
0

>  <SCORE.RESTR>
0

>  <SCORE.RESTR.CAVITY>
0

>  <SCORE.RESTR.norm>
0

>  <SCORE.SYSTEM>
0

>  <SCORE.SYSTEM.CONST>
0

>  <SCORE.SYSTEM.DIHEDRAL>
0

>  <SCORE.SYSTEM.SOLV>
0

>  <SCORE.SYSTEM.norm>
0

>  <SCORE.heavy>
11

>  <SCORE.norm>
-0.91533

>  <RMSD>
3.778

$$$$
ligand
 OpenBabel11021811493D
libRbt.so/2013.1/901 2013/11/27
 11 12  0  0  0  0  0  0  0  0999 V2000
   11.7144   10.6802    6.3611 N   0  0  0  0  0  0  0  0  0  0  0  0
   12.3084    9.9377    7.3091 C   0  0  0  0  0  0  0  0  0  0  0  0
   12.8073    8.6901    6.9740 N   0  0  0  0  0  0  0  0  0  0  0  0
   12.4285   10.3781    8.5722 N   0  0  0  0  0  0  0  0  0  0  0  0
   11.9520   11.5926    8.9324 C   0  0  0  0  0  0  0  0  0  0  0  0
   11.3178   12.4111    7.9639 C   0  0  0  0  0  0  0  0  0  0  0  0
   11.2115   11.9022    6.6353 C   0  0  0  0  0  0  0  0  0  0  0  0
   10.6060   12.6430    5.6381 N   0  0  0  0  0  0  0  0  0  0  0  0
   10.9406   13.5532    8.5898 N   0  0  0  0  0  0  0  0  0  0  0  0
   11.2909   13.4948    9.8436 C   0  0  0  0  0  0  0  0  0  0  0  0
   11.9175   12.3069   10.1024 N   0  0  0  0  0  0  0  0  0  0  0  0
  1  7  2  0  0  0  0
  1  2  1  0  0  0  0
  2  3  1  0  0  0  0
  2  4  2  0  0  0  0
  4  5  1  0  0  0  0
  5  6  2  0  0  0  0
  5 11  1  0  0  0  0
  6  7  1  0  0  0  0
  6  9  1  0  0  0  0
  7  8  1  0  0  0  0
  9 10  1  0  0  0  0
 10 11  2  0  0  0  0
M  END
>  <CHROM.1>
11.68587721,11.58048400,7.88573723,1.06234720,1.07866752,-2.07371693

>  <Name>
ligand

>  <RI>
0

>  <Rbt.Current_Directory>
/home/itssahil/PROJECTS/Mol_Feturizer/New_Systems/rnas/4FEP

>  <Rbt.Executable>
rbdock ($Id: //depot/dev/client3/rdock/2013.1/src/exe/rbdock.cxx#4 $)

>  <Rbt.Library>
libRbt.so (2013.1, Build901 2013/11/27)

>  <Rbt.Parameter_File>
/export/apps/rDock/src/rDock_2013.1_src/data/scripts/dock_solv.prm

>  <Rbt.Receptor>
prm/blind_docking_80.prm

>  <SCORE>
-10.0994

>  <SCORE.INTER>
-10.0994

>  <SCORE.INTER.CONST>
1

>  <SCORE.INTER.POLAR>
0

>  <SCORE.INTER.ROT>
0

>  <SCORE.INTER.SOLV>
15.9265

>  <SCORE.INTER.VDW>
-15.6418

>  <SCORE.INTER.norm>
-0.918129

>  <SCORE.INTRA>
0

>  <SCORE.INTRA.DIHEDRAL>
0

>  <SCORE.INTRA.DIHEDRAL.0>
0

>  <SCORE.INTRA.POLAR>
0

>  <SCORE.INTRA.POLAR.0>
0

>  <SCORE.INTRA.REPUL>
0

>  <SCORE.INTRA.REPUL.0>
0

>  <SCORE.INTRA.SOLV>
0

>  <SCORE.INTRA.SOLV.lig_0>
-48.9558

>  <SCORE.INTRA.VDW>
0

>  <SCORE.INTRA.VDW.0>
0

>  <SCORE.INTRA.norm>
0

>  <SCORE.RESTR>
0

>  <SCORE.RESTR.CAVITY>
0

>  <SCORE.RESTR.norm>
0

>  <SCORE.SYSTEM>
0

>  <SCORE.SYSTEM.CONST>
0

>  <SCORE.SYSTEM.DIHEDRAL>
0

>  <SCORE.SYSTEM.SOLV>
0

>  <SCORE.SYSTEM.norm>
0

>  <SCORE.heavy>
11

>  <SCORE.norm>
-0.918129

>  <RMSD>
3.778

$$$$
ligand
 OpenBabel11021811493D
libRbt.so/2013.1/901 2013/11/27
 11 12  0  0  0  0  0  0  0  0999 V2000
   11.7306   10.6737    6.3810 N   0  0  0  0  0  0  0  0  0  0  0  0
   12.3251    9.9342    7.3311 C   0  0  0  0  0  0  0  0  0  0  0  0
   12.8226    8.6850    7.0001 N   0  0  0  0  0  0  0  0  0  0  0  0
   12.4470   10.3792    8.5924 N   0  0  0  0  0  0  0  0  0  0  0  0
   11.9720   11.5955    8.9487 C   0  0  0  0  0  0  0  0  0  0  0  0
   11.3373   12.4109    7.9778 C   0  0  0  0  0  0  0  0  0  0  0  0
   11.2291   11.8971    6.6513 C   0  0  0  0  0  0  0  0  0  0  0  0
   10.6230   12.6347    5.6520 N   0  0  0  0  0  0  0  0  0  0  0  0
   10.9618   13.5556    8.5999 N   0  0  0  0  0  0  0  0  0  0  0  0
   11.3135   13.5016    9.8535 C   0  0  0  0  0  0  0  0  0  0  0  0
   11.9395   12.3142   10.1160 N   0  0  0  0  0  0  0  0  0  0  0  0
  1  7  2  0  0  0  0
  1  2  1  0  0  0  0
  2  3  1  0  0  0  0
  2  4  2  0  0  0  0
  4  5  1  0  0  0  0
  5  6  2  0  0  0  0
  5 11  1  0  0  0  0
  6  7  1  0  0  0  0
  6  9  1  0  0  0  0
  7  8  1  0  0  0  0
  9 10  1  0  0  0  0
 10 11  2  0  0  0  0
M  END
>  <CHROM.1>
11.70462460,11.57968731,7.90232166,1.06533149,1.07880975,-2.08008382

>  <Name>
ligand

>  <RI>
0

>  <Rbt.Current_Directory>
/home/itssahil/PROJECTS/Mol_Feturizer/New_Systems/rnas/4FEP

>  <Rbt.Executable>
rbdock ($Id: //depot/dev/client3/rdock/2013.1/src/exe/rbdock.cxx#4 $)

>  <Rbt.Library>
libRbt.so (2013.1, Build901 2013/11/27)

>  <Rbt.Parameter_File>
/export/apps/rDock/src/rDock_2013.1_src/data/scripts/dock_solv.prm

>  <Rbt.Receptor>
prm/pocket_docking_4.prm

>  <SCORE>
-10.1034

>  <SCORE.INTER>
-10.1034

>  <SCORE.INTER.CONST>
1

>  <SCORE.INTER.POLAR>
0

>  <SCORE.INTER.ROT>
0

>  <SCORE.INTER.SOLV>
15.8196

>  <SCORE.INTER.VDW>
-15.6088

>  <SCORE.INTER.norm>
-0.918487

>  <SCORE.INTRA>
0

>  <SCORE.INTRA.DIHEDRAL>
0

>  <SCORE.INTRA.DIHEDRAL.0>
0

>  <SCORE.INTRA.POLAR>
0

>  <SCORE.INTRA.POLAR.0>
0

>  <SCORE.INTRA.REPUL>
0

>  <SCORE.INTRA.REPUL.0>
0

>  <SCORE.INTRA.SOLV>
0

>  <SCORE.INTRA.SOLV.lig_0>
-48.9558

>  <SCORE.INTRA.VDW>
0

>  <SCORE.INTRA.VDW.0>
0

>  <SCORE.INTRA.norm>
0

>  <SCORE.RESTR>
0

>  <SCORE.RESTR.CAVITY>
0

>  <SCORE.RESTR.norm>
0

>  <SCORE.SYSTEM>
0

>  <SCORE.SYSTEM.CONST>
0

>  <SCORE.SYSTEM.DIHEDRAL>
0

>  <SCORE.SYSTEM.SOLV>
0

>  <SCORE.SYSTEM.norm>
0

>  <SCORE.heavy>
11

>  <SCORE.norm>
-0.918487

>  <RMSD>
3.778

$$$$
ligand
 OpenBabel11021811493D
libRbt.so/2013.1/901 2013/11/27
 11 12  0  0  0  0  0  0  0  0999 V2000
   11.7200   10.6302    6.3989 N   0  0  0  0  0  0  0  0  0  0  0  0
   12.3205    9.8995    7.3520 C   0  0  0  0  0  0  0  0  0  0  0  0
   12.8190    8.6487    7.0285 N   0  0  0  0  0  0  0  0  0  0  0  0
   12.4476   10.3547    8.6091 N   0  0  0  0  0  0  0  0  0  0  0  0
   11.9717   11.5728    8.9580 C   0  0  0  0  0  0  0  0  0  0  0  0
   11.3308   12.3792    7.9838 C   0  0  0  0  0  0  0  0  0  0  0  0
   11.2172   11.8547    6.6619 C   0  0  0  0  0  0  0  0  0  0  0  0
   10.6049   12.5831    5.6598 N   0  0  0  0  0  0  0  0  0  0  0  0
   10.9558   13.5281    8.5986 N   0  0  0  0  0  0  0  0  0  0  0  0
   11.3137   13.4847    9.8509 C   0  0  0  0  0  0  0  0  0  0  0  0
   11.9433   12.3007   10.1198 N   0  0  0  0  0  0  0  0  0  0  0  0
  1  7  2  0  0  0  0
  1  2  1  0  0  0  0
  2  3  1  0  0  0  0
  2  4  2  0  0  0  0
  4  5  1  0  0  0  0
  5  6  2  0  0  0  0
  5 11  1  0  0  0  0
  6  7  1  0  0  0  0
  6  9  1  0  0  0  0
  7  8  1  0  0  0  0
  9 10  1  0  0  0  0
 10 11  2  0  0  0  0
M  END
>  <CHROM.1>
11.69939518,11.54814912,7.91314501,1.07201585,1.07468440,-2.09388974

>  <Name>
ligand

>  <RI>
0

>  <Rbt.Current_Directory>
/home/itssahil/PROJECTS/Mol_Feturizer/New_Systems/rnas/4FEP

>  <Rbt.Executable>
rbdock ($Id: //depot/dev/client3/rdock/2013.1/src/exe/rbdock.cxx#4 $)

>  <Rbt.Library>
libRbt.so (2013.1, Build901 2013/11/27)

>  <Rbt.Parameter_File>
/export/apps/rDock/src/rDock_2013.1_src/data/scripts/dock_solv.prm

>  <Rbt.Receptor>
prm/pocket_docking_4.prm

>  <SCORE>
-10.0577

>  <SCORE.INTER>
-10.0577

>  <SCORE.INTER.CONST>
1

>  <SCORE.INTER.POLAR>
0

>  <SCORE.INTER.ROT>
0

>  <SCORE.INTER.SOLV>
15.8161

>  <SCORE.INTER.VDW>
-15.5771

>  <SCORE.INTER.norm>
-0.914333

>  <SCORE.INTRA>
0

>  <SCORE.INTRA.DIHEDRAL>
0

>  <SCORE.INTRA.DIHEDRAL.0>
0

>  <SCORE.INTRA.POLAR>
0

>  <SCORE.INTRA.POLAR.0>
0

>  <SCORE.INTRA.REPUL>
0

>  <SCORE.INTRA.REPUL.0>
0

>  <SCORE.INTRA.SOLV>
0

>  <SCORE.INTRA.SOLV.lig_0>
-48.9558

>  <SCORE.INTRA.VDW>
0

>  <SCORE.INTRA.VDW.0>
0

>  <SCORE.INTRA.norm>
0

>  <SCORE.RESTR>
0

>  <SCORE.RESTR.CAVITY>
0

>  <SCORE.RESTR.norm>
0

>  <SCORE.SYSTEM>
0

>  <SCORE.SYSTEM.CONST>
0

>  <SCORE.SYSTEM.DIHEDRAL>
0

>  <SCORE.SYSTEM.SOLV>
0

>  <SCORE.SYSTEM.norm>
0

>  <SCORE.heavy>
11

>  <SCORE.norm>
-0.914333

>  <RMSD>
3.778

$$$$
ligand
 OpenBabel11021811493D
libRbt.so/2013.1/901 2013/11/27
 11 12  0  0  0  0  0  0  0  0999 V2000
   11.7193   10.7176    6.3814 N   0  0  0  0  0  0  0  0  0  0  0  0
   12.2970    9.9640    7.3308 C   0  0  0  0  0  0  0  0  0  0  0  0
   12.7774    8.7092    6.9957 N   0  0  0  0  0  0  0  0  0  0  0  0
   12.4185   10.4003    8.5951 N   0  0  0  0  0  0  0  0  0  0  0  0
   11.9600   11.6217    8.9554 C   0  0  0  0  0  0  0  0  0  0  0  0
   11.3434   12.4520    7.9855 C   0  0  0  0  0  0  0  0  0  0  0  0
   11.2350   11.9471    6.6556 C   0  0  0  0  0  0  0  0  0  0  0  0
   10.6459   12.6992    5.6570 N   0  0  0  0  0  0  0  0  0  0  0  0
   10.9818   13.5989    8.6117 N   0  0  0  0  0  0  0  0  0  0  0  0
   11.3255   13.5328    9.8670 C   0  0  0  0  0  0  0  0  0  0  0  0
   11.9318   12.3345   10.1265 N   0  0  0  0  0  0  0  0  0  0  0  0
  1  7  2  0  0  0  0
  1  2  1  0  0  0  0
  2  3  1  0  0  0  0
  2  4  2  0  0  0  0
  4  5  1  0  0  0  0
  5  6  2  0  0  0  0
  5 11  1  0  0  0  0
  6  7  1  0  0  0  0
  6  9  1  0  0  0  0
  7  8  1  0  0  0  0
  9 10  1  0  0  0  0
 10 11  2  0  0  0  0
M  END
>  <CHROM.1>
11.69843766,11.61566884,7.90750553,1.07065149,1.09489095,-2.07933776

>  <Name>
ligand

>  <RI>
0

>  <Rbt.Current_Directory>
/home/itssahil/PROJECTS/Mol_Feturizer/New_Systems/rnas/4FEP

>  <Rbt.Executable>
rbdock ($Id: //depot/dev/client3/rdock/2013.1/src/exe/rbdock.cxx#4 $)

>  <Rbt.Library>
libRbt.so (2013.1, Build901 2013/11/27)

>  <Rbt.Parameter_File>
/export/apps/rDock/src/rDock_2013.1_src/data/scripts/dock_solv.prm

>  <Rbt.Receptor>
prm/pocket_docking_6.prm

>  <SCORE>
-10.0985

>  <SCORE.INTER>
-10.0985

>  <SCORE.INTER.CONST>
1

>  <SCORE.INTER.POLAR>
0

>  <SCORE.INTER.ROT>
0

>  <SCORE.INTER.SOLV>
15.9905

>  <SCORE.INTER.VDW>
-15.6625

>  <SCORE.INTER.norm>
-0.918048

>  <SCORE.INTRA>
0

>  <SCORE.INTRA.DIHEDRAL>
0

>  <SCORE.INTRA.DIHEDRAL.0>
0

>  <SCORE.INTRA.POLAR>
0

>  <SCORE.INTRA.POLAR.0>
0

>  <SCORE.INTRA.REPUL>
0

>  <SCORE.INTRA.REPUL.0>
0

>  <SCORE.INTRA.SOLV>
0

>  <SCORE.INTRA.SOLV.lig_0>
-48.9558

>  <SCORE.INTRA.VDW>
0

>  <SCORE.INTRA.VDW.0>
0

>  <SCORE.INTRA.norm>
0

>  <SCORE.RESTR>
0

>  <SCORE.RESTR.CAVITY>
0

>  <SCORE.RESTR.norm>
0

>  <SCORE.SYSTEM>
0

>  <SCORE.SYSTEM.CONST>
0

>  <SCORE.SYSTEM.DIHEDRAL>
0

>  <SCORE.SYSTEM.SOLV>
0

>  <SCORE.SYSTEM.norm>
0

>  <SCORE.heavy>
11

>  <SCORE.norm>
-0.918048

>  <RMSD>
3.779

$$$$
ligand
 OpenBabel11021811493D
libRbt.so/2013.1/901 2013/11/27
 11 12  0  0  0  0  0  0  0  0999 V2000
   11.7242   10.6805    6.3645 N   0  0  0  0  0  0  0  0  0  0  0  0
   12.3169    9.9378    7.3132 C   0  0  0  0  0  0  0  0  0  0  0  0
   12.8176    8.6909    6.9783 N   0  0  0  0  0  0  0  0  0  0  0  0
   12.4341   10.3774    8.5769 N   0  0  0  0  0  0  0  0  0  0  0  0
   11.9558   11.5912    8.9370 C   0  0  0  0  0  0  0  0  0  0  0  0
   11.3229   12.4099    7.9677 C   0  0  0  0  0  0  0  0  0  0  0  0
   11.2198   11.9019    6.6386 C   0  0  0  0  0  0  0  0  0  0  0  0
   10.6157   12.6428    5.6407 N   0  0  0  0  0  0  0  0  0  0  0  0
   10.9434   13.5513    8.5937 N   0  0  0  0  0  0  0  0  0  0  0  0
   11.2912   13.4923    9.8481 C   0  0  0  0  0  0  0  0  0  0  0  0
   11.9184   12.3047   10.1074 N   0  0  0  0  0  0  0  0  0  0  0  0
  1  7  2  0  0  0  0
  1  2  1  0  0  0  0
  2  3  1  0  0  0  0
  2  4  2  0  0  0  0
  4  5  1  0  0  0  0
  5  6  2  0  0  0  0
  5 11  1  0  0  0  0
  6  7  1  0  0  0  0
  6  9  1  0  0  0  0
  7  8  1  0  0  0  0
  9 10  1  0  0  0  0
 10 11  2  0  0  0  0
M  END
>  <CHROM.1>
11.69185467,11.57964846,7.88972228,1.05768748,1.07889318,-2.06891097

>  <Name>
ligand

>  <RI>
0

>  <Rbt.Current_Directory>
/home/itssahil/PROJECTS/Mol_Feturizer/New_Systems/rnas/4FEP

>  <Rbt.Executable>
rbdock ($Id: //depot/dev/client3/rdock/2013.1/src/exe/rbdock.cxx#4 $)

>  <Rbt.Library>
libRbt.so (2013.1, Build901 2013/11/27)

>  <Rbt.Parameter_File>
/export/apps/rDock/src/rDock_2013.1_src/data/scripts/dock_solv.prm

>  <Rbt.Receptor>
prm/pocket_docking_8.prm

>  <SCORE>
-10.1063

>  <SCORE.INTER>
-10.1063

>  <SCORE.INTER.CONST>
1

>  <SCORE.INTER.POLAR>
0

>  <SCORE.INTER.ROT>
0

>  <SCORE.INTER.SOLV>
15.8872

>  <SCORE.INTER.VDW>
-15.6333

>  <SCORE.INTER.norm>
-0.918753

>  <SCORE.INTRA>
0

>  <SCORE.INTRA.DIHEDRAL>
0

>  <SCORE.INTRA.DIHEDRAL.0>
0

>  <SCORE.INTRA.POLAR>
0

>  <SCORE.INTRA.POLAR.0>
0

>  <SCORE.INTRA.REPUL>
0

>  <SCORE.INTRA.REPUL.0>
0

>  <SCORE.INTRA.SOLV>
0

>  <SCORE.INTRA.SOLV.lig_0>
-48.9558

>  <SCORE.INTRA.VDW>
0

>  <SCORE.INTRA.VDW.0>
0

>  <SCORE.INTRA.norm>
0

>  <SCORE.RESTR>
0

>  <SCORE.RESTR.CAVITY>
0

>  <SCORE.RESTR.norm>
0

>  <SCORE.SYSTEM>
0

>  <SCORE.SYSTEM.CONST>
0

>  <SCORE.SYSTEM.DIHEDRAL>
0

>  <SCORE.SYSTEM.SOLV>
0

>  <SCORE.SYSTEM.norm>
0

>  <SCORE.heavy>
11

>  <SCORE.norm>
-0.918753

>  <RMSD>
3.779

$$$$
ligand
 OpenBabel11021811493D
libRbt.so/2013.1/901 2013/11/27
 11 12  0  0  0  0  0  0  0  0999 V2000
   11.7338   10.6720    6.3822 N   0  0  0  0  0  0  0  0  0  0  0  0
   12.3297    9.9327    7.3315 C   0  0  0  0  0  0  0  0  0  0  0  0
   12.8330    8.6863    6.9984 N   0  0  0  0  0  0  0  0  0  0  0  0
   12.4477   10.3751    8.5941 N   0  0  0  0  0  0  0  0  0  0  0  0
   11.9670   11.5885    8.9525 C   0  0  0  0  0  0  0  0  0  0  0  0
   11.3306   12.4037    7.9825 C   0  0  0  0  0  0  0  0  0  0  0  0
   11.2268   11.8927    6.6545 C   0  0  0  0  0  0  0  0  0  0  0  0
   10.6194   12.6301    5.6560 N   0  0  0  0  0  0  0  0  0  0  0  0
   10.9492   13.5453    8.6067 N   0  0  0  0  0  0  0  0  0  0  0  0
   11.2990   13.4898    9.8607 C   0  0  0  0  0  0  0  0  0  0  0  0
   11.9295   12.3043   10.1214 N   0  0  0  0  0  0  0  0  0  0  0  0
  1  7  2  0  0  0  0
  1  2  1  0  0  0  0
  2  3  1  0  0  0  0
  2  4  2  0  0  0  0
  4  5  1  0  0  0  0
  5  6  2  0  0  0  0
  5 11  1  0  0  0  0
  6  7  1  0  0  0  0
  6  9  1  0  0  0  0
  7  8  1  0  0  0  0
  9 10  1  0  0  0  0
 10 11  2  0  0  0  0
M  END
>  <CHROM.1>
11.70147510,11.57415602,7.90561295,1.05793761,1.07602207,-2.07116298

>  <Name>
ligand

>  <RI>
0

>  <Rbt.Current_Directory>
/home/itssahil/PROJECTS/Mol_Feturizer/New_Systems/rnas/4FEP

>  <Rbt.Executable>
rbdock ($Id: //depot/dev/client3/rdock/2013.1/src/exe/rbdock.cxx#4 $)

>  <Rbt.Library>
libRbt.so (2013.1, Build901 2013/11/27)

>  <Rbt.Parameter_File>
/export/apps/rDock/src/rDock_2013.1_src/data/scripts/dock_solv.prm

>  <Rbt.Receptor>
prm/blind_docking_100.prm

>  <SCORE>
-10.0877

>  <SCORE.INTER>
-10.0877

>  <SCORE.INTER.CONST>
1

>  <SCORE.INTER.POLAR>
0

>  <SCORE.INTER.ROT>
0

>  <SCORE.INTER.SOLV>
15.7595

>  <SCORE.INTER.VDW>
-15.5783

>  <SCORE.INTER.norm>
-0.917068

>  <SCORE.INTRA>
0

>  <SCORE.INTRA.DIHEDRAL>
0

>  <SCORE.INTRA.DIHEDRAL.0>
0

>  <SCORE.INTRA.POLAR>
0

>  <SCORE.INTRA.POLAR.0>
0

>  <SCORE.INTRA.REPUL>
0

>  <SCORE.INTRA.REPUL.0>
0

>  <SCORE.INTRA.SOLV>
0

>  <SCORE.INTRA.SOLV.lig_0>
-48.9558

>  <SCORE.INTRA.VDW>
0

>  <SCORE.INTRA.VDW.0>
0

>  <SCORE.INTRA.norm>
0

>  <SCORE.RESTR>
0

>  <SCORE.RESTR.CAVITY>
0

>  <SCORE.RESTR.norm>
0

>  <SCORE.SYSTEM>
0

>  <SCORE.SYSTEM.CONST>
0

>  <SCORE.SYSTEM.DIHEDRAL>
0

>  <SCORE.SYSTEM.SOLV>
0

>  <SCORE.SYSTEM.norm>
0

>  <SCORE.heavy>
11

>  <SCORE.norm>
-0.917068

>  <RMSD>
3.780

$$$$
ligand
 OpenBabel11021811493D
libRbt.so/2013.1/901 2013/11/27
 11 12  0  0  0  0  0  0  0  0999 V2000
   11.7544   10.7209    6.3450 N   0  0  0  0  0  0  0  0  0  0  0  0
   12.3383    9.9702    7.2928 C   0  0  0  0  0  0  0  0  0  0  0  0
   12.8560    8.7328    6.9487 N   0  0  0  0  0  0  0  0  0  0  0  0
   12.4308   10.3928    8.5643 N   0  0  0  0  0  0  0  0  0  0  0  0
   11.9355   11.5970    8.9335 C   0  0  0  0  0  0  0  0  0  0  0  0
   11.3109   12.4236    7.9656 C   0  0  0  0  0  0  0  0  0  0  0  0
   11.2342   11.9336    6.6279 C   0  0  0  0  0  0  0  0  0  0  0  0
   10.6396   12.6832    5.6308 N   0  0  0  0  0  0  0  0  0  0  0  0
   10.9107   13.5525    8.6012 N   0  0  0  0  0  0  0  0  0  0  0  0
   11.2385   13.4788    9.8603 C   0  0  0  0  0  0  0  0  0  0  0  0
   11.8723   12.2935   10.1131 N   0  0  0  0  0  0  0  0  0  0  0  0
  1  7  2  0  0  0  0
  1  2  1  0  0  0  0
  2  3  1  0  0  0  0
  2  4  2  0  0  0  0
  4  5  1  0  0  0  0
  5  6  2  0  0  0  0
  5 11  1  0  0  0  0
  6  7  1  0  0  0  0
  6  9  1  0  0  0  0
  7  8  1  0  0  0  0
  9 10  1  0  0  0  0
 10 11  2  0  0  0  0
M  END
>  <CHROM.1>
11.68874998,11.59795117,7.88202592,1.01798614,1.07821006,-2.01977791

>  <Name>
ligand

>  <RI>
0

>  <Rbt.Current_Directory>
/home/itssahil/PROJECTS/Mol_Feturizer/New_Systems/rnas/4FEP

>  <Rbt.Executable>
rbdock ($Id: //depot/dev/client3/rdock/2013.1/src/exe/rbdock.cxx#4 $)

>  <Rbt.Library>
libRbt.so (2013.1, Build901 2013/11/27)

>  <Rbt.Parameter_File>
/export/apps/rDock/src/rDock_2013.1_src/data/scripts/dock_solv.prm

>  <Rbt.Receptor>
prm/pocket_docking_5.prm

>  <SCORE>
-10.0237

>  <SCORE.INTER>
-10.0237

>  <SCORE.INTER.CONST>
1

>  <SCORE.INTER.POLAR>
0

>  <SCORE.INTER.ROT>
0

>  <SCORE.INTER.SOLV>
15.8177

>  <SCORE.INTER.VDW>
-15.5551

>  <SCORE.INTER.norm>
-0.91125

>  <SCORE.INTRA>
0

>  <SCORE.INTRA.DIHEDRAL>
0

>  <SCORE.INTRA.DIHEDRAL.0>
0

>  <SCORE.INTRA.POLAR>
0

>  <SCORE.INTRA.POLAR.0>
0

>  <SCORE.INTRA.REPUL>
0

>  <SCORE.INTRA.REPUL.0>
0

>  <SCORE.INTRA.SOLV>
0

>  <SCORE.INTRA.SOLV.lig_0>
-48.9558

>  <SCORE.INTRA.VDW>
0

>  <SCORE.INTRA.VDW.0>
0

>  <SCORE.INTRA.norm>
0

>  <SCORE.RESTR>
0

>  <SCORE.RESTR.CAVITY>
0

>  <SCORE.RESTR.norm>
0

>  <SCORE.SYSTEM>
0

>  <SCORE.SYSTEM.CONST>
0

>  <SCORE.SYSTEM.DIHEDRAL>
0

>  <SCORE.SYSTEM.SOLV>
0

>  <SCORE.SYSTEM.norm>
0

>  <SCORE.heavy>
11

>  <SCORE.norm>
-0.91125

>  <RMSD>
3.780

$$$$
ligand
 OpenBabel11021811493D
libRbt.so/2013.1/901 2013/11/27
 11 12  0  0  0  0  0  0  0  0999 V2000
   11.7121   10.6801    6.3973 N   0  0  0  0  0  0  0  0  0  0  0  0
   12.2886    9.9289    7.3493 C   0  0  0  0  0  0  0  0  0  0  0  0
   12.7532    8.6661    7.0222 N   0  0  0  0  0  0  0  0  0  0  0  0
   12.4239   10.3752    8.6088 N   0  0  0  0  0  0  0  0  0  0  0  0
   11.9810   11.6046    8.9613 C   0  0  0  0  0  0  0  0  0  0  0  0
   11.3662   12.4327    7.9884 C   0  0  0  0  0  0  0  0  0  0  0  0
   11.2428   11.9171    6.6638 C   0  0  0  0  0  0  0  0  0  0  0  0
   10.6546   12.6665    5.6627 N   0  0  0  0  0  0  0  0  0  0  0  0
   11.0213   13.5890    8.6068 N   0  0  0  0  0  0  0  0  0  0  0  0
   11.3733   13.5304    9.8601 C   0  0  0  0  0  0  0  0  0  0  0  0
   11.9687   12.3281   10.1260 N   0  0  0  0  0  0  0  0  0  0  0  0
  1  7  2  0  0  0  0
  1  2  1  0  0  0  0
  2  3  1  0  0  0  0
  2  4  2  0  0  0  0
  4  5  1  0  0  0  0
  5  6  2  0  0  0  0
  5 11  1  0  0  0  0
  6  7  1  0  0  0  0
  6  9  1  0  0  0  0
  7  8  1  0  0  0  0
  9 10  1  0  0  0  0
 10 11  2  0  0  0  0
M  END
>  <CHROM.1>
11.71177421,11.59195926,7.91537866,1.09596755,1.10050525,-2.11086484

>  <Name>
ligand

>  <RI>
0

>  <Rbt.Current_Directory>
/home/itssahil/PROJECTS/Mol_Feturizer/New_Systems/rnas/4FEP

>  <Rbt.Executable>
rbdock ($Id: //depot/dev/client3/rdock/2013.1/src/exe/rbdock.cxx#4 $)

>  <Rbt.Library>
libRbt.so (2013.1, Build901 2013/11/27)

>  <Rbt.Parameter_File>
/export/apps/rDock/src/rDock_2013.1_src/data/scripts/dock_solv.prm

>  <Rbt.Receptor>
prm/pocket_docking_7.prm

>  <SCORE>
-10.0341

>  <SCORE.INTER>
-10.0341

>  <SCORE.INTER.CONST>
1

>  <SCORE.INTER.POLAR>
0

>  <SCORE.INTER.ROT>
0

>  <SCORE.INTER.SOLV>
16.1146

>  <SCORE.INTER.VDW>
-15.6609

>  <SCORE.INTER.norm>
-0.912191

>  <SCORE.INTRA>
0

>  <SCORE.INTRA.DIHEDRAL>
0

>  <SCORE.INTRA.DIHEDRAL.0>
0

>  <SCORE.INTRA.POLAR>
0

>  <SCORE.INTRA.POLAR.0>
0

>  <SCORE.INTRA.REPUL>
0

>  <SCORE.INTRA.REPUL.0>
0

>  <SCORE.INTRA.SOLV>
0

>  <SCORE.INTRA.SOLV.lig_0>
-48.9558

>  <SCORE.INTRA.VDW>
0

>  <SCORE.INTRA.VDW.0>
0

>  <SCORE.INTRA.norm>
0

>  <SCORE.RESTR>
0

>  <SCORE.RESTR.CAVITY>
0

>  <SCORE.RESTR.norm>
0

>  <SCORE.SYSTEM>
0

>  <SCORE.SYSTEM.CONST>
0

>  <SCORE.SYSTEM.DIHEDRAL>
0

>  <SCORE.SYSTEM.SOLV>
0

>  <SCORE.SYSTEM.norm>
0

>  <SCORE.heavy>
11

>  <SCORE.norm>
-0.912191

>  <RMSD>
3.780

$$$$
ligand
 OpenBabel11021811493D
libRbt.so/2013.1/901 2013/11/27
 11 12  0  0  0  0  0  0  0  0999 V2000
   11.7083   10.6709    6.3700 N   0  0  0  0  0  0  0  0  0  0  0  0
   12.2974    9.9262    7.3194 C   0  0  0  0  0  0  0  0  0  0  0  0
   12.7905    8.6759    6.9859 N   0  0  0  0  0  0  0  0  0  0  0  0
   12.4181   10.3670    8.5823 N   0  0  0  0  0  0  0  0  0  0  0  0
   11.9472   11.5842    8.9409 C   0  0  0  0  0  0  0  0  0  0  0  0
   11.3184   12.4051    7.9709 C   0  0  0  0  0  0  0  0  0  0  0  0
   11.2112   11.8957    6.6426 C   0  0  0  0  0  0  0  0  0  0  0  0
   10.6107   12.6386    5.6441 N   0  0  0  0  0  0  0  0  0  0  0  0
   10.9460   13.5496    8.5954 N   0  0  0  0  0  0  0  0  0  0  0  0
   11.2945   13.4904    9.8497 C   0  0  0  0  0  0  0  0  0  0  0  0
   11.9148   12.2997   10.1102 N   0  0  0  0  0  0  0  0  0  0  0  0
  1  7  2  0  0  0  0
  1  2  1  0  0  0  0
  2  3  1  0  0  0  0
  2  4  2  0  0  0  0
  4  5  1  0  0  0  0
  5  6  2  0  0  0  0
  5 11  1  0  0  0  0
  6  7  1  0  0  0  0
  6  9  1  0  0  0  0
  7  8  1  0  0  0  0
  9 10  1  0  0  0  0
 10 11  2  0  0  0  0
M  END
>  <CHROM.1>
11.68236171,11.57257267,7.89389113,1.06511365,1.08363611,-2.07697027

>  <Name>
ligand

>  <RI>
0

>  <Rbt.Current_Directory>
/home/itssahil/PROJECTS/Mol_Feturizer/New_Systems/rnas/4FEP

>  <Rbt.Executable>
rbdock ($Id: //depot/dev/client3/rdock/2013.1/src/exe/rbdock.cxx#4 $)

>  <Rbt.Library>
libRbt.so (2013.1, Build901 2013/11/27)

>  <Rbt.Parameter_File>
/export/apps/rDock/src/rDock_2013.1_src/data/scripts/dock_solv.prm

>  <Rbt.Receptor>
prm/pocket_docking_8.prm

>  <SCORE>
-10.064

>  <SCORE.INTER>
-10.064

>  <SCORE.INTER.CONST>
1

>  <SCORE.INTER.POLAR>
0

>  <SCORE.INTER.ROT>
0

>  <SCORE.INTER.SOLV>
15.979

>  <SCORE.INTER.VDW>
-15.6357

>  <SCORE.INTER.norm>
-0.914913

>  <SCORE.INTRA>
0

>  <SCORE.INTRA.DIHEDRAL>
0

>  <SCORE.INTRA.DIHEDRAL.0>
0

>  <SCORE.INTRA.POLAR>
0

>  <SCORE.INTRA.POLAR.0>
0

>  <SCORE.INTRA.REPUL>
0

>  <SCORE.INTRA.REPUL.0>
0

>  <SCORE.INTRA.SOLV>
0

>  <SCORE.INTRA.SOLV.lig_0>
-48.9558

>  <SCORE.INTRA.VDW>
0

>  <SCORE.INTRA.VDW.0>
0

>  <SCORE.INTRA.norm>
0

>  <SCORE.RESTR>
0

>  <SCORE.RESTR.CAVITY>
0

>  <SCORE.RESTR.norm>
0

>  <SCORE.SYSTEM>
0

>  <SCORE.SYSTEM.CONST>
0

>  <SCORE.SYSTEM.DIHEDRAL>
0

>  <SCORE.SYSTEM.SOLV>
0

>  <SCORE.SYSTEM.norm>
0

>  <SCORE.heavy>
11

>  <SCORE.norm>
-0.914913

>  <RMSD>
3.780

$$$$
ligand
 OpenBabel11021811493D
libRbt.so/2013.1/901 2013/11/27
 11 12  0  0  0  0  0  0  0  0999 V2000
   11.6971   10.7118    6.3752 N   0  0  0  0  0  0  0  0  0  0  0  0
   12.2783    9.9561    7.3207 C   0  0  0  0  0  0  0  0  0  0  0  0
   12.7524    8.6998    6.9824 N   0  0  0  0  0  0  0  0  0  0  0  0
   12.4093   10.3917    8.5844 N   0  0  0  0  0  0  0  0  0  0  0  0
   11.9572   11.6145    8.9478 C   0  0  0  0  0  0  0  0  0  0  0  0
   11.3371   12.4470    7.9821 C   0  0  0  0  0  0  0  0  0  0  0  0
   11.2185   11.9428    6.6527 C   0  0  0  0  0  0  0  0  0  0  0  0
   10.6256   12.6970    5.6581 N   0  0  0  0  0  0  0  0  0  0  0  0
   10.9833   13.5950    8.6108 N   0  0  0  0  0  0  0  0  0  0  0  0
   11.3347   13.5274    9.8638 C   0  0  0  0  0  0  0  0  0  0  0  0
   11.9387   12.3271   10.1192 N   0  0  0  0  0  0  0  0  0  0  0  0
  1  7  2  0  0  0  0
  1  2  1  0  0  0  0
  2  3  1  0  0  0  0
  2  4  2  0  0  0  0
  4  5  1  0  0  0  0
  5  6  2  0  0  0  0
  5 11  1  0  0  0  0
  6  7  1  0  0  0  0
  6  9  1  0  0  0  0
  7  8  1  0  0  0  0
  9 10  1  0  0  0  0
 10 11  2  0  0  0  0
M  END
>  <CHROM.1>
11.68887845,11.60954131,7.90161899,1.08631642,1.09460242,-2.09305145

>  <Name>
ligand

>  <RI>
0

>  <Rbt.Current_Directory>
/home/itssahil/PROJECTS/Mol_Feturizer/New_Systems/rnas/4FEP

>  <Rbt.Executable>
rbdock ($Id: //depot/dev/client3/rdock/2013.1/src/exe/rbdock.cxx#4 $)

>  <Rbt.Library>
libRbt.so (2013.1, Build901 2013/11/27)

>  <Rbt.Parameter_File>
/export/apps/rDock/src/rDock_2013.1_src/data/scripts/dock_solv.prm

>  <Rbt.Receptor>
prm/pocket_docking_3.prm

>  <SCORE>
-10.0998

>  <SCORE.INTER>
-10.0998

>  <SCORE.INTER.CONST>
1

>  <SCORE.INTER.POLAR>
0

>  <SCORE.INTER.ROT>
0

>  <SCORE.INTER.SOLV>
16.0724

>  <SCORE.INTER.VDW>
-15.6907

>  <SCORE.INTER.norm>
-0.918163

>  <SCORE.INTRA>
0

>  <SCORE.INTRA.DIHEDRAL>
0

>  <SCORE.INTRA.DIHEDRAL.0>
0

>  <SCORE.INTRA.POLAR>
0

>  <SCORE.INTRA.POLAR.0>
0

>  <SCORE.INTRA.REPUL>
0

>  <SCORE.INTRA.REPUL.0>
0

>  <SCORE.INTRA.SOLV>
0

>  <SCORE.INTRA.SOLV.lig_0>
-48.9558

>  <SCORE.INTRA.VDW>
0

>  <SCORE.INTRA.VDW.0>
0

>  <SCORE.INTRA.norm>
0

>  <SCORE.RESTR>
0

>  <SCORE.RESTR.CAVITY>
0

>  <SCORE.RESTR.norm>
0

>  <SCORE.SYSTEM>
0

>  <SCORE.SYSTEM.CONST>
0

>  <SCORE.SYSTEM.DIHEDRAL>
0

>  <SCORE.SYSTEM.SOLV>
0

>  <SCORE.SYSTEM.norm>
0

>  <SCORE.heavy>
11

>  <SCORE.norm>
-0.918163

>  <RMSD>
3.781

$$$$
ligand
 OpenBabel11021811493D
libRbt.so/2013.1/901 2013/11/27
 11 12  0  0  0  0  0  0  0  0999 V2000
   11.7283   10.6699    6.3762 N   0  0  0  0  0  0  0  0  0  0  0  0
   12.3181    9.9255    7.3253 C   0  0  0  0  0  0  0  0  0  0  0  0
   12.8175    8.6781    6.9903 N   0  0  0  0  0  0  0  0  0  0  0  0
   12.4336   10.3638    8.5896 N   0  0  0  0  0  0  0  0  0  0  0  0
   11.9565   11.5781    8.9499 C   0  0  0  0  0  0  0  0  0  0  0  0
   11.3267   12.3985    7.9802 C   0  0  0  0  0  0  0  0  0  0  0  0
   11.2252   11.8918    6.6504 C   0  0  0  0  0  0  0  0  0  0  0  0
   10.6241   12.6345    5.6520 N   0  0  0  0  0  0  0  0  0  0  0  0
   10.9477   13.5399    8.6064 N   0  0  0  0  0  0  0  0  0  0  0  0
   11.2931   13.4793    9.8614 C   0  0  0  0  0  0  0  0  0  0  0  0
   11.9180   12.2906   10.1208 N   0  0  0  0  0  0  0  0  0  0  0  0
  1  7  2  0  0  0  0
  1  2  1  0  0  0  0
  2  3  1  0  0  0  0
  2  4  2  0  0  0  0
  4  5  1  0  0  0  0
  5  6  2  0  0  0  0
  5 11  1  0  0  0  0
  6  7  1  0  0  0  0
  6  9  1  0  0  0  0
  7  8  1  0  0  0  0
  9 10  1  0  0  0  0
 10 11  2  0  0  0  0
M  END
>  <CHROM.1>
11.69447352,11.56779708,7.90211425,1.05576478,1.08110570,-2.06635333

>  <Name>
ligand

>  <RI>
0

>  <Rbt.Current_Directory>
/home/itssahil/PROJECTS/Mol_Feturizer/New_Systems/rnas/4FEP

>  <Rbt.Executable>
rbdock ($Id: //depot/dev/client3/rdock/2013.1/src/exe/rbdock.cxx#4 $)

>  <Rbt.Library>
libRbt.so (2013.1, Build901 2013/11/27)

>  <Rbt.Parameter_File>
/export/apps/rDock/src/rDock_2013.1_src/data/scripts/dock_solv.prm

>  <Rbt.Receptor>
prm/pocket_docking_3.prm

>  <SCORE>
-10.0693

>  <SCORE.INTER>
-10.0693

>  <SCORE.INTER.CONST>
1

>  <SCORE.INTER.POLAR>
0

>  <SCORE.INTER.ROT>
0

>  <SCORE.INTER.SOLV>
15.8572

>  <SCORE.INTER.VDW>
-15.5986

>  <SCORE.INTER.norm>
-0.915388

>  <SCORE.INTRA>
0

>  <SCORE.INTRA.DIHEDRAL>
0

>  <SCORE.INTRA.DIHEDRAL.0>
0

>  <SCORE.INTRA.POLAR>
0

>  <SCORE.INTRA.POLAR.0>
0

>  <SCORE.INTRA.REPUL>
0

>  <SCORE.INTRA.REPUL.0>
0

>  <SCORE.INTRA.SOLV>
0

>  <SCORE.INTRA.SOLV.lig_0>
-48.9558

>  <SCORE.INTRA.VDW>
0

>  <SCORE.INTRA.VDW.0>
0

>  <SCORE.INTRA.norm>
0

>  <SCORE.RESTR>
0

>  <SCORE.RESTR.CAVITY>
0

>  <SCORE.RESTR.norm>
0

>  <SCORE.SYSTEM>
0

>  <SCORE.SYSTEM.CONST>
0

>  <SCORE.SYSTEM.DIHEDRAL>
0

>  <SCORE.SYSTEM.SOLV>
0

>  <SCORE.SYSTEM.norm>
0

>  <SCORE.heavy>
11

>  <SCORE.norm>
-0.915388

>  <RMSD>
3.782

$$$$
ligand
 OpenBabel11021811493D
libRbt.so/2013.1/901 2013/11/27
 11 12  0  0  0  0  0  0  0  0999 V2000
   11.7071   10.7030    6.3523 N   0  0  0  0  0  0  0  0  0  0  0  0
   12.2878    9.9461    7.2972 C   0  0  0  0  0  0  0  0  0  0  0  0
   12.7740    8.6956    6.9545 N   0  0  0  0  0  0  0  0  0  0  0  0
   12.4067   10.3749    8.5644 N   0  0  0  0  0  0  0  0  0  0  0  0
   11.9425   11.5919    8.9321 C   0  0  0  0  0  0  0  0  0  0  0  0
   11.3226   12.4255    7.9671 C   0  0  0  0  0  0  0  0  0  0  0  0
   11.2170   11.9285    6.6340 C   0  0  0  0  0  0  0  0  0  0  0  0
   10.6250   12.6842    5.6398 N   0  0  0  0  0  0  0  0  0  0  0  0
   10.9554   13.5668    8.6004 N   0  0  0  0  0  0  0  0  0  0  0  0
   11.2988   13.4943    9.8553 C   0  0  0  0  0  0  0  0  0  0  0  0
   11.9104   12.2972   10.1076 N   0  0  0  0  0  0  0  0  0  0  0  0
  1  7  2  0  0  0  0
  1  2  1  0  0  0  0
  2  3  1  0  0  0  0
  2  4  2  0  0  0  0
  4  5  1  0  0  0  0
  5  6  2  0  0  0  0
  5 11  1  0  0  0  0
  6  7  1  0  0  0  0
  6  9  1  0  0  0  0
  7  8  1  0  0  0  0
  9 10  1  0  0  0  0
 10 11  2  0  0  0  0
M  END
>  <CHROM.1>
11.68139052,11.59129386,7.88402033,1.06498598,1.09112690,-2.06802065

>  <Name>
ligand

>  <RI>
0

>  <Rbt.Current_Directory>
/home/itssahil/PROJECTS/Mol_Feturizer/New_Systems/rnas/4FEP

>  <Rbt.Executable>
rbdock ($Id: //depot/dev/client3/rdock/2013.1/src/exe/rbdock.cxx#4 $)

>  <Rbt.Library>
libRbt.so (2013.1, Build901 2013/11/27)

>  <Rbt.Parameter_File>
/export/apps/rDock/src/rDock_2013.1_src/data/scripts/dock_solv.prm

>  <Rbt.Receptor>
prm/blind_docking_60.prm

>  <SCORE>
-10.0722

>  <SCORE.INTER>
-10.0722

>  <SCORE.INTER.CONST>
1

>  <SCORE.INTER.POLAR>
0

>  <SCORE.INTER.ROT>
0

>  <SCORE.INTER.SOLV>
16.0891

>  <SCORE.INTER.VDW>
-15.6778

>  <SCORE.INTER.norm>
-0.91565

>  <SCORE.INTRA>
0

>  <SCORE.INTRA.DIHEDRAL>
0

>  <SCORE.INTRA.DIHEDRAL.0>
0

>  <SCORE.INTRA.POLAR>
0

>  <SCORE.INTRA.POLAR.0>
0

>  <SCORE.INTRA.REPUL>
0

>  <SCORE.INTRA.REPUL.0>
0

>  <SCORE.INTRA.SOLV>
0

>  <SCORE.INTRA.SOLV.lig_0>
-48.9558

>  <SCORE.INTRA.VDW>
0

>  <SCORE.INTRA.VDW.0>
0

>  <SCORE.INTRA.norm>
0

>  <SCORE.RESTR>
0

>  <SCORE.RESTR.CAVITY>
0

>  <SCORE.RESTR.norm>
0

>  <SCORE.SYSTEM>
0

>  <SCORE.SYSTEM.CONST>
0

>  <SCORE.SYSTEM.DIHEDRAL>
0

>  <SCORE.SYSTEM.SOLV>
0

>  <SCORE.SYSTEM.norm>
0

>  <SCORE.heavy>
11

>  <SCORE.norm>
-0.91565

>  <RMSD>
3.784

$$$$
ligand
 OpenBabel11021811493D
libRbt.so/2013.1/901 2013/11/27
 11 12  0  0  0  0  0  0  0  0999 V2000
   11.7066   10.7121    6.3645 N   0  0  0  0  0  0  0  0  0  0  0  0
   12.2927    9.9567    7.3073 C   0  0  0  0  0  0  0  0  0  0  0  0
   12.7776    8.7059    6.9637 N   0  0  0  0  0  0  0  0  0  0  0  0
   12.4182   10.3873    8.5733 N   0  0  0  0  0  0  0  0  0  0  0  0
   11.9554   11.6046    8.9418 C   0  0  0  0  0  0  0  0  0  0  0  0
   11.3299   12.4365    7.9791 C   0  0  0  0  0  0  0  0  0  0  0  0
   11.2175   11.9377    6.6472 C   0  0  0  0  0  0  0  0  0  0  0  0
   10.6198   12.6918    5.6552 N   0  0  0  0  0  0  0  0  0  0  0  0
   10.9657   13.5786    8.6128 N   0  0  0  0  0  0  0  0  0  0  0  0
   11.3158   13.5079    9.8660 C   0  0  0  0  0  0  0  0  0  0  0  0
   11.9293   12.3114   10.1165 N   0  0  0  0  0  0  0  0  0  0  0  0
  1  7  2  0  0  0  0
  1  2  1  0  0  0  0
  2  3  1  0  0  0  0
  2  4  2  0  0  0  0
  4  5  1  0  0  0  0
  5  6  2  0  0  0  0
  5 11  1  0  0  0  0
  6  7  1  0  0  0  0
  6  9  1  0  0  0  0
  7  8  1  0  0  0  0
  9 10  1  0  0  0  0
 10 11  2  0  0  0  0
M  END
>  <CHROM.1>
11.68870270,11.60241141,7.89518630,1.07463263,1.08817661,-2.07789927

>  <Name>
ligand

>  <RI>
0

>  <Rbt.Current_Directory>
/home/itssahil/PROJECTS/Mol_Feturizer/New_Systems/rnas/4FEP

>  <Rbt.Executable>
rbdock ($Id: //depot/dev/client3/rdock/2013.1/src/exe/rbdock.cxx#4 $)

>  <Rbt.Library>
libRbt.so (2013.1, Build901 2013/11/27)

>  <Rbt.Parameter_File>
/export/apps/rDock/src/rDock_2013.1_src/data/scripts/dock_solv.prm

>  <Rbt.Receptor>
prm/pocket_docking_5.prm

>  <SCORE>
-10.0853

>  <SCORE.INTER>
-10.0853

>  <SCORE.INTER.CONST>
1

>  <SCORE.INTER.POLAR>
0

>  <SCORE.INTER.ROT>
0

>  <SCORE.INTER.SOLV>
15.9926

>  <SCORE.INTER.VDW>
-15.6544

>  <SCORE.INTER.norm>
-0.916849

>  <SCORE.INTRA>
0

>  <SCORE.INTRA.DIHEDRAL>
0

>  <SCORE.INTRA.DIHEDRAL.0>
0

>  <SCORE.INTRA.POLAR>
0

>  <SCORE.INTRA.POLAR.0>
0

>  <SCORE.INTRA.REPUL>
0

>  <SCORE.INTRA.REPUL.0>
0

>  <SCORE.INTRA.SOLV>
0

>  <SCORE.INTRA.SOLV.lig_0>
-48.9558

>  <SCORE.INTRA.VDW>
0

>  <SCORE.INTRA.VDW.0>
0

>  <SCORE.INTRA.norm>
0

>  <SCORE.RESTR>
0

>  <SCORE.RESTR.CAVITY>
0

>  <SCORE.RESTR.norm>
0

>  <SCORE.SYSTEM>
0

>  <SCORE.SYSTEM.CONST>
0

>  <SCORE.SYSTEM.DIHEDRAL>
0

>  <SCORE.SYSTEM.SOLV>
0

>  <SCORE.SYSTEM.norm>
0

>  <SCORE.heavy>
11

>  <SCORE.norm>
-0.916849

>  <RMSD>
3.784

$$$$
ligand
 OpenBabel11021811493D
libRbt.so/2013.1/901 2013/11/27
 11 12  0  0  0  0  0  0  0  0999 V2000
   11.7401   10.6836    6.3824 N   0  0  0  0  0  0  0  0  0  0  0  0
   12.3177    9.9307    7.3323 C   0  0  0  0  0  0  0  0  0  0  0  0
   12.8167    8.6842    6.9937 N   0  0  0  0  0  0  0  0  0  0  0  0
   12.4213   10.3599    8.6007 N   0  0  0  0  0  0  0  0  0  0  0  0
   11.9443   11.5731    8.9646 C   0  0  0  0  0  0  0  0  0  0  0  0
   11.3271   12.4023    7.9942 C   0  0  0  0  0  0  0  0  0  0  0  0
   11.2379   11.9052    6.6599 C   0  0  0  0  0  0  0  0  0  0  0  0
   10.6495   12.6568    5.6606 N   0  0  0  0  0  0  0  0  0  0  0  0
   10.9453   13.5405    8.6244 N   0  0  0  0  0  0  0  0  0  0  0  0
   11.2774   13.4700    9.8825 C   0  0  0  0  0  0  0  0  0  0  0  0
   11.8958   12.2775   10.1400 N   0  0  0  0  0  0  0  0  0  0  0  0
  1  7  2  0  0  0  0
  1  2  1  0  0  0  0
  2  3  1  0  0  0  0
  2  4  2  0  0  0  0
  4  5  1  0  0  0  0
  5  6  2  0  0  0  0
  5 11  1  0  0  0  0
  6  7  1  0  0  0  0
  6  9  1  0  0  0  0
  7  8  1  0  0  0  0
  9 10  1  0  0  0  0
 10 11  2  0  0  0  0
M  END
>  <CHROM.1>
11.69315248,11.57096267,7.91412142,1.03921775,1.08872331,-2.04470992

>  <Name>
ligand

>  <RI>
0

>  <Rbt.Current_Directory>
/home/itssahil/PROJECTS/Mol_Feturizer/New_Systems/rnas/4FEP

>  <Rbt.Executable>
rbdock ($Id: //depot/dev/client3/rdock/2013.1/src/exe/rbdock.cxx#4 $)

>  <Rbt.Library>
libRbt.so (2013.1, Build901 2013/11/27)

>  <Rbt.Parameter_File>
/export/apps/rDock/src/rDock_2013.1_src/data/scripts/dock_solv.prm

>  <Rbt.Receptor>
prm/blind_docking_100.prm

>  <SCORE>
-10.0499

>  <SCORE.INTER>
-10.0499

>  <SCORE.INTER.CONST>
1

>  <SCORE.INTER.POLAR>
0

>  <SCORE.INTER.ROT>
0

>  <SCORE.INTER.SOLV>
15.8606

>  <SCORE.INTER.VDW>
-15.5868

>  <SCORE.INTER.norm>
-0.913626

>  <SCORE.INTRA>
0

>  <SCORE.INTRA.DIHEDRAL>
0

>  <SCORE.INTRA.DIHEDRAL.0>
0

>  <SCORE.INTRA.POLAR>
0

>  <SCORE.INTRA.POLAR.0>
0

>  <SCORE.INTRA.REPUL>
0

>  <SCORE.INTRA.REPUL.0>
0

>  <SCORE.INTRA.SOLV>
0

>  <SCORE.INTRA.SOLV.lig_0>
-48.9558

>  <SCORE.INTRA.VDW>
0

>  <SCORE.INTRA.VDW.0>
0

>  <SCORE.INTRA.norm>
0

>  <SCORE.RESTR>
0

>  <SCORE.RESTR.CAVITY>
0

>  <SCORE.RESTR.norm>
0

>  <SCORE.SYSTEM>
0

>  <SCORE.SYSTEM.CONST>
0

>  <SCORE.SYSTEM.DIHEDRAL>
0

>  <SCORE.SYSTEM.SOLV>
0

>  <SCORE.SYSTEM.norm>
0

>  <SCORE.heavy>
11

>  <SCORE.norm>
-0.913626

>  <RMSD>
3.786

$$$$
ligand
 OpenBabel11021811493D
libRbt.so/2013.1/901 2013/11/27
 11 12  0  0  0  0  0  0  0  0999 V2000
   11.7183   10.6884    6.3829 N   0  0  0  0  0  0  0  0  0  0  0  0
   12.2831    9.9278    7.3344 C   0  0  0  0  0  0  0  0  0  0  0  0
   12.7673    8.6751    6.9968 N   0  0  0  0  0  0  0  0  0  0  0  0
   12.3881   10.3550    8.6033 N   0  0  0  0  0  0  0  0  0  0  0  0
   11.9254   11.5741    8.9661 C   0  0  0  0  0  0  0  0  0  0  0  0
   11.3221   12.4115    7.9941 C   0  0  0  0  0  0  0  0  0  0  0  0
   11.2309   11.9162    6.6593 C   0  0  0  0  0  0  0  0  0  0  0  0
   10.6555   12.6756    5.6584 N   0  0  0  0  0  0  0  0  0  0  0  0
   10.9527   13.5542    8.6236 N   0  0  0  0  0  0  0  0  0  0  0  0
   11.2798   13.4790    9.8828 C   0  0  0  0  0  0  0  0  0  0  0  0
   11.8820   12.2786   10.1417 N   0  0  0  0  0  0  0  0  0  0  0  0
  1  7  2  0  0  0  0
  1  2  1  0  0  0  0
  2  3  1  0  0  0  0
  2  4  2  0  0  0  0
  4  5  1  0  0  0  0
  5  6  2  0  0  0  0
  5 11  1  0  0  0  0
  6  7  1  0  0  0  0
  6  9  1  0  0  0  0
  7  8  1  0  0  0  0
  9 10  1  0  0  0  0
 10 11  2  0  0  0  0
M  END
>  <CHROM.1>
11.67769969,11.57560663,7.91486109,1.04563168,1.10159498,-2.04998652

>  <Name>
ligand

>  <RI>
0

>  <Rbt.Current_Directory>
/home/itssahil/PROJECTS/Mol_Feturizer/New_Systems/rnas/4FEP

>  <Rbt.Executable>
rbdock ($Id: //depot/dev/client3/rdock/2013.1/src/exe/rbdock.cxx#4 $)

>  <Rbt.Library>
libRbt.so (2013.1, Build901 2013/11/27)

>  <Rbt.Parameter_File>
/export/apps/rDock/src/rDock_2013.1_src/data/scripts/dock_solv.prm

>  <Rbt.Receptor>
prm/blind_docking_60.prm

>  <SCORE>
-10.0198

>  <SCORE.INTER>
-10.0198

>  <SCORE.INTER.CONST>
1

>  <SCORE.INTER.POLAR>
0

>  <SCORE.INTER.ROT>
0

>  <SCORE.INTER.SOLV>
16.0885

>  <SCORE.INTER.VDW>
-15.6427

>  <SCORE.INTER.norm>
-0.910892

>  <SCORE.INTRA>
0

>  <SCORE.INTRA.DIHEDRAL>
0

>  <SCORE.INTRA.DIHEDRAL.0>
0

>  <SCORE.INTRA.POLAR>
0

>  <SCORE.INTRA.POLAR.0>
0

>  <SCORE.INTRA.REPUL>
0

>  <SCORE.INTRA.REPUL.0>
0

>  <SCORE.INTRA.SOLV>
0

>  <SCORE.INTRA.SOLV.lig_0>
-48.9558

>  <SCORE.INTRA.VDW>
0

>  <SCORE.INTRA.VDW.0>
0

>  <SCORE.INTRA.norm>
0

>  <SCORE.RESTR>
0

>  <SCORE.RESTR.CAVITY>
0

>  <SCORE.RESTR.norm>
0

>  <SCORE.SYSTEM>
0

>  <SCORE.SYSTEM.CONST>
0

>  <SCORE.SYSTEM.DIHEDRAL>
0

>  <SCORE.SYSTEM.SOLV>
0

>  <SCORE.SYSTEM.norm>
0

>  <SCORE.heavy>
11

>  <SCORE.norm>
-0.910892

>  <RMSD>
3.786

$$$$
ligand
 OpenBabel11021811493D
libRbt.so/2013.1/901 2013/11/27
 11 12  0  0  0  0  0  0  0  0999 V2000
   11.6588   10.6969    6.3544 N   0  0  0  0  0  0  0  0  0  0  0  0
   12.2477    9.9387    7.2931 C   0  0  0  0  0  0  0  0  0  0  0  0
   12.7176    8.6827    6.9478 N   0  0  0  0  0  0  0  0  0  0  0  0
   12.3904   10.3714    8.5564 N   0  0  0  0  0  0  0  0  0  0  0  0
   11.9426   11.5939    8.9265 C   0  0  0  0  0  0  0  0  0  0  0  0
   11.3148   12.4290    7.9681 C   0  0  0  0  0  0  0  0  0  0  0  0
   11.1838   11.9278    6.6388 C   0  0  0  0  0  0  0  0  0  0  0  0
   10.5827   12.6847    5.6511 N   0  0  0  0  0  0  0  0  0  0  0  0
   10.9676   13.5760    8.6024 N   0  0  0  0  0  0  0  0  0  0  0  0
   11.3301   13.5054    9.8521 C   0  0  0  0  0  0  0  0  0  0  0  0
   11.9353   12.3040   10.0995 N   0  0  0  0  0  0  0  0  0  0  0  0
  1  7  2  0  0  0  0
  1  2  1  0  0  0  0
  2  3  1  0  0  0  0
  2  4  2  0  0  0  0
  4  5  1  0  0  0  0
  5  6  2  0  0  0  0
  5 11  1  0  0  0  0
  6  7  1  0  0  0  0
  6  9  1  0  0  0  0
  7  8  1  0  0  0  0
  9 10  1  0  0  0  0
 10 11  2  0  0  0  0
M  END
>  <CHROM.1>
11.66498954,11.59141686,7.88271155,1.10404015,1.09089701,-2.10663933

>  <Name>
ligand

>  <RI>
0

>  <Rbt.Current_Directory>
/home/itssahil/PROJECTS/Mol_Feturizer/New_Systems/rnas/4FEP

>  <Rbt.Executable>
rbdock ($Id: //depot/dev/client3/rdock/2013.1/src/exe/rbdock.cxx#4 $)

>  <Rbt.Library>
libRbt.so (2013.1, Build901 2013/11/27)

>  <Rbt.Parameter_File>
/export/apps/rDock/src/rDock_2013.1_src/data/scripts/dock_solv.prm

>  <Rbt.Receptor>
prm/pocket_docking_8.prm

>  <SCORE>
-10.059

>  <SCORE.INTER>
-10.059

>  <SCORE.INTER.CONST>
1

>  <SCORE.INTER.POLAR>
0

>  <SCORE.INTER.ROT>
0

>  <SCORE.INTER.SOLV>
16.2251

>  <SCORE.INTER.VDW>
-15.7144

>  <SCORE.INTER.norm>
-0.914453

>  <SCORE.INTRA>
0

>  <SCORE.INTRA.DIHEDRAL>
0

>  <SCORE.INTRA.DIHEDRAL.0>
0

>  <SCORE.INTRA.POLAR>
0

>  <SCORE.INTRA.POLAR.0>
0

>  <SCORE.INTRA.REPUL>
0

>  <SCORE.INTRA.REPUL.0>
0

>  <SCORE.INTRA.SOLV>
0

>  <SCORE.INTRA.SOLV.lig_0>
-48.9558

>  <SCORE.INTRA.VDW>
0

>  <SCORE.INTRA.VDW.0>
0

>  <SCORE.INTRA.norm>
0

>  <SCORE.RESTR>
0

>  <SCORE.RESTR.CAVITY>
0

>  <SCORE.RESTR.norm>
0

>  <SCORE.SYSTEM>
0

>  <SCORE.SYSTEM.CONST>
0

>  <SCORE.SYSTEM.DIHEDRAL>
0

>  <SCORE.SYSTEM.SOLV>
0

>  <SCORE.SYSTEM.norm>
0

>  <SCORE.heavy>
11

>  <SCORE.norm>
-0.914453

>  <RMSD>
3.786

$$$$
ligand
 OpenBabel11021811493D
libRbt.so/2013.1/901 2013/11/27
 11 12  0  0  0  0  0  0  0  0999 V2000
   14.1908    5.2089    6.9276 N   0  0  0  0  0  0  0  0  0  0  0  0
   13.0080    5.7377    6.5750 C   0  0  0  0  0  0  0  0  0  0  0  0
   11.9143    4.9019    6.4238 N   0  0  0  0  0  0  0  0  0  0  0  0
   12.8636    7.0565    6.3665 N   0  0  0  0  0  0  0  0  0  0  0  0
   13.9122    7.9007    6.5063 C   0  0  0  0  0  0  0  0  0  0  0  0
   15.1801    7.3863    6.8780 C   0  0  0  0  0  0  0  0  0  0  0  0
   15.2872    5.9792    7.0880 C   0  0  0  0  0  0  0  0  0  0  0  0
   16.4908    5.4057    7.4518 N   0  0  0  0  0  0  0  0  0  0  0  0
   16.0355    8.4364    6.9413 N   0  0  0  0  0  0  0  0  0  0  0  0
   15.3970    9.5324    6.6426 C   0  0  0  0  0  0  0  0  0  0  0  0
   14.0865    9.2537    6.3678 N   0  0  0  0  0  0  0  0  0  0  0  0
  1  7  2  0  0  0  0
  1  2  1  0  0  0  0
  2  3  1  0  0  0  0
  2  4  2  0  0  0  0
  4  5  1  0  0  0  0
  5  6  2  0  0  0  0
  5 11  1  0  0  0  0
  6  7  1  0  0  0  0
  6  9  1  0  0  0  0
  7  8  1  0  0  0  0
  9 10  1  0  0  0  0
 10 11  2  0  0  0  0
M  END
>  <CHROM.1>
14.38582083,6.95921846,6.74292173,-2.15827437,-0.23268133,-0.13158693

>  <Name>
ligand

>  <RI>
0

>  <Rbt.Current_Directory>
/home/itssahil/PROJECTS/Mol_Feturizer/New_Systems/rnas/4FEP

>  <Rbt.Executable>
rbdock ($Id: //depot/dev/client3/rdock/2013.1/src/exe/rbdock.cxx#4 $)

>  <Rbt.Library>
libRbt.so (2013.1, Build901 2013/11/27)

>  <Rbt.Parameter_File>
/export/apps/rDock/src/rDock_2013.1_src/data/scripts/dock_solv.prm

>  <Rbt.Receptor>
prm/pocket_docking_8.prm

>  <SCORE>
-6.02252

>  <SCORE.INTER>
-6.02252

>  <SCORE.INTER.CONST>
1

>  <SCORE.INTER.POLAR>
0

>  <SCORE.INTER.ROT>
0

>  <SCORE.INTER.SOLV>
6.74499

>  <SCORE.INTER.VDW>
-9.86334

>  <SCORE.INTER.norm>
-0.547501

>  <SCORE.INTRA>
0

>  <SCORE.INTRA.DIHEDRAL>
0

>  <SCORE.INTRA.DIHEDRAL.0>
0

>  <SCORE.INTRA.POLAR>
0

>  <SCORE.INTRA.POLAR.0>
0

>  <SCORE.INTRA.REPUL>
0

>  <SCORE.INTRA.REPUL.0>
0

>  <SCORE.INTRA.SOLV>
0

>  <SCORE.INTRA.SOLV.lig_0>
-48.9558

>  <SCORE.INTRA.VDW>
0

>  <SCORE.INTRA.VDW.0>
0

>  <SCORE.INTRA.norm>
0

>  <SCORE.RESTR>
0

>  <SCORE.RESTR.CAVITY>
0

>  <SCORE.RESTR.norm>
0

>  <SCORE.SYSTEM>
0

>  <SCORE.SYSTEM.CONST>
0

>  <SCORE.SYSTEM.DIHEDRAL>
0

>  <SCORE.SYSTEM.SOLV>
0

>  <SCORE.SYSTEM.norm>
0

>  <SCORE.heavy>
11

>  <SCORE.norm>
-0.547501

>  <RMSD>
6.558

$$$$
ligand
 OpenBabel11021811493D
libRbt.so/2013.1/901 2013/11/27
 11 12  0  0  0  0  0  0  0  0999 V2000
   14.3664    5.1949    7.1570 N   0  0  0  0  0  0  0  0  0  0  0  0
   13.1868    5.6390    6.6940 C   0  0  0  0  0  0  0  0  0  0  0  0
   12.1430    4.7424    6.5387 N   0  0  0  0  0  0  0  0  0  0  0  0
   12.9984    6.9309    6.3790 N   0  0  0  0  0  0  0  0  0  0  0  0
   13.9977    7.8328    6.5196 C   0  0  0  0  0  0  0  0  0  0  0  0
   15.2602    7.4087    7.0058 C   0  0  0  0  0  0  0  0  0  0  0  0
   15.4152    6.0272    7.3265 C   0  0  0  0  0  0  0  0  0  0  0  0
   16.6167    5.5404    7.8052 N   0  0  0  0  0  0  0  0  0  0  0  0
   16.0627    8.5009    7.0428 N   0  0  0  0  0  0  0  0  0  0  0  0
   15.3974    9.5404    6.6245 C   0  0  0  0  0  0  0  0  0  0  0  0
   14.1209    9.1793    6.2913 N   0  0  0  0  0  0  0  0  0  0  0  0
  1  7  2  0  0  0  0
  1  2  1  0  0  0  0
  2  3  1  0  0  0  0
  2  4  2  0  0  0  0
  4  5  1  0  0  0  0
  5  6  2  0  0  0  0
  5 11  1  0  0  0  0
  6  7  1  0  0  0  0
  6  9  1  0  0  0  0
  7  8  1  0  0  0  0
  9 10  1  0  0  0  0
 10 11  2  0  0  0  0
M  END
>  <CHROM.1>
14.49586486,6.93492398,6.85443890,-2.12153001,-0.30259574,-0.19526425

>  <Name>
ligand

>  <RI>
0

>  <Rbt.Current_Directory>
/home/itssahil/PROJECTS/Mol_Feturizer/New_Systems/rnas/4FEP

>  <Rbt.Executable>
rbdock ($Id: //depot/dev/client3/rdock/2013.1/src/exe/rbdock.cxx#4 $)

>  <Rbt.Library>
libRbt.so (2013.1, Build901 2013/11/27)

>  <Rbt.Parameter_File>
/export/apps/rDock/src/rDock_2013.1_src/data/scripts/dock_solv.prm

>  <Rbt.Receptor>
prm/pocket_docking_7.prm

>  <SCORE>
-6.01366

>  <SCORE.INTER>
-6.01366

>  <SCORE.INTER.CONST>
1

>  <SCORE.INTER.POLAR>
0

>  <SCORE.INTER.ROT>
0

>  <SCORE.INTER.SOLV>
5.99553

>  <SCORE.INTER.VDW>
-9.60762

>  <SCORE.INTER.norm>
-0.546696

>  <SCORE.INTRA>
0

>  <SCORE.INTRA.DIHEDRAL>
0

>  <SCORE.INTRA.DIHEDRAL.0>
0

>  <SCORE.INTRA.POLAR>
0

>  <SCORE.INTRA.POLAR.0>
0

>  <SCORE.INTRA.REPUL>
0

>  <SCORE.INTRA.REPUL.0>
0

>  <SCORE.INTRA.SOLV>
0

>  <SCORE.INTRA.SOLV.lig_0>
-48.9558

>  <SCORE.INTRA.VDW>
0

>  <SCORE.INTRA.VDW.0>
0

>  <SCORE.INTRA.norm>
0

>  <SCORE.RESTR>
0

>  <SCORE.RESTR.CAVITY>
0

>  <SCORE.RESTR.norm>
0

>  <SCORE.SYSTEM>
0

>  <SCORE.SYSTEM.CONST>
0

>  <SCORE.SYSTEM.DIHEDRAL>
0

>  <SCORE.SYSTEM.SOLV>
0

>  <SCORE.SYSTEM.norm>
0

>  <SCORE.heavy>
11

>  <SCORE.norm>
-0.546696

>  <RMSD>
6.611

$$$$
ligand
 OpenBabel11021811493D
libRbt.so/2013.1/901 2013/11/27
 11 12  0  0  0  0  0  0  0  0999 V2000
   13.9831    4.8912    7.0756 N   0  0  0  0  0  0  0  0  0  0  0  0
   12.9822    5.4484    6.3752 C   0  0  0  0  0  0  0  0  0  0  0  0
   11.8779    4.6791    6.0491 N   0  0  0  0  0  0  0  0  0  0  0  0
   13.0292    6.7327    5.9851 N   0  0  0  0  0  0  0  0  0  0  0  0
   14.0936    7.5119    6.2878 C   0  0  0  0  0  0  0  0  0  0  0  0
   15.1734    6.9656    7.0266 C   0  0  0  0  0  0  0  0  0  0  0  0
   15.0810    5.5970    7.4188 C   0  0  0  0  0  0  0  0  0  0  0  0
   16.0947    4.9957    8.1404 N   0  0  0  0  0  0  0  0  0  0  0  0
   16.0913    7.9513    7.1827 N   0  0  0  0  0  0  0  0  0  0  0  0
   15.6607    9.0379    6.6064 C   0  0  0  0  0  0  0  0  0  0  0  0
   14.4345    8.8171    6.0420 N   0  0  0  0  0  0  0  0  0  0  0  0
  1  7  2  0  0  0  0
  1  2  1  0  0  0  0
  2  3  1  0  0  0  0
  2  4  2  0  0  0  0
  4  5  1  0  0  0  0
  5  6  2  0  0  0  0
  5 11  1  0  0  0  0
  6  7  1  0  0  0  0
  6  9  1  0  0  0  0
  7  8  1  0  0  0  0
  9 10  1  0  0  0  0
 10 11  2  0  0  0  0
M  END
>  <CHROM.1>
14.39614556,6.58110507,6.74461479,-2.30817139,-0.45950924,-0.31261926

>  <Name>
ligand

>  <RI>
0

>  <Rbt.Current_Directory>
/home/itssahil/PROJECTS/Mol_Feturizer/New_Systems/rnas/4FEP

>  <Rbt.Executable>
rbdock ($Id: //depot/dev/client3/rdock/2013.1/src/exe/rbdock.cxx#4 $)

>  <Rbt.Library>
libRbt.so (2013.1, Build901 2013/11/27)

>  <Rbt.Parameter_File>
/export/apps/rDock/src/rDock_2013.1_src/data/scripts/dock_solv.prm

>  <Rbt.Receptor>
prm/blind_docking_80.prm

>  <SCORE>
-6.21958

>  <SCORE.INTER>
-6.21958

>  <SCORE.INTER.CONST>
1

>  <SCORE.INTER.POLAR>
0

>  <SCORE.INTER.ROT>
0

>  <SCORE.INTER.SOLV>
5.77358

>  <SCORE.INTER.VDW>
-9.67092

>  <SCORE.INTER.norm>
-0.565417

>  <SCORE.INTRA>
0

>  <SCORE.INTRA.DIHEDRAL>
0

>  <SCORE.INTRA.DIHEDRAL.0>
0

>  <SCORE.INTRA.POLAR>
0

>  <SCORE.INTRA.POLAR.0>
0

>  <SCORE.INTRA.REPUL>
0

>  <SCORE.INTRA.REPUL.0>
0

>  <SCORE.INTRA.SOLV>
0

>  <SCORE.INTRA.SOLV.lig_0>
-48.9558

>  <SCORE.INTRA.VDW>
0

>  <SCORE.INTRA.VDW.0>
0

>  <SCORE.INTRA.norm>
0

>  <SCORE.RESTR>
0

>  <SCORE.RESTR.CAVITY>
0

>  <SCORE.RESTR.norm>
0

>  <SCORE.SYSTEM>
0

>  <SCORE.SYSTEM.CONST>
0

>  <SCORE.SYSTEM.DIHEDRAL>
0

>  <SCORE.SYSTEM.SOLV>
0

>  <SCORE.SYSTEM.norm>
0

>  <SCORE.heavy>
11

>  <SCORE.norm>
-0.565417

>  <RMSD>
6.897

$$$$
ligand
 OpenBabel11021811493D
libRbt.so/2013.1/901 2013/11/27
 11 12  0  0  0  0  0  0  0  0999 V2000
   13.8418    4.6270    7.1019 N   0  0  0  0  0  0  0  0  0  0  0  0
   12.8371    5.2189    6.4362 C   0  0  0  0  0  0  0  0  0  0  0  0
   11.6907    4.4925    6.1610 N   0  0  0  0  0  0  0  0  0  0  0  0
   12.9201    6.4972    6.0327 N   0  0  0  0  0  0  0  0  0  0  0  0
   14.0262    7.2349    6.2860 C   0  0  0  0  0  0  0  0  0  0  0  0
   15.1117    6.6510    6.9867 C   0  0  0  0  0  0  0  0  0  0  0  0
   14.9800    5.2904    7.3950 C   0  0  0  0  0  0  0  0  0  0  0  0
   15.9965    4.6541    8.0818 N   0  0  0  0  0  0  0  0  0  0  0  0
   16.0738    7.6000    7.0974 N   0  0  0  0  0  0  0  0  0  0  0  0
   15.6647    8.6986    6.5285 C   0  0  0  0  0  0  0  0  0  0  0  0
   14.4093    8.5233    6.0148 N   0  0  0  0  0  0  0  0  0  0  0  0
  1  7  2  0  0  0  0
  1  2  1  0  0  0  0
  2  3  1  0  0  0  0
  2  4  2  0  0  0  0
  4  5  1  0  0  0  0
  5  6  2  0  0  0  0
  5 11  1  0  0  0  0
  6  7  1  0  0  0  0
  6  9  1  0  0  0  0
  7  8  1  0  0  0  0
  9 10  1  0  0  0  0
 10 11  2  0  0  0  0
M  END
>  <CHROM.1>
14.30896583,6.29619264,6.73916810,-2.33655181,-0.40920243,-0.33309007

>  <Name>
ligand

>  <RI>
0

>  <Rbt.Current_Directory>
/home/itssahil/PROJECTS/Mol_Feturizer/New_Systems/rnas/4FEP

>  <Rbt.Executable>
rbdock ($Id: //depot/dev/client3/rdock/2013.1/src/exe/rbdock.cxx#4 $)

>  <Rbt.Library>
libRbt.so (2013.1, Build901 2013/11/27)

>  <Rbt.Parameter_File>
/export/apps/rDock/src/rDock_2013.1_src/data/scripts/dock_solv.prm

>  <Rbt.Receptor>
prm/pocket_docking_8.prm

>  <SCORE>
-5.86148

>  <SCORE.INTER>
-5.86148

>  <SCORE.INTER.CONST>
1

>  <SCORE.INTER.POLAR>
0

>  <SCORE.INTER.ROT>
0

>  <SCORE.INTER.SOLV>
4.80058

>  <SCORE.INTER.VDW>
-9.10785

>  <SCORE.INTER.norm>
-0.532862

>  <SCORE.INTRA>
0

>  <SCORE.INTRA.DIHEDRAL>
0

>  <SCORE.INTRA.DIHEDRAL.0>
0

>  <SCORE.INTRA.POLAR>
0

>  <SCORE.INTRA.POLAR.0>
0

>  <SCORE.INTRA.REPUL>
0

>  <SCORE.INTRA.REPUL.0>
0

>  <SCORE.INTRA.SOLV>
0

>  <SCORE.INTRA.SOLV.lig_0>
-48.9558

>  <SCORE.INTRA.VDW>
0

>  <SCORE.INTRA.VDW.0>
0

>  <SCORE.INTRA.norm>
0

>  <SCORE.RESTR>
0

>  <SCORE.RESTR.CAVITY>
0

>  <SCORE.RESTR.norm>
0

>  <SCORE.SYSTEM>
0

>  <SCORE.SYSTEM.CONST>
0

>  <SCORE.SYSTEM.DIHEDRAL>
0

>  <SCORE.SYSTEM.SOLV>
0

>  <SCORE.SYSTEM.norm>
0

>  <SCORE.heavy>
11

>  <SCORE.norm>
-0.532862

>  <RMSD>
7.080

$$$$
ligand
 OpenBabel11021811493D
libRbt.so/2013.1/901 2013/11/27
 11 12  0  0  0  0  0  0  0  0999 V2000
   13.5837    4.1023    6.5862 N   0  0  0  0  0  0  0  0  0  0  0  0
   12.3780    4.3600    6.0544 C   0  0  0  0  0  0  0  0  0  0  0  0
   11.6291    3.3134    5.5431 N   0  0  0  0  0  0  0  0  0  0  0  0
   11.8843    5.6082    6.0079 N   0  0  0  0  0  0  0  0  0  0  0  0
   12.5904    6.6531    6.4991 C   0  0  0  0  0  0  0  0  0  0  0  0
   13.8682    6.4275    7.0706 C   0  0  0  0  0  0  0  0  0  0  0  0
   14.3532    5.0861    7.0976 C   0  0  0  0  0  0  0  0  0  0  0  0
   15.5898    4.7894    7.6385 N   0  0  0  0  0  0  0  0  0  0  0  0
   14.3449    7.6312    7.4736 N   0  0  0  0  0  0  0  0  0  0  0  0
   13.4704    8.5569    7.1971 C   0  0  0  0  0  0  0  0  0  0  0  0
   12.3730    8.0034    6.5969 N   0  0  0  0  0  0  0  0  0  0  0  0
  1  7  2  0  0  0  0
  1  2  1  0  0  0  0
  2  3  1  0  0  0  0
  2  4  2  0  0  0  0
  4  5  1  0  0  0  0
  5  6  2  0  0  0  0
  5 11  1  0  0  0  0
  6  7  1  0  0  0  0
  6  9  1  0  0  0  0
  7  8  1  0  0  0  0
  9 10  1  0  0  0  0
 10 11  2  0  0  0  0
M  END
>  <CHROM.1>
13.27493684,5.84223540,6.70051232,-1.85115441,-0.43768661,0.14835886

>  <Name>
ligand

>  <RI>
0

>  <Rbt.Current_Directory>
/home/itssahil/PROJECTS/Mol_Feturizer/New_Systems/rnas/4FEP

>  <Rbt.Executable>
rbdock ($Id: //depot/dev/client3/rdock/2013.1/src/exe/rbdock.cxx#4 $)

>  <Rbt.Library>
libRbt.so (2013.1, Build901 2013/11/27)

>  <Rbt.Parameter_File>
/export/apps/rDock/src/rDock_2013.1_src/data/scripts/dock_solv.prm

>  <Rbt.Receptor>
prm/blind_docking_20.prm

>  <SCORE>
-5.19327

>  <SCORE.INTER>
-5.19327

>  <SCORE.INTER.CONST>
1

>  <SCORE.INTER.POLAR>
0

>  <SCORE.INTER.ROT>
0

>  <SCORE.INTER.SOLV>
2.69438

>  <SCORE.INTER.VDW>
-7.9603

>  <SCORE.INTER.norm>
-0.472115

>  <SCORE.INTRA>
0

>  <SCORE.INTRA.DIHEDRAL>
0

>  <SCORE.INTRA.DIHEDRAL.0>
0

>  <SCORE.INTRA.POLAR>
0

>  <SCORE.INTRA.POLAR.0>
0

>  <SCORE.INTRA.REPUL>
0

>  <SCORE.INTRA.REPUL.0>
0

>  <SCORE.INTRA.SOLV>
0

>  <SCORE.INTRA.SOLV.lig_0>
-48.9558

>  <SCORE.INTRA.VDW>
0

>  <SCORE.INTRA.VDW.0>
0

>  <SCORE.INTRA.norm>
0

>  <SCORE.RESTR>
0

>  <SCORE.RESTR.CAVITY>
0

>  <SCORE.RESTR.norm>
0

>  <SCORE.SYSTEM>
0

>  <SCORE.SYSTEM.CONST>
0

>  <SCORE.SYSTEM.DIHEDRAL>
0

>  <SCORE.SYSTEM.SOLV>
0

>  <SCORE.SYSTEM.norm>
0

>  <SCORE.heavy>
11

>  <SCORE.norm>
-0.472115

>  <RMSD>
7.228

$$$$
ligand
 OpenBabel11021811493D
libRbt.so/2013.1/901 2013/11/27
 11 12  0  0  0  0  0  0  0  0999 V2000
   14.6801    4.5288    6.9678 N   0  0  0  0  0  0  0  0  0  0  0  0
   15.9802    4.8138    6.7904 C   0  0  0  0  0  0  0  0  0  0  0  0
   16.9067    3.7853    6.8268 N   0  0  0  0  0  0  0  0  0  0  0  0
   16.3999    6.0719    6.5789 N   0  0  0  0  0  0  0  0  0  0  0  0
   15.5203    7.0997    6.5371 C   0  0  0  0  0  0  0  0  0  0  0  0
   14.1374    6.8452    6.7187 C   0  0  0  0  0  0  0  0  0  0  0  0
   13.7372    5.4940    6.9416 C   0  0  0  0  0  0  0  0  0  0  0  0
   12.4068    5.1695    7.1271 N   0  0  0  0  0  0  0  0  0  0  0  0
   13.4962    8.0368    6.6328 N   0  0  0  0  0  0  0  0  0  0  0  0
   14.3671    8.9815    6.4157 C   0  0  0  0  0  0  0  0  0  0  0  0
   15.6271    8.4536    6.3483 N   0  0  0  0  0  0  0  0  0  0  0  0
  1  7  2  0  0  0  0
  1  2  1  0  0  0  0
  2  3  1  0  0  0  0
  2  4  2  0  0  0  0
  4  5  1  0  0  0  0
  5  6  2  0  0  0  0
  5 11  1  0  0  0  0
  6  7  1  0  0  0  0
  6  9  1  0  0  0  0
  7  8  1  0  0  0  0
  9 10  1  0  0  0  0
 10 11  2  0  0  0  0
M  END
>  <CHROM.1>
14.84820324,6.27404425,6.71933758,1.19243255,-0.10610746,3.01056133

>  <Name>
ligand

>  <RI>
0

>  <Rbt.Current_Directory>
/home/itssahil/PROJECTS/Mol_Feturizer/New_Systems/rnas/4FEP

>  <Rbt.Executable>
rbdock ($Id: //depot/dev/client3/rdock/2013.1/src/exe/rbdock.cxx#4 $)

>  <Rbt.Library>
libRbt.so (2013.1, Build901 2013/11/27)

>  <Rbt.Parameter_File>
/export/apps/rDock/src/rDock_2013.1_src/data/scripts/dock_solv.prm

>  <Rbt.Receptor>
prm/blind_docking_80.prm

>  <SCORE>
-6.15069

>  <SCORE.INTER>
-6.15069

>  <SCORE.INTER.CONST>
1

>  <SCORE.INTER.POLAR>
0

>  <SCORE.INTER.ROT>
0

>  <SCORE.INTER.SOLV>
2.99403

>  <SCORE.INTER.VDW>
-8.69847

>  <SCORE.INTER.norm>
-0.559154

>  <SCORE.INTRA>
0

>  <SCORE.INTRA.DIHEDRAL>
0

>  <SCORE.INTRA.DIHEDRAL.0>
0

>  <SCORE.INTRA.POLAR>
0

>  <SCORE.INTRA.POLAR.0>
0

>  <SCORE.INTRA.REPUL>
0

>  <SCORE.INTRA.REPUL.0>
0

>  <SCORE.INTRA.SOLV>
0

>  <SCORE.INTRA.SOLV.lig_0>
-48.9558

>  <SCORE.INTRA.VDW>
0

>  <SCORE.INTRA.VDW.0>
0

>  <SCORE.INTRA.norm>
0

>  <SCORE.RESTR>
0

>  <SCORE.RESTR.CAVITY>
0

>  <SCORE.RESTR.norm>
0

>  <SCORE.SYSTEM>
0

>  <SCORE.SYSTEM.CONST>
0

>  <SCORE.SYSTEM.DIHEDRAL>
0

>  <SCORE.SYSTEM.SOLV>
0

>  <SCORE.SYSTEM.norm>
0

>  <SCORE.heavy>
11

>  <SCORE.norm>
-0.559154

>  <RMSD>
7.397

$$$$
ligand
 OpenBabel11021811493D
libRbt.so/2013.1/901 2013/11/27
 11 12  0  0  0  0  0  0  0  0999 V2000
   14.8402    4.5243    7.1582 N   0  0  0  0  0  0  0  0  0  0  0  0
   16.1333    4.8514    7.0043 C   0  0  0  0  0  0  0  0  0  0  0  0
   17.0975    3.8653    7.1293 N   0  0  0  0  0  0  0  0  0  0  0  0
   16.5106    6.1113    6.7324 N   0  0  0  0  0  0  0  0  0  0  0  0
   15.5935    7.0983    6.6035 C   0  0  0  0  0  0  0  0  0  0  0  0
   14.2163    6.7986    6.7572 C   0  0  0  0  0  0  0  0  0  0  0  0
   13.8618    5.4473    7.0466 C   0  0  0  0  0  0  0  0  0  0  0  0
   12.5397    5.0799    7.2100 N   0  0  0  0  0  0  0  0  0  0  0  0
   13.5324    7.9562    6.5820 N   0  0  0  0  0  0  0  0  0  0  0  0
   14.3727    8.9216    6.3367 C   0  0  0  0  0  0  0  0  0  0  0  0
   15.6538    8.4425    6.3390 N   0  0  0  0  0  0  0  0  0  0  0  0
  1  7  2  0  0  0  0
  1  2  1  0  0  0  0
  2  3  1  0  0  0  0
  2  4  2  0  0  0  0
  4  5  1  0  0  0  0
  5  6  2  0  0  0  0
  5 11  1  0  0  0  0
  6  7  1  0  0  0  0
  6  9  1  0  0  0  0
  7  8  1  0  0  0  0
  9 10  1  0  0  0  0
 10 11  2  0  0  0  0
M  END
>  <CHROM.1>
14.94837259,6.25782958,6.81312002,1.15810482,-0.06829529,2.94950702

>  <Name>
ligand

>  <RI>
0

>  <Rbt.Current_Directory>
/home/itssahil/PROJECTS/Mol_Feturizer/New_Systems/rnas/4FEP

>  <Rbt.Executable>
rbdock ($Id: //depot/dev/client3/rdock/2013.1/src/exe/rbdock.cxx#4 $)

>  <Rbt.Library>
libRbt.so (2013.1, Build901 2013/11/27)

>  <Rbt.Parameter_File>
/export/apps/rDock/src/rDock_2013.1_src/data/scripts/dock_solv.prm

>  <Rbt.Receptor>
prm/blind_docking_80.prm

>  <SCORE>
-6.13819

>  <SCORE.INTER>
-6.13819

>  <SCORE.INTER.CONST>
1

>  <SCORE.INTER.POLAR>
0

>  <SCORE.INTER.ROT>
0

>  <SCORE.INTER.SOLV>
2.05639

>  <SCORE.INTER.VDW>
-8.37759

>  <SCORE.INTER.norm>
-0.558017

>  <SCORE.INTRA>
0

>  <SCORE.INTRA.DIHEDRAL>
0

>  <SCORE.INTRA.DIHEDRAL.0>
0

>  <SCORE.INTRA.POLAR>
0

>  <SCORE.INTRA.POLAR.0>
0

>  <SCORE.INTRA.REPUL>
0

>  <SCORE.INTRA.REPUL.0>
0

>  <SCORE.INTRA.SOLV>
0

>  <SCORE.INTRA.SOLV.lig_0>
-48.9558

>  <SCORE.INTRA.VDW>
0

>  <SCORE.INTRA.VDW.0>
0

>  <SCORE.INTRA.norm>
0

>  <SCORE.RESTR>
0

>  <SCORE.RESTR.CAVITY>
0

>  <SCORE.RESTR.norm>
0

>  <SCORE.SYSTEM>
0

>  <SCORE.SYSTEM.CONST>
0

>  <SCORE.SYSTEM.DIHEDRAL>
0

>  <SCORE.SYSTEM.SOLV>
0

>  <SCORE.SYSTEM.norm>
0

>  <SCORE.heavy>
11

>  <SCORE.norm>
-0.558017

>  <RMSD>
7.413

$$$$
ligand
 OpenBabel11021811493D
libRbt.so/2013.1/901 2013/11/27
 11 12  0  0  0  0  0  0  0  0999 V2000
   14.8814    4.5322    7.0297 N   0  0  0  0  0  0  0  0  0  0  0  0
   16.1604    4.8638    6.7908 C   0  0  0  0  0  0  0  0  0  0  0  0
   17.1271    3.8724    6.8020 N   0  0  0  0  0  0  0  0  0  0  0  0
   16.5211    6.1333    6.5420 N   0  0  0  0  0  0  0  0  0  0  0  0
   15.6010    7.1257    6.5234 C   0  0  0  0  0  0  0  0  0  0  0  0
   14.2382    6.8215    6.7696 C   0  0  0  0  0  0  0  0  0  0  0  0
   13.9013    5.4599    7.0304 C   0  0  0  0  0  0  0  0  0  0  0  0
   12.5939    5.0877    7.2794 N   0  0  0  0  0  0  0  0  0  0  0  0
   13.5478    7.9860    6.6939 N   0  0  0  0  0  0  0  0  0  0  0  0
   14.3710    8.9596    6.4242 C   0  0  0  0  0  0  0  0  0  0  0  0
   15.6465    8.4794    6.3094 N   0  0  0  0  0  0  0  0  0  0  0  0
  1  7  2  0  0  0  0
  1  2  1  0  0  0  0
  2  3  1  0  0  0  0
  2  4  2  0  0  0  0
  4  5  1  0  0  0  0
  5  6  2  0  0  0  0
  5 11  1  0  0  0  0
  6  7  1  0  0  0  0
  6  9  1  0  0  0  0
  7  8  1  0  0  0  0
  9 10  1  0  0  0  0
 10 11  2  0  0  0  0
M  END
>  <CHROM.1>
14.97020455,6.27812508,6.74756727,1.14753733,-0.14399906,2.98887498

>  <Name>
ligand

>  <RI>
0

>  <Rbt.Current_Directory>
/home/itssahil/PROJECTS/Mol_Feturizer/New_Systems/rnas/4FEP

>  <Rbt.Executable>
rbdock ($Id: //depot/dev/client3/rdock/2013.1/src/exe/rbdock.cxx#4 $)

>  <Rbt.Library>
libRbt.so (2013.1, Build901 2013/11/27)

>  <Rbt.Parameter_File>
/export/apps/rDock/src/rDock_2013.1_src/data/scripts/dock_solv.prm

>  <Rbt.Receptor>
prm/blind_docking_80.prm

>  <SCORE>
-6.1947

>  <SCORE.INTER>
-6.1947

>  <SCORE.INTER.CONST>
1

>  <SCORE.INTER.POLAR>
0

>  <SCORE.INTER.ROT>
0

>  <SCORE.INTER.SOLV>
2.41935

>  <SCORE.INTER.VDW>
-8.53625

>  <SCORE.INTER.norm>
-0.563155

>  <SCORE.INTRA>
0

>  <SCORE.INTRA.DIHEDRAL>
0

>  <SCORE.INTRA.DIHEDRAL.0>
0

>  <SCORE.INTRA.POLAR>
0

>  <SCORE.INTRA.POLAR.0>
0

>  <SCORE.INTRA.REPUL>
0

>  <SCORE.INTRA.REPUL.0>
0

>  <SCORE.INTRA.SOLV>
0

>  <SCORE.INTRA.SOLV.lig_0>
-48.9558

>  <SCORE.INTRA.VDW>
0

>  <SCORE.INTRA.VDW.0>
0

>  <SCORE.INTRA.norm>
0

>  <SCORE.RESTR>
0

>  <SCORE.RESTR.CAVITY>
0

>  <SCORE.RESTR.norm>
0

>  <SCORE.SYSTEM>
0

>  <SCORE.SYSTEM.CONST>
0

>  <SCORE.SYSTEM.DIHEDRAL>
0

>  <SCORE.SYSTEM.SOLV>
0

>  <SCORE.SYSTEM.norm>
0

>  <SCORE.heavy>
11

>  <SCORE.norm>
-0.563155

>  <RMSD>
7.437

$$$$
ligand
 OpenBabel11021811493D
libRbt.so/2013.1/901 2013/11/27
 11 12  0  0  0  0  0  0  0  0999 V2000
   11.8601    3.9847    6.3365 N   0  0  0  0  0  0  0  0  0  0  0  0
   12.3177    5.2307    6.1336 C   0  0  0  0  0  0  0  0  0  0  0  0
   12.9637    5.8881    7.1670 N   0  0  0  0  0  0  0  0  0  0  0  0
   12.1624    5.8512    4.9526 N   0  0  0  0  0  0  0  0  0  0  0  0
   11.5361    5.2366    3.9222 C   0  0  0  0  0  0  0  0  0  0  0  0
   11.0374    3.9202    4.0912 C   0  0  0  0  0  0  0  0  0  0  0  0
   11.2237    3.3005    5.3627 C   0  0  0  0  0  0  0  0  0  0  0  0
   10.7643    2.0193    5.6017 N   0  0  0  0  0  0  0  0  0  0  0  0
   10.4633    3.5557    2.9181 N   0  0  0  0  0  0  0  0  0  0  0  0
   10.5727    4.5319    2.0618 C   0  0  0  0  0  0  0  0  0  0  0  0
   11.2266    5.5884    2.6335 N   0  0  0  0  0  0  0  0  0  0  0  0
  1  7  2  0  0  0  0
  1  2  1  0  0  0  0
  2  3  1  0  0  0  0
  2  4  2  0  0  0  0
  4  5  1  0  0  0  0
  5  6  2  0  0  0  0
  5 11  1  0  0  0  0
  6  7  1  0  0  0  0
  6  9  1  0  0  0  0
  7  8  1  0  0  0  0
  9 10  1  0  0  0  0
 10 11  2  0  0  0  0
M  END
>  <CHROM.1>
11.47509691,4.46570190,4.67625832,0.63108338,1.06497037,2.26710368

>  <Name>
ligand

>  <RI>
0

>  <Rbt.Current_Directory>
/home/itssahil/PROJECTS/Mol_Feturizer/New_Systems/rnas/4FEP

>  <Rbt.Executable>
rbdock ($Id: //depot/dev/client3/rdock/2013.1/src/exe/rbdock.cxx#4 $)

>  <Rbt.Library>
libRbt.so (2013.1, Build901 2013/11/27)

>  <Rbt.Parameter_File>
/export/apps/rDock/src/rDock_2013.1_src/data/scripts/dock_solv.prm

>  <Rbt.Receptor>
prm/blind_docking_100.prm

>  <SCORE>
-7.29602

>  <SCORE.INTER>
-7.29602

>  <SCORE.INTER.CONST>
1

>  <SCORE.INTER.POLAR>
0

>  <SCORE.INTER.ROT>
0

>  <SCORE.INTER.SOLV>
5.4629

>  <SCORE.INTER.VDW>
-10.285

>  <SCORE.INTER.norm>
-0.663275

>  <SCORE.INTRA>
0

>  <SCORE.INTRA.DIHEDRAL>
0

>  <SCORE.INTRA.DIHEDRAL.0>
0

>  <SCORE.INTRA.POLAR>
0

>  <SCORE.INTRA.POLAR.0>
0

>  <SCORE.INTRA.REPUL>
0

>  <SCORE.INTRA.REPUL.0>
0

>  <SCORE.INTRA.SOLV>
0

>  <SCORE.INTRA.SOLV.lig_0>
-48.9558

>  <SCORE.INTRA.VDW>
0

>  <SCORE.INTRA.VDW.0>
0

>  <SCORE.INTRA.norm>
0

>  <SCORE.RESTR>
0

>  <SCORE.RESTR.CAVITY>
0

>  <SCORE.RESTR.norm>
0

>  <SCORE.SYSTEM>
0

>  <SCORE.SYSTEM.CONST>
0

>  <SCORE.SYSTEM.DIHEDRAL>
0

>  <SCORE.SYSTEM.SOLV>
0

>  <SCORE.SYSTEM.norm>
0

>  <SCORE.heavy>
11

>  <SCORE.norm>
-0.663275

>  <RMSD>
8.290

$$$$
ligand
 OpenBabel11021811493D
libRbt.so/2013.1/901 2013/11/27
 11 12  0  0  0  0  0  0  0  0999 V2000
   11.7911    3.8995    6.3730 N   0  0  0  0  0  0  0  0  0  0  0  0
   12.2839    5.1280    6.1479 C   0  0  0  0  0  0  0  0  0  0  0  0
   12.9634    5.7784    7.1643 N   0  0  0  0  0  0  0  0  0  0  0  0
   12.1323    5.7380    4.9610 N   0  0  0  0  0  0  0  0  0  0  0  0
   11.4738    5.1298    3.9468 C   0  0  0  0  0  0  0  0  0  0  0  0
   10.9372    3.8317    4.1395 C   0  0  0  0  0  0  0  0  0  0  0  0
   11.1212    3.2229    5.4166 C   0  0  0  0  0  0  0  0  0  0  0  0
   10.6259    1.9596    5.6783 N   0  0  0  0  0  0  0  0  0  0  0  0
   10.3367    3.4702    2.9788 N   0  0  0  0  0  0  0  0  0  0  0  0
   10.4648    4.4315    2.1084 C   0  0  0  0  0  0  0  0  0  0  0  0
   11.1583    5.4746    2.6577 N   0  0  0  0  0  0  0  0  0  0  0  0
  1  7  2  0  0  0  0
  1  2  1  0  0  0  0
  2  3  1  0  0  0  0
  2  4  2  0  0  0  0
  4  5  1  0  0  0  0
  5  6  2  0  0  0  0
  5 11  1  0  0  0  0
  6  7  1  0  0  0  0
  6  9  1  0  0  0  0
  7  8  1  0  0  0  0
  9 10  1  0  0  0  0
 10 11  2  0  0  0  0
M  END
>  <CHROM.1>
11.39912804,4.37091111,4.71170052,0.64975019,1.03287780,2.23795149

>  <Name>
ligand

>  <RI>
0

>  <Rbt.Current_Directory>
/home/itssahil/PROJECTS/Mol_Feturizer/New_Systems/rnas/4FEP

>  <Rbt.Executable>
rbdock ($Id: //depot/dev/client3/rdock/2013.1/src/exe/rbdock.cxx#4 $)

>  <Rbt.Library>
libRbt.so (2013.1, Build901 2013/11/27)

>  <Rbt.Parameter_File>
/export/apps/rDock/src/rDock_2013.1_src/data/scripts/dock_solv.prm

>  <Rbt.Receptor>
prm/blind_docking_20.prm

>  <SCORE>
-7.29734

>  <SCORE.INTER>
-7.29734

>  <SCORE.INTER.CONST>
1

>  <SCORE.INTER.POLAR>
0

>  <SCORE.INTER.ROT>
0

>  <SCORE.INTER.SOLV>
5.38494

>  <SCORE.INTER.VDW>
-10.2599

>  <SCORE.INTER.norm>
-0.663395

>  <SCORE.INTRA>
0

>  <SCORE.INTRA.DIHEDRAL>
0

>  <SCORE.INTRA.DIHEDRAL.0>
0

>  <SCORE.INTRA.POLAR>
0

>  <SCORE.INTRA.POLAR.0>
0

>  <SCORE.INTRA.REPUL>
0

>  <SCORE.INTRA.REPUL.0>
0

>  <SCORE.INTRA.SOLV>
0

>  <SCORE.INTRA.SOLV.lig_0>
-48.9558

>  <SCORE.INTRA.VDW>
0

>  <SCORE.INTRA.VDW.0>
0

>  <SCORE.INTRA.norm>
0

>  <SCORE.RESTR>
0

>  <SCORE.RESTR.CAVITY>
0

>  <SCORE.RESTR.norm>
0

>  <SCORE.SYSTEM>
0

>  <SCORE.SYSTEM.CONST>
0

>  <SCORE.SYSTEM.DIHEDRAL>
0

>  <SCORE.SYSTEM.SOLV>
0

>  <SCORE.SYSTEM.norm>
0

>  <SCORE.heavy>
11

>  <SCORE.norm>
-0.663395

>  <RMSD>
8.372

$$$$
ligand
 OpenBabel11021811493D
libRbt.so/2013.1/901 2013/11/27
 11 12  0  0  0  0  0  0  0  0999 V2000
   11.7268    3.9179    6.3785 N   0  0  0  0  0  0  0  0  0  0  0  0
   12.1944    5.1404    6.0791 C   0  0  0  0  0  0  0  0  0  0  0  0
   12.8644    5.8627    7.0522 N   0  0  0  0  0  0  0  0  0  0  0  0
   12.0264    5.6763    4.8591 N   0  0  0  0  0  0  0  0  0  0  0  0
   11.3766    4.9966    3.8856 C   0  0  0  0  0  0  0  0  0  0  0  0
   10.8665    3.7019    4.1569 C   0  0  0  0  0  0  0  0  0  0  0  0
   11.0671    3.1730    5.4667 C   0  0  0  0  0  0  0  0  0  0  0  0
   10.5979    1.9179    5.8046 N   0  0  0  0  0  0  0  0  0  0  0  0
   10.2692    3.2609    3.0223 N   0  0  0  0  0  0  0  0  0  0  0  0
   10.3751    4.1715    2.0962 C   0  0  0  0  0  0  0  0  0  0  0  0
   11.0496    5.2586    2.5800 N   0  0  0  0  0  0  0  0  0  0  0  0
  1  7  2  0  0  0  0
  1  2  1  0  0  0  0
  2  3  1  0  0  0  0
  2  4  2  0  0  0  0
  4  5  1  0  0  0  0
  5  6  2  0  0  0  0
  5 11  1  0  0  0  0
  6  7  1  0  0  0  0
  6  9  1  0  0  0  0
  7  8  1  0  0  0  0
  9 10  1  0  0  0  0
 10 11  2  0  0  0  0
M  END
>  <CHROM.1>
11.31967169,4.28277903,4.69415965,0.61962472,1.04608276,2.20499916

>  <Name>
ligand

>  <RI>
0

>  <Rbt.Current_Directory>
/home/itssahil/PROJECTS/Mol_Feturizer/New_Systems/rnas/4FEP

>  <Rbt.Executable>
rbdock ($Id: //depot/dev/client3/rdock/2013.1/src/exe/rbdock.cxx#4 $)

>  <Rbt.Library>
libRbt.so (2013.1, Build901 2013/11/27)

>  <Rbt.Parameter_File>
/export/apps/rDock/src/rDock_2013.1_src/data/scripts/dock_solv.prm

>  <Rbt.Receptor>
prm/blind_docking_80.prm

>  <SCORE>
-7.24555

>  <SCORE.INTER>
-7.24555

>  <SCORE.INTER.CONST>
1

>  <SCORE.INTER.POLAR>
0

>  <SCORE.INTER.ROT>
0

>  <SCORE.INTER.SOLV>
5.83553

>  <SCORE.INTER.VDW>
-10.3755

>  <SCORE.INTER.norm>
-0.658687

>  <SCORE.INTRA>
0

>  <SCORE.INTRA.DIHEDRAL>
0

>  <SCORE.INTRA.DIHEDRAL.0>
0

>  <SCORE.INTRA.POLAR>
0

>  <SCORE.INTRA.POLAR.0>
0

>  <SCORE.INTRA.REPUL>
0

>  <SCORE.INTRA.REPUL.0>
0

>  <SCORE.INTRA.SOLV>
0

>  <SCORE.INTRA.SOLV.lig_0>
-48.9558

>  <SCORE.INTRA.VDW>
0

>  <SCORE.INTRA.VDW.0>
0

>  <SCORE.INTRA.norm>
0

>  <SCORE.RESTR>
0

>  <SCORE.RESTR.CAVITY>
0

>  <SCORE.RESTR.norm>
0

>  <SCORE.SYSTEM>
0

>  <SCORE.SYSTEM.CONST>
0

>  <SCORE.SYSTEM.DIHEDRAL>
0

>  <SCORE.SYSTEM.SOLV>
0

>  <SCORE.SYSTEM.norm>
0

>  <SCORE.heavy>
11

>  <SCORE.norm>
-0.658687

>  <RMSD>
8.468

$$$$
ligand
 OpenBabel11021811493D
libRbt.so/2013.1/901 2013/11/27
 11 12  0  0  0  0  0  0  0  0999 V2000
   11.5347    3.5097    6.2514 N   0  0  0  0  0  0  0  0  0  0  0  0
   12.0840    4.7348    6.2633 C   0  0  0  0  0  0  0  0  0  0  0  0
   12.6659    5.2013    7.4300 N   0  0  0  0  0  0  0  0  0  0  0  0
   12.0811    5.5153    5.1703 N   0  0  0  0  0  0  0  0  0  0  0  0
   11.5211    5.0893    4.0142 C   0  0  0  0  0  0  0  0  0  0  0  0
   10.9298    3.8020    3.9555 C   0  0  0  0  0  0  0  0  0  0  0  0
   10.9550    3.0081    5.1407 C   0  0  0  0  0  0  0  0  0  0  0  0
   10.3982    1.7434    5.1594 N   0  0  0  0  0  0  0  0  0  0  0  0
   10.4505    3.6383    2.6978 N   0  0  0  0  0  0  0  0  0  0  0  0
   10.7008    4.7083    1.9973 C   0  0  0  0  0  0  0  0  0  0  0  0
   11.3591    5.6297    2.7644 N   0  0  0  0  0  0  0  0  0  0  0  0
  1  7  2  0  0  0  0
  1  2  1  0  0  0  0
  2  3  1  0  0  0  0
  2  4  2  0  0  0  0
  4  5  1  0  0  0  0
  5  6  2  0  0  0  0
  5 11  1  0  0  0  0
  6  7  1  0  0  0  0
  6  9  1  0  0  0  0
  7  8  1  0  0  0  0
  9 10  1  0  0  0  0
 10 11  2  0  0  0  0
M  END
>  <CHROM.1>
11.34124921,4.23221278,4.64631189,0.86744872,1.06878355,2.19575510

>  <Name>
ligand

>  <RI>
0

>  <Rbt.Current_Directory>
/home/itssahil/PROJECTS/Mol_Feturizer/New_Systems/rnas/4FEP

>  <Rbt.Executable>
rbdock ($Id: //depot/dev/client3/rdock/2013.1/src/exe/rbdock.cxx#4 $)

>  <Rbt.Library>
libRbt.so (2013.1, Build901 2013/11/27)

>  <Rbt.Parameter_File>
/export/apps/rDock/src/rDock_2013.1_src/data/scripts/dock_solv.prm

>  <Rbt.Receptor>
prm/blind_docking_20.prm

>  <SCORE>
-7.20233

>  <SCORE.INTER>
-7.20233

>  <SCORE.INTER.CONST>
1

>  <SCORE.INTER.POLAR>
0

>  <SCORE.INTER.ROT>
0

>  <SCORE.INTER.SOLV>
5.65732

>  <SCORE.INTER.VDW>
-10.2873

>  <SCORE.INTER.norm>
-0.654757

>  <SCORE.INTRA>
0

>  <SCORE.INTRA.DIHEDRAL>
0

>  <SCORE.INTRA.DIHEDRAL.0>
0

>  <SCORE.INTRA.POLAR>
0

>  <SCORE.INTRA.POLAR.0>
0

>  <SCORE.INTRA.REPUL>
0

>  <SCORE.INTRA.REPUL.0>
0

>  <SCORE.INTRA.SOLV>
0

>  <SCORE.INTRA.SOLV.lig_0>
-48.9558

>  <SCORE.INTRA.VDW>
0

>  <SCORE.INTRA.VDW.0>
0

>  <SCORE.INTRA.norm>
0

>  <SCORE.RESTR>
0

>  <SCORE.RESTR.CAVITY>
0

>  <SCORE.RESTR.norm>
0

>  <SCORE.SYSTEM>
0

>  <SCORE.SYSTEM.CONST>
0

>  <SCORE.SYSTEM.DIHEDRAL>
0

>  <SCORE.SYSTEM.SOLV>
0

>  <SCORE.SYSTEM.norm>
0

>  <SCORE.heavy>
11

>  <SCORE.norm>
-0.654757

>  <RMSD>
8.512

$$$$
ligand
 OpenBabel11021811493D
libRbt.so/2013.1/901 2013/11/27
 11 12  0  0  0  0  0  0  0  0999 V2000
   11.7501    3.7618    6.2948 N   0  0  0  0  0  0  0  0  0  0  0  0
   12.2047    5.0052    6.0710 C   0  0  0  0  0  0  0  0  0  0  0  0
   12.8958    5.6612    7.0759 N   0  0  0  0  0  0  0  0  0  0  0  0
   12.0039    5.6247    4.8964 N   0  0  0  0  0  0  0  0  0  0  0  0
   11.3329    5.0114    3.8937 C   0  0  0  0  0  0  0  0  0  0  0  0
   10.8354    3.6976    4.0853 C   0  0  0  0  0  0  0  0  0  0  0  0
   11.0710    3.0790    5.3492 C   0  0  0  0  0  0  0  0  0  0  0  0
   10.6159    1.8004    5.6091 N   0  0  0  0  0  0  0  0  0  0  0  0
   10.2118    3.3340    2.9375 N   0  0  0  0  0  0  0  0  0  0  0  0
   10.2905    4.3083    2.0757 C   0  0  0  0  0  0  0  0  0  0  0  0
   10.9723    5.3627    2.6182 N   0  0  0  0  0  0  0  0  0  0  0  0
  1  7  2  0  0  0  0
  1  2  1  0  0  0  0
  2  3  1  0  0  0  0
  2  4  2  0  0  0  0
  4  5  1  0  0  0  0
  5  6  2  0  0  0  0
  5 11  1  0  0  0  0
  6  7  1  0  0  0  0
  6  9  1  0  0  0  0
  7  8  1  0  0  0  0
  9 10  1  0  0  0  0
 10 11  2  0  0  0  0
M  END
>  <CHROM.1>
11.29936277,4.24197309,4.65095174,0.57511783,1.03431867,2.31400078

>  <Name>
ligand

>  <RI>
0

>  <Rbt.Current_Directory>
/home/itssahil/PROJECTS/Mol_Feturizer/New_Systems/rnas/4FEP

>  <Rbt.Executable>
rbdock ($Id: //depot/dev/client3/rdock/2013.1/src/exe/rbdock.cxx#4 $)

>  <Rbt.Library>
libRbt.so (2013.1, Build901 2013/11/27)

>  <Rbt.Parameter_File>
/export/apps/rDock/src/rDock_2013.1_src/data/scripts/dock_solv.prm

>  <Rbt.Receptor>
prm/blind_docking_20.prm

>  <SCORE>
-7.29455

>  <SCORE.INTER>
-7.29455

>  <SCORE.INTER.CONST>
1

>  <SCORE.INTER.POLAR>
0

>  <SCORE.INTER.ROT>
0

>  <SCORE.INTER.SOLV>
5.355

>  <SCORE.INTER.VDW>
-10.248

>  <SCORE.INTER.norm>
-0.663141

>  <SCORE.INTRA>
0

>  <SCORE.INTRA.DIHEDRAL>
0

>  <SCORE.INTRA.DIHEDRAL.0>
0

>  <SCORE.INTRA.POLAR>
0

>  <SCORE.INTRA.POLAR.0>
0

>  <SCORE.INTRA.REPUL>
0

>  <SCORE.INTRA.REPUL.0>
0

>  <SCORE.INTRA.SOLV>
0

>  <SCORE.INTRA.SOLV.lig_0>
-48.9558

>  <SCORE.INTRA.VDW>
0

>  <SCORE.INTRA.VDW.0>
0

>  <SCORE.INTRA.norm>
0

>  <SCORE.RESTR>
0

>  <SCORE.RESTR.CAVITY>
0

>  <SCORE.RESTR.norm>
0

>  <SCORE.SYSTEM>
0

>  <SCORE.SYSTEM.CONST>
0

>  <SCORE.SYSTEM.DIHEDRAL>
0

>  <SCORE.SYSTEM.SOLV>
0

>  <SCORE.SYSTEM.norm>
0

>  <SCORE.heavy>
11

>  <SCORE.norm>
-0.663141

>  <RMSD>
8.513

$$$$
ligand
 OpenBabel11021811493D
libRbt.so/2013.1/901 2013/11/27
 11 12  0  0  0  0  0  0  0  0999 V2000
   11.5714    3.5003    6.2403 N   0  0  0  0  0  0  0  0  0  0  0  0
   12.1111    4.7298    6.2477 C   0  0  0  0  0  0  0  0  0  0  0  0
   12.7010    5.2000    7.4090 N   0  0  0  0  0  0  0  0  0  0  0  0
   12.0909    5.5112    5.1556 N   0  0  0  0  0  0  0  0  0  0  0  0
   11.5227    5.0817    4.0047 C   0  0  0  0  0  0  0  0  0  0  0  0
   10.9411    3.7898    3.9509 C   0  0  0  0  0  0  0  0  0  0  0  0
   10.9845    2.9951    5.1350 C   0  0  0  0  0  0  0  0  0  0  0  0
   10.4380    1.7260    5.1582 N   0  0  0  0  0  0  0  0  0  0  0  0
   10.4505    3.6233    2.6979 N   0  0  0  0  0  0  0  0  0  0  0  0
   10.6851    4.6958    1.9959 C   0  0  0  0  0  0  0  0  0  0  0  0
   11.3438    5.6218    2.7572 N   0  0  0  0  0  0  0  0  0  0  0  0
  1  7  2  0  0  0  0
  1  2  1  0  0  0  0
  2  3  1  0  0  0  0
  2  4  2  0  0  0  0
  4  5  1  0  0  0  0
  5  6  2  0  0  0  0
  5 11  1  0  0  0  0
  6  7  1  0  0  0  0
  6  9  1  0  0  0  0
  7  8  1  0  0  0  0
  9 10  1  0  0  0  0
 10 11  2  0  0  0  0
M  END
>  <CHROM.1>
11.35604672,4.22265564,4.63789636,0.84073580,1.06917909,2.22004322

>  <Name>
ligand

>  <RI>
0

>  <Rbt.Current_Directory>
/home/itssahil/PROJECTS/Mol_Feturizer/New_Systems/rnas/4FEP

>  <Rbt.Executable>
rbdock ($Id: //depot/dev/client3/rdock/2013.1/src/exe/rbdock.cxx#4 $)

>  <Rbt.Library>
libRbt.so (2013.1, Build901 2013/11/27)

>  <Rbt.Parameter_File>
/export/apps/rDock/src/rDock_2013.1_src/data/scripts/dock_solv.prm

>  <Rbt.Receptor>
prm/blind_docking_20.prm

>  <SCORE>
-7.20529

>  <SCORE.INTER>
-7.20529

>  <SCORE.INTER.CONST>
1

>  <SCORE.INTER.POLAR>
0

>  <SCORE.INTER.ROT>
0

>  <SCORE.INTER.SOLV>
5.50258

>  <SCORE.INTER.VDW>
-10.2377

>  <SCORE.INTER.norm>
-0.655026

>  <SCORE.INTRA>
0

>  <SCORE.INTRA.DIHEDRAL>
0

>  <SCORE.INTRA.DIHEDRAL.0>
0

>  <SCORE.INTRA.POLAR>
0

>  <SCORE.INTRA.POLAR.0>
0

>  <SCORE.INTRA.REPUL>
0

>  <SCORE.INTRA.REPUL.0>
0

>  <SCORE.INTRA.SOLV>
0

>  <SCORE.INTRA.SOLV.lig_0>
-48.9558

>  <SCORE.INTRA.VDW>
0

>  <SCORE.INTRA.VDW.0>
0

>  <SCORE.INTRA.norm>
0

>  <SCORE.RESTR>
0

>  <SCORE.RESTR.CAVITY>
0

>  <SCORE.RESTR.norm>
0

>  <SCORE.SYSTEM>
0

>  <SCORE.SYSTEM.CONST>
0

>  <SCORE.SYSTEM.DIHEDRAL>
0

>  <SCORE.SYSTEM.SOLV>
0

>  <SCORE.SYSTEM.norm>
0

>  <SCORE.heavy>
11

>  <SCORE.norm>
-0.655026

>  <RMSD>
8.523

$$$$
ligand
 OpenBabel11021811493D
libRbt.so/2013.1/901 2013/11/27
 11 12  0  0  0  0  0  0  0  0999 V2000
   11.7847    3.7757    6.2496 N   0  0  0  0  0  0  0  0  0  0  0  0
   12.2248    5.0203    6.0045 C   0  0  0  0  0  0  0  0  0  0  0  0
   12.9334    5.6905    6.9876 N   0  0  0  0  0  0  0  0  0  0  0  0
   11.9929    5.6276    4.8293 N   0  0  0  0  0  0  0  0  0  0  0  0
   11.3041    5.0003    3.8475 C   0  0  0  0  0  0  0  0  0  0  0  0
   10.8209    3.6847    4.0621 C   0  0  0  0  0  0  0  0  0  0  0  0
   11.0896    3.0794    5.3257 C   0  0  0  0  0  0  0  0  0  0  0  0
   10.6501    1.7999    5.6073 N   0  0  0  0  0  0  0  0  0  0  0  0
   10.1744    3.3062    2.9320 N   0  0  0  0  0  0  0  0  0  0  0  0
   10.2263    4.2731    2.0599 C   0  0  0  0  0  0  0  0  0  0  0  0
   10.9122    5.3373    2.5774 N   0  0  0  0  0  0  0  0  0  0  0  0
  1  7  2  0  0  0  0
  1  2  1  0  0  0  0
  2  3  1  0  0  0  0
  2  4  2  0  0  0  0
  4  5  1  0  0  0  0
  5  6  2  0  0  0  0
  5 11  1  0  0  0  0
  6  7  1  0  0  0  0
  6  9  1  0  0  0  0
  7  8  1  0  0  0  0
  9 10  1  0  0  0  0
 10 11  2  0  0  0  0
M  END
>  <CHROM.1>
11.29341282,4.23760658,4.61217970,0.53339624,1.02419857,2.34072494

>  <Name>
ligand

>  <RI>
0

>  <Rbt.Current_Directory>
/home/itssahil/PROJECTS/Mol_Feturizer/New_Systems/rnas/4FEP

>  <Rbt.Executable>
rbdock ($Id: //depot/dev/client3/rdock/2013.1/src/exe/rbdock.cxx#4 $)

>  <Rbt.Library>
libRbt.so (2013.1, Build901 2013/11/27)

>  <Rbt.Parameter_File>
/export/apps/rDock/src/rDock_2013.1_src/data/scripts/dock_solv.prm

>  <Rbt.Receptor>
prm/blind_docking_20.prm

>  <SCORE>
-7.28169

>  <SCORE.INTER>
-7.28169

>  <SCORE.INTER.CONST>
1

>  <SCORE.INTER.POLAR>
0

>  <SCORE.INTER.ROT>
0

>  <SCORE.INTER.SOLV>
5.45916

>  <SCORE.INTER.VDW>
-10.2742

>  <SCORE.INTER.norm>
-0.661972

>  <SCORE.INTRA>
0

>  <SCORE.INTRA.DIHEDRAL>
0

>  <SCORE.INTRA.DIHEDRAL.0>
0

>  <SCORE.INTRA.POLAR>
0

>  <SCORE.INTRA.POLAR.0>
0

>  <SCORE.INTRA.REPUL>
0

>  <SCORE.INTRA.REPUL.0>
0

>  <SCORE.INTRA.SOLV>
0

>  <SCORE.INTRA.SOLV.lig_0>
-48.9558

>  <SCORE.INTRA.VDW>
0

>  <SCORE.INTRA.VDW.0>
0

>  <SCORE.INTRA.norm>
0

>  <SCORE.RESTR>
0

>  <SCORE.RESTR.CAVITY>
0

>  <SCORE.RESTR.norm>
0

>  <SCORE.SYSTEM>
0

>  <SCORE.SYSTEM.CONST>
0

>  <SCORE.SYSTEM.DIHEDRAL>
0

>  <SCORE.SYSTEM.SOLV>
0

>  <SCORE.SYSTEM.norm>
0

>  <SCORE.heavy>
11

>  <SCORE.norm>
-0.661972

>  <RMSD>
8.532

$$$$
ligand
 OpenBabel11021811493D
libRbt.so/2013.1/901 2013/11/27
 11 12  0  0  0  0  0  0  0  0999 V2000
   11.7431    3.7543    6.2940 N   0  0  0  0  0  0  0  0  0  0  0  0
   12.2169    4.9881    6.0572 C   0  0  0  0  0  0  0  0  0  0  0  0
   12.9146    5.6455    7.0564 N   0  0  0  0  0  0  0  0  0  0  0  0
   12.0288    5.5966    4.8747 N   0  0  0  0  0  0  0  0  0  0  0  0
   11.3517    4.9816    3.8772 C   0  0  0  0  0  0  0  0  0  0  0  0
   10.8341    3.6778    4.0826 C   0  0  0  0  0  0  0  0  0  0  0  0
   11.0567    3.0707    5.3544 C   0  0  0  0  0  0  0  0  0  0  0  0
   10.5818    1.8021    5.6279 N   0  0  0  0  0  0  0  0  0  0  0  0
   10.2085    3.3101    2.9372 N   0  0  0  0  0  0  0  0  0  0  0  0
   10.3043    4.2729    2.0643 C   0  0  0  0  0  0  0  0  0  0  0  0
   11.0001    5.3233    2.5966 N   0  0  0  0  0  0  0  0  0  0  0  0
  1  7  2  0  0  0  0
  1  2  1  0  0  0  0
  2  3  1  0  0  0  0
  2  4  2  0  0  0  0
  4  5  1  0  0  0  0
  5  6  2  0  0  0  0
  5 11  1  0  0  0  0
  6  7  1  0  0  0  0
  6  9  1  0  0  0  0
  7  8  1  0  0  0  0
  9 10  1  0  0  0  0
 10 11  2  0  0  0  0
M  END
>  <CHROM.1>
11.30440846,4.22178559,4.64329663,0.59877425,1.02520502,2.28197781

>  <Name>
ligand

>  <RI>
0

>  <Rbt.Current_Directory>
/home/itssahil/PROJECTS/Mol_Feturizer/New_Systems/rnas/4FEP

>  <Rbt.Executable>
rbdock ($Id: //depot/dev/client3/rdock/2013.1/src/exe/rbdock.cxx#4 $)

>  <Rbt.Library>
libRbt.so (2013.1, Build901 2013/11/27)

>  <Rbt.Parameter_File>
/export/apps/rDock/src/rDock_2013.1_src/data/scripts/dock_solv.prm

>  <Rbt.Receptor>
prm/blind_docking_20.prm

>  <SCORE>
-7.31836

>  <SCORE.INTER>
-7.31836

>  <SCORE.INTER.CONST>
1

>  <SCORE.INTER.POLAR>
0

>  <SCORE.INTER.ROT>
0

>  <SCORE.INTER.SOLV>
5.36988

>  <SCORE.INTER.VDW>
-10.2689

>  <SCORE.INTER.norm>
-0.665306

>  <SCORE.INTRA>
0

>  <SCORE.INTRA.DIHEDRAL>
0

>  <SCORE.INTRA.DIHEDRAL.0>
0

>  <SCORE.INTRA.POLAR>
0

>  <SCORE.INTRA.POLAR.0>
0

>  <SCORE.INTRA.REPUL>
0

>  <SCORE.INTRA.REPUL.0>
0

>  <SCORE.INTRA.SOLV>
0

>  <SCORE.INTRA.SOLV.lig_0>
-48.9558

>  <SCORE.INTRA.VDW>
0

>  <SCORE.INTRA.VDW.0>
0

>  <SCORE.INTRA.norm>
0

>  <SCORE.RESTR>
0

>  <SCORE.RESTR.CAVITY>
0

>  <SCORE.RESTR.norm>
0

>  <SCORE.SYSTEM>
0

>  <SCORE.SYSTEM.CONST>
0

>  <SCORE.SYSTEM.DIHEDRAL>
0

>  <SCORE.SYSTEM.SOLV>
0

>  <SCORE.SYSTEM.norm>
0

>  <SCORE.heavy>
11

>  <SCORE.norm>
-0.665306

>  <RMSD>
8.537

$$$$
ligand
 OpenBabel11021811493D
libRbt.so/2013.1/901 2013/11/27
 11 12  0  0  0  0  0  0  0  0999 V2000
   11.7371    3.7510    6.2928 N   0  0  0  0  0  0  0  0  0  0  0  0
   12.2058    4.9872    6.0582 C   0  0  0  0  0  0  0  0  0  0  0  0
   12.8987    5.6466    7.0595 N   0  0  0  0  0  0  0  0  0  0  0  0
   12.0174    5.5961    4.8760 N   0  0  0  0  0  0  0  0  0  0  0  0
   11.3449    4.9792    3.8765 C   0  0  0  0  0  0  0  0  0  0  0  0
   10.8327    3.6728    4.0796 C   0  0  0  0  0  0  0  0  0  0  0  0
   11.0555    3.0654    5.3511 C   0  0  0  0  0  0  0  0  0  0  0  0
   10.5857    1.7944    5.6224 N   0  0  0  0  0  0  0  0  0  0  0  0
   10.2111    3.3035    2.9326 N   0  0  0  0  0  0  0  0  0  0  0  0
   10.3043    4.2676    2.0609 C   0  0  0  0  0  0  0  0  0  0  0  0
   10.9943    5.3205    2.5956 N   0  0  0  0  0  0  0  0  0  0  0  0
  1  7  2  0  0  0  0
  1  2  1  0  0  0  0
  2  3  1  0  0  0  0
  2  4  2  0  0  0  0
  4  5  1  0  0  0  0
  5  6  2  0  0  0  0
  5 11  1  0  0  0  0
  6  7  1  0  0  0  0
  6  9  1  0  0  0  0
  7  8  1  0  0  0  0
  9 10  1  0  0  0  0
 10 11  2  0  0  0  0
M  END
>  <CHROM.1>
11.29954895,4.21829855,4.64174618,0.59602992,1.02984059,2.28537131

>  <Name>
ligand

>  <RI>
0

>  <Rbt.Current_Directory>
/home/itssahil/PROJECTS/Mol_Feturizer/New_Systems/rnas/4FEP

>  <Rbt.Executable>
rbdock ($Id: //depot/dev/client3/rdock/2013.1/src/exe/rbdock.cxx#4 $)

>  <Rbt.Library>
libRbt.so (2013.1, Build901 2013/11/27)

>  <Rbt.Parameter_File>
/export/apps/rDock/src/rDock_2013.1_src/data/scripts/dock_solv.prm

>  <Rbt.Receptor>
prm/blind_docking_20.prm

>  <SCORE>
-7.31414

>  <SCORE.INTER>
-7.31414

>  <SCORE.INTER.CONST>
1

>  <SCORE.INTER.POLAR>
0

>  <SCORE.INTER.ROT>
0

>  <SCORE.INTER.SOLV>
5.38353

>  <SCORE.INTER.VDW>
-10.2706

>  <SCORE.INTER.norm>
-0.664922

>  <SCORE.INTRA>
0

>  <SCORE.INTRA.DIHEDRAL>
0

>  <SCORE.INTRA.DIHEDRAL.0>
0

>  <SCORE.INTRA.POLAR>
0

>  <SCORE.INTRA.POLAR.0>
0

>  <SCORE.INTRA.REPUL>
0

>  <SCORE.INTRA.REPUL.0>
0

>  <SCORE.INTRA.SOLV>
0

>  <SCORE.INTRA.SOLV.lig_0>
-48.9558

>  <SCORE.INTRA.VDW>
0

>  <SCORE.INTRA.VDW.0>
0

>  <SCORE.INTRA.norm>
0

>  <SCORE.RESTR>
0

>  <SCORE.RESTR.CAVITY>
0

>  <SCORE.RESTR.norm>
0

>  <SCORE.SYSTEM>
0

>  <SCORE.SYSTEM.CONST>
0

>  <SCORE.SYSTEM.DIHEDRAL>
0

>  <SCORE.SYSTEM.SOLV>
0

>  <SCORE.SYSTEM.norm>
0

>  <SCORE.heavy>
11

>  <SCORE.norm>
-0.664922

>  <RMSD>
8.540

$$$$
ligand
 OpenBabel11021811493D
libRbt.so/2013.1/901 2013/11/27
 11 12  0  0  0  0  0  0  0  0999 V2000
   11.7253    3.7558    6.2957 N   0  0  0  0  0  0  0  0  0  0  0  0
   12.2085    4.9848    6.0531 C   0  0  0  0  0  0  0  0  0  0  0  0
   12.9088    5.6427    7.0503 N   0  0  0  0  0  0  0  0  0  0  0  0
   12.0274    5.5882    4.8670 N   0  0  0  0  0  0  0  0  0  0  0  0
   11.3481    4.9726    3.8713 C   0  0  0  0  0  0  0  0  0  0  0  0
   10.8206    3.6737    4.0828 C   0  0  0  0  0  0  0  0  0  0  0  0
   11.0361    3.0720    5.3583 C   0  0  0  0  0  0  0  0  0  0  0  0
   10.5514    1.8083    5.6377 N   0  0  0  0  0  0  0  0  0  0  0  0
   10.1949    3.3042    2.9380 N   0  0  0  0  0  0  0  0  0  0  0  0
   10.2995    4.2614    2.0600 C   0  0  0  0  0  0  0  0  0  0  0  0
   11.0017    5.3097    2.5881 N   0  0  0  0  0  0  0  0  0  0  0  0
  1  7  2  0  0  0  0
  1  2  1  0  0  0  0
  2  3  1  0  0  0  0
  2  4  2  0  0  0  0
  4  5  1  0  0  0  0
  5  6  2  0  0  0  0
  5 11  1  0  0  0  0
  6  7  1  0  0  0  0
  6  9  1  0  0  0  0
  7  8  1  0  0  0  0
  9 10  1  0  0  0  0
 10 11  2  0  0  0  0
M  END
>  <CHROM.1>
11.29364985,4.21733891,4.64147085,0.61094500,1.02112553,2.26609489

>  <Name>
ligand

>  <RI>
0

>  <Rbt.Current_Directory>
/home/itssahil/PROJECTS/Mol_Feturizer/New_Systems/rnas/4FEP

>  <Rbt.Executable>
rbdock ($Id: //depot/dev/client3/rdock/2013.1/src/exe/rbdock.cxx#4 $)

>  <Rbt.Library>
libRbt.so (2013.1, Build901 2013/11/27)

>  <Rbt.Parameter_File>
/export/apps/rDock/src/rDock_2013.1_src/data/scripts/dock_solv.prm

>  <Rbt.Receptor>
prm/blind_docking_20.prm

>  <SCORE>
-7.32034

>  <SCORE.INTER>
-7.32034

>  <SCORE.INTER.CONST>
1

>  <SCORE.INTER.POLAR>
0

>  <SCORE.INTER.ROT>
0

>  <SCORE.INTER.SOLV>
5.44203

>  <SCORE.INTER.VDW>
-10.2942

>  <SCORE.INTER.norm>
-0.665486

>  <SCORE.INTRA>
0

>  <SCORE.INTRA.DIHEDRAL>
0

>  <SCORE.INTRA.DIHEDRAL.0>
0

>  <SCORE.INTRA.POLAR>
0

>  <SCORE.INTRA.POLAR.0>
0

>  <SCORE.INTRA.REPUL>
0

>  <SCORE.INTRA.REPUL.0>
0

>  <SCORE.INTRA.SOLV>
0

>  <SCORE.INTRA.SOLV.lig_0>
-48.9558

>  <SCORE.INTRA.VDW>
0

>  <SCORE.INTRA.VDW.0>
0

>  <SCORE.INTRA.norm>
0

>  <SCORE.RESTR>
0

>  <SCORE.RESTR.CAVITY>
0

>  <SCORE.RESTR.norm>
0

>  <SCORE.SYSTEM>
0

>  <SCORE.SYSTEM.CONST>
0

>  <SCORE.SYSTEM.DIHEDRAL>
0

>  <SCORE.SYSTEM.SOLV>
0

>  <SCORE.SYSTEM.norm>
0

>  <SCORE.heavy>
11

>  <SCORE.norm>
-0.665486

>  <RMSD>
8.543

$$$$
ligand
 OpenBabel11021811493D
libRbt.so/2013.1/901 2013/11/27
 11 12  0  0  0  0  0  0  0  0999 V2000
   11.7653    3.6835    6.2698 N   0  0  0  0  0  0  0  0  0  0  0  0
   12.2478    4.9193    6.0626 C   0  0  0  0  0  0  0  0  0  0  0  0
   12.9666    5.5399    7.0704 N   0  0  0  0  0  0  0  0  0  0  0  0
   12.0484    5.5646    4.9018 N   0  0  0  0  0  0  0  0  0  0  0  0
   11.3507    4.9862    3.8966 C   0  0  0  0  0  0  0  0  0  0  0  0
   10.8232    3.6817    4.0710 C   0  0  0  0  0  0  0  0  0  0  0  0
   11.0584    3.0348    5.3206 C   0  0  0  0  0  0  0  0  0  0  0  0
   10.5750    1.7631    5.5633 N   0  0  0  0  0  0  0  0  0  0  0  0
   10.1773    3.3543    2.9246 N   0  0  0  0  0  0  0  0  0  0  0  0
   10.2698    4.3418    2.0794 C   0  0  0  0  0  0  0  0  0  0  0  0
   10.9837    5.3692    2.6322 N   0  0  0  0  0  0  0  0  0  0  0  0
  1  7  2  0  0  0  0
  1  2  1  0  0  0  0
  2  3  1  0  0  0  0
  2  4  2  0  0  0  0
  4  5  1  0  0  0  0
  5  6  2  0  0  0  0
  5 11  1  0  0  0  0
  6  7  1  0  0  0  0
  6  9  1  0  0  0  0
  7  8  1  0  0  0  0
  9 10  1  0  0  0  0
 10 11  2  0  0  0  0
M  END
>  <CHROM.1>
11.30709786,4.20424406,4.64043733,0.59008184,1.00807762,2.31918459

>  <Name>
ligand

>  <RI>
0

>  <Rbt.Current_Directory>
/home/itssahil/PROJECTS/Mol_Feturizer/New_Systems/rnas/4FEP

>  <Rbt.Executable>
rbdock ($Id: //depot/dev/client3/rdock/2013.1/src/exe/rbdock.cxx#4 $)

>  <Rbt.Library>
libRbt.so (2013.1, Build901 2013/11/27)

>  <Rbt.Parameter_File>
/export/apps/rDock/src/rDock_2013.1_src/data/scripts/dock_solv.prm

>  <Rbt.Receptor>
prm/blind_docking_20.prm

>  <SCORE>
-7.2808

>  <SCORE.INTER>
-7.2808

>  <SCORE.INTER.CONST>
1

>  <SCORE.INTER.POLAR>
0

>  <SCORE.INTER.ROT>
0

>  <SCORE.INTER.SOLV>
5.07674

>  <SCORE.INTER.VDW>
-10.1461

>  <SCORE.INTER.norm>
-0.661891

>  <SCORE.INTRA>
0

>  <SCORE.INTRA.DIHEDRAL>
0

>  <SCORE.INTRA.DIHEDRAL.0>
0

>  <SCORE.INTRA.POLAR>
0

>  <SCORE.INTRA.POLAR.0>
0

>  <SCORE.INTRA.REPUL>
0

>  <SCORE.INTRA.REPUL.0>
0

>  <SCORE.INTRA.SOLV>
0

>  <SCORE.INTRA.SOLV.lig_0>
-48.9558

>  <SCORE.INTRA.VDW>
0

>  <SCORE.INTRA.VDW.0>
0

>  <SCORE.INTRA.norm>
0

>  <SCORE.RESTR>
0

>  <SCORE.RESTR.CAVITY>
0

>  <SCORE.RESTR.norm>
0

>  <SCORE.SYSTEM>
0

>  <SCORE.SYSTEM.CONST>
0

>  <SCORE.SYSTEM.DIHEDRAL>
0

>  <SCORE.SYSTEM.SOLV>
0

>  <SCORE.SYSTEM.norm>
0

>  <SCORE.heavy>
11

>  <SCORE.norm>
-0.661891

>  <RMSD>
8.553

$$$$
ligand
 OpenBabel11021811493D
libRbt.so/2013.1/901 2013/11/27
 11 12  0  0  0  0  0  0  0  0999 V2000
   11.7602    3.6792    6.2752 N   0  0  0  0  0  0  0  0  0  0  0  0
   12.2171    4.9260    6.0761 C   0  0  0  0  0  0  0  0  0  0  0  0
   12.9147    5.5583    7.0916 N   0  0  0  0  0  0  0  0  0  0  0  0
   12.0123    5.5711    4.9161 N   0  0  0  0  0  0  0  0  0  0  0  0
   11.3349    4.9814    3.9037 C   0  0  0  0  0  0  0  0  0  0  0  0
   10.8348    3.6651    4.0693 C   0  0  0  0  0  0  0  0  0  0  0  0
   11.0748    3.0188    5.3184 C   0  0  0  0  0  0  0  0  0  0  0  0
   10.6174    1.7360    5.5529 N   0  0  0  0  0  0  0  0  0  0  0  0
   10.2048    3.3280    2.9170 N   0  0  0  0  0  0  0  0  0  0  0  0
   10.2820    4.3205    2.0760 C   0  0  0  0  0  0  0  0  0  0  0  0
   10.9691    5.3611    2.6378 N   0  0  0  0  0  0  0  0  0  0  0  0
  1  7  2  0  0  0  0
  1  2  1  0  0  0  0
  2  3  1  0  0  0  0
  2  4  2  0  0  0  0
  4  5  1  0  0  0  0
  5  6  2  0  0  0  0
  5 11  1  0  0  0  0
  6  7  1  0  0  0  0
  6  9  1  0  0  0  0
  7  8  1  0  0  0  0
  9 10  1  0  0  0  0
 10 11  2  0  0  0  0
M  END
>  <CHROM.1>
11.30289232,4.19592273,4.64432271,0.57184747,1.02909686,2.33837895

>  <Name>
ligand

>  <RI>
0

>  <Rbt.Current_Directory>
/home/itssahil/PROJECTS/Mol_Feturizer/New_Systems/rnas/4FEP

>  <Rbt.Executable>
rbdock ($Id: //depot/dev/client3/rdock/2013.1/src/exe/rbdock.cxx#4 $)

>  <Rbt.Library>
libRbt.so (2013.1, Build901 2013/11/27)

>  <Rbt.Parameter_File>
/export/apps/rDock/src/rDock_2013.1_src/data/scripts/dock_solv.prm

>  <Rbt.Receptor>
prm/blind_docking_20.prm

>  <SCORE>
-7.31962

>  <SCORE.INTER>
-7.31962

>  <SCORE.INTER.CONST>
1

>  <SCORE.INTER.POLAR>
0

>  <SCORE.INTER.ROT>
0

>  <SCORE.INTER.SOLV>
5.10888

>  <SCORE.INTER.VDW>
-10.1827

>  <SCORE.INTER.norm>
-0.66542

>  <SCORE.INTRA>
0

>  <SCORE.INTRA.DIHEDRAL>
0

>  <SCORE.INTRA.DIHEDRAL.0>
0

>  <SCORE.INTRA.POLAR>
0

>  <SCORE.INTRA.POLAR.0>
0

>  <SCORE.INTRA.REPUL>
0

>  <SCORE.INTRA.REPUL.0>
0

>  <SCORE.INTRA.SOLV>
0

>  <SCORE.INTRA.SOLV.lig_0>
-48.9558

>  <SCORE.INTRA.VDW>
0

>  <SCORE.INTRA.VDW.0>
0

>  <SCORE.INTRA.norm>
0

>  <SCORE.RESTR>
0

>  <SCORE.RESTR.CAVITY>
0

>  <SCORE.RESTR.norm>
0

>  <SCORE.SYSTEM>
0

>  <SCORE.SYSTEM.CONST>
0

>  <SCORE.SYSTEM.DIHEDRAL>
0

>  <SCORE.SYSTEM.SOLV>
0

>  <SCORE.SYSTEM.norm>
0

>  <SCORE.heavy>
11

>  <SCORE.norm>
-0.66542

>  <RMSD>
8.556

$$$$
ligand
 OpenBabel11021811493D
libRbt.so/2013.1/901 2013/11/27
 11 12  0  0  0  0  0  0  0  0999 V2000
   11.7691    3.7190    6.2388 N   0  0  0  0  0  0  0  0  0  0  0  0
   12.2290    4.9574    5.9980 C   0  0  0  0  0  0  0  0  0  0  0  0
   12.9569    5.6087    6.9795 N   0  0  0  0  0  0  0  0  0  0  0  0
   11.9984    5.5761    4.8285 N   0  0  0  0  0  0  0  0  0  0  0  0
   11.2910    4.9673    3.8484 C   0  0  0  0  0  0  0  0  0  0  0  0
   10.7866    3.6590    4.0586 C   0  0  0  0  0  0  0  0  0  0  0  0
   11.0546    3.0410    5.3162 C   0  0  0  0  0  0  0  0  0  0  0  0
   10.5950    1.7675    5.5933 N   0  0  0  0  0  0  0  0  0  0  0  0
   10.1246    3.2990    2.9313 N   0  0  0  0  0  0  0  0  0  0  0  0
   10.1865    4.2705    2.0650 C   0  0  0  0  0  0  0  0  0  0  0  0
   10.8950    5.3192    2.5836 N   0  0  0  0  0  0  0  0  0  0  0  0
  1  7  2  0  0  0  0
  1  2  1  0  0  0  0
  2  3  1  0  0  0  0
  2  4  2  0  0  0  0
  4  5  1  0  0  0  0
  5  6  2  0  0  0  0
  5 11  1  0  0  0  0
  6  7  1  0  0  0  0
  6  9  1  0  0  0  0
  7  8  1  0  0  0  0
  9 10  1  0  0  0  0
 10 11  2  0  0  0  0
M  END
>  <CHROM.1>
11.27302274,4.19997220,4.60829568,0.54552689,1.00608229,2.33677591

>  <Name>
ligand

>  <RI>
0

>  <Rbt.Current_Directory>
/home/itssahil/PROJECTS/Mol_Feturizer/New_Systems/rnas/4FEP

>  <Rbt.Executable>
rbdock ($Id: //depot/dev/client3/rdock/2013.1/src/exe/rbdock.cxx#4 $)

>  <Rbt.Library>
libRbt.so (2013.1, Build901 2013/11/27)

>  <Rbt.Parameter_File>
/export/apps/rDock/src/rDock_2013.1_src/data/scripts/dock_solv.prm

>  <Rbt.Receptor>
prm/blind_docking_20.prm

>  <SCORE>
-7.35839

>  <SCORE.INTER>
-7.35839

>  <SCORE.INTER.CONST>
1

>  <SCORE.INTER.POLAR>
0

>  <SCORE.INTER.ROT>
0

>  <SCORE.INTER.SOLV>
5.32883

>  <SCORE.INTER.VDW>
-10.2819

>  <SCORE.INTER.norm>
-0.668945

>  <SCORE.INTRA>
0

>  <SCORE.INTRA.DIHEDRAL>
0

>  <SCORE.INTRA.DIHEDRAL.0>
0

>  <SCORE.INTRA.POLAR>
0

>  <SCORE.INTRA.POLAR.0>
0

>  <SCORE.INTRA.REPUL>
0

>  <SCORE.INTRA.REPUL.0>
0

>  <SCORE.INTRA.SOLV>
0

>  <SCORE.INTRA.SOLV.lig_0>
-48.9558

>  <SCORE.INTRA.VDW>
0

>  <SCORE.INTRA.VDW.0>
0

>  <SCORE.INTRA.norm>
0

>  <SCORE.RESTR>
0

>  <SCORE.RESTR.CAVITY>
0

>  <SCORE.RESTR.norm>
0

>  <SCORE.SYSTEM>
0

>  <SCORE.SYSTEM.CONST>
0

>  <SCORE.SYSTEM.DIHEDRAL>
0

>  <SCORE.SYSTEM.SOLV>
0

>  <SCORE.SYSTEM.norm>
0

>  <SCORE.heavy>
11

>  <SCORE.norm>
-0.668945

>  <RMSD>
8.571

$$$$
ligand
 OpenBabel11021811493D
libRbt.so/2013.1/901 2013/11/27
 11 12  0  0  0  0  0  0  0  0999 V2000
   11.7775    3.7130    6.2355 N   0  0  0  0  0  0  0  0  0  0  0  0
   12.2381    4.9510    5.9944 C   0  0  0  0  0  0  0  0  0  0  0  0
   12.9707    5.6002    6.9739 N   0  0  0  0  0  0  0  0  0  0  0  0
   12.0040    5.5714    4.8265 N   0  0  0  0  0  0  0  0  0  0  0  0
   11.2920    4.9647    3.8484 C   0  0  0  0  0  0  0  0  0  0  0  0
   10.7866    3.6568    4.0590 C   0  0  0  0  0  0  0  0  0  0  0  0
   11.0585    3.0370    5.3149 C   0  0  0  0  0  0  0  0  0  0  0  0
   10.5982    1.7639    5.5922 N   0  0  0  0  0  0  0  0  0  0  0  0
   10.1198    3.2991    2.9339 N   0  0  0  0  0  0  0  0  0  0  0  0
   10.1798    4.2715    2.0684 C   0  0  0  0  0  0  0  0  0  0  0  0
   10.8917    5.3186    2.5856 N   0  0  0  0  0  0  0  0  0  0  0  0
  1  7  2  0  0  0  0
  1  2  1  0  0  0  0
  2  3  1  0  0  0  0
  2  4  2  0  0  0  0
  4  5  1  0  0  0  0
  5  6  2  0  0  0  0
  5 11  1  0  0  0  0
  6  7  1  0  0  0  0
  6  9  1  0  0  0  0
  7  8  1  0  0  0  0
  9 10  1  0  0  0  0
 10 11  2  0  0  0  0
M  END
>  <CHROM.1>
11.27584547,4.19650712,4.60749558,0.54223841,1.00243772,2.34069648

>  <Name>
ligand

>  <RI>
0

>  <Rbt.Current_Directory>
/home/itssahil/PROJECTS/Mol_Feturizer/New_Systems/rnas/4FEP

>  <Rbt.Executable>
rbdock ($Id: //depot/dev/client3/rdock/2013.1/src/exe/rbdock.cxx#4 $)

>  <Rbt.Library>
libRbt.so (2013.1, Build901 2013/11/27)

>  <Rbt.Parameter_File>
/export/apps/rDock/src/rDock_2013.1_src/data/scripts/dock_solv.prm

>  <Rbt.Receptor>
prm/blind_docking_20.prm

>  <SCORE>
-7.36282

>  <SCORE.INTER>
-7.36282

>  <SCORE.INTER.CONST>
1

>  <SCORE.INTER.POLAR>
0

>  <SCORE.INTER.ROT>
0

>  <SCORE.INTER.SOLV>
5.29109

>  <SCORE.INTER.VDW>
-10.2722

>  <SCORE.INTER.norm>
-0.669347

>  <SCORE.INTRA>
0

>  <SCORE.INTRA.DIHEDRAL>
0

>  <SCORE.INTRA.DIHEDRAL.0>
0

>  <SCORE.INTRA.POLAR>
0

>  <SCORE.INTRA.POLAR.0>
0

>  <SCORE.INTRA.REPUL>
0

>  <SCORE.INTRA.REPUL.0>
0

>  <SCORE.INTRA.SOLV>
0

>  <SCORE.INTRA.SOLV.lig_0>
-48.9558

>  <SCORE.INTRA.VDW>
0

>  <SCORE.INTRA.VDW.0>
0

>  <SCORE.INTRA.norm>
0

>  <SCORE.RESTR>
0

>  <SCORE.RESTR.CAVITY>
0

>  <SCORE.RESTR.norm>
0

>  <SCORE.SYSTEM>
0

>  <SCORE.SYSTEM.CONST>
0

>  <SCORE.SYSTEM.DIHEDRAL>
0

>  <SCORE.SYSTEM.SOLV>
0

>  <SCORE.SYSTEM.norm>
0

>  <SCORE.heavy>
11

>  <SCORE.norm>
-0.669347

>  <RMSD>
8.575

$$$$
ligand
 OpenBabel11021811493D
libRbt.so/2013.1/901 2013/11/27
 11 12  0  0  0  0  0  0  0  0999 V2000
   11.7616    3.7618    6.1992 N   0  0  0  0  0  0  0  0  0  0  0  0
   12.2092    4.9941    5.9096 C   0  0  0  0  0  0  0  0  0  0  0  0
   12.9641    5.6753    6.8497 N   0  0  0  0  0  0  0  0  0  0  0  0
   11.9411    5.5786    4.7305 N   0  0  0  0  0  0  0  0  0  0  0  0
   11.2066    4.9400    3.7900 C   0  0  0  0  0  0  0  0  0  0  0  0
   10.7138    3.6368    4.0524 C   0  0  0  0  0  0  0  0  0  0  0  0
   11.0222    3.0556    5.3184 C   0  0  0  0  0  0  0  0  0  0  0  0
   10.5760    1.7892    5.6453 N   0  0  0  0  0  0  0  0  0  0  0  0
   10.0194    3.2429    2.9565 N   0  0  0  0  0  0  0  0  0  0  0  0
   10.0513    4.1895    2.0614 C   0  0  0  0  0  0  0  0  0  0  0  0
   10.7711    5.2546    2.5284 N   0  0  0  0  0  0  0  0  0  0  0  0
  1  7  2  0  0  0  0
  1  2  1  0  0  0  0
  2  3  1  0  0  0  0
  2  4  2  0  0  0  0
  4  5  1  0  0  0  0
  5  6  2  0  0  0  0
  5 11  1  0  0  0  0
  6  7  1  0  0  0  0
  6  9  1  0  0  0  0
  7  8  1  0  0  0  0
  9 10  1  0  0  0  0
 10 11  2  0  0  0  0
M  END
>  <CHROM.1>
11.21456706,4.19461334,4.57155805,0.50110246,0.98739698,2.34564448

>  <Name>
ligand

>  <RI>
0

>  <Rbt.Current_Directory>
/home/itssahil/PROJECTS/Mol_Feturizer/New_Systems/rnas/4FEP

>  <Rbt.Executable>
rbdock ($Id: //depot/dev/client3/rdock/2013.1/src/exe/rbdock.cxx#4 $)

>  <Rbt.Library>
libRbt.so (2013.1, Build901 2013/11/27)

>  <Rbt.Parameter_File>
/export/apps/rDock/src/rDock_2013.1_src/data/scripts/dock_solv.prm

>  <Rbt.Receptor>
prm/blind_docking_20.prm

>  <SCORE>
-7.35828

>  <SCORE.INTER>
-7.35828

>  <SCORE.INTER.CONST>
1

>  <SCORE.INTER.POLAR>
0

>  <SCORE.INTER.ROT>
0

>  <SCORE.INTER.SOLV>
5.73232

>  <SCORE.INTER.VDW>
-10.4163

>  <SCORE.INTER.norm>
-0.668934

>  <SCORE.INTRA>
0

>  <SCORE.INTRA.DIHEDRAL>
0

>  <SCORE.INTRA.DIHEDRAL.0>
0

>  <SCORE.INTRA.POLAR>
0

>  <SCORE.INTRA.POLAR.0>
0

>  <SCORE.INTRA.REPUL>
0

>  <SCORE.INTRA.REPUL.0>
0

>  <SCORE.INTRA.SOLV>
0

>  <SCORE.INTRA.SOLV.lig_0>
-48.9558

>  <SCORE.INTRA.VDW>
0

>  <SCORE.INTRA.VDW.0>
0

>  <SCORE.INTRA.norm>
0

>  <SCORE.RESTR>
0

>  <SCORE.RESTR.CAVITY>
0

>  <SCORE.RESTR.norm>
0

>  <SCORE.SYSTEM>
0

>  <SCORE.SYSTEM.CONST>
0

>  <SCORE.SYSTEM.DIHEDRAL>
0

>  <SCORE.SYSTEM.SOLV>
0

>  <SCORE.SYSTEM.norm>
0

>  <SCORE.heavy>
11

>  <SCORE.norm>
-0.668934

>  <RMSD>
8.596

$$$$
ligand
 OpenBabel11021811493D
libRbt.so/2013.1/901 2013/11/27
 11 12  0  0  0  0  0  0  0  0999 V2000
   11.7890    3.6684    6.2262 N   0  0  0  0  0  0  0  0  0  0  0  0
   12.2305    4.9153    5.9953 C   0  0  0  0  0  0  0  0  0  0  0  0
   12.9603    5.5645    6.9769 N   0  0  0  0  0  0  0  0  0  0  0  0
   11.9798    5.5446    4.8356 N   0  0  0  0  0  0  0  0  0  0  0  0
   11.2699    4.9382    3.8557 C   0  0  0  0  0  0  0  0  0  0  0  0
   10.7845    3.6212    4.0557 C   0  0  0  0  0  0  0  0  0  0  0  0
   11.0735    2.9921    5.3031 C   0  0  0  0  0  0  0  0  0  0  0  0
   10.6331    1.7096    5.5699 N   0  0  0  0  0  0  0  0  0  0  0  0
   10.1153    3.2659    2.9312 N   0  0  0  0  0  0  0  0  0  0  0  0
   10.1557    4.2482    2.0758 C   0  0  0  0  0  0  0  0  0  0  0  0
   10.8562    5.2998    2.5994 N   0  0  0  0  0  0  0  0  0  0  0  0
  1  7  2  0  0  0  0
  1  2  1  0  0  0  0
  2  3  1  0  0  0  0
  2  4  2  0  0  0  0
  4  5  1  0  0  0  0
  5  6  2  0  0  0  0
  5 11  1  0  0  0  0
  6  7  1  0  0  0  0
  6  9  1  0  0  0  0
  7  8  1  0  0  0  0
  9 10  1  0  0  0  0
 10 11  2  0  0  0  0
M  END
>  <CHROM.1>
11.26969699,4.16193170,4.60673308,0.51481647,1.00776893,2.37446009

>  <Name>
ligand

>  <RI>
0

>  <Rbt.Current_Directory>
/home/itssahil/PROJECTS/Mol_Feturizer/New_Systems/rnas/4FEP

>  <Rbt.Executable>
rbdock ($Id: //depot/dev/client3/rdock/2013.1/src/exe/rbdock.cxx#4 $)

>  <Rbt.Library>
libRbt.so (2013.1, Build901 2013/11/27)

>  <Rbt.Parameter_File>
/export/apps/rDock/src/rDock_2013.1_src/data/scripts/dock_solv.prm

>  <Rbt.Receptor>
prm/blind_docking_20.prm

>  <SCORE>
-7.34907

>  <SCORE.INTER>
-7.34907

>  <SCORE.INTER.CONST>
1

>  <SCORE.INTER.POLAR>
0

>  <SCORE.INTER.ROT>
0

>  <SCORE.INTER.SOLV>
5.17124

>  <SCORE.INTER.VDW>
-10.2231

>  <SCORE.INTER.norm>
-0.668097

>  <SCORE.INTRA>
0

>  <SCORE.INTRA.DIHEDRAL>
0

>  <SCORE.INTRA.DIHEDRAL.0>
0

>  <SCORE.INTRA.POLAR>
0

>  <SCORE.INTRA.POLAR.0>
0

>  <SCORE.INTRA.REPUL>
0

>  <SCORE.INTRA.REPUL.0>
0

>  <SCORE.INTRA.SOLV>
0

>  <SCORE.INTRA.SOLV.lig_0>
-48.9558

>  <SCORE.INTRA.VDW>
0

>  <SCORE.INTRA.VDW.0>
0

>  <SCORE.INTRA.norm>
0

>  <SCORE.RESTR>
0

>  <SCORE.RESTR.CAVITY>
0

>  <SCORE.RESTR.norm>
0

>  <SCORE.SYSTEM>
0

>  <SCORE.SYSTEM.CONST>
0

>  <SCORE.SYSTEM.DIHEDRAL>
0

>  <SCORE.SYSTEM.SOLV>
0

>  <SCORE.SYSTEM.norm>
0

>  <SCORE.heavy>
11

>  <SCORE.norm>
-0.668097

>  <RMSD>
8.605

$$$$
ligand
 OpenBabel11021811493D
libRbt.so/2013.1/901 2013/11/27
 11 12  0  0  0  0  0  0  0  0999 V2000
   11.7865    3.7013    6.2033 N   0  0  0  0  0  0  0  0  0  0  0  0
   12.2078    4.9511    5.9514 C   0  0  0  0  0  0  0  0  0  0  0  0
   12.9370    5.6240    6.9174 N   0  0  0  0  0  0  0  0  0  0  0  0
   11.9378    5.5607    4.7856 N   0  0  0  0  0  0  0  0  0  0  0  0
   11.2281    4.9308    3.8206 C   0  0  0  0  0  0  0  0  0  0  0  0
   10.7635    3.6099    4.0428 C   0  0  0  0  0  0  0  0  0  0  0  0
   11.0727    3.0021    5.2960 C   0  0  0  0  0  0  0  0  0  0  0  0
   10.6532    1.7173    5.5842 N   0  0  0  0  0  0  0  0  0  0  0  0
   10.0895    3.2297    2.9294 N   0  0  0  0  0  0  0  0  0  0  0  0
   10.1082    4.2005    2.0604 C   0  0  0  0  0  0  0  0  0  0  0  0
   10.7980    5.2692    2.5633 N   0  0  0  0  0  0  0  0  0  0  0  0
  1  7  2  0  0  0  0
  1  2  1  0  0  0  0
  2  3  1  0  0  0  0
  2  4  2  0  0  0  0
  4  5  1  0  0  0  0
  5  6  2  0  0  0  0
  5 11  1  0  0  0  0
  6  7  1  0  0  0  0
  6  9  1  0  0  0  0
  7  8  1  0  0  0  0
  9 10  1  0  0  0  0
 10 11  2  0  0  0  0
M  END
>  <CHROM.1>
11.24574246,4.16502692,4.58201018,0.48357194,1.01117005,2.38725011

>  <Name>
ligand

>  <RI>
0

>  <Rbt.Current_Directory>
/home/itssahil/PROJECTS/Mol_Feturizer/New_Systems/rnas/4FEP

>  <Rbt.Executable>
rbdock ($Id: //depot/dev/client3/rdock/2013.1/src/exe/rbdock.cxx#4 $)

>  <Rbt.Library>
libRbt.so (2013.1, Build901 2013/11/27)

>  <Rbt.Parameter_File>
/export/apps/rDock/src/rDock_2013.1_src/data/scripts/dock_solv.prm

>  <Rbt.Receptor>
prm/blind_docking_20.prm

>  <SCORE>
-7.35617

>  <SCORE.INTER>
-7.35617

>  <SCORE.INTER.CONST>
1

>  <SCORE.INTER.POLAR>
0

>  <SCORE.INTER.ROT>
0

>  <SCORE.INTER.SOLV>
5.42414

>  <SCORE.INTER.VDW>
-10.3122

>  <SCORE.INTER.norm>
-0.668743

>  <SCORE.INTRA>
0

>  <SCORE.INTRA.DIHEDRAL>
0

>  <SCORE.INTRA.DIHEDRAL.0>
0

>  <SCORE.INTRA.POLAR>
0

>  <SCORE.INTRA.POLAR.0>
0

>  <SCORE.INTRA.REPUL>
0

>  <SCORE.INTRA.REPUL.0>
0

>  <SCORE.INTRA.SOLV>
0

>  <SCORE.INTRA.SOLV.lig_0>
-48.9558

>  <SCORE.INTRA.VDW>
0

>  <SCORE.INTRA.VDW.0>
0

>  <SCORE.INTRA.norm>
0

>  <SCORE.RESTR>
0

>  <SCORE.RESTR.CAVITY>
0

>  <SCORE.RESTR.norm>
0

>  <SCORE.SYSTEM>
0

>  <SCORE.SYSTEM.CONST>
0

>  <SCORE.SYSTEM.DIHEDRAL>
0

>  <SCORE.SYSTEM.SOLV>
0

>  <SCORE.SYSTEM.norm>
0

>  <SCORE.heavy>
11

>  <SCORE.norm>
-0.668743

>  <RMSD>
8.612

$$$$
ligand
 OpenBabel11021811493D
libRbt.so/2013.1/901 2013/11/27
 11 12  0  0  0  0  0  0  0  0999 V2000
   11.7719    3.7445    6.1717 N   0  0  0  0  0  0  0  0  0  0  0  0
   12.2330    4.9710    5.8786 C   0  0  0  0  0  0  0  0  0  0  0  0
   13.0068    5.6409    6.8115 N   0  0  0  0  0  0  0  0  0  0  0  0
   11.9604    5.5605    4.7031 N   0  0  0  0  0  0  0  0  0  0  0  0
   11.2076    4.9330    3.7696 C   0  0  0  0  0  0  0  0  0  0  0  0
   10.7000    3.6362    4.0359 C   0  0  0  0  0  0  0  0  0  0  0  0
   11.0137    3.0494    5.2979 C   0  0  0  0  0  0  0  0  0  0  0  0
   10.5540    1.7888    5.6282 N   0  0  0  0  0  0  0  0  0  0  0  0
    9.9888    3.2530    2.9469 N   0  0  0  0  0  0  0  0  0  0  0  0
   10.0242    4.2002    2.0526 C   0  0  0  0  0  0  0  0  0  0  0  0
   10.7632    5.2550    2.5130 N   0  0  0  0  0  0  0  0  0  0  0  0
  1  7  2  0  0  0  0
  1  2  1  0  0  0  0
  2  3  1  0  0  0  0
  2  4  2  0  0  0  0
  4  5  1  0  0  0  0
  5  6  2  0  0  0  0
  5 11  1  0  0  0  0
  6  7  1  0  0  0  0
  6  9  1  0  0  0  0
  7  8  1  0  0  0  0
  9 10  1  0  0  0  0
 10 11  2  0  0  0  0
M  END
>  <CHROM.1>
11.21366471,4.18662802,4.55032340,0.50455181,0.97040709,2.34390790

>  <Name>
ligand

>  <RI>
0

>  <Rbt.Current_Directory>
/home/itssahil/PROJECTS/Mol_Feturizer/New_Systems/rnas/4FEP

>  <Rbt.Executable>
rbdock ($Id: //depot/dev/client3/rdock/2013.1/src/exe/rbdock.cxx#4 $)

>  <Rbt.Library>
libRbt.so (2013.1, Build901 2013/11/27)

>  <Rbt.Parameter_File>
/export/apps/rDock/src/rDock_2013.1_src/data/scripts/dock_solv.prm

>  <Rbt.Receptor>
prm/blind_docking_20.prm

>  <SCORE>
-7.38165

>  <SCORE.INTER>
-7.38165

>  <SCORE.INTER.CONST>
1

>  <SCORE.INTER.POLAR>
0

>  <SCORE.INTER.ROT>
0

>  <SCORE.INTER.SOLV>
5.74959

>  <SCORE.INTER.VDW>
-10.4376

>  <SCORE.INTER.norm>
-0.671059

>  <SCORE.INTRA>
0

>  <SCORE.INTRA.DIHEDRAL>
0

>  <SCORE.INTRA.DIHEDRAL.0>
0

>  <SCORE.INTRA.POLAR>
0

>  <SCORE.INTRA.POLAR.0>
0

>  <SCORE.INTRA.REPUL>
0

>  <SCORE.INTRA.REPUL.0>
0

>  <SCORE.INTRA.SOLV>
0

>  <SCORE.INTRA.SOLV.lig_0>
-48.9558

>  <SCORE.INTRA.VDW>
0

>  <SCORE.INTRA.VDW.0>
0

>  <SCORE.INTRA.norm>
0

>  <SCORE.RESTR>
0

>  <SCORE.RESTR.CAVITY>
0

>  <SCORE.RESTR.norm>
0

>  <SCORE.SYSTEM>
0

>  <SCORE.SYSTEM.CONST>
0

>  <SCORE.SYSTEM.DIHEDRAL>
0

>  <SCORE.SYSTEM.SOLV>
0

>  <SCORE.SYSTEM.norm>
0

>  <SCORE.heavy>
11

>  <SCORE.norm>
-0.671059

>  <RMSD>
8.613

$$$$
ligand
 OpenBabel11021811493D
libRbt.so/2013.1/901 2013/11/27
 11 12  0  0  0  0  0  0  0  0999 V2000
   11.7928    3.7308    6.1800 N   0  0  0  0  0  0  0  0  0  0  0  0
   12.2423    4.9627    5.8911 C   0  0  0  0  0  0  0  0  0  0  0  0
   13.0200    5.6317    6.8213 N   0  0  0  0  0  0  0  0  0  0  0  0
   11.9545    5.5581    4.7222 N   0  0  0  0  0  0  0  0  0  0  0  0
   11.1975    4.9316    3.7915 C   0  0  0  0  0  0  0  0  0  0  0  0
   10.7018    3.6293    4.0535 C   0  0  0  0  0  0  0  0  0  0  0  0
   11.0315    3.0363    5.3085 C   0  0  0  0  0  0  0  0  0  0  0  0
   10.5840    1.7700    5.6343 N   0  0  0  0  0  0  0  0  0  0  0  0
    9.9833    3.2485    2.9685 N   0  0  0  0  0  0  0  0  0  0  0  0
   10.0035    4.2019    2.0805 C   0  0  0  0  0  0  0  0  0  0  0  0
   10.7391    5.2589    2.5413 N   0  0  0  0  0  0  0  0  0  0  0  0
  1  7  2  0  0  0  0
  1  2  1  0  0  0  0
  2  3  1  0  0  0  0
  2  4  2  0  0  0  0
  4  5  1  0  0  0  0
  5  6  2  0  0  0  0
  5 11  1  0  0  0  0
  6  7  1  0  0  0  0
  6  9  1  0  0  0  0
  7  8  1  0  0  0  0
  9 10  1  0  0  0  0
 10 11  2  0  0  0  0
M  END
>  <CHROM.1>
11.21628771,4.17994469,4.56693284,0.48386724,0.96893656,2.36782097

>  <Name>
ligand

>  <RI>
0

>  <Rbt.Current_Directory>
/home/itssahil/PROJECTS/Mol_Feturizer/New_Systems/rnas/4FEP

>  <Rbt.Executable>
rbdock ($Id: //depot/dev/client3/rdock/2013.1/src/exe/rbdock.cxx#4 $)

>  <Rbt.Library>
libRbt.so (2013.1, Build901 2013/11/27)

>  <Rbt.Parameter_File>
/export/apps/rDock/src/rDock_2013.1_src/data/scripts/dock_solv.prm

>  <Rbt.Receptor>
prm/blind_docking_20.prm

>  <SCORE>
-7.35776

>  <SCORE.INTER>
-7.35776

>  <SCORE.INTER.CONST>
1

>  <SCORE.INTER.POLAR>
0

>  <SCORE.INTER.ROT>
0

>  <SCORE.INTER.SOLV>
5.60076

>  <SCORE.INTER.VDW>
-10.3721

>  <SCORE.INTER.norm>
-0.668888

>  <SCORE.INTRA>
0

>  <SCORE.INTRA.DIHEDRAL>
0

>  <SCORE.INTRA.DIHEDRAL.0>
0

>  <SCORE.INTRA.POLAR>
0

>  <SCORE.INTRA.POLAR.0>
0

>  <SCORE.INTRA.REPUL>
0

>  <SCORE.INTRA.REPUL.0>
0

>  <SCORE.INTRA.SOLV>
0

>  <SCORE.INTRA.SOLV.lig_0>
-48.9558

>  <SCORE.INTRA.VDW>
0

>  <SCORE.INTRA.VDW.0>
0

>  <SCORE.INTRA.norm>
0

>  <SCORE.RESTR>
0

>  <SCORE.RESTR.CAVITY>
0

>  <SCORE.RESTR.norm>
0

>  <SCORE.SYSTEM>
0

>  <SCORE.SYSTEM.CONST>
0

>  <SCORE.SYSTEM.DIHEDRAL>
0

>  <SCORE.SYSTEM.SOLV>
0

>  <SCORE.SYSTEM.norm>
0

>  <SCORE.heavy>
11

>  <SCORE.norm>
-0.668888

>  <RMSD>
8.613

$$$$
ligand
 OpenBabel11021811493D
libRbt.so/2013.1/901 2013/11/27
 11 12  0  0  0  0  0  0  0  0999 V2000
   11.7679    3.7324    6.1790 N   0  0  0  0  0  0  0  0  0  0  0  0
   12.2225    4.9640    5.8971 C   0  0  0  0  0  0  0  0  0  0  0  0
   12.9839    5.6337    6.8401 N   0  0  0  0  0  0  0  0  0  0  0  0
   11.9551    5.5586    4.7229 N   0  0  0  0  0  0  0  0  0  0  0  0
   11.2143    4.9314    3.7797 C   0  0  0  0  0  0  0  0  0  0  0  0
   10.7140    3.6294    4.0340 C   0  0  0  0  0  0  0  0  0  0  0  0
   11.0219    3.0372    5.2949 C   0  0  0  0  0  0  0  0  0  0  0  0
   10.5686    1.7713    5.6139 N   0  0  0  0  0  0  0  0  0  0  0  0
   10.0144    3.2478    2.9370 N   0  0  0  0  0  0  0  0  0  0  0  0
   10.0501    4.2006    2.0487 C   0  0  0  0  0  0  0  0  0  0  0  0
   10.7777    5.2578    2.5215 N   0  0  0  0  0  0  0  0  0  0  0  0
  1  7  2  0  0  0  0
  1  2  1  0  0  0  0
  2  3  1  0  0  0  0
  2  4  2  0  0  0  0
  4  5  1  0  0  0  0
  5  6  2  0  0  0  0
  5 11  1  0  0  0  0
  6  7  1  0  0  0  0
  6  9  1  0  0  0  0
  7  8  1  0  0  0  0
  9 10  1  0  0  0  0
 10 11  2  0  0  0  0
M  END
>  <CHROM.1>
11.21953751,4.18035958,4.55586985,0.50578683,0.98119628,2.34893527

>  <Name>
ligand

>  <RI>
0

>  <Rbt.Current_Directory>
/home/itssahil/PROJECTS/Mol_Feturizer/New_Systems/rnas/4FEP

>  <Rbt.Executable>
rbdock ($Id: //depot/dev/client3/rdock/2013.1/src/exe/rbdock.cxx#4 $)

>  <Rbt.Library>
libRbt.so (2013.1, Build901 2013/11/27)

>  <Rbt.Parameter_File>
/export/apps/rDock/src/rDock_2013.1_src/data/scripts/dock_solv.prm

>  <Rbt.Receptor>
prm/blind_docking_20.prm

>  <SCORE>
-7.39046

>  <SCORE.INTER>
-7.39046

>  <SCORE.INTER.CONST>
1

>  <SCORE.INTER.POLAR>
0

>  <SCORE.INTER.ROT>
0

>  <SCORE.INTER.SOLV>
5.67005

>  <SCORE.INTER.VDW>
-10.417

>  <SCORE.INTER.norm>
-0.67186

>  <SCORE.INTRA>
0

>  <SCORE.INTRA.DIHEDRAL>
0

>  <SCORE.INTRA.DIHEDRAL.0>
0

>  <SCORE.INTRA.POLAR>
0

>  <SCORE.INTRA.POLAR.0>
0

>  <SCORE.INTRA.REPUL>
0

>  <SCORE.INTRA.REPUL.0>
0

>  <SCORE.INTRA.SOLV>
0

>  <SCORE.INTRA.SOLV.lig_0>
-48.9558

>  <SCORE.INTRA.VDW>
0

>  <SCORE.INTRA.VDW.0>
0

>  <SCORE.INTRA.norm>
0

>  <SCORE.RESTR>
0

>  <SCORE.RESTR.CAVITY>
0

>  <SCORE.RESTR.norm>
0

>  <SCORE.SYSTEM>
0

>  <SCORE.SYSTEM.CONST>
0

>  <SCORE.SYSTEM.DIHEDRAL>
0

>  <SCORE.SYSTEM.SOLV>
0

>  <SCORE.SYSTEM.norm>
0

>  <SCORE.heavy>
11

>  <SCORE.norm>
-0.67186

>  <RMSD>
8.614

$$$$
ligand
 OpenBabel11021811493D
libRbt.so/2013.1/901 2013/11/27
 11 12  0  0  0  0  0  0  0  0999 V2000
   11.7043    3.7191    6.2201 N   0  0  0  0  0  0  0  0  0  0  0  0
   12.1657    4.9487    5.9405 C   0  0  0  0  0  0  0  0  0  0  0  0
   12.9094    5.6226    6.8946 N   0  0  0  0  0  0  0  0  0  0  0  0
   11.9217    5.5373    4.7582 N   0  0  0  0  0  0  0  0  0  0  0  0
   11.1986    4.9058    3.8042 C   0  0  0  0  0  0  0  0  0  0  0  0
   10.6920    3.6057    4.0557 C   0  0  0  0  0  0  0  0  0  0  0  0
   10.9747    3.0200    5.3255 C   0  0  0  0  0  0  0  0  0  0  0  0
   10.5139    1.7562    5.6423 N   0  0  0  0  0  0  0  0  0  0  0  0
   10.0134    3.2189    2.9473 N   0  0  0  0  0  0  0  0  0  0  0  0
   10.0673    4.1669    2.0549 C   0  0  0  0  0  0  0  0  0  0  0  0
   10.7868    5.2260    2.5360 N   0  0  0  0  0  0  0  0  0  0  0  0
  1  7  2  0  0  0  0
  1  2  1  0  0  0  0
  2  3  1  0  0  0  0
  2  4  2  0  0  0  0
  4  5  1  0  0  0  0
  5  6  2  0  0  0  0
  5 11  1  0  0  0  0
  6  7  1  0  0  0  0
  6  9  1  0  0  0  0
  7  8  1  0  0  0  0
  9 10  1  0  0  0  0
 10 11  2  0  0  0  0
M  END
>  <CHROM.1>
11.18796796,4.15891931,4.58429267,0.53254949,0.99381533,2.32126924

>  <Name>
ligand

>  <RI>
0

>  <Rbt.Current_Directory>
/home/itssahil/PROJECTS/Mol_Feturizer/New_Systems/rnas/4FEP

>  <Rbt.Executable>
rbdock ($Id: //depot/dev/client3/rdock/2013.1/src/exe/rbdock.cxx#4 $)

>  <Rbt.Library>
libRbt.so (2013.1, Build901 2013/11/27)

>  <Rbt.Parameter_File>
/export/apps/rDock/src/rDock_2013.1_src/data/scripts/dock_solv.prm

>  <Rbt.Receptor>
prm/blind_docking_20.prm

>  <SCORE>
-7.38108

>  <SCORE.INTER>
-7.38108

>  <SCORE.INTER.CONST>
1

>  <SCORE.INTER.POLAR>
0

>  <SCORE.INTER.ROT>
0

>  <SCORE.INTER.SOLV>
5.66344

>  <SCORE.INTER.VDW>
-10.4085

>  <SCORE.INTER.norm>
-0.671007

>  <SCORE.INTRA>
0

>  <SCORE.INTRA.DIHEDRAL>
0

>  <SCORE.INTRA.DIHEDRAL.0>
0

>  <SCORE.INTRA.POLAR>
0

>  <SCORE.INTRA.POLAR.0>
0

>  <SCORE.INTRA.REPUL>
0

>  <SCORE.INTRA.REPUL.0>
0

>  <SCORE.INTRA.SOLV>
0

>  <SCORE.INTRA.SOLV.lig_0>
-48.9558

>  <SCORE.INTRA.VDW>
0

>  <SCORE.INTRA.VDW.0>
0

>  <SCORE.INTRA.norm>
0

>  <SCORE.RESTR>
0

>  <SCORE.RESTR.CAVITY>
0

>  <SCORE.RESTR.norm>
0

>  <SCORE.SYSTEM>
0

>  <SCORE.SYSTEM.CONST>
0

>  <SCORE.SYSTEM.DIHEDRAL>
0

>  <SCORE.SYSTEM.SOLV>
0

>  <SCORE.SYSTEM.norm>
0

>  <SCORE.heavy>
11

>  <SCORE.norm>
-0.671007

>  <RMSD>
8.625

$$$$
ligand
 OpenBabel11021811493D
libRbt.so/2013.1/901 2013/11/27
 11 12  0  0  0  0  0  0  0  0999 V2000
   11.7966    3.6549    6.2053 N   0  0  0  0  0  0  0  0  0  0  0  0
   12.2228    4.9058    5.9674 C   0  0  0  0  0  0  0  0  0  0  0  0
   12.9579    5.5636    6.9393 N   0  0  0  0  0  0  0  0  0  0  0  0
   11.9519    5.5309    4.8100 N   0  0  0  0  0  0  0  0  0  0  0  0
   11.2364    4.9160    3.8396 C   0  0  0  0  0  0  0  0  0  0  0  0
   10.7665    3.5945    4.0471 C   0  0  0  0  0  0  0  0  0  0  0  0
   11.0769    2.9701    5.2918 C   0  0  0  0  0  0  0  0  0  0  0  0
   10.6525    1.6838    5.5655 N   0  0  0  0  0  0  0  0  0  0  0  0
   10.0874    3.2310    2.9312 N   0  0  0  0  0  0  0  0  0  0  0  0
   10.1078    4.2124    2.0741 C   0  0  0  0  0  0  0  0  0  0  0  0
   10.8039    5.2717    2.5879 N   0  0  0  0  0  0  0  0  0  0  0  0
  1  7  2  0  0  0  0
  1  2  1  0  0  0  0
  2  3  1  0  0  0  0
  2  4  2  0  0  0  0
  4  5  1  0  0  0  0
  5  6  2  0  0  0  0
  5 11  1  0  0  0  0
  6  7  1  0  0  0  0
  6  9  1  0  0  0  0
  7  8  1  0  0  0  0
  9 10  1  0  0  0  0
 10 11  2  0  0  0  0
M  END
>  <CHROM.1>
11.25294519,4.14088823,4.59151372,0.48575507,1.00584321,2.39764387

>  <Name>
ligand

>  <RI>
0

>  <Rbt.Current_Directory>
/home/itssahil/PROJECTS/Mol_Feturizer/New_Systems/rnas/4FEP

>  <Rbt.Executable>
rbdock ($Id: //depot/dev/client3/rdock/2013.1/src/exe/rbdock.cxx#4 $)

>  <Rbt.Library>
libRbt.so (2013.1, Build901 2013/11/27)

>  <Rbt.Parameter_File>
/export/apps/rDock/src/rDock_2013.1_src/data/scripts/dock_solv.prm

>  <Rbt.Receptor>
prm/blind_docking_40.prm

>  <SCORE>
-7.37418

>  <SCORE.INTER>
-7.37418

>  <SCORE.INTER.CONST>
1

>  <SCORE.INTER.POLAR>
0

>  <SCORE.INTER.ROT>
0

>  <SCORE.INTER.SOLV>
5.19535

>  <SCORE.INTER.VDW>
-10.2479

>  <SCORE.INTER.norm>
-0.67038

>  <SCORE.INTRA>
0

>  <SCORE.INTRA.DIHEDRAL>
0

>  <SCORE.INTRA.DIHEDRAL.0>
0

>  <SCORE.INTRA.POLAR>
0

>  <SCORE.INTRA.POLAR.0>
0

>  <SCORE.INTRA.REPUL>
0

>  <SCORE.INTRA.REPUL.0>
0

>  <SCORE.INTRA.SOLV>
0

>  <SCORE.INTRA.SOLV.lig_0>
-48.9558

>  <SCORE.INTRA.VDW>
0

>  <SCORE.INTRA.VDW.0>
0

>  <SCORE.INTRA.norm>
0

>  <SCORE.RESTR>
0

>  <SCORE.RESTR.CAVITY>
0

>  <SCORE.RESTR.norm>
0

>  <SCORE.SYSTEM>
0

>  <SCORE.SYSTEM.CONST>
0

>  <SCORE.SYSTEM.DIHEDRAL>
0

>  <SCORE.SYSTEM.SOLV>
0

>  <SCORE.SYSTEM.norm>
0

>  <SCORE.heavy>
11

>  <SCORE.norm>
-0.67038

>  <RMSD>
8.631

$$$$
ligand
 OpenBabel11021811493D
libRbt.so/2013.1/901 2013/11/27
 11 12  0  0  0  0  0  0  0  0999 V2000
   11.7955    3.6787    6.1826 N   0  0  0  0  0  0  0  0  0  0  0  0
   12.2079    4.9316    5.9312 C   0  0  0  0  0  0  0  0  0  0  0  0
   12.9418    5.6053    6.8931 N   0  0  0  0  0  0  0  0  0  0  0  0
   11.9245    5.5436    4.7698 N   0  0  0  0  0  0  0  0  0  0  0  0
   11.2098    4.9130    3.8089 C   0  0  0  0  0  0  0  0  0  0  0  0
   10.7543    3.5888    4.0308 C   0  0  0  0  0  0  0  0  0  0  0  0
   11.0777    2.9787    5.2792 C   0  0  0  0  0  0  0  0  0  0  0  0
   10.6676    1.6907    5.5668 N   0  0  0  0  0  0  0  0  0  0  0  0
   10.0728    3.2086    2.9220 N   0  0  0  0  0  0  0  0  0  0  0  0
   10.0786    4.1824    2.0560 C   0  0  0  0  0  0  0  0  0  0  0  0
   10.7670    5.2531    2.5565 N   0  0  0  0  0  0  0  0  0  0  0  0
  1  7  2  0  0  0  0
  1  2  1  0  0  0  0
  2  3  1  0  0  0  0
  2  4  2  0  0  0  0
  4  5  1  0  0  0  0
  5  6  2  0  0  0  0
  5 11  1  0  0  0  0
  6  7  1  0  0  0  0
  6  9  1  0  0  0  0
  7  8  1  0  0  0  0
  9 10  1  0  0  0  0
 10 11  2  0  0  0  0
M  END
>  <CHROM.1>
11.23821453,4.14481838,4.56759534,0.46507047,1.00846244,2.40619725

>  <Name>
ligand

>  <RI>
0

>  <Rbt.Current_Directory>
/home/itssahil/PROJECTS/Mol_Feturizer/New_Systems/rnas/4FEP

>  <Rbt.Executable>
rbdock ($Id: //depot/dev/client3/rdock/2013.1/src/exe/rbdock.cxx#4 $)

>  <Rbt.Library>
libRbt.so (2013.1, Build901 2013/11/27)

>  <Rbt.Parameter_File>
/export/apps/rDock/src/rDock_2013.1_src/data/scripts/dock_solv.prm

>  <Rbt.Receptor>
prm/blind_docking_20.prm

>  <SCORE>
-7.42032

>  <SCORE.INTER>
-7.42032

>  <SCORE.INTER.CONST>
1

>  <SCORE.INTER.POLAR>
0

>  <SCORE.INTER.ROT>
0

>  <SCORE.INTER.SOLV>
5.41123

>  <SCORE.INTER.VDW>
-10.3506

>  <SCORE.INTER.norm>
-0.674575

>  <SCORE.INTRA>
0

>  <SCORE.INTRA.DIHEDRAL>
0

>  <SCORE.INTRA.DIHEDRAL.0>
0

>  <SCORE.INTRA.POLAR>
0

>  <SCORE.INTRA.POLAR.0>
0

>  <SCORE.INTRA.REPUL>
0

>  <SCORE.INTRA.REPUL.0>
0

>  <SCORE.INTRA.SOLV>
0

>  <SCORE.INTRA.SOLV.lig_0>
-48.9558

>  <SCORE.INTRA.VDW>
0

>  <SCORE.INTRA.VDW.0>
0

>  <SCORE.INTRA.norm>
0

>  <SCORE.RESTR>
0

>  <SCORE.RESTR.CAVITY>
0

>  <SCORE.RESTR.norm>
0

>  <SCORE.SYSTEM>
0

>  <SCORE.SYSTEM.CONST>
0

>  <SCORE.SYSTEM.DIHEDRAL>
0

>  <SCORE.SYSTEM.SOLV>
0

>  <SCORE.SYSTEM.norm>
0

>  <SCORE.heavy>
11

>  <SCORE.norm>
-0.674575

>  <RMSD>
8.636

$$$$
ligand
 OpenBabel11021811493D
libRbt.so/2013.1/901 2013/11/27
 11 12  0  0  0  0  0  0  0  0999 V2000
   11.7063    3.6942    6.2153 N   0  0  0  0  0  0  0  0  0  0  0  0
   12.1556    4.9309    5.9473 C   0  0  0  0  0  0  0  0  0  0  0  0
   12.8924    5.6032    6.9078 N   0  0  0  0  0  0  0  0  0  0  0  0
   11.9062    5.5280    4.7704 N   0  0  0  0  0  0  0  0  0  0  0  0
   11.1897    4.8983    3.8102 C   0  0  0  0  0  0  0  0  0  0  0  0
   10.6959    3.5909    4.0494 C   0  0  0  0  0  0  0  0  0  0  0  0
   10.9840    2.9963    5.3139 C   0  0  0  0  0  0  0  0  0  0  0  0
   10.5356    1.7251    5.6188 N   0  0  0  0  0  0  0  0  0  0  0  0
   10.0214    3.2078    2.9373 N   0  0  0  0  0  0  0  0  0  0  0  0
   10.0663    4.1645    2.0537 C   0  0  0  0  0  0  0  0  0  0  0  0
   10.7751    5.2261    2.5450 N   0  0  0  0  0  0  0  0  0  0  0  0
  1  7  2  0  0  0  0
  1  2  1  0  0  0  0
  2  3  1  0  0  0  0
  2  4  2  0  0  0  0
  4  5  1  0  0  0  0
  5  6  2  0  0  0  0
  5 11  1  0  0  0  0
  6  7  1  0  0  0  0
  6  9  1  0  0  0  0
  7  8  1  0  0  0  0
  9 10  1  0  0  0  0
 10 11  2  0  0  0  0
M  END
>  <CHROM.1>
11.18619532,4.14411003,4.58339898,0.52044993,1.00122858,2.34072016

>  <Name>
ligand

>  <RI>
0

>  <Rbt.Current_Directory>
/home/itssahil/PROJECTS/Mol_Feturizer/New_Systems/rnas/4FEP

>  <Rbt.Executable>
rbdock ($Id: //depot/dev/client3/rdock/2013.1/src/exe/rbdock.cxx#4 $)

>  <Rbt.Library>
libRbt.so (2013.1, Build901 2013/11/27)

>  <Rbt.Parameter_File>
/export/apps/rDock/src/rDock_2013.1_src/data/scripts/dock_solv.prm

>  <Rbt.Receptor>
prm/blind_docking_20.prm

>  <SCORE>
-7.35355

>  <SCORE.INTER>
-7.35355

>  <SCORE.INTER.CONST>
1

>  <SCORE.INTER.POLAR>
0

>  <SCORE.INTER.ROT>
0

>  <SCORE.INTER.SOLV>
5.5656

>  <SCORE.INTER.VDW>
-10.3576

>  <SCORE.INTER.norm>
-0.668504

>  <SCORE.INTRA>
0

>  <SCORE.INTRA.DIHEDRAL>
0

>  <SCORE.INTRA.DIHEDRAL.0>
0

>  <SCORE.INTRA.POLAR>
0

>  <SCORE.INTRA.POLAR.0>
0

>  <SCORE.INTRA.REPUL>
0

>  <SCORE.INTRA.REPUL.0>
0

>  <SCORE.INTRA.SOLV>
0

>  <SCORE.INTRA.SOLV.lig_0>
-48.9558

>  <SCORE.INTRA.VDW>
0

>  <SCORE.INTRA.VDW.0>
0

>  <SCORE.INTRA.norm>
0

>  <SCORE.RESTR>
0

>  <SCORE.RESTR.CAVITY>
0

>  <SCORE.RESTR.norm>
0

>  <SCORE.SYSTEM>
0

>  <SCORE.SYSTEM.CONST>
0

>  <SCORE.SYSTEM.DIHEDRAL>
0

>  <SCORE.SYSTEM.SOLV>
0

>  <SCORE.SYSTEM.norm>
0

>  <SCORE.heavy>
11

>  <SCORE.norm>
-0.668504

>  <RMSD>
8.637

$$$$
ligand
 OpenBabel11021811493D
libRbt.so/2013.1/901 2013/11/27
 11 12  0  0  0  0  0  0  0  0999 V2000
   11.2682    3.1506    5.6336 N   0  0  0  0  0  0  0  0  0  0  0  0
   10.5481    2.3384    4.8432 C   0  0  0  0  0  0  0  0  0  0  0  0
   10.1449    1.1068    5.3312 N   0  0  0  0  0  0  0  0  0  0  0  0
   10.2115    2.6942    3.5927 N   0  0  0  0  0  0  0  0  0  0  0  0
   10.5893    3.8909    3.0856 C   0  0  0  0  0  0  0  0  0  0  0  0
   11.3504    4.7809    3.8849 C   0  0  0  0  0  0  0  0  0  0  0  0
   11.6859    4.3608    5.2064 C   0  0  0  0  0  0  0  0  0  0  0  0
   12.4255    5.1746    6.0434 N   0  0  0  0  0  0  0  0  0  0  0  0
   11.5890    5.8865    3.1371 N   0  0  0  0  0  0  0  0  0  0  0  0
   11.0405    5.7413    1.9640 C   0  0  0  0  0  0  0  0  0  0  0  0
   10.4129    4.5286    1.8847 N   0  0  0  0  0  0  0  0  0  0  0  0
  1  7  2  0  0  0  0
  1  2  1  0  0  0  0
  2  3  1  0  0  0  0
  2  4  2  0  0  0  0
  4  5  1  0  0  0  0
  5  6  2  0  0  0  0
  5 11  1  0  0  0  0
  6  7  1  0  0  0  0
  6  9  1  0  0  0  0
  7  8  1  0  0  0  0
  9 10  1  0  0  0  0
 10 11  2  0  0  0  0
M  END
>  <CHROM.1>
11.02291936,3.95090957,4.07305304,-1.78435152,-1.00352161,-0.87595756

>  <Name>
ligand

>  <RI>
0

>  <Rbt.Current_Directory>
/home/itssahil/PROJECTS/Mol_Feturizer/New_Systems/rnas/4FEP

>  <Rbt.Executable>
rbdock ($Id: //depot/dev/client3/rdock/2013.1/src/exe/rbdock.cxx#4 $)

>  <Rbt.Library>
libRbt.so (2013.1, Build901 2013/11/27)

>  <Rbt.Parameter_File>
/export/apps/rDock/src/rDock_2013.1_src/data/scripts/dock_solv.prm

>  <Rbt.Receptor>
prm/blind_docking_20.prm

>  <SCORE>
-6.63984

>  <SCORE.INTER>
-6.63984

>  <SCORE.INTER.CONST>
1

>  <SCORE.INTER.POLAR>
0

>  <SCORE.INTER.ROT>
0

>  <SCORE.INTER.SOLV>
10.3182

>  <SCORE.INTER.VDW>
-11.466

>  <SCORE.INTER.norm>
-0.603622

>  <SCORE.INTRA>
0

>  <SCORE.INTRA.DIHEDRAL>
0

>  <SCORE.INTRA.DIHEDRAL.0>
0

>  <SCORE.INTRA.POLAR>
0

>  <SCORE.INTRA.POLAR.0>
0

>  <SCORE.INTRA.REPUL>
0

>  <SCORE.INTRA.REPUL.0>
0

>  <SCORE.INTRA.SOLV>
0

>  <SCORE.INTRA.SOLV.lig_0>
-48.9558

>  <SCORE.INTRA.VDW>
0

>  <SCORE.INTRA.VDW.0>
0

>  <SCORE.INTRA.norm>
0

>  <SCORE.RESTR>
0

>  <SCORE.RESTR.CAVITY>
0

>  <SCORE.RESTR.norm>
0

>  <SCORE.SYSTEM>
0

>  <SCORE.SYSTEM.CONST>
0

>  <SCORE.SYSTEM.DIHEDRAL>
0

>  <SCORE.SYSTEM.SOLV>
0

>  <SCORE.SYSTEM.norm>
0

>  <SCORE.heavy>
11

>  <SCORE.norm>
-0.603622

>  <RMSD>
9.264

$$$$
ligand
 OpenBabel11021811493D
libRbt.so/2013.1/901 2013/11/27
 11 12  0  0  0  0  0  0  0  0999 V2000
   11.2310    3.1275    5.6485 N   0  0  0  0  0  0  0  0  0  0  0  0
   10.4881    2.3252    4.8692 C   0  0  0  0  0  0  0  0  0  0  0  0
   10.0668    1.1037    5.3671 N   0  0  0  0  0  0  0  0  0  0  0  0
   10.1460    2.6813    3.6202 N   0  0  0  0  0  0  0  0  0  0  0  0
   10.5411    3.8683    3.1036 C   0  0  0  0  0  0  0  0  0  0  0  0
   11.3264    4.7477    3.8911 C   0  0  0  0  0  0  0  0  0  0  0  0
   11.6670    4.3276    5.2113 C   0  0  0  0  0  0  0  0  0  0  0  0
   12.4298    5.1314    6.0370 N   0  0  0  0  0  0  0  0  0  0  0  0
   11.5784    5.8450    3.1356 N   0  0  0  0  0  0  0  0  0  0  0  0
   11.0158    5.7046    1.9685 C   0  0  0  0  0  0  0  0  0  0  0  0
   10.3649    4.5035    1.9013 N   0  0  0  0  0  0  0  0  0  0  0  0
  1  7  2  0  0  0  0
  1  2  1  0  0  0  0
  2  3  1  0  0  0  0
  2  4  2  0  0  0  0
  4  5  1  0  0  0  0
  5  6  2  0  0  0  0
  5 11  1  0  0  0  0
  6  7  1  0  0  0  0
  6  9  1  0  0  0  0
  7  8  1  0  0  0  0
  9 10  1  0  0  0  0
 10 11  2  0  0  0  0
M  END
>  <CHROM.1>
10.98540329,3.92486334,4.08649059,-1.79237061,-0.98287387,-0.88751287

>  <Name>
ligand

>  <RI>
0

>  <Rbt.Current_Directory>
/home/itssahil/PROJECTS/Mol_Feturizer/New_Systems/rnas/4FEP

>  <Rbt.Executable>
rbdock ($Id: //depot/dev/client3/rdock/2013.1/src/exe/rbdock.cxx#4 $)

>  <Rbt.Library>
libRbt.so (2013.1, Build901 2013/11/27)

>  <Rbt.Parameter_File>
/export/apps/rDock/src/rDock_2013.1_src/data/scripts/dock_solv.prm

>  <Rbt.Receptor>
prm/blind_docking_20.prm

>  <SCORE>
-6.68358

>  <SCORE.INTER>
-6.68358

>  <SCORE.INTER.CONST>
1

>  <SCORE.INTER.POLAR>
0

>  <SCORE.INTER.ROT>
0

>  <SCORE.INTER.SOLV>
10.3817

>  <SCORE.INTER.VDW>
-11.5163

>  <SCORE.INTER.norm>
-0.607598

>  <SCORE.INTRA>
0

>  <SCORE.INTRA.DIHEDRAL>
0

>  <SCORE.INTRA.DIHEDRAL.0>
0

>  <SCORE.INTRA.POLAR>
0

>  <SCORE.INTRA.POLAR.0>
0

>  <SCORE.INTRA.REPUL>
0

>  <SCORE.INTRA.REPUL.0>
0

>  <SCORE.INTRA.SOLV>
0

>  <SCORE.INTRA.SOLV.lig_0>
-48.9558

>  <SCORE.INTRA.VDW>
0

>  <SCORE.INTRA.VDW.0>
0

>  <SCORE.INTRA.norm>
0

>  <SCORE.RESTR>
0

>  <SCORE.RESTR.CAVITY>
0

>  <SCORE.RESTR.norm>
0

>  <SCORE.SYSTEM>
0

>  <SCORE.SYSTEM.CONST>
0

>  <SCORE.SYSTEM.DIHEDRAL>
0

>  <SCORE.SYSTEM.SOLV>
0

>  <SCORE.SYSTEM.norm>
0

>  <SCORE.heavy>
11

>  <SCORE.norm>
-0.607598

>  <RMSD>
9.281

$$$$
ligand
 OpenBabel11021811493D
libRbt.so/2013.1/901 2013/11/27
 11 12  0  0  0  0  0  0  0  0999 V2000
   11.2314    3.1296    5.6454 N   0  0  0  0  0  0  0  0  0  0  0  0
   10.4874    2.3277    4.8667 C   0  0  0  0  0  0  0  0  0  0  0  0
   10.0588    1.1101    5.3678 N   0  0  0  0  0  0  0  0  0  0  0  0
   10.1510    2.6807    3.6153 N   0  0  0  0  0  0  0  0  0  0  0  0
   10.5533    3.8638    3.0955 C   0  0  0  0  0  0  0  0  0  0  0  0
   11.3400    4.7426    3.8822 C   0  0  0  0  0  0  0  0  0  0  0  0
   11.6744    4.3260    5.2051 C   0  0  0  0  0  0  0  0  0  0  0  0
   12.4381    5.1294    6.0303 N   0  0  0  0  0  0  0  0  0  0  0  0
   11.5995    5.8359    3.1234 N   0  0  0  0  0  0  0  0  0  0  0  0
   11.0401    5.6936    1.9550 C   0  0  0  0  0  0  0  0  0  0  0  0
   10.3839    4.4953    1.8902 N   0  0  0  0  0  0  0  0  0  0  0  0
  1  7  2  0  0  0  0
  1  2  1  0  0  0  0
  2  3  1  0  0  0  0
  2  4  2  0  0  0  0
  4  5  1  0  0  0  0
  5  6  2  0  0  0  0
  5 11  1  0  0  0  0
  6  7  1  0  0  0  0
  6  9  1  0  0  0  0
  7  8  1  0  0  0  0
  9 10  1  0  0  0  0
 10 11  2  0  0  0  0
M  END
>  <CHROM.1>
10.99458586,3.92213217,4.07960028,-1.80215091,-0.98136776,-0.89944302

>  <Name>
ligand

>  <RI>
0

>  <Rbt.Current_Directory>
/home/itssahil/PROJECTS/Mol_Feturizer/New_Systems/rnas/4FEP

>  <Rbt.Executable>
rbdock ($Id: //depot/dev/client3/rdock/2013.1/src/exe/rbdock.cxx#4 $)

>  <Rbt.Library>
libRbt.so (2013.1, Build901 2013/11/27)

>  <Rbt.Parameter_File>
/export/apps/rDock/src/rDock_2013.1_src/data/scripts/dock_solv.prm

>  <Rbt.Receptor>
prm/blind_docking_20.prm

>  <SCORE>
-6.71597

>  <SCORE.INTER>
-6.71597

>  <SCORE.INTER.CONST>
1

>  <SCORE.INTER.POLAR>
0

>  <SCORE.INTER.ROT>
0

>  <SCORE.INTER.SOLV>
10.4172

>  <SCORE.INTER.VDW>
-11.5497

>  <SCORE.INTER.norm>
-0.610543

>  <SCORE.INTRA>
0

>  <SCORE.INTRA.DIHEDRAL>
0

>  <SCORE.INTRA.DIHEDRAL.0>
0

>  <SCORE.INTRA.POLAR>
0

>  <SCORE.INTRA.POLAR.0>
0

>  <SCORE.INTRA.REPUL>
0

>  <SCORE.INTRA.REPUL.0>
0

>  <SCORE.INTRA.SOLV>
0

>  <SCORE.INTRA.SOLV.lig_0>
-48.9558

>  <SCORE.INTRA.VDW>
0

>  <SCORE.INTRA.VDW.0>
0

>  <SCORE.INTRA.norm>
0

>  <SCORE.RESTR>
0

>  <SCORE.RESTR.CAVITY>
0

>  <SCORE.RESTR.norm>
0

>  <SCORE.SYSTEM>
0

>  <SCORE.SYSTEM.CONST>
0

>  <SCORE.SYSTEM.DIHEDRAL>
0

>  <SCORE.SYSTEM.SOLV>
0

>  <SCORE.SYSTEM.norm>
0

>  <SCORE.heavy>
11

>  <SCORE.norm>
-0.610543

>  <RMSD>
9.285

$$$$
ligand
 OpenBabel11021811493D
libRbt.so/2013.1/901 2013/11/27
 11 12  0  0  0  0  0  0  0  0999 V2000
    2.4600    9.5249    1.8339 N   0  0  0  0  0  0  0  0  0  0  0  0
    2.2742    9.8233    3.1297 C   0  0  0  0  0  0  0  0  0  0  0  0
    2.2756    8.8010    4.0637 N   0  0  0  0  0  0  0  0  0  0  0  0
    2.0874   11.0890    3.5382 N   0  0  0  0  0  0  0  0  0  0  0  0
    2.0809   12.1112    2.6512 C   0  0  0  0  0  0  0  0  0  0  0  0
    2.2740   11.8428    1.2724 C   0  0  0  0  0  0  0  0  0  0  0  0
    2.4673   10.4837    0.8840 C   0  0  0  0  0  0  0  0  0  0  0  0
    2.6614   10.1453   -0.4417 N   0  0  0  0  0  0  0  0  0  0  0  0
    2.2183   13.0309    0.6214 N   0  0  0  0  0  0  0  0  0  0  0  0
    2.0104   13.9863    1.4828 C   0  0  0  0  0  0  0  0  0  0  0  0
    1.9194   13.4696    2.7460 N   0  0  0  0  0  0  0  0  0  0  0  0
  1  7  2  0  0  0  0
  1  2  1  0  0  0  0
  2  3  1  0  0  0  0
  2  4  2  0  0  0  0
  4  5  1  0  0  0  0
  5  6  2  0  0  0  0
  5 11  1  0  0  0  0
  6  7  1  0  0  0  0
  6  9  1  0  0  0  0
  7  8  1  0  0  0  0
  9 10  1  0  0  0  0
 10 11  2  0  0  0  0
M  END
>  <CHROM.1>
2.24993404,11.27657980,1.98681060,-1.20284914,1.41078721,-0.74846578

>  <Name>
ligand

>  <RI>
0

>  <Rbt.Current_Directory>
/home/itssahil/PROJECTS/Mol_Feturizer/New_Systems/rnas/4FEP

>  <Rbt.Executable>
rbdock ($Id: //depot/dev/client3/rdock/2013.1/src/exe/rbdock.cxx#4 $)

>  <Rbt.Library>
libRbt.so (2013.1, Build901 2013/11/27)

>  <Rbt.Parameter_File>
/export/apps/rDock/src/rDock_2013.1_src/data/scripts/dock_solv.prm

>  <Rbt.Receptor>
prm/blind_docking_80.prm

>  <SCORE>
-5.36669

>  <SCORE.INTER>
-5.36669

>  <SCORE.INTER.CONST>
1

>  <SCORE.INTER.POLAR>
0

>  <SCORE.INTER.ROT>
0

>  <SCORE.INTER.SOLV>
11.1518

>  <SCORE.INTER.VDW>
-10.8951

>  <SCORE.INTER.norm>
-0.487881

>  <SCORE.INTRA>
0

>  <SCORE.INTRA.DIHEDRAL>
0

>  <SCORE.INTRA.DIHEDRAL.0>
0

>  <SCORE.INTRA.POLAR>
0

>  <SCORE.INTRA.POLAR.0>
0

>  <SCORE.INTRA.REPUL>
0

>  <SCORE.INTRA.REPUL.0>
0

>  <SCORE.INTRA.SOLV>
0

>  <SCORE.INTRA.SOLV.lig_0>
-48.9558

>  <SCORE.INTRA.VDW>
0

>  <SCORE.INTRA.VDW.0>
0

>  <SCORE.INTRA.norm>
0

>  <SCORE.RESTR>
0

>  <SCORE.RESTR.CAVITY>
0

>  <SCORE.RESTR.norm>
0

>  <SCORE.SYSTEM>
0

>  <SCORE.SYSTEM.CONST>
0

>  <SCORE.SYSTEM.DIHEDRAL>
0

>  <SCORE.SYSTEM.SOLV>
0

>  <SCORE.SYSTEM.norm>
0

>  <SCORE.heavy>
11

>  <SCORE.norm>
-0.487881

>  <RMSD>
11.088

$$$$
ligand
 OpenBabel11021811493D
libRbt.so/2013.1/901 2013/11/27
 11 12  0  0  0  0  0  0  0  0999 V2000
    1.3166   11.4764    1.5219 N   0  0  0  0  0  0  0  0  0  0  0  0
    1.8790   10.2588    1.5843 C   0  0  0  0  0  0  0  0  0  0  0  0
    1.9752    9.5008    0.4294 N   0  0  0  0  0  0  0  0  0  0  0  0
    2.3491    9.7616    2.7400 N   0  0  0  0  0  0  0  0  0  0  0  0
    2.2709   10.4768    3.8864 C   0  0  0  0  0  0  0  0  0  0  0  0
    1.6854   11.7679    3.8675 C   0  0  0  0  0  0  0  0  0  0  0  0
    1.1986   12.2550    2.6180 C   0  0  0  0  0  0  0  0  0  0  0  0
    0.6152   13.5041    2.5221 N   0  0  0  0  0  0  0  0  0  0  0  0
    1.7350   12.2489    5.1342 N   0  0  0  0  0  0  0  0  0  0  0  0
    2.2968   11.3655    5.9101 C   0  0  0  0  0  0  0  0  0  0  0  0
    2.6447   10.2576    5.1874 N   0  0  0  0  0  0  0  0  0  0  0  0
  1  7  2  0  0  0  0
  1  2  1  0  0  0  0
  2  3  1  0  0  0  0
  2  4  2  0  0  0  0
  4  5  1  0  0  0  0
  5  6  2  0  0  0  0
  5 11  1  0  0  0  0
  6  7  1  0  0  0  0
  6  9  1  0  0  0  0
  7  8  1  0  0  0  0
  9 10  1  0  0  0  0
 10 11  2  0  0  0  0
M  END
>  <CHROM.1>
1.81159143,11.16652874,3.19372644,1.77357241,1.10848942,-2.01079262

>  <Name>
ligand

>  <RI>
0

>  <Rbt.Current_Directory>
/home/itssahil/PROJECTS/Mol_Feturizer/New_Systems/rnas/4FEP

>  <Rbt.Executable>
rbdock ($Id: //depot/dev/client3/rdock/2013.1/src/exe/rbdock.cxx#4 $)

>  <Rbt.Library>
libRbt.so (2013.1, Build901 2013/11/27)

>  <Rbt.Parameter_File>
/export/apps/rDock/src/rDock_2013.1_src/data/scripts/dock_solv.prm

>  <Rbt.Receptor>
prm/blind_docking_80.prm

>  <SCORE>
-7.4153

>  <SCORE.INTER>
-7.4153

>  <SCORE.INTER.CONST>
1

>  <SCORE.INTER.POLAR>
0

>  <SCORE.INTER.ROT>
0

>  <SCORE.INTER.SOLV>
2.26066

>  <SCORE.INTER.VDW>
-9.29709

>  <SCORE.INTER.norm>
-0.674118

>  <SCORE.INTRA>
0

>  <SCORE.INTRA.DIHEDRAL>
0

>  <SCORE.INTRA.DIHEDRAL.0>
0

>  <SCORE.INTRA.POLAR>
0

>  <SCORE.INTRA.POLAR.0>
0

>  <SCORE.INTRA.REPUL>
0

>  <SCORE.INTRA.REPUL.0>
0

>  <SCORE.INTRA.SOLV>
0

>  <SCORE.INTRA.SOLV.lig_0>
-48.9558

>  <SCORE.INTRA.VDW>
0

>  <SCORE.INTRA.VDW.0>
0

>  <SCORE.INTRA.norm>
0

>  <SCORE.RESTR>
0

>  <SCORE.RESTR.CAVITY>
0

>  <SCORE.RESTR.norm>
0

>  <SCORE.SYSTEM>
0

>  <SCORE.SYSTEM.CONST>
0

>  <SCORE.SYSTEM.DIHEDRAL>
0

>  <SCORE.SYSTEM.SOLV>
0

>  <SCORE.SYSTEM.norm>
0

>  <SCORE.heavy>
11

>  <SCORE.norm>
-0.674118

>  <RMSD>
11.447

$$$$
ligand
 OpenBabel11021811493D
libRbt.so/2013.1/901 2013/11/27
 11 12  0  0  0  0  0  0  0  0999 V2000
   20.2214   21.3506    8.9081 N   0  0  0  0  0  0  0  0  0  0  0  0
   18.8957   21.4372    8.7137 C   0  0  0  0  0  0  0  0  0  0  0  0
   18.1558   22.3105    9.4930 N   0  0  0  0  0  0  0  0  0  0  0  0
   18.2736   20.6966    7.7818 N   0  0  0  0  0  0  0  0  0  0  0  0
   18.9675   19.8339    7.0033 C   0  0  0  0  0  0  0  0  0  0  0  0
   20.3696   19.7101    7.1733 C   0  0  0  0  0  0  0  0  0  0  0  0
   20.9879   20.5153    8.1757 C   0  0  0  0  0  0  0  0  0  0  0  0
   22.3500   20.4486    8.3990 N   0  0  0  0  0  0  0  0  0  0  0  0
   20.8017   18.7877    6.2784 N   0  0  0  0  0  0  0  0  0  0  0  0
   19.7881   18.3480    5.5874 C   0  0  0  0  0  0  0  0  0  0  0  0
   18.6371   18.9630    5.9970 N   0  0  0  0  0  0  0  0  0  0  0  0
  1  7  2  0  0  0  0
  1  2  1  0  0  0  0
  2  3  1  0  0  0  0
  2  4  2  0  0  0  0
  4  5  1  0  0  0  0
  5  6  2  0  0  0  0
  5 11  1  0  0  0  0
  6  7  1  0  0  0  0
  6  9  1  0  0  0  0
  7  8  1  0  0  0  0
  9 10  1  0  0  0  0
 10 11  2  0  0  0  0
M  END
>  <CHROM.1>
19.76568198,20.23560460,7.60996387,-1.78158887,0.14652873,-2.31996447

>  <Name>
ligand

>  <RI>
0

>  <Rbt.Current_Directory>
/home/itssahil/PROJECTS/Mol_Feturizer/New_Systems/rnas/4FEP

>  <Rbt.Executable>
rbdock ($Id: //depot/dev/client3/rdock/2013.1/src/exe/rbdock.cxx#4 $)

>  <Rbt.Library>
libRbt.so (2013.1, Build901 2013/11/27)

>  <Rbt.Parameter_File>
/export/apps/rDock/src/rDock_2013.1_src/data/scripts/dock_solv.prm

>  <Rbt.Receptor>
prm/blind_docking_100.prm

>  <SCORE>
-6.45831

>  <SCORE.INTER>
-6.45831

>  <SCORE.INTER.CONST>
1

>  <SCORE.INTER.POLAR>
0

>  <SCORE.INTER.ROT>
0

>  <SCORE.INTER.SOLV>
7.04075

>  <SCORE.INTER.VDW>
-10.2525

>  <SCORE.INTER.norm>
-0.587119

>  <SCORE.INTRA>
0

>  <SCORE.INTRA.DIHEDRAL>
0

>  <SCORE.INTRA.DIHEDRAL.0>
0

>  <SCORE.INTRA.POLAR>
0

>  <SCORE.INTRA.POLAR.0>
0

>  <SCORE.INTRA.REPUL>
0

>  <SCORE.INTRA.REPUL.0>
0

>  <SCORE.INTRA.SOLV>
0

>  <SCORE.INTRA.SOLV.lig_0>
-48.9558

>  <SCORE.INTRA.VDW>
0

>  <SCORE.INTRA.VDW.0>
0

>  <SCORE.INTRA.norm>
0

>  <SCORE.RESTR>
0

>  <SCORE.RESTR.CAVITY>
0

>  <SCORE.RESTR.norm>
0

>  <SCORE.SYSTEM>
0

>  <SCORE.SYSTEM.CONST>
0

>  <SCORE.SYSTEM.DIHEDRAL>
0

>  <SCORE.SYSTEM.SOLV>
0

>  <SCORE.SYSTEM.norm>
0

>  <SCORE.heavy>
11

>  <SCORE.norm>
-0.587119

>  <RMSD>
11.704

$$$$
ligand
 OpenBabel11021811493D
libRbt.so/2013.1/901 2013/11/27
 11 12  0  0  0  0  0  0  0  0999 V2000
   17.4979   22.8814    9.8166 N   0  0  0  0  0  0  0  0  0  0  0  0
   18.1007   22.1325   10.7540 C   0  0  0  0  0  0  0  0  0  0  0  0
   18.0187   22.5194   12.0811 N   0  0  0  0  0  0  0  0  0  0  0  0
   18.7796   21.0192   10.4327 N   0  0  0  0  0  0  0  0  0  0  0  0
   18.8785   20.6133    9.1453 C   0  0  0  0  0  0  0  0  0  0  0  0
   18.2571   21.3730    8.1222 C   0  0  0  0  0  0  0  0  0  0  0  0
   17.5477   22.5487    8.5096 C   0  0  0  0  0  0  0  0  0  0  0  0
   16.9170   23.3394    7.5679 N   0  0  0  0  0  0  0  0  0  0  0  0
   18.5151   20.7485    6.9467 N   0  0  0  0  0  0  0  0  0  0  0  0
   19.2331   19.6844    7.1712 C   0  0  0  0  0  0  0  0  0  0  0  0
   19.4819   19.5585    8.5102 N   0  0  0  0  0  0  0  0  0  0  0  0
  1  7  2  0  0  0  0
  1  2  1  0  0  0  0
  2  3  1  0  0  0  0
  2  4  2  0  0  0  0
  4  5  1  0  0  0  0
  5  6  2  0  0  0  0
  5 11  1  0  0  0  0
  6  7  1  0  0  0  0
  6  9  1  0  0  0  0
  7  8  1  0  0  0  0
  9 10  1  0  0  0  0
 10 11  2  0  0  0  0
M  END
>  <CHROM.1>
18.28577209,21.50795975,9.02356451,2.03875750,-0.98802026,1.37785659

>  <Name>
ligand

>  <RI>
0

>  <Rbt.Current_Directory>
/home/itssahil/PROJECTS/Mol_Feturizer/New_Systems/rnas/4FEP

>  <Rbt.Executable>
rbdock ($Id: //depot/dev/client3/rdock/2013.1/src/exe/rbdock.cxx#4 $)

>  <Rbt.Library>
libRbt.so (2013.1, Build901 2013/11/27)

>  <Rbt.Parameter_File>
/export/apps/rDock/src/rDock_2013.1_src/data/scripts/dock_solv.prm

>  <Rbt.Receptor>
prm/blind_docking_80.prm

>  <SCORE>
-6.02378

>  <SCORE.INTER>
-6.02378

>  <SCORE.INTER.CONST>
1

>  <SCORE.INTER.POLAR>
0

>  <SCORE.INTER.ROT>
0

>  <SCORE.INTER.SOLV>
4.60484

>  <SCORE.INTER.VDW>
-9.1508

>  <SCORE.INTER.norm>
-0.547616

>  <SCORE.INTRA>
0

>  <SCORE.INTRA.DIHEDRAL>
0

>  <SCORE.INTRA.DIHEDRAL.0>
0

>  <SCORE.INTRA.POLAR>
0

>  <SCORE.INTRA.POLAR.0>
0

>  <SCORE.INTRA.REPUL>
0

>  <SCORE.INTRA.REPUL.0>
0

>  <SCORE.INTRA.SOLV>
0

>  <SCORE.INTRA.SOLV.lig_0>
-48.9558

>  <SCORE.INTRA.VDW>
0

>  <SCORE.INTRA.VDW.0>
0

>  <SCORE.INTRA.norm>
0

>  <SCORE.RESTR>
0

>  <SCORE.RESTR.CAVITY>
0

>  <SCORE.RESTR.norm>
0

>  <SCORE.SYSTEM>
0

>  <SCORE.SYSTEM.CONST>
0

>  <SCORE.SYSTEM.DIHEDRAL>
0

>  <SCORE.SYSTEM.SOLV>
0

>  <SCORE.SYSTEM.norm>
0

>  <SCORE.heavy>
11

>  <SCORE.norm>
-0.547616

>  <RMSD>
11.921

$$$$
ligand
 OpenBabel11021811493D
libRbt.so/2013.1/901 2013/11/27
 11 12  0  0  0  0  0  0  0  0999 V2000
   18.6100   22.7255    9.2721 N   0  0  0  0  0  0  0  0  0  0  0  0
   18.7079   21.6698   10.0959 C   0  0  0  0  0  0  0  0  0  0  0  0
   18.5914   21.8673   11.4615 N   0  0  0  0  0  0  0  0  0  0  0  0
   18.9159   20.4294    9.6247 N   0  0  0  0  0  0  0  0  0  0  0  0
   19.0339   20.2021    8.2957 C   0  0  0  0  0  0  0  0  0  0  0  0
   18.9365   21.2874    7.3886 C   0  0  0  0  0  0  0  0  0  0  0  0
   18.7164   22.5873    7.9338 C   0  0  0  0  0  0  0  0  0  0  0  0
   18.6110   23.6930    7.1116 N   0  0  0  0  0  0  0  0  0  0  0  0
   19.0923   20.7813    6.1403 N   0  0  0  0  0  0  0  0  0  0  0  0
   19.2733   19.4930    6.2158 C   0  0  0  0  0  0  0  0  0  0  0  0
   19.2448   19.0895    7.5224 N   0  0  0  0  0  0  0  0  0  0  0  0
  1  7  2  0  0  0  0
  1  2  1  0  0  0  0
  2  3  1  0  0  0  0
  2  4  2  0  0  0  0
  4  5  1  0  0  0  0
  5  6  2  0  0  0  0
  5 11  1  0  0  0  0
  6  7  1  0  0  0  0
  6  9  1  0  0  0  0
  7  8  1  0  0  0  0
  9 10  1  0  0  0  0
 10 11  2  0  0  0  0
M  END
>  <CHROM.1>
18.88149559,21.27135202,8.29863996,2.50443751,-1.41460145,1.99554317

>  <Name>
ligand

>  <RI>
0

>  <Rbt.Current_Directory>
/home/itssahil/PROJECTS/Mol_Feturizer/New_Systems/rnas/4FEP

>  <Rbt.Executable>
rbdock ($Id: //depot/dev/client3/rdock/2013.1/src/exe/rbdock.cxx#4 $)

>  <Rbt.Library>
libRbt.so (2013.1, Build901 2013/11/27)

>  <Rbt.Parameter_File>
/export/apps/rDock/src/rDock_2013.1_src/data/scripts/dock_solv.prm

>  <Rbt.Receptor>
prm/blind_docking_80.prm

>  <SCORE>
-5.50831

>  <SCORE.INTER>
-5.50831

>  <SCORE.INTER.CONST>
1

>  <SCORE.INTER.POLAR>
0

>  <SCORE.INTER.ROT>
0

>  <SCORE.INTER.SOLV>
6.0217

>  <SCORE.INTER.VDW>
-9.27944

>  <SCORE.INTER.norm>
-0.500755

>  <SCORE.INTRA>
0

>  <SCORE.INTRA.DIHEDRAL>
0

>  <SCORE.INTRA.DIHEDRAL.0>
0

>  <SCORE.INTRA.POLAR>
0

>  <SCORE.INTRA.POLAR.0>
0

>  <SCORE.INTRA.REPUL>
0

>  <SCORE.INTRA.REPUL.0>
0

>  <SCORE.INTRA.SOLV>
0

>  <SCORE.INTRA.SOLV.lig_0>
-48.9558

>  <SCORE.INTRA.VDW>
0

>  <SCORE.INTRA.VDW.0>
0

>  <SCORE.INTRA.norm>
0

>  <SCORE.RESTR>
0

>  <SCORE.RESTR.CAVITY>
0

>  <SCORE.RESTR.norm>
0

>  <SCORE.SYSTEM>
0

>  <SCORE.SYSTEM.CONST>
0

>  <SCORE.SYSTEM.DIHEDRAL>
0

>  <SCORE.SYSTEM.SOLV>
0

>  <SCORE.SYSTEM.norm>
0

>  <SCORE.heavy>
11

>  <SCORE.norm>
-0.500755

>  <RMSD>
12.008

$$$$
ligand
 OpenBabel11021811493D
libRbt.so/2013.1/901 2013/11/27
 11 12  0  0  0  0  0  0  0  0999 V2000
   20.9989   21.7423    8.9568 N   0  0  0  0  0  0  0  0  0  0  0  0
   22.0992   21.0060    8.7326 C   0  0  0  0  0  0  0  0  0  0  0  0
   23.2937   21.3817    9.3238 N   0  0  0  0  0  0  0  0  0  0  0  0
   22.0658   19.9157    7.9490 N   0  0  0  0  0  0  0  0  0  0  0  0
   20.9145   19.5212    7.3567 C   0  0  0  0  0  0  0  0  0  0  0  0
   19.7279   20.2684    7.5661 C   0  0  0  0  0  0  0  0  0  0  0  0
   19.8105   21.4196    8.4047 C   0  0  0  0  0  0  0  0  0  0  0  0
   18.6956   22.1969    8.6545 N   0  0  0  0  0  0  0  0  0  0  0  0
   18.7418   19.6594    6.8623 N   0  0  0  0  0  0  0  0  0  0  0  0
   19.2279   18.6161    6.2514 C   0  0  0  0  0  0  0  0  0  0  0  0
   20.5618   18.4891    6.5257 N   0  0  0  0  0  0  0  0  0  0  0  0
  1  7  2  0  0  0  0
  1  2  1  0  0  0  0
  2  3  1  0  0  0  0
  2  4  2  0  0  0  0
  4  5  1  0  0  0  0
  5  6  2  0  0  0  0
  5 11  1  0  0  0  0
  6  7  1  0  0  0  0
  6  9  1  0  0  0  0
  7  8  1  0  0  0  0
  9 10  1  0  0  0  0
 10 11  2  0  0  0  0
M  END
>  <CHROM.1>
20.57193844,20.39833539,7.88572173,0.84729470,-0.21800520,0.61804175

>  <Name>
ligand

>  <RI>
0

>  <Rbt.Current_Directory>
/home/itssahil/PROJECTS/Mol_Feturizer/New_Systems/rnas/4FEP

>  <Rbt.Executable>
rbdock ($Id: //depot/dev/client3/rdock/2013.1/src/exe/rbdock.cxx#4 $)

>  <Rbt.Library>
libRbt.so (2013.1, Build901 2013/11/27)

>  <Rbt.Parameter_File>
/export/apps/rDock/src/rDock_2013.1_src/data/scripts/dock_solv.prm

>  <Rbt.Receptor>
prm/blind_docking_100.prm

>  <SCORE>
-5.20502

>  <SCORE.INTER>
-5.20502

>  <SCORE.INTER.CONST>
1

>  <SCORE.INTER.POLAR>
0

>  <SCORE.INTER.ROT>
0

>  <SCORE.INTER.SOLV>
5.75863

>  <SCORE.INTER.VDW>
-8.98955

>  <SCORE.INTER.norm>
-0.473183

>  <SCORE.INTRA>
0

>  <SCORE.INTRA.DIHEDRAL>
0

>  <SCORE.INTRA.DIHEDRAL.0>
0

>  <SCORE.INTRA.POLAR>
0

>  <SCORE.INTRA.POLAR.0>
0

>  <SCORE.INTRA.REPUL>
0

>  <SCORE.INTRA.REPUL.0>
0

>  <SCORE.INTRA.SOLV>
0

>  <SCORE.INTRA.SOLV.lig_0>
-48.9558

>  <SCORE.INTRA.VDW>
0

>  <SCORE.INTRA.VDW.0>
0

>  <SCORE.INTRA.norm>
0

>  <SCORE.RESTR>
0

>  <SCORE.RESTR.CAVITY>
0

>  <SCORE.RESTR.norm>
0

>  <SCORE.SYSTEM>
0

>  <SCORE.SYSTEM.CONST>
0

>  <SCORE.SYSTEM.DIHEDRAL>
0

>  <SCORE.SYSTEM.SOLV>
0

>  <SCORE.SYSTEM.norm>
0

>  <SCORE.heavy>
11

>  <SCORE.norm>
-0.473183

>  <RMSD>
12.547

$$$$
ligand
 OpenBabel11021811493D
libRbt.so/2013.1/901 2013/11/27
 11 12  0  0  0  0  0  0  0  0999 V2000
   25.5861    9.6094    6.7281 N   0  0  0  0  0  0  0  0  0  0  0  0
   24.5529    8.8424    7.1115 C   0  0  0  0  0  0  0  0  0  0  0  0
   24.5557    8.2944    8.3833 N   0  0  0  0  0  0  0  0  0  0  0  0
   23.5194    8.5960    6.2899 N   0  0  0  0  0  0  0  0  0  0  0  0
   23.4857    9.1166    5.0411 C   0  0  0  0  0  0  0  0  0  0  0  0
   24.5551    9.9330    4.5940 C   0  0  0  0  0  0  0  0  0  0  0  0
   25.6321   10.1669    5.4999 C   0  0  0  0  0  0  0  0  0  0  0  0
   26.7090   10.9520    5.1343 N   0  0  0  0  0  0  0  0  0  0  0  0
   24.2668   10.3108    3.3240 N   0  0  0  0  0  0  0  0  0  0  0  0
   23.1231    9.7967    2.9694 C   0  0  0  0  0  0  0  0  0  0  0  0
   22.6032    9.0537    3.9934 N   0  0  0  0  0  0  0  0  0  0  0  0
  1  7  2  0  0  0  0
  1  2  1  0  0  0  0
  2  3  1  0  0  0  0
  2  4  2  0  0  0  0
  4  5  1  0  0  0  0
  5  6  2  0  0  0  0
  5 11  1  0  0  0  0
  6  7  1  0  0  0  0
  6  9  1  0  0  0  0
  7  8  1  0  0  0  0
  9 10  1  0  0  0  0
 10 11  2  0  0  0  0
M  END
>  <CHROM.1>
24.42741299,9.51177102,5.39253660,-1.20894957,-0.49095829,-1.16319194

>  <Name>
ligand

>  <RI>
0

>  <Rbt.Current_Directory>
/home/itssahil/PROJECTS/Mol_Feturizer/New_Systems/rnas/4FEP

>  <Rbt.Executable>
rbdock ($Id: //depot/dev/client3/rdock/2013.1/src/exe/rbdock.cxx#4 $)

>  <Rbt.Library>
libRbt.so (2013.1, Build901 2013/11/27)

>  <Rbt.Parameter_File>
/export/apps/rDock/src/rDock_2013.1_src/data/scripts/dock_solv.prm

>  <Rbt.Receptor>
prm/blind_docking_80.prm

>  <SCORE>
-6.44151

>  <SCORE.INTER>
-6.44151

>  <SCORE.INTER.CONST>
1

>  <SCORE.INTER.POLAR>
0

>  <SCORE.INTER.ROT>
0

>  <SCORE.INTER.SOLV>
6.88509

>  <SCORE.INTER.VDW>
-10.1894

>  <SCORE.INTER.norm>
-0.585591

>  <SCORE.INTRA>
0

>  <SCORE.INTRA.DIHEDRAL>
0

>  <SCORE.INTRA.DIHEDRAL.0>
0

>  <SCORE.INTRA.POLAR>
0

>  <SCORE.INTRA.POLAR.0>
0

>  <SCORE.INTRA.REPUL>
0

>  <SCORE.INTRA.REPUL.0>
0

>  <SCORE.INTRA.SOLV>
0

>  <SCORE.INTRA.SOLV.lig_0>
-48.9558

>  <SCORE.INTRA.VDW>
0

>  <SCORE.INTRA.VDW.0>
0

>  <SCORE.INTRA.norm>
0

>  <SCORE.RESTR>
0

>  <SCORE.RESTR.CAVITY>
0

>  <SCORE.RESTR.norm>
0

>  <SCORE.SYSTEM>
0

>  <SCORE.SYSTEM.CONST>
0

>  <SCORE.SYSTEM.DIHEDRAL>
0

>  <SCORE.SYSTEM.SOLV>
0

>  <SCORE.SYSTEM.norm>
0

>  <SCORE.heavy>
11

>  <SCORE.norm>
-0.585591

>  <RMSD>
13.504

$$$$
ligand
 OpenBabel11021811493D
libRbt.so/2013.1/901 2013/11/27
 11 12  0  0  0  0  0  0  0  0999 V2000
   26.2100   10.3185    6.4987 N   0  0  0  0  0  0  0  0  0  0  0  0
   26.2551   11.2303    5.5140 C   0  0  0  0  0  0  0  0  0  0  0  0
   27.2396   12.2037    5.5414 N   0  0  0  0  0  0  0  0  0  0  0  0
   25.3680   11.2182    4.5057 N   0  0  0  0  0  0  0  0  0  0  0  0
   24.3938   10.2804    4.4491 C   0  0  0  0  0  0  0  0  0  0  0  0
   24.3085    9.2973    5.4672 C   0  0  0  0  0  0  0  0  0  0  0  0
   25.2710    9.3494    6.5190 C   0  0  0  0  0  0  0  0  0  0  0  0
   25.2504    8.4249    7.5460 N   0  0  0  0  0  0  0  0  0  0  0  0
   23.2547    8.4991    5.1660 N   0  0  0  0  0  0  0  0  0  0  0  0
   22.7014    8.9126    4.0610 C   0  0  0  0  0  0  0  0  0  0  0  0
   23.3678   10.0066    3.5816 N   0  0  0  0  0  0  0  0  0  0  0  0
  1  7  2  0  0  0  0
  1  2  1  0  0  0  0
  2  3  1  0  0  0  0
  2  4  2  0  0  0  0
  4  5  1  0  0  0  0
  5  6  2  0  0  0  0
  5 11  1  0  0  0  0
  6  7  1  0  0  0  0
  6  9  1  0  0  0  0
  7  8  1  0  0  0  0
  9 10  1  0  0  0  0
 10 11  2  0  0  0  0
M  END
>  <CHROM.1>
24.89455631,9.98770302,5.36020409,-0.10650149,0.64997253,2.29233845

>  <Name>
ligand

>  <RI>
0

>  <Rbt.Current_Directory>
/home/itssahil/PROJECTS/Mol_Feturizer/New_Systems/rnas/4FEP

>  <Rbt.Executable>
rbdock ($Id: //depot/dev/client3/rdock/2013.1/src/exe/rbdock.cxx#4 $)

>  <Rbt.Library>
libRbt.so (2013.1, Build901 2013/11/27)

>  <Rbt.Parameter_File>
/export/apps/rDock/src/rDock_2013.1_src/data/scripts/dock_solv.prm

>  <Rbt.Receptor>
prm/blind_docking_60.prm

>  <SCORE>
-7.28155

>  <SCORE.INTER>
-7.28155

>  <SCORE.INTER.CONST>
1

>  <SCORE.INTER.POLAR>
0

>  <SCORE.INTER.ROT>
0

>  <SCORE.INTER.SOLV>
4.0825

>  <SCORE.INTER.VDW>
-9.8152

>  <SCORE.INTER.norm>
-0.661959

>  <SCORE.INTRA>
0

>  <SCORE.INTRA.DIHEDRAL>
0

>  <SCORE.INTRA.DIHEDRAL.0>
0

>  <SCORE.INTRA.POLAR>
0

>  <SCORE.INTRA.POLAR.0>
0

>  <SCORE.INTRA.REPUL>
0

>  <SCORE.INTRA.REPUL.0>
0

>  <SCORE.INTRA.SOLV>
0

>  <SCORE.INTRA.SOLV.lig_0>
-48.9558

>  <SCORE.INTRA.VDW>
0

>  <SCORE.INTRA.VDW.0>
0

>  <SCORE.INTRA.norm>
0

>  <SCORE.RESTR>
0

>  <SCORE.RESTR.CAVITY>
0

>  <SCORE.RESTR.norm>
0

>  <SCORE.SYSTEM>
0

>  <SCORE.SYSTEM.CONST>
0

>  <SCORE.SYSTEM.DIHEDRAL>
0

>  <SCORE.SYSTEM.SOLV>
0

>  <SCORE.SYSTEM.norm>
0

>  <SCORE.heavy>
11

>  <SCORE.norm>
-0.661959

>  <RMSD>
13.885

$$$$
ligand
 OpenBabel11021811493D
libRbt.so/2013.1/901 2013/11/27
 11 12  0  0  0  0  0  0  0  0999 V2000
   26.7265   11.1185    3.4436 N   0  0  0  0  0  0  0  0  0  0  0  0
   26.5142   11.3685    4.7456 C   0  0  0  0  0  0  0  0  0  0  0  0
   27.4846   12.0403    5.4699 N   0  0  0  0  0  0  0  0  0  0  0  0
   25.3837   10.9819    5.3589 N   0  0  0  0  0  0  0  0  0  0  0  0
   24.4154   10.3238    4.6797 C   0  0  0  0  0  0  0  0  0  0  0  0
   24.5965   10.0389    3.3027 C   0  0  0  0  0  0  0  0  0  0  0  0
   25.8132   10.4674    2.6931 C   0  0  0  0  0  0  0  0  0  0  0  0
   26.0602   10.2249    1.3552 N   0  0  0  0  0  0  0  0  0  0  0  0
   23.4893    9.3794    2.8811 N   0  0  0  0  0  0  0  0  0  0  0  0
   22.6614    9.2436    3.8782 C   0  0  0  0  0  0  0  0  0  0  0  0
   23.1870    9.8097    5.0069 N   0  0  0  0  0  0  0  0  0  0  0  0
  1  7  2  0  0  0  0
  1  2  1  0  0  0  0
  2  3  1  0  0  0  0
  2  4  2  0  0  0  0
  4  5  1  0  0  0  0
  5  6  2  0  0  0  0
  5 11  1  0  0  0  0
  6  7  1  0  0  0  0
  6  9  1  0  0  0  0
  7  8  1  0  0  0  0
  9 10  1  0  0  0  0
 10 11  2  0  0  0  0
M  END
>  <CHROM.1>
25.14332291,10.46574782,3.89452191,-0.32437738,-0.44166838,-1.83615853

>  <Name>
ligand

>  <RI>
0

>  <Rbt.Current_Directory>
/home/itssahil/PROJECTS/Mol_Feturizer/New_Systems/rnas/4FEP

>  <Rbt.Executable>
rbdock ($Id: //depot/dev/client3/rdock/2013.1/src/exe/rbdock.cxx#4 $)

>  <Rbt.Library>
libRbt.so (2013.1, Build901 2013/11/27)

>  <Rbt.Parameter_File>
/export/apps/rDock/src/rDock_2013.1_src/data/scripts/dock_solv.prm

>  <Rbt.Receptor>
prm/blind_docking_40.prm

>  <SCORE>
-8.15042

>  <SCORE.INTER>
-8.15042

>  <SCORE.INTER.CONST>
1

>  <SCORE.INTER.POLAR>
0

>  <SCORE.INTER.ROT>
0

>  <SCORE.INTER.SOLV>
7.18586

>  <SCORE.INTER.VDW>
-11.4289

>  <SCORE.INTER.norm>
-0.740947

>  <SCORE.INTRA>
0

>  <SCORE.INTRA.DIHEDRAL>
0

>  <SCORE.INTRA.DIHEDRAL.0>
0

>  <SCORE.INTRA.POLAR>
0

>  <SCORE.INTRA.POLAR.0>
0

>  <SCORE.INTRA.REPUL>
0

>  <SCORE.INTRA.REPUL.0>
0

>  <SCORE.INTRA.SOLV>
0

>  <SCORE.INTRA.SOLV.lig_0>
-48.9558

>  <SCORE.INTRA.VDW>
0

>  <SCORE.INTRA.VDW.0>
0

>  <SCORE.INTRA.norm>
0

>  <SCORE.RESTR>
0

>  <SCORE.RESTR.CAVITY>
0

>  <SCORE.RESTR.norm>
0

>  <SCORE.SYSTEM>
0

>  <SCORE.SYSTEM.CONST>
0

>  <SCORE.SYSTEM.DIHEDRAL>
0

>  <SCORE.SYSTEM.SOLV>
0

>  <SCORE.SYSTEM.norm>
0

>  <SCORE.heavy>
11

>  <SCORE.norm>
-0.740947

>  <RMSD>
14.414

$$$$
ligand
 OpenBabel11021811493D
libRbt.so/2013.1/901 2013/11/27
 11 12  0  0  0  0  0  0  0  0999 V2000
   26.8019   11.0076    3.5546 N   0  0  0  0  0  0  0  0  0  0  0  0
   26.4950   11.3898    4.8047 C   0  0  0  0  0  0  0  0  0  0  0  0
   27.4038   12.1527    5.5185 N   0  0  0  0  0  0  0  0  0  0  0  0
   25.3284   11.0485    5.3760 N   0  0  0  0  0  0  0  0  0  0  0  0
   24.4183   10.3041    4.7056 C   0  0  0  0  0  0  0  0  0  0  0  0
   24.6998    9.8788    3.3826 C   0  0  0  0  0  0  0  0  0  0  0  0
   25.9516   10.2636    2.8165 C   0  0  0  0  0  0  0  0  0  0  0  0
   26.2956    9.8859    1.5324 N   0  0  0  0  0  0  0  0  0  0  0  0
   23.6330    9.1574    2.9583 N   0  0  0  0  0  0  0  0  0  0  0  0
   22.7382    9.1120    3.9045 C   0  0  0  0  0  0  0  0  0  0  0  0
   23.1760    9.8041    5.0000 N   0  0  0  0  0  0  0  0  0  0  0  0
  1  7  2  0  0  0  0
  1  2  1  0  0  0  0
  2  3  1  0  0  0  0
  2  4  2  0  0  0  0
  4  5  1  0  0  0  0
  5  6  2  0  0  0  0
  5 11  1  0  0  0  0
  6  7  1  0  0  0  0
  6  9  1  0  0  0  0
  7  8  1  0  0  0  0
  9 10  1  0  0  0  0
 10 11  2  0  0  0  0
M  END
>  <CHROM.1>
25.19838249,10.37612652,3.96196812,-0.40311732,-0.43308032,-1.97604723

>  <Name>
ligand

>  <RI>
0

>  <Rbt.Current_Directory>
/home/itssahil/PROJECTS/Mol_Feturizer/New_Systems/rnas/4FEP

>  <Rbt.Executable>
rbdock ($Id: //depot/dev/client3/rdock/2013.1/src/exe/rbdock.cxx#4 $)

>  <Rbt.Library>
libRbt.so (2013.1, Build901 2013/11/27)

>  <Rbt.Parameter_File>
/export/apps/rDock/src/rDock_2013.1_src/data/scripts/dock_solv.prm

>  <Rbt.Receptor>
prm/blind_docking_60.prm

>  <SCORE>
-8.13074

>  <SCORE.INTER>
-8.13074

>  <SCORE.INTER.CONST>
1

>  <SCORE.INTER.POLAR>
0

>  <SCORE.INTER.ROT>
0

>  <SCORE.INTER.SOLV>
5.2654

>  <SCORE.INTER.VDW>
-10.7756

>  <SCORE.INTER.norm>
-0.739158

>  <SCORE.INTRA>
0

>  <SCORE.INTRA.DIHEDRAL>
0

>  <SCORE.INTRA.DIHEDRAL.0>
0

>  <SCORE.INTRA.POLAR>
0

>  <SCORE.INTRA.POLAR.0>
0

>  <SCORE.INTRA.REPUL>
0

>  <SCORE.INTRA.REPUL.0>
0

>  <SCORE.INTRA.SOLV>
0

>  <SCORE.INTRA.SOLV.lig_0>
-48.9558

>  <SCORE.INTRA.VDW>
0

>  <SCORE.INTRA.VDW.0>
0

>  <SCORE.INTRA.norm>
0

>  <SCORE.RESTR>
0

>  <SCORE.RESTR.CAVITY>
0

>  <SCORE.RESTR.norm>
0

>  <SCORE.SYSTEM>
0

>  <SCORE.SYSTEM.CONST>
0

>  <SCORE.SYSTEM.DIHEDRAL>
0

>  <SCORE.SYSTEM.SOLV>
0

>  <SCORE.SYSTEM.norm>
0

>  <SCORE.heavy>
11

>  <SCORE.norm>
-0.739158

>  <RMSD>
14.448

$$$$
ligand
 OpenBabel11021811493D
libRbt.so/2013.1/901 2013/11/27
 11 12  0  0  0  0  0  0  0  0999 V2000
   26.7829   11.0331    3.5064 N   0  0  0  0  0  0  0  0  0  0  0  0
   26.5244   11.3552    4.7840 C   0  0  0  0  0  0  0  0  0  0  0  0
   27.4637   12.0777    5.5003 N   0  0  0  0  0  0  0  0  0  0  0  0
   25.3770   10.9923    5.3804 N   0  0  0  0  0  0  0  0  0  0  0  0
   24.4381   10.2861    4.7084 C   0  0  0  0  0  0  0  0  0  0  0  0
   24.6684    9.9246    3.3569 C   0  0  0  0  0  0  0  0  0  0  0  0
   25.9013   10.3303    2.7646 C   0  0  0  0  0  0  0  0  0  0  0  0
   26.1957   10.0142    1.4520 N   0  0  0  0  0  0  0  0  0  0  0  0
   23.5820    9.2302    2.9374 N   0  0  0  0  0  0  0  0  0  0  0  0
   22.7219    9.1431    3.9124 C   0  0  0  0  0  0  0  0  0  0  0  0
   23.2039    9.7785    5.0235 N   0  0  0  0  0  0  0  0  0  0  0  0
  1  7  2  0  0  0  0
  1  2  1  0  0  0  0
  2  3  1  0  0  0  0
  2  4  2  0  0  0  0
  4  5  1  0  0  0  0
  5  6  2  0  0  0  0
  5 11  1  0  0  0  0
  6  7  1  0  0  0  0
  6  9  1  0  0  0  0
  7  8  1  0  0  0  0
  9 10  1  0  0  0  0
 10 11  2  0  0  0  0
M  END
>  <CHROM.1>
25.19107323,10.39048925,3.94107630,-0.36314858,-0.44086306,-1.91031063

>  <Name>
ligand

>  <RI>
0

>  <Rbt.Current_Directory>
/home/itssahil/PROJECTS/Mol_Feturizer/New_Systems/rnas/4FEP

>  <Rbt.Executable>
rbdock ($Id: //depot/dev/client3/rdock/2013.1/src/exe/rbdock.cxx#4 $)

>  <Rbt.Library>
libRbt.so (2013.1, Build901 2013/11/27)

>  <Rbt.Parameter_File>
/export/apps/rDock/src/rDock_2013.1_src/data/scripts/dock_solv.prm

>  <Rbt.Receptor>
prm/blind_docking_40.prm

>  <SCORE>
-8.17763

>  <SCORE.INTER>
-8.17763

>  <SCORE.INTER.CONST>
1

>  <SCORE.INTER.POLAR>
0

>  <SCORE.INTER.ROT>
0

>  <SCORE.INTER.SOLV>
5.81929

>  <SCORE.INTER.VDW>
-10.9915

>  <SCORE.INTER.norm>
-0.743421

>  <SCORE.INTRA>
0

>  <SCORE.INTRA.DIHEDRAL>
0

>  <SCORE.INTRA.DIHEDRAL.0>
0

>  <SCORE.INTRA.POLAR>
0

>  <SCORE.INTRA.POLAR.0>
0

>  <SCORE.INTRA.REPUL>
0

>  <SCORE.INTRA.REPUL.0>
0

>  <SCORE.INTRA.SOLV>
0

>  <SCORE.INTRA.SOLV.lig_0>
-48.9558

>  <SCORE.INTRA.VDW>
0

>  <SCORE.INTRA.VDW.0>
0

>  <SCORE.INTRA.norm>
0

>  <SCORE.RESTR>
0

>  <SCORE.RESTR.CAVITY>
0

>  <SCORE.RESTR.norm>
0

>  <SCORE.SYSTEM>
0

>  <SCORE.SYSTEM.CONST>
0

>  <SCORE.SYSTEM.DIHEDRAL>
0

>  <SCORE.SYSTEM.SOLV>
0

>  <SCORE.SYSTEM.norm>
0

>  <SCORE.heavy>
11

>  <SCORE.norm>
-0.743421

>  <RMSD>
14.451

$$$$
ligand
 OpenBabel11021811493D
libRbt.so/2013.1/901 2013/11/27
 11 12  0  0  0  0  0  0  0  0999 V2000
   22.8542   21.6937   13.3917 N   0  0  0  0  0  0  0  0  0  0  0  0
   24.0465   21.3282   12.8938 C   0  0  0  0  0  0  0  0  0  0  0  0
   24.4788   21.8856   11.7022 N   0  0  0  0  0  0  0  0  0  0  0  0
   24.8265   20.4358   13.5254 N   0  0  0  0  0  0  0  0  0  0  0  0
   24.4337   19.8728   14.6918 C   0  0  0  0  0  0  0  0  0  0  0  0
   23.1824   20.2297   15.2548 C   0  0  0  0  0  0  0  0  0  0  0  0
   22.3866   21.1804   14.5490 C   0  0  0  0  0  0  0  0  0  0  0  0
   21.1556   21.5765   15.0362 N   0  0  0  0  0  0  0  0  0  0  0  0
   23.0443   19.5236   16.4041 N   0  0  0  0  0  0  0  0  0  0  0  0
   24.0976   18.7773   16.5819 C   0  0  0  0  0  0  0  0  0  0  0  0
   24.9816   18.9581   15.5540 N   0  0  0  0  0  0  0  0  0  0  0  0
  1  7  2  0  0  0  0
  1  2  1  0  0  0  0
  2  3  1  0  0  0  0
  2  4  2  0  0  0  0
  4  5  1  0  0  0  0
  5  6  2  0  0  0  0
  5 11  1  0  0  0  0
  6  7  1  0  0  0  0
  6  9  1  0  0  0  0
  7  8  1  0  0  0  0
  9 10  1  0  0  0  0
 10 11  2  0  0  0  0
M  END
>  <CHROM.1>
23.58706642,20.51166324,14.48787285,1.57541264,0.45466062,-0.97158158

>  <Name>
ligand

>  <RI>
0

>  <Rbt.Current_Directory>
/home/itssahil/PROJECTS/Mol_Feturizer/New_Systems/rnas/4FEP

>  <Rbt.Executable>
rbdock ($Id: //depot/dev/client3/rdock/2013.1/src/exe/rbdock.cxx#4 $)

>  <Rbt.Library>
libRbt.so (2013.1, Build901 2013/11/27)

>  <Rbt.Parameter_File>
/export/apps/rDock/src/rDock_2013.1_src/data/scripts/dock_solv.prm

>  <Rbt.Receptor>
prm/blind_docking_40.prm

>  <SCORE>
-6.50973

>  <SCORE.INTER>
-6.50973

>  <SCORE.INTER.CONST>
1

>  <SCORE.INTER.POLAR>
0

>  <SCORE.INTER.ROT>
0

>  <SCORE.INTER.SOLV>
3.7395

>  <SCORE.INTER.VDW>
-9.18632

>  <SCORE.INTER.norm>
-0.591793

>  <SCORE.INTRA>
0

>  <SCORE.INTRA.DIHEDRAL>
0

>  <SCORE.INTRA.DIHEDRAL.0>
0

>  <SCORE.INTRA.POLAR>
0

>  <SCORE.INTRA.POLAR.0>
0

>  <SCORE.INTRA.REPUL>
0

>  <SCORE.INTRA.REPUL.0>
0

>  <SCORE.INTRA.SOLV>
0

>  <SCORE.INTRA.SOLV.lig_0>
-48.9558

>  <SCORE.INTRA.VDW>
0

>  <SCORE.INTRA.VDW.0>
0

>  <SCORE.INTRA.norm>
0

>  <SCORE.RESTR>
0

>  <SCORE.RESTR.CAVITY>
0

>  <SCORE.RESTR.norm>
0

>  <SCORE.SYSTEM>
0

>  <SCORE.SYSTEM.CONST>
0

>  <SCORE.SYSTEM.DIHEDRAL>
0

>  <SCORE.SYSTEM.SOLV>
0

>  <SCORE.SYSTEM.norm>
0

>  <SCORE.heavy>
11

>  <SCORE.norm>
-0.591793

>  <RMSD>
16.725

$$$$
ligand
 OpenBabel11021811493D
libRbt.so/2013.1/901 2013/11/27
 11 12  0  0  0  0  0  0  0  0999 V2000
   26.6058   10.1385    3.3870 N   0  0  0  0  0  0  0  0  0  0  0  0
   26.6572    8.9789    2.7120 C   0  0  0  0  0  0  0  0  0  0  0  0
   26.2565    8.9521    1.3868 N   0  0  0  0  0  0  0  0  0  0  0  0
   27.0879    7.8474    3.2934 N   0  0  0  0  0  0  0  0  0  0  0  0
   27.4870    7.8395    4.5867 C   0  0  0  0  0  0  0  0  0  0  0  0
   27.4502    9.0414    5.3379 C   0  0  0  0  0  0  0  0  0  0  0  0
   26.9845   10.2185    4.6799 C   0  0  0  0  0  0  0  0  0  0  0  0
   26.9205   11.4266    5.3480 N   0  0  0  0  0  0  0  0  0  0  0  0
   27.8953    8.7482    6.5846 N   0  0  0  0  0  0  0  0  0  0  0  0
   28.1961    7.4820    6.6495 C   0  0  0  0  0  0  0  0  0  0  0  0
   27.9621    6.8803    5.4436 N   0  0  0  0  0  0  0  0  0  0  0  0
  1  7  2  0  0  0  0
  1  2  1  0  0  0  0
  2  3  1  0  0  0  0
  2  4  2  0  0  0  0
  4  5  1  0  0  0  0
  5  6  2  0  0  0  0
  5 11  1  0  0  0  0
  6  7  1  0  0  0  0
  6  9  1  0  0  0  0
  7  8  1  0  0  0  0
  9 10  1  0  0  0  0
 10 11  2  0  0  0  0
M  END
>  <CHROM.1>
27.21873530,8.87931628,4.47088555,2.88488697,1.20865879,-2.51337210

>  <Name>
ligand

>  <RI>
0

>  <Rbt.Current_Directory>
/home/itssahil/PROJECTS/Mol_Feturizer/New_Systems/rnas/4FEP

>  <Rbt.Executable>
rbdock ($Id: //depot/dev/client3/rdock/2013.1/src/exe/rbdock.cxx#4 $)

>  <Rbt.Library>
libRbt.so (2013.1, Build901 2013/11/27)

>  <Rbt.Parameter_File>
/export/apps/rDock/src/rDock_2013.1_src/data/scripts/dock_solv.prm

>  <Rbt.Receptor>
prm/blind_docking_80.prm

>  <SCORE>
-5.25947

>  <SCORE.INTER>
-5.25947

>  <SCORE.INTER.CONST>
1

>  <SCORE.INTER.POLAR>
0

>  <SCORE.INTER.ROT>
0

>  <SCORE.INTER.SOLV>
0.586067

>  <SCORE.INTER.VDW>
-7.30167

>  <SCORE.INTER.norm>
-0.478133

>  <SCORE.INTRA>
0

>  <SCORE.INTRA.DIHEDRAL>
0

>  <SCORE.INTRA.DIHEDRAL.0>
0

>  <SCORE.INTRA.POLAR>
0

>  <SCORE.INTRA.POLAR.0>
0

>  <SCORE.INTRA.REPUL>
0

>  <SCORE.INTRA.REPUL.0>
0

>  <SCORE.INTRA.SOLV>
0

>  <SCORE.INTRA.SOLV.lig_0>
-48.9558

>  <SCORE.INTRA.VDW>
0

>  <SCORE.INTRA.VDW.0>
0

>  <SCORE.INTRA.norm>
0

>  <SCORE.RESTR>
0

>  <SCORE.RESTR.CAVITY>
0

>  <SCORE.RESTR.norm>
0

>  <SCORE.SYSTEM>
0

>  <SCORE.SYSTEM.CONST>
0

>  <SCORE.SYSTEM.DIHEDRAL>
0

>  <SCORE.SYSTEM.SOLV>
0

>  <SCORE.SYSTEM.norm>
0

>  <SCORE.heavy>
11

>  <SCORE.norm>
-0.478133

>  <RMSD>
16.859

$$$$
ligand
 OpenBabel11021811493D
libRbt.so/2013.1/901 2013/11/27
 11 12  0  0  0  0  0  0  0  0999 V2000
   23.2717   21.8058   13.1343 N   0  0  0  0  0  0  0  0  0  0  0  0
   24.3960   21.2486   12.6565 C   0  0  0  0  0  0  0  0  0  0  0  0
   24.8990   21.6816   11.4411 N   0  0  0  0  0  0  0  0  0  0  0  0
   25.0413   20.2827   13.3305 N   0  0  0  0  0  0  0  0  0  0  0  0
   24.5765   19.8372   14.5210 C   0  0  0  0  0  0  0  0  0  0  0  0
   23.3928   20.3975   15.0642 C   0  0  0  0  0  0  0  0  0  0  0  0
   22.7400   21.4200   14.3132 C   0  0  0  0  0  0  0  0  0  0  0  0
   21.5817   22.0126   14.7789 N   0  0  0  0  0  0  0  0  0  0  0  0
   23.1591   19.7729   16.2447 N   0  0  0  0  0  0  0  0  0  0  0  0
   24.0939   18.8907   16.4593 C   0  0  0  0  0  0  0  0  0  0  0  0
   24.9899   18.8936   15.4260 N   0  0  0  0  0  0  0  0  0  0  0  0
  1  7  2  0  0  0  0
  1  2  1  0  0  0  0
  2  3  1  0  0  0  0
  2  4  2  0  0  0  0
  4  5  1  0  0  0  0
  5  6  2  0  0  0  0
  5 11  1  0  0  0  0
  6  7  1  0  0  0  0
  6  9  1  0  0  0  0
  7  8  1  0  0  0  0
  9 10  1  0  0  0  0
 10 11  2  0  0  0  0
M  END
>  <CHROM.1>
23.83046081,20.58202831,14.28580198,1.48235440,0.57573170,-0.97226746

>  <Name>
ligand

>  <RI>
0

>  <Rbt.Current_Directory>
/home/itssahil/PROJECTS/Mol_Feturizer/New_Systems/rnas/4FEP

>  <Rbt.Executable>
rbdock ($Id: //depot/dev/client3/rdock/2013.1/src/exe/rbdock.cxx#4 $)

>  <Rbt.Library>
libRbt.so (2013.1, Build901 2013/11/27)

>  <Rbt.Parameter_File>
/export/apps/rDock/src/rDock_2013.1_src/data/scripts/dock_solv.prm

>  <Rbt.Receptor>
prm/blind_docking_40.prm

>  <SCORE>
-6.50848

>  <SCORE.INTER>
-6.50848

>  <SCORE.INTER.CONST>
1

>  <SCORE.INTER.POLAR>
0

>  <SCORE.INTER.ROT>
0

>  <SCORE.INTER.SOLV>
3.44182

>  <SCORE.INTER.VDW>
-9.08626

>  <SCORE.INTER.norm>
-0.59168

>  <SCORE.INTRA>
0

>  <SCORE.INTRA.DIHEDRAL>
0

>  <SCORE.INTRA.DIHEDRAL.0>
0

>  <SCORE.INTRA.POLAR>
0

>  <SCORE.INTRA.POLAR.0>
0

>  <SCORE.INTRA.REPUL>
0

>  <SCORE.INTRA.REPUL.0>
0

>  <SCORE.INTRA.SOLV>
0

>  <SCORE.INTRA.SOLV.lig_0>
-48.9558

>  <SCORE.INTRA.VDW>
0

>  <SCORE.INTRA.VDW.0>
0

>  <SCORE.INTRA.norm>
0

>  <SCORE.RESTR>
0

>  <SCORE.RESTR.CAVITY>
0

>  <SCORE.RESTR.norm>
0

>  <SCORE.SYSTEM>
0

>  <SCORE.SYSTEM.CONST>
0

>  <SCORE.SYSTEM.DIHEDRAL>
0

>  <SCORE.SYSTEM.SOLV>
0

>  <SCORE.SYSTEM.norm>
0

>  <SCORE.heavy>
11

>  <SCORE.norm>
-0.59168

>  <RMSD>
16.865

$$$$
ligand
 OpenBabel11021811493D
libRbt.so/2013.1/901 2013/11/27
 11 12  0  0  0  0  0  0  0  0999 V2000
   22.9378   21.3290   15.0685 N   0  0  0  0  0  0  0  0  0  0  0  0
   23.2952   21.5734   13.7975 C   0  0  0  0  0  0  0  0  0  0  0  0
   22.6629   22.5913   13.1034 N   0  0  0  0  0  0  0  0  0  0  0  0
   24.2505   20.8536   13.1867 N   0  0  0  0  0  0  0  0  0  0  0  0
   24.8881   19.8523   13.8369 C   0  0  0  0  0  0  0  0  0  0  0  0
   24.5435   19.5594   15.1807 C   0  0  0  0  0  0  0  0  0  0  0  0
   23.5225   20.3489   15.7888 C   0  0  0  0  0  0  0  0  0  0  0  0
   23.1333   20.1215   17.0951 N   0  0  0  0  0  0  0  0  0  0  0  0
   25.3245   18.5247   15.5780 N   0  0  0  0  0  0  0  0  0  0  0  0
   26.1057   18.1713   14.5967 C   0  0  0  0  0  0  0  0  0  0  0  0
   25.8744   18.9600   13.5035 N   0  0  0  0  0  0  0  0  0  0  0  0
  1  7  2  0  0  0  0
  1  2  1  0  0  0  0
  2  3  1  0  0  0  0
  2  4  2  0  0  0  0
  4  5  1  0  0  0  0
  5  6  2  0  0  0  0
  5 11  1  0  0  0  0
  6  7  1  0  0  0  0
  6  9  1  0  0  0  0
  7  8  1  0  0  0  0
  9 10  1  0  0  0  0
 10 11  2  0  0  0  0
M  END
>  <CHROM.1>
24.21411054,20.19010747,14.61041842,2.61523038,0.76469794,-1.11280540

>  <Name>
ligand

>  <RI>
0

>  <Rbt.Current_Directory>
/home/itssahil/PROJECTS/Mol_Feturizer/New_Systems/rnas/4FEP

>  <Rbt.Executable>
rbdock ($Id: //depot/dev/client3/rdock/2013.1/src/exe/rbdock.cxx#4 $)

>  <Rbt.Library>
libRbt.so (2013.1, Build901 2013/11/27)

>  <Rbt.Parameter_File>
/export/apps/rDock/src/rDock_2013.1_src/data/scripts/dock_solv.prm

>  <Rbt.Receptor>
prm/blind_docking_40.prm

>  <SCORE>
-7.49452

>  <SCORE.INTER>
-7.49452

>  <SCORE.INTER.CONST>
1

>  <SCORE.INTER.POLAR>
0

>  <SCORE.INTER.ROT>
0

>  <SCORE.INTER.SOLV>
4.2573

>  <SCORE.INTER.VDW>
-10.0154

>  <SCORE.INTER.norm>
-0.68132

>  <SCORE.INTRA>
0

>  <SCORE.INTRA.DIHEDRAL>
0

>  <SCORE.INTRA.DIHEDRAL.0>
0

>  <SCORE.INTRA.POLAR>
0

>  <SCORE.INTRA.POLAR.0>
0

>  <SCORE.INTRA.REPUL>
0

>  <SCORE.INTRA.REPUL.0>
0

>  <SCORE.INTRA.SOLV>
0

>  <SCORE.INTRA.SOLV.lig_0>
-48.9558

>  <SCORE.INTRA.VDW>
0

>  <SCORE.INTRA.VDW.0>
0

>  <SCORE.INTRA.norm>
0

>  <SCORE.RESTR>
0

>  <SCORE.RESTR.CAVITY>
0

>  <SCORE.RESTR.norm>
0

>  <SCORE.SYSTEM>
0

>  <SCORE.SYSTEM.CONST>
0

>  <SCORE.SYSTEM.DIHEDRAL>
0

>  <SCORE.SYSTEM.SOLV>
0

>  <SCORE.SYSTEM.norm>
0

>  <SCORE.heavy>
11

>  <SCORE.norm>
-0.68132

>  <RMSD>
16.934

$$$$
ligand
 OpenBabel11021811493D
libRbt.so/2013.1/901 2013/11/27
 11 12  0  0  0  0  0  0  0  0999 V2000
   22.9174   21.4561   15.0054 N   0  0  0  0  0  0  0  0  0  0  0  0
   23.3141   21.6950   13.7451 C   0  0  0  0  0  0  0  0  0  0  0  0
   22.7261   22.7305   13.0382 N   0  0  0  0  0  0  0  0  0  0  0  0
   24.2667   20.9530   13.1570 N   0  0  0  0  0  0  0  0  0  0  0  0
   24.8615   19.9341   13.8202 C   0  0  0  0  0  0  0  0  0  0  0  0
   24.4744   19.6461   15.1534 C   0  0  0  0  0  0  0  0  0  0  0  0
   23.4581   20.4595   15.7373 C   0  0  0  0  0  0  0  0  0  0  0  0
   23.0290   20.2383   17.0322 N   0  0  0  0  0  0  0  0  0  0  0  0
   25.2185   18.5909   15.5675 N   0  0  0  0  0  0  0  0  0  0  0  0
   26.0160   18.2207   14.6057 C   0  0  0  0  0  0  0  0  0  0  0  0
   25.8335   19.0181   13.5096 N   0  0  0  0  0  0  0  0  0  0  0  0
  1  7  2  0  0  0  0
  1  2  1  0  0  0  0
  2  3  1  0  0  0  0
  2  4  2  0  0  0  0
  4  5  1  0  0  0  0
  5  6  2  0  0  0  0
  5 11  1  0  0  0  0
  6  7  1  0  0  0  0
  6  9  1  0  0  0  0
  7  8  1  0  0  0  0
  9 10  1  0  0  0  0
 10 11  2  0  0  0  0
M  END
>  <CHROM.1>
24.17619552,20.28662591,14.57693767,2.56661580,0.77507664,-1.07579205

>  <Name>
ligand

>  <RI>
0

>  <Rbt.Current_Directory>
/home/itssahil/PROJECTS/Mol_Feturizer/New_Systems/rnas/4FEP

>  <Rbt.Executable>
rbdock ($Id: //depot/dev/client3/rdock/2013.1/src/exe/rbdock.cxx#4 $)

>  <Rbt.Library>
libRbt.so (2013.1, Build901 2013/11/27)

>  <Rbt.Parameter_File>
/export/apps/rDock/src/rDock_2013.1_src/data/scripts/dock_solv.prm

>  <Rbt.Receptor>
prm/blind_docking_40.prm

>  <SCORE>
-7.45432

>  <SCORE.INTER>
-7.45432

>  <SCORE.INTER.CONST>
1

>  <SCORE.INTER.POLAR>
0

>  <SCORE.INTER.ROT>
0

>  <SCORE.INTER.SOLV>
3.62698

>  <SCORE.INTER.VDW>
-9.77854

>  <SCORE.INTER.norm>
-0.677666

>  <SCORE.INTRA>
0

>  <SCORE.INTRA.DIHEDRAL>
0

>  <SCORE.INTRA.DIHEDRAL.0>
0

>  <SCORE.INTRA.POLAR>
0

>  <SCORE.INTRA.POLAR.0>
0

>  <SCORE.INTRA.REPUL>
0

>  <SCORE.INTRA.REPUL.0>
0

>  <SCORE.INTRA.SOLV>
0

>  <SCORE.INTRA.SOLV.lig_0>
-48.9558

>  <SCORE.INTRA.VDW>
0

>  <SCORE.INTRA.VDW.0>
0

>  <SCORE.INTRA.norm>
0

>  <SCORE.RESTR>
0

>  <SCORE.RESTR.CAVITY>
0

>  <SCORE.RESTR.norm>
0

>  <SCORE.SYSTEM>
0

>  <SCORE.SYSTEM.CONST>
0

>  <SCORE.SYSTEM.DIHEDRAL>
0

>  <SCORE.SYSTEM.SOLV>
0

>  <SCORE.SYSTEM.norm>
0

>  <SCORE.heavy>
11

>  <SCORE.norm>
-0.677666

>  <RMSD>
16.940

$$$$
ligand
 OpenBabel11021811493D
libRbt.so/2013.1/901 2013/11/27
 11 12  0  0  0  0  0  0  0  0999 V2000
   22.9643   21.4119   15.0093 N   0  0  0  0  0  0  0  0  0  0  0  0
   23.3673   21.6349   13.7480 C   0  0  0  0  0  0  0  0  0  0  0  0
   22.7930   22.6705   13.0301 N   0  0  0  0  0  0  0  0  0  0  0  0
   24.3130   20.8769   13.1694 N   0  0  0  0  0  0  0  0  0  0  0  0
   24.8945   19.8575   13.8435 C   0  0  0  0  0  0  0  0  0  0  0  0
   24.5005   19.5859   15.1781 C   0  0  0  0  0  0  0  0  0  0  0  0
   23.4918   20.4159   15.7517 C   0  0  0  0  0  0  0  0  0  0  0  0
   23.0566   20.2112   17.0473 N   0  0  0  0  0  0  0  0  0  0  0  0
   25.2314   18.5262   15.6038 N   0  0  0  0  0  0  0  0  0  0  0  0
   26.0275   18.1383   14.6477 C   0  0  0  0  0  0  0  0  0  0  0  0
   25.8570   18.9278   13.5439 N   0  0  0  0  0  0  0  0  0  0  0  0
  1  7  2  0  0  0  0
  1  2  1  0  0  0  0
  2  3  1  0  0  0  0
  2  4  2  0  0  0  0
  4  5  1  0  0  0  0
  5  6  2  0  0  0  0
  5 11  1  0  0  0  0
  6  7  1  0  0  0  0
  6  9  1  0  0  0  0
  7  8  1  0  0  0  0
  9 10  1  0  0  0  0
 10 11  2  0  0  0  0
M  END
>  <CHROM.1>
24.21111718,20.22448042,14.59503255,2.55560002,0.78363698,-1.07707757

>  <Name>
ligand

>  <RI>
0

>  <Rbt.Current_Directory>
/home/itssahil/PROJECTS/Mol_Feturizer/New_Systems/rnas/4FEP

>  <Rbt.Executable>
rbdock ($Id: //depot/dev/client3/rdock/2013.1/src/exe/rbdock.cxx#4 $)

>  <Rbt.Library>
libRbt.so (2013.1, Build901 2013/11/27)

>  <Rbt.Parameter_File>
/export/apps/rDock/src/rDock_2013.1_src/data/scripts/dock_solv.prm

>  <Rbt.Receptor>
prm/blind_docking_40.prm

>  <SCORE>
-7.5226

>  <SCORE.INTER>
-7.5226

>  <SCORE.INTER.CONST>
1

>  <SCORE.INTER.POLAR>
0

>  <SCORE.INTER.ROT>
0

>  <SCORE.INTER.SOLV>
3.87706

>  <SCORE.INTER.VDW>
-9.90742

>  <SCORE.INTER.norm>
-0.683873

>  <SCORE.INTRA>
0

>  <SCORE.INTRA.DIHEDRAL>
0

>  <SCORE.INTRA.DIHEDRAL.0>
0

>  <SCORE.INTRA.POLAR>
0

>  <SCORE.INTRA.POLAR.0>
0

>  <SCORE.INTRA.REPUL>
0

>  <SCORE.INTRA.REPUL.0>
0

>  <SCORE.INTRA.SOLV>
0

>  <SCORE.INTRA.SOLV.lig_0>
-48.9558

>  <SCORE.INTRA.VDW>
0

>  <SCORE.INTRA.VDW.0>
0

>  <SCORE.INTRA.norm>
0

>  <SCORE.RESTR>
0

>  <SCORE.RESTR.CAVITY>
0

>  <SCORE.RESTR.norm>
0

>  <SCORE.SYSTEM>
0

>  <SCORE.SYSTEM.CONST>
0

>  <SCORE.SYSTEM.DIHEDRAL>
0

>  <SCORE.SYSTEM.SOLV>
0

>  <SCORE.SYSTEM.norm>
0

>  <SCORE.heavy>
11

>  <SCORE.norm>
-0.683873

>  <RMSD>
16.947

$$$$
ligand
 OpenBabel11021811493D
libRbt.so/2013.1/901 2013/11/27
 11 12  0  0  0  0  0  0  0  0999 V2000
   23.0333   21.3085   15.0877 N   0  0  0  0  0  0  0  0  0  0  0  0
   23.3469   21.5571   13.8060 C   0  0  0  0  0  0  0  0  0  0  0  0
   22.6987   22.5841   13.1406 N   0  0  0  0  0  0  0  0  0  0  0  0
   24.2733   20.8327   13.1574 N   0  0  0  0  0  0  0  0  0  0  0  0
   24.9253   19.8225   13.7788 C   0  0  0  0  0  0  0  0  0  0  0  0
   24.6267   19.5248   15.1325 C   0  0  0  0  0  0  0  0  0  0  0  0
   23.6352   20.3194   15.7812 C   0  0  0  0  0  0  0  0  0  0  0  0
   23.2913   20.0879   17.0995 N   0  0  0  0  0  0  0  0  0  0  0  0
   25.4127   18.4814   15.4959 N   0  0  0  0  0  0  0  0  0  0  0  0
   26.1550   18.1270   14.4852 C   0  0  0  0  0  0  0  0  0  0  0  0
   25.8912   18.9238   13.4053 N   0  0  0  0  0  0  0  0  0  0  0  0
  1  7  2  0  0  0  0
  1  2  1  0  0  0  0
  2  3  1  0  0  0  0
  2  4  2  0  0  0  0
  4  5  1  0  0  0  0
  5  6  2  0  0  0  0
  5 11  1  0  0  0  0
  6  7  1  0  0  0  0
  6  9  1  0  0  0  0
  7  8  1  0  0  0  0
  9 10  1  0  0  0  0
 10 11  2  0  0  0  0
M  END
>  <CHROM.1>
24.28251175,20.16152067,14.57788352,2.65563716,0.78790337,-1.13562035

>  <Name>
ligand

>  <RI>
0

>  <Rbt.Current_Directory>
/home/itssahil/PROJECTS/Mol_Feturizer/New_Systems/rnas/4FEP

>  <Rbt.Executable>
rbdock ($Id: //depot/dev/client3/rdock/2013.1/src/exe/rbdock.cxx#4 $)

>  <Rbt.Library>
libRbt.so (2013.1, Build901 2013/11/27)

>  <Rbt.Parameter_File>
/export/apps/rDock/src/rDock_2013.1_src/data/scripts/dock_solv.prm

>  <Rbt.Receptor>
prm/blind_docking_80.prm

>  <SCORE>
-7.44932

>  <SCORE.INTER>
-7.44932

>  <SCORE.INTER.CONST>
1

>  <SCORE.INTER.POLAR>
0

>  <SCORE.INTER.ROT>
0

>  <SCORE.INTER.SOLV>
4.59274

>  <SCORE.INTER.VDW>
-10.0971

>  <SCORE.INTER.norm>
-0.677211

>  <SCORE.INTRA>
0

>  <SCORE.INTRA.DIHEDRAL>
0

>  <SCORE.INTRA.DIHEDRAL.0>
0

>  <SCORE.INTRA.POLAR>
0

>  <SCORE.INTRA.POLAR.0>
0

>  <SCORE.INTRA.REPUL>
0

>  <SCORE.INTRA.REPUL.0>
0

>  <SCORE.INTRA.SOLV>
0

>  <SCORE.INTRA.SOLV.lig_0>
-48.9558

>  <SCORE.INTRA.VDW>
0

>  <SCORE.INTRA.VDW.0>
0

>  <SCORE.INTRA.norm>
0

>  <SCORE.RESTR>
0

>  <SCORE.RESTR.CAVITY>
0

>  <SCORE.RESTR.norm>
0

>  <SCORE.SYSTEM>
0

>  <SCORE.SYSTEM.CONST>
0

>  <SCORE.SYSTEM.DIHEDRAL>
0

>  <SCORE.SYSTEM.SOLV>
0

>  <SCORE.SYSTEM.norm>
0

>  <SCORE.heavy>
11

>  <SCORE.norm>
-0.677211

>  <RMSD>
16.952

$$$$
ligand
 OpenBabel11021811493D
libRbt.so/2013.1/901 2013/11/27
 11 12  0  0  0  0  0  0  0  0999 V2000
   30.5611   12.4729   15.9108 N   0  0  0  0  0  0  0  0  0  0  0  0
   31.4188   12.5513   16.9409 C   0  0  0  0  0  0  0  0  0  0  0  0
   32.3407   11.5353   17.1291 N   0  0  0  0  0  0  0  0  0  0  0  0
   31.4017   13.5915   17.7902 N   0  0  0  0  0  0  0  0  0  0  0  0
   30.5139   14.6011   17.6341 C   0  0  0  0  0  0  0  0  0  0  0  0
   29.5897   14.5605   16.5597 C   0  0  0  0  0  0  0  0  0  0  0  0
   29.6434   13.4360   15.6832 C   0  0  0  0  0  0  0  0  0  0  0  0
   28.7742   13.3273   14.6144 N   0  0  0  0  0  0  0  0  0  0  0  0
   28.8288   15.6797   16.6432 N   0  0  0  0  0  0  0  0  0  0  0  0
   29.2124   16.3874   17.6680 C   0  0  0  0  0  0  0  0  0  0  0  0
   30.2477   15.7645   18.3092 N   0  0  0  0  0  0  0  0  0  0  0  0
  1  7  2  0  0  0  0
  1  2  1  0  0  0  0
  2  3  1  0  0  0  0
  2  4  2  0  0  0  0
  4  5  1  0  0  0  0
  5  6  2  0  0  0  0
  5 11  1  0  0  0  0
  6  7  1  0  0  0  0
  6  9  1  0  0  0  0
  7  8  1  0  0  0  0
  9 10  1  0  0  0  0
 10 11  2  0  0  0  0
M  END
>  <CHROM.1>
30.24091681,13.96972793,16.80131713,0.85549839,0.71198936,-2.44531303

>  <Name>
ligand

>  <RI>
0

>  <Rbt.Current_Directory>
/home/itssahil/PROJECTS/Mol_Feturizer/New_Systems/rnas/4FEP

>  <Rbt.Executable>
rbdock ($Id: //depot/dev/client3/rdock/2013.1/src/exe/rbdock.cxx#4 $)

>  <Rbt.Library>
libRbt.so (2013.1, Build901 2013/11/27)

>  <Rbt.Parameter_File>
/export/apps/rDock/src/rDock_2013.1_src/data/scripts/dock_solv.prm

>  <Rbt.Receptor>
prm/blind_docking_100.prm

>  <SCORE>
-6.95569

>  <SCORE.INTER>
-6.95569

>  <SCORE.INTER.CONST>
1

>  <SCORE.INTER.POLAR>
0

>  <SCORE.INTER.ROT>
0

>  <SCORE.INTER.SOLV>
5.01403

>  <SCORE.INTER.VDW>
-9.90847

>  <SCORE.INTER.norm>
-0.632336

>  <SCORE.INTRA>
0

>  <SCORE.INTRA.DIHEDRAL>
0

>  <SCORE.INTRA.DIHEDRAL.0>
0

>  <SCORE.INTRA.POLAR>
0

>  <SCORE.INTRA.POLAR.0>
0

>  <SCORE.INTRA.REPUL>
0

>  <SCORE.INTRA.REPUL.0>
0

>  <SCORE.INTRA.SOLV>
0

>  <SCORE.INTRA.SOLV.lig_0>
-48.9558

>  <SCORE.INTRA.VDW>
0

>  <SCORE.INTRA.VDW.0>
0

>  <SCORE.INTRA.norm>
0

>  <SCORE.RESTR>
0

>  <SCORE.RESTR.CAVITY>
0

>  <SCORE.RESTR.norm>
0

>  <SCORE.SYSTEM>
0

>  <SCORE.SYSTEM.CONST>
0

>  <SCORE.SYSTEM.DIHEDRAL>
0

>  <SCORE.SYSTEM.SOLV>
0

>  <SCORE.SYSTEM.norm>
0

>  <SCORE.heavy>
11

>  <SCORE.norm>
-0.632336

>  <RMSD>
21.206

$$$$
ligand
 OpenBabel11021811493D
libRbt.so/2013.1/901 2013/11/27
 11 12  0  0  0  0  0  0  0  0999 V2000
   30.1951   12.3187   14.3028 N   0  0  0  0  0  0  0  0  0  0  0  0
   29.5968   12.4926   15.4923 C   0  0  0  0  0  0  0  0  0  0  0  0
   28.6251   13.4707   15.6215 N   0  0  0  0  0  0  0  0  0  0  0  0
   29.9201   11.7400   16.5566 N   0  0  0  0  0  0  0  0  0  0  0  0
   30.8651   10.7755   16.4639 C   0  0  0  0  0  0  0  0  0  0  0  0
   31.5225   10.5563   15.2270 C   0  0  0  0  0  0  0  0  0  0  0  0
   31.1480   11.3799   14.1239 C   0  0  0  0  0  0  0  0  0  0  0  0
   31.7453   11.2246   12.8874 N   0  0  0  0  0  0  0  0  0  0  0  0
   32.4094    9.5486   15.4178 N   0  0  0  0  0  0  0  0  0  0  0  0
   32.3434    9.1433   16.6545 C   0  0  0  0  0  0  0  0  0  0  0  0
   31.4063    9.8682   17.3380 N   0  0  0  0  0  0  0  0  0  0  0  0
  1  7  2  0  0  0  0
  1  2  1  0  0  0  0
  2  3  1  0  0  0  0
  2  4  2  0  0  0  0
  4  5  1  0  0  0  0
  5  6  2  0  0  0  0
  5 11  1  0  0  0  0
  6  7  1  0  0  0  0
  6  9  1  0  0  0  0
  7  8  1  0  0  0  0
  9 10  1  0  0  0  0
 10 11  2  0  0  0  0
M  END
>  <CHROM.1>
30.87454622,11.15663155,15.45333906,-2.61423343,-0.77856745,1.93855056

>  <Name>
ligand

>  <RI>
0

>  <Rbt.Current_Directory>
/home/itssahil/PROJECTS/Mol_Feturizer/New_Systems/rnas/4FEP

>  <Rbt.Executable>
rbdock ($Id: //depot/dev/client3/rdock/2013.1/src/exe/rbdock.cxx#4 $)

>  <Rbt.Library>
libRbt.so (2013.1, Build901 2013/11/27)

>  <Rbt.Parameter_File>
/export/apps/rDock/src/rDock_2013.1_src/data/scripts/dock_solv.prm

>  <Rbt.Receptor>
prm/blind_docking_40.prm

>  <SCORE>
-4.55044

>  <SCORE.INTER>
-4.55044

>  <SCORE.INTER.CONST>
1

>  <SCORE.INTER.POLAR>
0

>  <SCORE.INTER.ROT>
0

>  <SCORE.INTER.SOLV>
6.78626

>  <SCORE.INTER.VDW>
-8.89571

>  <SCORE.INTER.norm>
-0.413677

>  <SCORE.INTRA>
0

>  <SCORE.INTRA.DIHEDRAL>
0

>  <SCORE.INTRA.DIHEDRAL.0>
0

>  <SCORE.INTRA.POLAR>
0

>  <SCORE.INTRA.POLAR.0>
0

>  <SCORE.INTRA.REPUL>
0

>  <SCORE.INTRA.REPUL.0>
0

>  <SCORE.INTRA.SOLV>
0

>  <SCORE.INTRA.SOLV.lig_0>
-48.9558

>  <SCORE.INTRA.VDW>
0

>  <SCORE.INTRA.VDW.0>
0

>  <SCORE.INTRA.norm>
0

>  <SCORE.RESTR>
0

>  <SCORE.RESTR.CAVITY>
0

>  <SCORE.RESTR.norm>
0

>  <SCORE.SYSTEM>
0

>  <SCORE.SYSTEM.CONST>
0

>  <SCORE.SYSTEM.DIHEDRAL>
0

>  <SCORE.SYSTEM.SOLV>
0

>  <SCORE.SYSTEM.norm>
0

>  <SCORE.heavy>
11

>  <SCORE.norm>
-0.413677

>  <RMSD>
21.208

$$$$
ligand
 OpenBabel11021811493D
libRbt.so/2013.1/901 2013/11/27
 11 12  0  0  0  0  0  0  0  0999 V2000
   30.8132   12.7683   16.3098 N   0  0  0  0  0  0  0  0  0  0  0  0
   29.7267   13.0620   15.5775 C   0  0  0  0  0  0  0  0  0  0  0  0
   29.3396   12.1960   14.5687 N   0  0  0  0  0  0  0  0  0  0  0  0
   29.0095   14.1751   15.8021 N   0  0  0  0  0  0  0  0  0  0  0  0
   29.3607   15.0419   16.7804 C   0  0  0  0  0  0  0  0  0  0  0  0
   30.5006   14.7717   17.5790 C   0  0  0  0  0  0  0  0  0  0  0  0
   31.2329   13.5785   17.3042 C   0  0  0  0  0  0  0  0  0  0  0  0
   32.3548   13.2490   18.0407 N   0  0  0  0  0  0  0  0  0  0  0  0
   30.6196   15.7910   18.4652 N   0  0  0  0  0  0  0  0  0  0  0  0
   29.6558   16.6465   18.2717 C   0  0  0  0  0  0  0  0  0  0  0  0
   28.8544   16.2285   17.2452 N   0  0  0  0  0  0  0  0  0  0  0  0
  1  7  2  0  0  0  0
  1  2  1  0  0  0  0
  2  3  1  0  0  0  0
  2  4  2  0  0  0  0
  4  5  1  0  0  0  0
  5  6  2  0  0  0  0
  5 11  1  0  0  0  0
  6  7  1  0  0  0  0
  6  9  1  0  0  0  0
  7  8  1  0  0  0  0
  9 10  1  0  0  0  0
 10 11  2  0  0  0  0
M  END
>  <CHROM.1>
30.13605448,14.29809698,16.89029248,-1.55951691,-0.61023049,0.65595550

>  <Name>
ligand

>  <RI>
0

>  <Rbt.Current_Directory>
/home/itssahil/PROJECTS/Mol_Feturizer/New_Systems/rnas/4FEP

>  <Rbt.Executable>
rbdock ($Id: //depot/dev/client3/rdock/2013.1/src/exe/rbdock.cxx#4 $)

>  <Rbt.Library>
libRbt.so (2013.1, Build901 2013/11/27)

>  <Rbt.Parameter_File>
/export/apps/rDock/src/rDock_2013.1_src/data/scripts/dock_solv.prm

>  <Rbt.Receptor>
prm/blind_docking_80.prm

>  <SCORE>
-7.97995

>  <SCORE.INTER>
-7.97995

>  <SCORE.INTER.CONST>
1

>  <SCORE.INTER.POLAR>
0

>  <SCORE.INTER.ROT>
0

>  <SCORE.INTER.SOLV>
4.11338

>  <SCORE.INTER.VDW>
-10.2911

>  <SCORE.INTER.norm>
-0.72545

>  <SCORE.INTRA>
0

>  <SCORE.INTRA.DIHEDRAL>
0

>  <SCORE.INTRA.DIHEDRAL.0>
0

>  <SCORE.INTRA.POLAR>
0

>  <SCORE.INTRA.POLAR.0>
0

>  <SCORE.INTRA.REPUL>
0

>  <SCORE.INTRA.REPUL.0>
0

>  <SCORE.INTRA.SOLV>
0

>  <SCORE.INTRA.SOLV.lig_0>
-48.9558

>  <SCORE.INTRA.VDW>
0

>  <SCORE.INTRA.VDW.0>
0

>  <SCORE.INTRA.norm>
0

>  <SCORE.RESTR>
0

>  <SCORE.RESTR.CAVITY>
0

>  <SCORE.RESTR.norm>
0

>  <SCORE.SYSTEM>
0

>  <SCORE.SYSTEM.CONST>
0

>  <SCORE.SYSTEM.DIHEDRAL>
0

>  <SCORE.SYSTEM.SOLV>
0

>  <SCORE.SYSTEM.norm>
0

>  <SCORE.heavy>
11

>  <SCORE.norm>
-0.72545

>  <RMSD>
21.213

$$$$
ligand
 OpenBabel11021811493D
libRbt.so/2013.1/901 2013/11/27
 11 12  0  0  0  0  0  0  0  0999 V2000
   30.8126   12.7578   16.3117 N   0  0  0  0  0  0  0  0  0  0  0  0
   29.7274   13.0539   15.5784 C   0  0  0  0  0  0  0  0  0  0  0  0
   29.3391   12.1886   14.5694 N   0  0  0  0  0  0  0  0  0  0  0  0
   29.0125   14.1686   15.8022 N   0  0  0  0  0  0  0  0  0  0  0  0
   29.3648   15.0348   16.7806 C   0  0  0  0  0  0  0  0  0  0  0  0
   30.5034   14.7622   17.5803 C   0  0  0  0  0  0  0  0  0  0  0  0
   31.2333   13.5673   17.3062 C   0  0  0  0  0  0  0  0  0  0  0  0
   32.3538   13.2354   18.0438 N   0  0  0  0  0  0  0  0  0  0  0  0
   30.6240   15.7814   18.4663 N   0  0  0  0  0  0  0  0  0  0  0  0
   29.6623   16.6390   18.2719 C   0  0  0  0  0  0  0  0  0  0  0  0
   28.8609   16.2226   17.2448 N   0  0  0  0  0  0  0  0  0  0  0  0
  1  7  2  0  0  0  0
  1  2  1  0  0  0  0
  2  3  1  0  0  0  0
  2  4  2  0  0  0  0
  4  5  1  0  0  0  0
  5  6  2  0  0  0  0
  5 11  1  0  0  0  0
  6  7  1  0  0  0  0
  6  9  1  0  0  0  0
  7  8  1  0  0  0  0
  9 10  1  0  0  0  0
 10 11  2  0  0  0  0
M  END
>  <CHROM.1>
30.13844449,14.28928690,16.89131704,-1.56108194,-0.61227147,0.65485963

>  <Name>
ligand

>  <RI>
0

>  <Rbt.Current_Directory>
/home/itssahil/PROJECTS/Mol_Feturizer/New_Systems/rnas/4FEP

>  <Rbt.Executable>
rbdock ($Id: //depot/dev/client3/rdock/2013.1/src/exe/rbdock.cxx#4 $)

>  <Rbt.Library>
libRbt.so (2013.1, Build901 2013/11/27)

>  <Rbt.Parameter_File>
/export/apps/rDock/src/rDock_2013.1_src/data/scripts/dock_solv.prm

>  <Rbt.Receptor>
prm/blind_docking_100.prm

>  <SCORE>
-7.9822

>  <SCORE.INTER>
-7.9822

>  <SCORE.INTER.CONST>
1

>  <SCORE.INTER.POLAR>
0

>  <SCORE.INTER.ROT>
0

>  <SCORE.INTER.SOLV>
4.09029

>  <SCORE.INTER.VDW>
-10.2849

>  <SCORE.INTER.norm>
-0.725655

>  <SCORE.INTRA>
0

>  <SCORE.INTRA.DIHEDRAL>
0

>  <SCORE.INTRA.DIHEDRAL.0>
0

>  <SCORE.INTRA.POLAR>
0

>  <SCORE.INTRA.POLAR.0>
0

>  <SCORE.INTRA.REPUL>
0

>  <SCORE.INTRA.REPUL.0>
0

>  <SCORE.INTRA.SOLV>
0

>  <SCORE.INTRA.SOLV.lig_0>
-48.9558

>  <SCORE.INTRA.VDW>
0

>  <SCORE.INTRA.VDW.0>
0

>  <SCORE.INTRA.norm>
0

>  <SCORE.RESTR>
0

>  <SCORE.RESTR.CAVITY>
0

>  <SCORE.RESTR.norm>
0

>  <SCORE.SYSTEM>
0

>  <SCORE.SYSTEM.CONST>
0

>  <SCORE.SYSTEM.DIHEDRAL>
0

>  <SCORE.SYSTEM.SOLV>
0

>  <SCORE.SYSTEM.norm>
0

>  <SCORE.heavy>
11

>  <SCORE.norm>
-0.725655

>  <RMSD>
21.214

$$$$
ligand
 OpenBabel11021811493D
libRbt.so/2013.1/901 2013/11/27
 11 12  0  0  0  0  0  0  0  0999 V2000
   30.8139   12.7592   16.3169 N   0  0  0  0  0  0  0  0  0  0  0  0
   29.7277   13.0554   15.5852 C   0  0  0  0  0  0  0  0  0  0  0  0
   29.3377   12.1902   14.5768 N   0  0  0  0  0  0  0  0  0  0  0  0
   29.0132   14.1702   15.8101 N   0  0  0  0  0  0  0  0  0  0  0  0
   29.3671   15.0364   16.7881 C   0  0  0  0  0  0  0  0  0  0  0  0
   30.5068   14.7635   17.5860 C   0  0  0  0  0  0  0  0  0  0  0  0
   31.2361   13.5686   17.3108 C   0  0  0  0  0  0  0  0  0  0  0  0
   32.3577   13.2365   18.0467 N   0  0  0  0  0  0  0  0  0  0  0  0
   30.6288   15.7827   18.4720 N   0  0  0  0  0  0  0  0  0  0  0  0
   29.6670   16.6404   18.2790 C   0  0  0  0  0  0  0  0  0  0  0  0
   28.8639   16.2242   17.2531 N   0  0  0  0  0  0  0  0  0  0  0  0
  1  7  2  0  0  0  0
  1  2  1  0  0  0  0
  2  3  1  0  0  0  0
  2  4  2  0  0  0  0
  4  5  1  0  0  0  0
  5  6  2  0  0  0  0
  5 11  1  0  0  0  0
  6  7  1  0  0  0  0
  6  9  1  0  0  0  0
  7  8  1  0  0  0  0
  9 10  1  0  0  0  0
 10 11  2  0  0  0  0
M  END
>  <CHROM.1>
30.14075329,14.29070320,16.89758993,-1.56230187,-0.61116451,0.65422284

>  <Name>
ligand

>  <RI>
0

>  <Rbt.Current_Directory>
/home/itssahil/PROJECTS/Mol_Feturizer/New_Systems/rnas/4FEP

>  <Rbt.Executable>
rbdock ($Id: //depot/dev/client3/rdock/2013.1/src/exe/rbdock.cxx#4 $)

>  <Rbt.Library>
libRbt.so (2013.1, Build901 2013/11/27)

>  <Rbt.Parameter_File>
/export/apps/rDock/src/rDock_2013.1_src/data/scripts/dock_solv.prm

>  <Rbt.Receptor>
prm/blind_docking_80.prm

>  <SCORE>
-7.98283

>  <SCORE.INTER>
-7.98283

>  <SCORE.INTER.CONST>
1

>  <SCORE.INTER.POLAR>
0

>  <SCORE.INTER.ROT>
0

>  <SCORE.INTER.SOLV>
4.08836

>  <SCORE.INTER.VDW>
-10.2847

>  <SCORE.INTER.norm>
-0.725712

>  <SCORE.INTRA>
0

>  <SCORE.INTRA.DIHEDRAL>
0

>  <SCORE.INTRA.DIHEDRAL.0>
0

>  <SCORE.INTRA.POLAR>
0

>  <SCORE.INTRA.POLAR.0>
0

>  <SCORE.INTRA.REPUL>
0

>  <SCORE.INTRA.REPUL.0>
0

>  <SCORE.INTRA.SOLV>
0

>  <SCORE.INTRA.SOLV.lig_0>
-48.9558

>  <SCORE.INTRA.VDW>
0

>  <SCORE.INTRA.VDW.0>
0

>  <SCORE.INTRA.norm>
0

>  <SCORE.RESTR>
0

>  <SCORE.RESTR.CAVITY>
0

>  <SCORE.RESTR.norm>
0

>  <SCORE.SYSTEM>
0

>  <SCORE.SYSTEM.CONST>
0

>  <SCORE.SYSTEM.DIHEDRAL>
0

>  <SCORE.SYSTEM.SOLV>
0

>  <SCORE.SYSTEM.norm>
0

>  <SCORE.heavy>
11

>  <SCORE.norm>
-0.725712

>  <RMSD>
21.219

$$$$
ligand
 OpenBabel11021811493D
libRbt.so/2013.1/901 2013/11/27
 11 12  0  0  0  0  0  0  0  0999 V2000
   30.8143   12.7725   16.3260 N   0  0  0  0  0  0  0  0  0  0  0  0
   29.7276   13.0644   15.5933 C   0  0  0  0  0  0  0  0  0  0  0  0
   29.3393   12.1952   14.5876 N   0  0  0  0  0  0  0  0  0  0  0  0
   29.0111   14.1785   15.8146 N   0  0  0  0  0  0  0  0  0  0  0  0
   29.3632   15.0484   16.7898 C   0  0  0  0  0  0  0  0  0  0  0  0
   30.5034   14.7803   17.5887 C   0  0  0  0  0  0  0  0  0  0  0  0
   31.2350   13.5858   17.3174 C   0  0  0  0  0  0  0  0  0  0  0  0
   32.3571   13.2582   18.0544 N   0  0  0  0  0  0  0  0  0  0  0  0
   30.6235   15.8025   18.4714 N   0  0  0  0  0  0  0  0  0  0  0  0
   29.6601   16.6578   18.2756 C   0  0  0  0  0  0  0  0  0  0  0  0
   28.8579   16.2368   17.2510 N   0  0  0  0  0  0  0  0  0  0  0  0
  1  7  2  0  0  0  0
  1  2  1  0  0  0  0
  2  3  1  0  0  0  0
  2  4  2  0  0  0  0
  4  5  1  0  0  0  0
  5  6  2  0  0  0  0
  5 11  1  0  0  0  0
  6  7  1  0  0  0  0
  6  9  1  0  0  0  0
  7  8  1  0  0  0  0
  9 10  1  0  0  0  0
 10 11  2  0  0  0  0
M  END
>  <CHROM.1>
30.13830051,14.30458009,16.90175737,-1.56045627,-0.61009779,0.65207688

>  <Name>
ligand

>  <RI>
0

>  <Rbt.Current_Directory>
/home/itssahil/PROJECTS/Mol_Feturizer/New_Systems/rnas/4FEP

>  <Rbt.Executable>
rbdock ($Id: //depot/dev/client3/rdock/2013.1/src/exe/rbdock.cxx#4 $)

>  <Rbt.Library>
libRbt.so (2013.1, Build901 2013/11/27)

>  <Rbt.Parameter_File>
/export/apps/rDock/src/rDock_2013.1_src/data/scripts/dock_solv.prm

>  <Rbt.Receptor>
prm/blind_docking_100.prm

>  <SCORE>
-7.97741

>  <SCORE.INTER>
-7.97741

>  <SCORE.INTER.CONST>
1

>  <SCORE.INTER.POLAR>
0

>  <SCORE.INTER.ROT>
0

>  <SCORE.INTER.SOLV>
4.13239

>  <SCORE.INTER.VDW>
-10.2957

>  <SCORE.INTER.norm>
-0.725219

>  <SCORE.INTRA>
0

>  <SCORE.INTRA.DIHEDRAL>
0

>  <SCORE.INTRA.DIHEDRAL.0>
0

>  <SCORE.INTRA.POLAR>
0

>  <SCORE.INTRA.POLAR.0>
0

>  <SCORE.INTRA.REPUL>
0

>  <SCORE.INTRA.REPUL.0>
0

>  <SCORE.INTRA.SOLV>
0

>  <SCORE.INTRA.SOLV.lig_0>
-48.9558

>  <SCORE.INTRA.VDW>
0

>  <SCORE.INTRA.VDW.0>
0

>  <SCORE.INTRA.norm>
0

>  <SCORE.RESTR>
0

>  <SCORE.RESTR.CAVITY>
0

>  <SCORE.RESTR.norm>
0

>  <SCORE.SYSTEM>
0

>  <SCORE.SYSTEM.CONST>
0

>  <SCORE.SYSTEM.DIHEDRAL>
0

>  <SCORE.SYSTEM.SOLV>
0

>  <SCORE.SYSTEM.norm>
0

>  <SCORE.heavy>
11

>  <SCORE.norm>
-0.725219

>  <RMSD>
21.220

$$$$
ligand
 OpenBabel11021811493D
libRbt.so/2013.1/901 2013/11/27
 11 12  0  0  0  0  0  0  0  0999 V2000
   30.8100   12.7623   16.3277 N   0  0  0  0  0  0  0  0  0  0  0  0
   29.7259   13.0593   15.5932 C   0  0  0  0  0  0  0  0  0  0  0  0
   29.3371   12.1936   14.5847 N   0  0  0  0  0  0  0  0  0  0  0  0
   29.0124   14.1752   15.8154 N   0  0  0  0  0  0  0  0  0  0  0  0
   29.3651   15.0418   16.7933 C   0  0  0  0  0  0  0  0  0  0  0  0
   30.5027   14.7683   17.5942 C   0  0  0  0  0  0  0  0  0  0  0  0
   31.2310   13.5721   17.3218 C   0  0  0  0  0  0  0  0  0  0  0  0
   32.3505   13.2392   18.0606 N   0  0  0  0  0  0  0  0  0  0  0  0
   30.6240   15.7881   18.4794 N   0  0  0  0  0  0  0  0  0  0  0  0
   29.6637   16.6470   18.2833 C   0  0  0  0  0  0  0  0  0  0  0  0
   28.8625   16.2308   17.2560 N   0  0  0  0  0  0  0  0  0  0  0  0
  1  7  2  0  0  0  0
  1  2  1  0  0  0  0
  2  3  1  0  0  0  0
  2  4  2  0  0  0  0
  4  5  1  0  0  0  0
  5  6  2  0  0  0  0
  5 11  1  0  0  0  0
  6  7  1  0  0  0  0
  6  9  1  0  0  0  0
  7  8  1  0  0  0  0
  9 10  1  0  0  0  0
 10 11  2  0  0  0  0
M  END
>  <CHROM.1>
30.13757211,14.29526480,16.90534848,-1.56187647,-0.61380746,0.65348268

>  <Name>
ligand

>  <RI>
0

>  <Rbt.Current_Directory>
/home/itssahil/PROJECTS/Mol_Feturizer/New_Systems/rnas/4FEP

>  <Rbt.Executable>
rbdock ($Id: //depot/dev/client3/rdock/2013.1/src/exe/rbdock.cxx#4 $)

>  <Rbt.Library>
libRbt.so (2013.1, Build901 2013/11/27)

>  <Rbt.Parameter_File>
/export/apps/rDock/src/rDock_2013.1_src/data/scripts/dock_solv.prm

>  <Rbt.Receptor>
prm/blind_docking_80.prm

>  <SCORE>
-7.98219

>  <SCORE.INTER>
-7.98219

>  <SCORE.INTER.CONST>
1

>  <SCORE.INTER.POLAR>
0

>  <SCORE.INTER.ROT>
0

>  <SCORE.INTER.SOLV>
4.08526

>  <SCORE.INTER.VDW>
-10.2832

>  <SCORE.INTER.norm>
-0.725654

>  <SCORE.INTRA>
0

>  <SCORE.INTRA.DIHEDRAL>
0

>  <SCORE.INTRA.DIHEDRAL.0>
0

>  <SCORE.INTRA.POLAR>
0

>  <SCORE.INTRA.POLAR.0>
0

>  <SCORE.INTRA.REPUL>
0

>  <SCORE.INTRA.REPUL.0>
0

>  <SCORE.INTRA.SOLV>
0

>  <SCORE.INTRA.SOLV.lig_0>
-48.9558

>  <SCORE.INTRA.VDW>
0

>  <SCORE.INTRA.VDW.0>
0

>  <SCORE.INTRA.norm>
0

>  <SCORE.RESTR>
0

>  <SCORE.RESTR.CAVITY>
0

>  <SCORE.RESTR.norm>
0

>  <SCORE.SYSTEM>
0

>  <SCORE.SYSTEM.CONST>
0

>  <SCORE.SYSTEM.DIHEDRAL>
0

>  <SCORE.SYSTEM.SOLV>
0

>  <SCORE.SYSTEM.norm>
0

>  <SCORE.heavy>
11

>  <SCORE.norm>
-0.725654

>  <RMSD>
21.220

$$$$
ligand
 OpenBabel11021811493D
libRbt.so/2013.1/901 2013/11/27
 11 12  0  0  0  0  0  0  0  0999 V2000
   30.8135   12.7588   16.3308 N   0  0  0  0  0  0  0  0  0  0  0  0
   29.7302   13.0533   15.5942 C   0  0  0  0  0  0  0  0  0  0  0  0
   29.3453   12.1866   14.5851 N   0  0  0  0  0  0  0  0  0  0  0  0
   29.0139   14.1678   15.8147 N   0  0  0  0  0  0  0  0  0  0  0  0
   29.3629   15.0354   16.7931 C   0  0  0  0  0  0  0  0  0  0  0  0
   30.4994   14.7644   17.5963 C   0  0  0  0  0  0  0  0  0  0  0  0
   31.2309   13.5698   17.3256 C   0  0  0  0  0  0  0  0  0  0  0  0
   32.3496   13.2395   18.0667 N   0  0  0  0  0  0  0  0  0  0  0  0
   30.6168   15.7848   18.4815 N   0  0  0  0  0  0  0  0  0  0  0  0
   29.6551   16.6415   18.2833 C   0  0  0  0  0  0  0  0  0  0  0  0
   28.8568   16.2234   17.2545 N   0  0  0  0  0  0  0  0  0  0  0  0
  1  7  2  0  0  0  0
  1  2  1  0  0  0  0
  2  3  1  0  0  0  0
  2  4  2  0  0  0  0
  4  5  1  0  0  0  0
  5  6  2  0  0  0  0
  5 11  1  0  0  0  0
  6  7  1  0  0  0  0
  6  9  1  0  0  0  0
  7  8  1  0  0  0  0
  9 10  1  0  0  0  0
 10 11  2  0  0  0  0
M  END
>  <CHROM.1>
30.13670080,14.29051755,16.90682251,-1.55833267,-0.61407234,0.65529776

>  <Name>
ligand

>  <RI>
0

>  <Rbt.Current_Directory>
/home/itssahil/PROJECTS/Mol_Feturizer/New_Systems/rnas/4FEP

>  <Rbt.Executable>
rbdock ($Id: //depot/dev/client3/rdock/2013.1/src/exe/rbdock.cxx#4 $)

>  <Rbt.Library>
libRbt.so (2013.1, Build901 2013/11/27)

>  <Rbt.Parameter_File>
/export/apps/rDock/src/rDock_2013.1_src/data/scripts/dock_solv.prm

>  <Rbt.Receptor>
prm/blind_docking_80.prm

>  <SCORE>
-7.98099

>  <SCORE.INTER>
-7.98099

>  <SCORE.INTER.CONST>
1

>  <SCORE.INTER.POLAR>
0

>  <SCORE.INTER.ROT>
0

>  <SCORE.INTER.SOLV>
4.07317

>  <SCORE.INTER.VDW>
-10.2784

>  <SCORE.INTER.norm>
-0.725544

>  <SCORE.INTRA>
0

>  <SCORE.INTRA.DIHEDRAL>
0

>  <SCORE.INTRA.DIHEDRAL.0>
0

>  <SCORE.INTRA.POLAR>
0

>  <SCORE.INTRA.POLAR.0>
0

>  <SCORE.INTRA.REPUL>
0

>  <SCORE.INTRA.REPUL.0>
0

>  <SCORE.INTRA.SOLV>
0

>  <SCORE.INTRA.SOLV.lig_0>
-48.9558

>  <SCORE.INTRA.VDW>
0

>  <SCORE.INTRA.VDW.0>
0

>  <SCORE.INTRA.norm>
0

>  <SCORE.RESTR>
0

>  <SCORE.RESTR.CAVITY>
0

>  <SCORE.RESTR.norm>
0

>  <SCORE.SYSTEM>
0

>  <SCORE.SYSTEM.CONST>
0

>  <SCORE.SYSTEM.DIHEDRAL>
0

>  <SCORE.SYSTEM.SOLV>
0

>  <SCORE.SYSTEM.norm>
0

>  <SCORE.heavy>
11

>  <SCORE.norm>
-0.725544

>  <RMSD>
21.220

$$$$
ligand
 OpenBabel11021811493D
libRbt.so/2013.1/901 2013/11/27
 11 12  0  0  0  0  0  0  0  0999 V2000
   30.8286   12.7730   16.3091 N   0  0  0  0  0  0  0  0  0  0  0  0
   29.7323   13.0569   15.5877 C   0  0  0  0  0  0  0  0  0  0  0  0
   29.3436   12.1880   14.5820 N   0  0  0  0  0  0  0  0  0  0  0  0
   29.0067   14.1629   15.8202 N   0  0  0  0  0  0  0  0  0  0  0  0
   29.3591   15.0323   16.7957 C   0  0  0  0  0  0  0  0  0  0  0  0
   30.5093   14.7724   17.5829 C   0  0  0  0  0  0  0  0  0  0  0  0
   31.2503   13.5866   17.2999 C   0  0  0  0  0  0  0  0  0  0  0  0
   32.3824   13.2673   18.0252 N   0  0  0  0  0  0  0  0  0  0  0  0
   30.6272   15.7922   18.4687 N   0  0  0  0  0  0  0  0  0  0  0  0
   29.6535   16.6386   18.2853 C   0  0  0  0  0  0  0  0  0  0  0  0
   28.8461   16.2136   17.2664 N   0  0  0  0  0  0  0  0  0  0  0  0
  1  7  2  0  0  0  0
  1  2  1  0  0  0  0
  2  3  1  0  0  0  0
  2  4  2  0  0  0  0
  4  5  1  0  0  0  0
  5  6  2  0  0  0  0
  5 11  1  0  0  0  0
  6  7  1  0  0  0  0
  6  9  1  0  0  0  0
  7  8  1  0  0  0  0
  9 10  1  0  0  0  0
 10 11  2  0  0  0  0
M  END
>  <CHROM.1>
30.14262448,14.29589086,16.89739153,-1.55757381,-0.59662999,0.65782178

>  <Name>
ligand

>  <RI>
0

>  <Rbt.Current_Directory>
/home/itssahil/PROJECTS/Mol_Feturizer/New_Systems/rnas/4FEP

>  <Rbt.Executable>
rbdock ($Id: //depot/dev/client3/rdock/2013.1/src/exe/rbdock.cxx#4 $)

>  <Rbt.Library>
libRbt.so (2013.1, Build901 2013/11/27)

>  <Rbt.Parameter_File>
/export/apps/rDock/src/rDock_2013.1_src/data/scripts/dock_solv.prm

>  <Rbt.Receptor>
prm/blind_docking_60.prm

>  <SCORE>
-7.96094

>  <SCORE.INTER>
-7.96094

>  <SCORE.INTER.CONST>
1

>  <SCORE.INTER.POLAR>
0

>  <SCORE.INTER.ROT>
0

>  <SCORE.INTER.SOLV>
4.15585

>  <SCORE.INTER.VDW>
-10.2926

>  <SCORE.INTER.norm>
-0.723721

>  <SCORE.INTRA>
0

>  <SCORE.INTRA.DIHEDRAL>
0

>  <SCORE.INTRA.DIHEDRAL.0>
0

>  <SCORE.INTRA.POLAR>
0

>  <SCORE.INTRA.POLAR.0>
0

>  <SCORE.INTRA.REPUL>
0

>  <SCORE.INTRA.REPUL.0>
0

>  <SCORE.INTRA.SOLV>
0

>  <SCORE.INTRA.SOLV.lig_0>
-48.9558

>  <SCORE.INTRA.VDW>
0

>  <SCORE.INTRA.VDW.0>
0

>  <SCORE.INTRA.norm>
0

>  <SCORE.RESTR>
0

>  <SCORE.RESTR.CAVITY>
0

>  <SCORE.RESTR.norm>
0

>  <SCORE.SYSTEM>
0

>  <SCORE.SYSTEM.CONST>
0

>  <SCORE.SYSTEM.DIHEDRAL>
0

>  <SCORE.SYSTEM.SOLV>
0

>  <SCORE.SYSTEM.norm>
0

>  <SCORE.heavy>
11

>  <SCORE.norm>
-0.723721

>  <RMSD>
21.222

$$$$
ligand
 OpenBabel11021811493D
libRbt.so/2013.1/901 2013/11/27
 11 12  0  0  0  0  0  0  0  0999 V2000
   30.7313   12.9458   16.3555 N   0  0  0  0  0  0  0  0  0  0  0  0
   29.6267   13.2731   15.6659 C   0  0  0  0  0  0  0  0  0  0  0  0
   29.2024   12.4450   14.6402 N   0  0  0  0  0  0  0  0  0  0  0  0
   28.9264   14.3836   15.9490 N   0  0  0  0  0  0  0  0  0  0  0  0
   29.3137   15.2138   16.9452 C   0  0  0  0  0  0  0  0  0  0  0  0
   30.4739   14.9073   17.7004 C   0  0  0  0  0  0  0  0  0  0  0  0
   31.1871   13.7184   17.3639 C   0  0  0  0  0  0  0  0  0  0  0  0
   32.3270   13.3550   18.0555 N   0  0  0  0  0  0  0  0  0  0  0  0
   30.6279   15.8949   18.6166 N   0  0  0  0  0  0  0  0  0  0  0  0
   29.6667   16.7642   18.4806 C   0  0  0  0  0  0  0  0  0  0  0  0
   28.8319   16.3878   17.4646 N   0  0  0  0  0  0  0  0  0  0  0  0
  1  7  2  0  0  0  0
  1  2  1  0  0  0  0
  2  3  1  0  0  0  0
  2  4  2  0  0  0  0
  4  5  1  0  0  0  0
  5  6  2  0  0  0  0
  5 11  1  0  0  0  0
  6  7  1  0  0  0  0
  6  9  1  0  0  0  0
  7  8  1  0  0  0  0
  9 10  1  0  0  0  0
 10 11  2  0  0  0  0
M  END
>  <CHROM.1>
30.08525123,14.46042333,17.00705423,-1.58958323,-0.59239013,0.67286299

>  <Name>
ligand

>  <RI>
0

>  <Rbt.Current_Directory>
/home/itssahil/PROJECTS/Mol_Feturizer/New_Systems/rnas/4FEP

>  <Rbt.Executable>
rbdock ($Id: //depot/dev/client3/rdock/2013.1/src/exe/rbdock.cxx#4 $)

>  <Rbt.Library>
libRbt.so (2013.1, Build901 2013/11/27)

>  <Rbt.Parameter_File>
/export/apps/rDock/src/rDock_2013.1_src/data/scripts/dock_solv.prm

>  <Rbt.Receptor>
prm/blind_docking_60.prm

>  <SCORE>
-7.86172

>  <SCORE.INTER>
-7.86172

>  <SCORE.INTER.CONST>
1

>  <SCORE.INTER.POLAR>
0

>  <SCORE.INTER.ROT>
0

>  <SCORE.INTER.SOLV>
4.45009

>  <SCORE.INTER.VDW>
-10.3245

>  <SCORE.INTER.norm>
-0.714702

>  <SCORE.INTRA>
0

>  <SCORE.INTRA.DIHEDRAL>
0

>  <SCORE.INTRA.DIHEDRAL.0>
0

>  <SCORE.INTRA.POLAR>
0

>  <SCORE.INTRA.POLAR.0>
0

>  <SCORE.INTRA.REPUL>
0

>  <SCORE.INTRA.REPUL.0>
0

>  <SCORE.INTRA.SOLV>
0

>  <SCORE.INTRA.SOLV.lig_0>
-48.9558

>  <SCORE.INTRA.VDW>
0

>  <SCORE.INTRA.VDW.0>
0

>  <SCORE.INTRA.norm>
0

>  <SCORE.RESTR>
0

>  <SCORE.RESTR.CAVITY>
0

>  <SCORE.RESTR.norm>
0

>  <SCORE.SYSTEM>
0

>  <SCORE.SYSTEM.CONST>
0

>  <SCORE.SYSTEM.DIHEDRAL>
0

>  <SCORE.SYSTEM.SOLV>
0

>  <SCORE.SYSTEM.norm>
0

>  <SCORE.heavy>
11

>  <SCORE.norm>
-0.714702

>  <RMSD>
21.240

$$$$
ligand
 OpenBabel11021811493D
libRbt.so/2013.1/901 2013/11/27
 11 12  0  0  0  0  0  0  0  0999 V2000
   30.8103   12.8631   16.3599 N   0  0  0  0  0  0  0  0  0  0  0  0
   29.7232   13.1658   15.6322 C   0  0  0  0  0  0  0  0  0  0  0  0
   29.3356   12.3127   14.6127 N   0  0  0  0  0  0  0  0  0  0  0  0
   29.0058   14.2757   15.8715 N   0  0  0  0  0  0  0  0  0  0  0  0
   29.3573   15.1301   16.8606 C   0  0  0  0  0  0  0  0  0  0  0  0
   30.4979   14.8501   17.6548 C   0  0  0  0  0  0  0  0  0  0  0  0
   31.2305   13.6608   17.3642 C   0  0  0  0  0  0  0  0  0  0  0  0
   32.3530   13.3223   18.0956 N   0  0  0  0  0  0  0  0  0  0  0  0
   30.6172   15.8580   18.5539 N   0  0  0  0  0  0  0  0  0  0  0  0
   29.6530   16.7156   18.3720 C   0  0  0  0  0  0  0  0  0  0  0  0
   28.8510   16.3104   17.3409 N   0  0  0  0  0  0  0  0  0  0  0  0
  1  7  2  0  0  0  0
  1  2  1  0  0  0  0
  2  3  1  0  0  0  0
  2  4  2  0  0  0  0
  4  5  1  0  0  0  0
  5  6  2  0  0  0  0
  5 11  1  0  0  0  0
  6  7  1  0  0  0  0
  6  9  1  0  0  0  0
  7  8  1  0  0  0  0
  9 10  1  0  0  0  0
 10 11  2  0  0  0  0
M  END
>  <CHROM.1>
30.13307483,14.38518855,16.96035822,-1.55972586,-0.60941190,0.66861487

>  <Name>
ligand

>  <RI>
0

>  <Rbt.Current_Directory>
/home/itssahil/PROJECTS/Mol_Feturizer/New_Systems/rnas/4FEP

>  <Rbt.Executable>
rbdock ($Id: //depot/dev/client3/rdock/2013.1/src/exe/rbdock.cxx#4 $)

>  <Rbt.Library>
libRbt.so (2013.1, Build901 2013/11/27)

>  <Rbt.Parameter_File>
/export/apps/rDock/src/rDock_2013.1_src/data/scripts/dock_solv.prm

>  <Rbt.Receptor>
prm/blind_docking_80.prm

>  <SCORE>
-7.93928

>  <SCORE.INTER>
-7.93928

>  <SCORE.INTER.CONST>
1

>  <SCORE.INTER.POLAR>
0

>  <SCORE.INTER.ROT>
0

>  <SCORE.INTER.SOLV>
4.22171

>  <SCORE.INTER.VDW>
-10.3001

>  <SCORE.INTER.norm>
-0.721753

>  <SCORE.INTRA>
0

>  <SCORE.INTRA.DIHEDRAL>
0

>  <SCORE.INTRA.DIHEDRAL.0>
0

>  <SCORE.INTRA.POLAR>
0

>  <SCORE.INTRA.POLAR.0>
0

>  <SCORE.INTRA.REPUL>
0

>  <SCORE.INTRA.REPUL.0>
0

>  <SCORE.INTRA.SOLV>
0

>  <SCORE.INTRA.SOLV.lig_0>
-48.9558

>  <SCORE.INTRA.VDW>
0

>  <SCORE.INTRA.VDW.0>
0

>  <SCORE.INTRA.norm>
0

>  <SCORE.RESTR>
0

>  <SCORE.RESTR.CAVITY>
0

>  <SCORE.RESTR.norm>
0

>  <SCORE.SYSTEM>
0

>  <SCORE.SYSTEM.CONST>
0

>  <SCORE.SYSTEM.DIHEDRAL>
0

>  <SCORE.SYSTEM.SOLV>
0

>  <SCORE.SYSTEM.norm>
0

>  <SCORE.heavy>
11

>  <SCORE.norm>
-0.721753

>  <RMSD>
21.251

$$$$
ligand
 OpenBabel11021811493D
libRbt.so/2013.1/901 2013/11/27
 11 12  0  0  0  0  0  0  0  0999 V2000
   30.7913   13.0561   16.4989 N   0  0  0  0  0  0  0  0  0  0  0  0
   29.6933   13.3880   15.8010 C   0  0  0  0  0  0  0  0  0  0  0  0
   29.2598   12.5496   14.7877 N   0  0  0  0  0  0  0  0  0  0  0  0
   29.0085   14.5130   16.0640 N   0  0  0  0  0  0  0  0  0  0  0  0
   29.4053   15.3536   17.0478 C   0  0  0  0  0  0  0  0  0  0  0  0
   30.5590   15.0428   17.8110 C   0  0  0  0  0  0  0  0  0  0  0  0
   31.2557   13.8383   17.4959 C   0  0  0  0  0  0  0  0  0  0  0  0
   32.3884   13.4698   18.1965 N   0  0  0  0  0  0  0  0  0  0  0  0
   30.7249   16.0428   18.7115 N   0  0  0  0  0  0  0  0  0  0  0  0
   29.7768   16.9236   18.5587 C   0  0  0  0  0  0  0  0  0  0  0  0
   28.9392   16.5428   17.5466 N   0  0  0  0  0  0  0  0  0  0  0  0
  1  7  2  0  0  0  0
  1  2  1  0  0  0  0
  2  3  1  0  0  0  0
  2  4  2  0  0  0  0
  4  5  1  0  0  0  0
  5  6  2  0  0  0  0
  5 11  1  0  0  0  0
  6  7  1  0  0  0  0
  6  9  1  0  0  0  0
  7  8  1  0  0  0  0
  9 10  1  0  0  0  0
 10 11  2  0  0  0  0
M  END
>  <CHROM.1>
30.16563032,14.59028429,17.12396482,-1.60141354,-0.60340512,0.64995276

>  <Name>
ligand

>  <RI>
0

>  <Rbt.Current_Directory>
/home/itssahil/PROJECTS/Mol_Feturizer/New_Systems/rnas/4FEP

>  <Rbt.Executable>
rbdock ($Id: //depot/dev/client3/rdock/2013.1/src/exe/rbdock.cxx#4 $)

>  <Rbt.Library>
libRbt.so (2013.1, Build901 2013/11/27)

>  <Rbt.Parameter_File>
/export/apps/rDock/src/rDock_2013.1_src/data/scripts/dock_solv.prm

>  <Rbt.Receptor>
prm/blind_docking_60.prm

>  <SCORE>
-7.83234

>  <SCORE.INTER>
-7.83234

>  <SCORE.INTER.CONST>
1

>  <SCORE.INTER.POLAR>
0

>  <SCORE.INTER.ROT>
0

>  <SCORE.INTER.SOLV>
4.63689

>  <SCORE.INTER.VDW>
-10.3672

>  <SCORE.INTER.norm>
-0.712031

>  <SCORE.INTRA>
0

>  <SCORE.INTRA.DIHEDRAL>
0

>  <SCORE.INTRA.DIHEDRAL.0>
0

>  <SCORE.INTRA.POLAR>
0

>  <SCORE.INTRA.POLAR.0>
0

>  <SCORE.INTRA.REPUL>
0

>  <SCORE.INTRA.REPUL.0>
0

>  <SCORE.INTRA.SOLV>
0

>  <SCORE.INTRA.SOLV.lig_0>
-48.9558

>  <SCORE.INTRA.VDW>
0

>  <SCORE.INTRA.VDW.0>
0

>  <SCORE.INTRA.norm>
0

>  <SCORE.RESTR>
0

>  <SCORE.RESTR.CAVITY>
0

>  <SCORE.RESTR.norm>
0

>  <SCORE.SYSTEM>
0

>  <SCORE.SYSTEM.CONST>
0

>  <SCORE.SYSTEM.DIHEDRAL>
0

>  <SCORE.SYSTEM.SOLV>
0

>  <SCORE.SYSTEM.norm>
0

>  <SCORE.heavy>
11

>  <SCORE.norm>
-0.712031

>  <RMSD>
21.376

$$$$
ligand
 OpenBabel11021811493D
libRbt.so/2013.1/901 2013/11/27
 11 12  0  0  0  0  0  0  0  0999 V2000
   30.8624   15.3399   19.0141 N   0  0  0  0  0  0  0  0  0  0  0  0
   29.7526   16.0192   18.6826 C   0  0  0  0  0  0  0  0  0  0  0  0
   29.3250   17.0519   19.5002 N   0  0  0  0  0  0  0  0  0  0  0  0
   29.0503   15.7191   17.5779 N   0  0  0  0  0  0  0  0  0  0  0  0
   29.4413   14.7161   16.7575 C   0  0  0  0  0  0  0  0  0  0  0  0
   30.6077   13.9723   17.0681 C   0  0  0  0  0  0  0  0  0  0  0  0
   31.3215   14.3252   18.2519 C   0  0  0  0  0  0  0  0  0  0  0  0
   32.4670   13.6450   18.6191 N   0  0  0  0  0  0  0  0  0  0  0  0
   30.7609   13.0422   16.0934 N   0  0  0  0  0  0  0  0  0  0  0  0
   29.7945   13.1606   15.2274 C   0  0  0  0  0  0  0  0  0  0  0  0
   28.9569   14.1782   15.5930 N   0  0  0  0  0  0  0  0  0  0  0  0
  1  7  2  0  0  0  0
  1  2  1  0  0  0  0
  2  3  1  0  0  0  0
  2  4  2  0  0  0  0
  4  5  1  0  0  0  0
  5  6  2  0  0  0  0
  5 11  1  0  0  0  0
  6  7  1  0  0  0  0
  6  9  1  0  0  0  0
  7  8  1  0  0  0  0
  9 10  1  0  0  0  0
 10 11  2  0  0  0  0
M  END
>  <CHROM.1>
30.21478287,14.66655897,17.50978470,-1.59039655,0.58536188,-2.25545472

>  <Name>
ligand

>  <RI>
0

>  <Rbt.Current_Directory>
/home/itssahil/PROJECTS/Mol_Feturizer/New_Systems/rnas/4FEP

>  <Rbt.Executable>
rbdock ($Id: //depot/dev/client3/rdock/2013.1/src/exe/rbdock.cxx#4 $)

>  <Rbt.Library>
libRbt.so (2013.1, Build901 2013/11/27)

>  <Rbt.Parameter_File>
/export/apps/rDock/src/rDock_2013.1_src/data/scripts/dock_solv.prm

>  <Rbt.Receptor>
prm/blind_docking_60.prm

>  <SCORE>
-7.18649

>  <SCORE.INTER>
-7.18649

>  <SCORE.INTER.CONST>
1

>  <SCORE.INTER.POLAR>
0

>  <SCORE.INTER.ROT>
0

>  <SCORE.INTER.SOLV>
4.01372

>  <SCORE.INTER.VDW>
-9.7289

>  <SCORE.INTER.norm>
-0.653317

>  <SCORE.INTRA>
0

>  <SCORE.INTRA.DIHEDRAL>
0

>  <SCORE.INTRA.DIHEDRAL.0>
0

>  <SCORE.INTRA.POLAR>
0

>  <SCORE.INTRA.POLAR.0>
0

>  <SCORE.INTRA.REPUL>
0

>  <SCORE.INTRA.REPUL.0>
0

>  <SCORE.INTRA.SOLV>
0

>  <SCORE.INTRA.SOLV.lig_0>
-48.9558

>  <SCORE.INTRA.VDW>
0

>  <SCORE.INTRA.VDW.0>
0

>  <SCORE.INTRA.norm>
0

>  <SCORE.RESTR>
0

>  <SCORE.RESTR.CAVITY>
0

>  <SCORE.RESTR.norm>
0

>  <SCORE.SYSTEM>
0

>  <SCORE.SYSTEM.CONST>
0

>  <SCORE.SYSTEM.DIHEDRAL>
0

>  <SCORE.SYSTEM.SOLV>
0

>  <SCORE.SYSTEM.norm>
0

>  <SCORE.heavy>
11

>  <SCORE.norm>
-0.653317

>  <RMSD>
21.388

$$$$
ligand
 OpenBabel11021811493D
libRbt.so/2013.1/901 2013/11/27
 11 12  0  0  0  0  0  0  0  0999 V2000
   30.8295   13.0101   16.4764 N   0  0  0  0  0  0  0  0  0  0  0  0
   29.7202   13.3335   15.7925 C   0  0  0  0  0  0  0  0  0  0  0  0
   29.2898   12.5005   14.7734 N   0  0  0  0  0  0  0  0  0  0  0  0
   29.0210   14.4448   16.0750 N   0  0  0  0  0  0  0  0  0  0  0  0
   29.4143   15.2798   17.0649 C   0  0  0  0  0  0  0  0  0  0  0  0
   30.5796   14.9776   17.8138 C   0  0  0  0  0  0  0  0  0  0  0  0
   31.2914   13.7876   17.4782 C   0  0  0  0  0  0  0  0  0  0  0  0
   32.4360   13.4281   18.1640 N   0  0  0  0  0  0  0  0  0  0  0  0
   30.7389   15.9695   18.7245 N   0  0  0  0  0  0  0  0  0  0  0  0
   29.7763   16.8376   18.5907 C   0  0  0  0  0  0  0  0  0  0  0  0
   28.9352   16.4560   17.5819 N   0  0  0  0  0  0  0  0  0  0  0  0
  1  7  2  0  0  0  0
  1  2  1  0  0  0  0
  2  3  1  0  0  0  0
  2  4  2  0  0  0  0
  4  5  1  0  0  0  0
  5  6  2  0  0  0  0
  5 11  1  0  0  0  0
  6  7  1  0  0  0  0
  6  9  1  0  0  0  0
  7  8  1  0  0  0  0
  9 10  1  0  0  0  0
 10 11  2  0  0  0  0
M  END
>  <CHROM.1>
30.18669917,14.52726685,17.12513875,-1.59385814,-0.58689510,0.66588341

>  <Name>
ligand

>  <RI>
0

>  <Rbt.Current_Directory>
/home/itssahil/PROJECTS/Mol_Feturizer/New_Systems/rnas/4FEP

>  <Rbt.Executable>
rbdock ($Id: //depot/dev/client3/rdock/2013.1/src/exe/rbdock.cxx#4 $)

>  <Rbt.Library>
libRbt.so (2013.1, Build901 2013/11/27)

>  <Rbt.Parameter_File>
/export/apps/rDock/src/rDock_2013.1_src/data/scripts/dock_solv.prm

>  <Rbt.Receptor>
prm/blind_docking_80.prm

>  <SCORE>
-7.90921

>  <SCORE.INTER>
-7.90921

>  <SCORE.INTER.CONST>
1

>  <SCORE.INTER.POLAR>
0

>  <SCORE.INTER.ROT>
0

>  <SCORE.INTER.SOLV>
4.51736

>  <SCORE.INTER.VDW>
-10.3786

>  <SCORE.INTER.norm>
-0.719019

>  <SCORE.INTRA>
0

>  <SCORE.INTRA.DIHEDRAL>
0

>  <SCORE.INTRA.DIHEDRAL.0>
0

>  <SCORE.INTRA.POLAR>
0

>  <SCORE.INTRA.POLAR.0>
0

>  <SCORE.INTRA.REPUL>
0

>  <SCORE.INTRA.REPUL.0>
0

>  <SCORE.INTRA.SOLV>
0

>  <SCORE.INTRA.SOLV.lig_0>
-48.9558

>  <SCORE.INTRA.VDW>
0

>  <SCORE.INTRA.VDW.0>
0

>  <SCORE.INTRA.norm>
0

>  <SCORE.RESTR>
0

>  <SCORE.RESTR.CAVITY>
0

>  <SCORE.RESTR.norm>
0

>  <SCORE.SYSTEM>
0

>  <SCORE.SYSTEM.CONST>
0

>  <SCORE.SYSTEM.DIHEDRAL>
0

>  <SCORE.SYSTEM.SOLV>
0

>  <SCORE.SYSTEM.norm>
0

>  <SCORE.heavy>
11

>  <SCORE.norm>
-0.719019

>  <RMSD>
21.389

$$$$
ligand
 OpenBabel11021811493D
libRbt.so/2013.1/901 2013/11/27
 11 12  0  0  0  0  0  0  0  0999 V2000
   30.1558   13.4078   16.2494 N   0  0  0  0  0  0  0  0  0  0  0  0
   29.5752   12.7763   15.2165 C   0  0  0  0  0  0  0  0  0  0  0  0
   28.6914   13.4741   14.4105 N   0  0  0  0  0  0  0  0  0  0  0  0
   29.8327   11.4856   14.9491 N   0  0  0  0  0  0  0  0  0  0  0  0
   30.6917   10.7753   15.7169 C   0  0  0  0  0  0  0  0  0  0  0  0
   31.3284   11.4018   16.8179 C   0  0  0  0  0  0  0  0  0  0  0  0
   31.0241   12.7735   17.0651 C   0  0  0  0  0  0  0  0  0  0  0  0
   31.6059   13.4505   18.1200 N   0  0  0  0  0  0  0  0  0  0  0  0
   32.1212   10.4713   17.4047 N   0  0  0  0  0  0  0  0  0  0  0  0
   32.0187    9.3455   16.7563 C   0  0  0  0  0  0  0  0  0  0  0  0
   31.1505    9.4832   15.7085 N   0  0  0  0  0  0  0  0  0  0  0  0
  1  7  2  0  0  0  0
  1  2  1  0  0  0  0
  2  3  1  0  0  0  0
  2  4  2  0  0  0  0
  4  5  1  0  0  0  0
  5  6  2  0  0  0  0
  5 11  1  0  0  0  0
  6  7  1  0  0  0  0
  6  9  1  0  0  0  0
  7  8  1  0  0  0  0
  9 10  1  0  0  0  0
 10 11  2  0  0  0  0
M  END
>  <CHROM.1>
30.73241696,11.73386587,16.21297100,-2.56641929,0.85912316,-2.70943633

>  <Name>
ligand

>  <RI>
0

>  <Rbt.Current_Directory>
/home/itssahil/PROJECTS/Mol_Feturizer/New_Systems/rnas/4FEP

>  <Rbt.Executable>
rbdock ($Id: //depot/dev/client3/rdock/2013.1/src/exe/rbdock.cxx#4 $)

>  <Rbt.Library>
libRbt.so (2013.1, Build901 2013/11/27)

>  <Rbt.Parameter_File>
/export/apps/rDock/src/rDock_2013.1_src/data/scripts/dock_solv.prm

>  <Rbt.Receptor>
prm/blind_docking_100.prm

>  <SCORE>
-4.70061

>  <SCORE.INTER>
-4.70061

>  <SCORE.INTER.CONST>
1

>  <SCORE.INTER.POLAR>
0

>  <SCORE.INTER.ROT>
0

>  <SCORE.INTER.SOLV>
6.148

>  <SCORE.INTER.VDW>
-8.78308

>  <SCORE.INTER.norm>
-0.427328

>  <SCORE.INTRA>
0

>  <SCORE.INTRA.DIHEDRAL>
0

>  <SCORE.INTRA.DIHEDRAL.0>
0

>  <SCORE.INTRA.POLAR>
0

>  <SCORE.INTRA.POLAR.0>
0

>  <SCORE.INTRA.REPUL>
0

>  <SCORE.INTRA.REPUL.0>
0

>  <SCORE.INTRA.SOLV>
0

>  <SCORE.INTRA.SOLV.lig_0>
-48.9558

>  <SCORE.INTRA.VDW>
0

>  <SCORE.INTRA.VDW.0>
0

>  <SCORE.INTRA.norm>
0

>  <SCORE.RESTR>
0

>  <SCORE.RESTR.CAVITY>
0

>  <SCORE.RESTR.norm>
0

>  <SCORE.SYSTEM>
0

>  <SCORE.SYSTEM.CONST>
0

>  <SCORE.SYSTEM.DIHEDRAL>
0

>  <SCORE.SYSTEM.SOLV>
0

>  <SCORE.SYSTEM.norm>
0

>  <SCORE.heavy>
11

>  <SCORE.norm>
-0.427328

>  <RMSD>
21.407

$$$$
ligand
 OpenBabel11021811493D
libRbt.so/2013.1/901 2013/11/27
 11 12  0  0  0  0  0  0  0  0999 V2000
   31.1586   15.1960   19.0684 N   0  0  0  0  0  0  0  0  0  0  0  0
   30.0896   15.9842   18.8714 C   0  0  0  0  0  0  0  0  0  0  0  0
   29.8141   16.9872   19.7856 N   0  0  0  0  0  0  0  0  0  0  0  0
   29.2838   15.8209   17.8094 N   0  0  0  0  0  0  0  0  0  0  0  0
   29.5252   14.8506   16.8972 C   0  0  0  0  0  0  0  0  0  0  0  0
   30.6434   13.9951   17.0646 C   0  0  0  0  0  0  0  0  0  0  0  0
   31.4710   14.2044   18.2078 C   0  0  0  0  0  0  0  0  0  0  0  0
   32.5780   13.4098   18.4374 N   0  0  0  0  0  0  0  0  0  0  0  0
   30.6434   13.1273   16.0228 N   0  0  0  0  0  0  0  0  0  0  0  0
   29.6289   13.3844   15.2464 C   0  0  0  0  0  0  0  0  0  0  0  0
   28.9112   14.4376   15.7429 N   0  0  0  0  0  0  0  0  0  0  0  0
  1  7  2  0  0  0  0
  1  2  1  0  0  0  0
  2  3  1  0  0  0  0
  2  4  2  0  0  0  0
  4  5  1  0  0  0  0
  5  6  2  0  0  0  0
  5 11  1  0  0  0  0
  6  7  1  0  0  0  0
  6  9  1  0  0  0  0
  7  8  1  0  0  0  0
  9 10  1  0  0  0  0
 10 11  2  0  0  0  0
M  END
>  <CHROM.1>
30.34543464,14.68558477,17.58035223,-1.45438190,0.60052928,-2.26340604

>  <Name>
ligand

>  <RI>
0

>  <Rbt.Current_Directory>
/home/itssahil/PROJECTS/Mol_Feturizer/New_Systems/rnas/4FEP

>  <Rbt.Executable>
rbdock ($Id: //depot/dev/client3/rdock/2013.1/src/exe/rbdock.cxx#4 $)

>  <Rbt.Library>
libRbt.so (2013.1, Build901 2013/11/27)

>  <Rbt.Parameter_File>
/export/apps/rDock/src/rDock_2013.1_src/data/scripts/dock_solv.prm

>  <Rbt.Receptor>
prm/blind_docking_100.prm

>  <SCORE>
-7.2471

>  <SCORE.INTER>
-7.2471

>  <SCORE.INTER.CONST>
1

>  <SCORE.INTER.POLAR>
0

>  <SCORE.INTER.ROT>
0

>  <SCORE.INTER.SOLV>
2.8913

>  <SCORE.INTER.VDW>
-9.39517

>  <SCORE.INTER.norm>
-0.658827

>  <SCORE.INTRA>
0

>  <SCORE.INTRA.DIHEDRAL>
0

>  <SCORE.INTRA.DIHEDRAL.0>
0

>  <SCORE.INTRA.POLAR>
0

>  <SCORE.INTRA.POLAR.0>
0

>  <SCORE.INTRA.REPUL>
0

>  <SCORE.INTRA.REPUL.0>
0

>  <SCORE.INTRA.SOLV>
0

>  <SCORE.INTRA.SOLV.lig_0>
-48.9558

>  <SCORE.INTRA.VDW>
0

>  <SCORE.INTRA.VDW.0>
0

>  <SCORE.INTRA.norm>
0

>  <SCORE.RESTR>
0

>  <SCORE.RESTR.CAVITY>
0

>  <SCORE.RESTR.norm>
0

>  <SCORE.SYSTEM>
0

>  <SCORE.SYSTEM.CONST>
0

>  <SCORE.SYSTEM.DIHEDRAL>
0

>  <SCORE.SYSTEM.SOLV>
0

>  <SCORE.SYSTEM.norm>
0

>  <SCORE.heavy>
11

>  <SCORE.norm>
-0.658827

>  <RMSD>
21.522

$$$$
ligand
 OpenBabel11021811493D
libRbt.so/2013.1/901 2013/11/27
 11 12  0  0  0  0  0  0  0  0999 V2000
   31.0869   15.3232   19.1186 N   0  0  0  0  0  0  0  0  0  0  0  0
   30.0386   16.1186   18.8516 C   0  0  0  0  0  0  0  0  0  0  0  0
   29.7435   17.1582   19.7175 N   0  0  0  0  0  0  0  0  0  0  0  0
   29.2721   15.9278   17.7654 N   0  0  0  0  0  0  0  0  0  0  0  0
   29.5335   14.9214   16.8991 C   0  0  0  0  0  0  0  0  0  0  0  0
   30.6311   14.0571   17.1408 C   0  0  0  0  0  0  0  0  0  0  0  0
   31.4169   14.2965   18.3073 C   0  0  0  0  0  0  0  0  0  0  0  0
   32.5019   13.4953   18.6085 N   0  0  0  0  0  0  0  0  0  0  0  0
   30.6578   13.1518   16.1318 N   0  0  0  0  0  0  0  0  0  0  0  0
   29.6782   13.3944   15.3075 C   0  0  0  0  0  0  0  0  0  0  0  0
   28.9582   14.4750   15.7372 N   0  0  0  0  0  0  0  0  0  0  0  0
  1  7  2  0  0  0  0
  1  2  1  0  0  0  0
  2  3  1  0  0  0  0
  2  4  2  0  0  0  0
  4  5  1  0  0  0  0
  5  6  2  0  0  0  0
  5 11  1  0  0  0  0
  6  7  1  0  0  0  0
  6  9  1  0  0  0  0
  7  8  1  0  0  0  0
  9 10  1  0  0  0  0
 10 11  2  0  0  0  0
M  END
>  <CHROM.1>
30.32404481,14.77007658,17.61926280,-1.47909223,0.63693794,-2.28545089

>  <Name>
ligand

>  <RI>
0

>  <Rbt.Current_Directory>
/home/itssahil/PROJECTS/Mol_Feturizer/New_Systems/rnas/4FEP

>  <Rbt.Executable>
rbdock ($Id: //depot/dev/client3/rdock/2013.1/src/exe/rbdock.cxx#4 $)

>  <Rbt.Library>
libRbt.so (2013.1, Build901 2013/11/27)

>  <Rbt.Parameter_File>
/export/apps/rDock/src/rDock_2013.1_src/data/scripts/dock_solv.prm

>  <Rbt.Receptor>
prm/blind_docking_100.prm

>  <SCORE>
-7.30453

>  <SCORE.INTER>
-7.30453

>  <SCORE.INTER.CONST>
1

>  <SCORE.INTER.POLAR>
0

>  <SCORE.INTER.ROT>
0

>  <SCORE.INTER.SOLV>
3.22005

>  <SCORE.INTER.VDW>
-9.54303

>  <SCORE.INTER.norm>
-0.664048

>  <SCORE.INTRA>
0

>  <SCORE.INTRA.DIHEDRAL>
0

>  <SCORE.INTRA.DIHEDRAL.0>
0

>  <SCORE.INTRA.POLAR>
0

>  <SCORE.INTRA.POLAR.0>
0

>  <SCORE.INTRA.REPUL>
0

>  <SCORE.INTRA.REPUL.0>
0

>  <SCORE.INTRA.SOLV>
0

>  <SCORE.INTRA.SOLV.lig_0>
-48.9558

>  <SCORE.INTRA.VDW>
0

>  <SCORE.INTRA.VDW.0>
0

>  <SCORE.INTRA.norm>
0

>  <SCORE.RESTR>
0

>  <SCORE.RESTR.CAVITY>
0

>  <SCORE.RESTR.norm>
0

>  <SCORE.SYSTEM>
0

>  <SCORE.SYSTEM.CONST>
0

>  <SCORE.SYSTEM.DIHEDRAL>
0

>  <SCORE.SYSTEM.SOLV>
0

>  <SCORE.SYSTEM.norm>
0

>  <SCORE.heavy>
11

>  <SCORE.norm>
-0.664048

>  <RMSD>
21.535

$$$$
ligand
 OpenBabel11021811493D
libRbt.so/2013.1/901 2013/11/27
 11 12  0  0  0  0  0  0  0  0999 V2000
   31.1331   15.2109   19.1488 N   0  0  0  0  0  0  0  0  0  0  0  0
   30.0905   16.0247   18.9172 C   0  0  0  0  0  0  0  0  0  0  0  0
   29.8129   17.0378   19.8194 N   0  0  0  0  0  0  0  0  0  0  0  0
   29.3132   15.8772   17.8319 N   0  0  0  0  0  0  0  0  0  0  0  0
   29.5576   14.8975   16.9306 C   0  0  0  0  0  0  0  0  0  0  0  0
   30.6486   14.0152   17.1344 C   0  0  0  0  0  0  0  0  0  0  0  0
   31.4463   14.2084   18.3013 C   0  0  0  0  0  0  0  0  0  0  0  0
   32.5258   13.3874   18.5667 N   0  0  0  0  0  0  0  0  0  0  0  0
   30.6581   13.1435   16.0959 N   0  0  0  0  0  0  0  0  0  0  0  0
   29.6741   13.4226   15.2884 C   0  0  0  0  0  0  0  0  0  0  0  0
   28.9684   14.4952   15.7596 N   0  0  0  0  0  0  0  0  0  0  0  0
  1  7  2  0  0  0  0
  1  2  1  0  0  0  0
  2  3  1  0  0  0  0
  2  4  2  0  0  0  0
  4  5  1  0  0  0  0
  5  6  2  0  0  0  0
  5 11  1  0  0  0  0
  6  7  1  0  0  0  0
  6  9  1  0  0  0  0
  7  8  1  0  0  0  0
  9 10  1  0  0  0  0
 10 11  2  0  0  0  0
M  END
>  <CHROM.1>
30.35253888,14.71487311,17.63865463,-1.46330138,0.63892008,-2.26185600

>  <Name>
ligand

>  <RI>
0

>  <Rbt.Current_Directory>
/home/itssahil/PROJECTS/Mol_Feturizer/New_Systems/rnas/4FEP

>  <Rbt.Executable>
rbdock ($Id: //depot/dev/client3/rdock/2013.1/src/exe/rbdock.cxx#4 $)

>  <Rbt.Library>
libRbt.so (2013.1, Build901 2013/11/27)

>  <Rbt.Parameter_File>
/export/apps/rDock/src/rDock_2013.1_src/data/scripts/dock_solv.prm

>  <Rbt.Receptor>
prm/blind_docking_100.prm

>  <SCORE>
-7.25827

>  <SCORE.INTER>
-7.25827

>  <SCORE.INTER.CONST>
1

>  <SCORE.INTER.POLAR>
0

>  <SCORE.INTER.ROT>
0

>  <SCORE.INTER.SOLV>
2.77527

>  <SCORE.INTER.VDW>
-9.36394

>  <SCORE.INTER.norm>
-0.659843

>  <SCORE.INTRA>
0

>  <SCORE.INTRA.DIHEDRAL>
0

>  <SCORE.INTRA.DIHEDRAL.0>
0

>  <SCORE.INTRA.POLAR>
0

>  <SCORE.INTRA.POLAR.0>
0

>  <SCORE.INTRA.REPUL>
0

>  <SCORE.INTRA.REPUL.0>
0

>  <SCORE.INTRA.SOLV>
0

>  <SCORE.INTRA.SOLV.lig_0>
-48.9558

>  <SCORE.INTRA.VDW>
0

>  <SCORE.INTRA.VDW.0>
0

>  <SCORE.INTRA.norm>
0

>  <SCORE.RESTR>
0

>  <SCORE.RESTR.CAVITY>
0

>  <SCORE.RESTR.norm>
0

>  <SCORE.SYSTEM>
0

>  <SCORE.SYSTEM.CONST>
0

>  <SCORE.SYSTEM.DIHEDRAL>
0

>  <SCORE.SYSTEM.SOLV>
0

>  <SCORE.SYSTEM.norm>
0

>  <SCORE.heavy>
11

>  <SCORE.norm>
-0.659843

>  <RMSD>
21.558

$$$$
ligand
 OpenBabel11021811493D
libRbt.so/2013.1/901 2013/11/27
 11 12  0  0  0  0  0  0  0  0999 V2000
   31.1098   15.3324   19.1453 N   0  0  0  0  0  0  0  0  0  0  0  0
   30.0674   16.1348   18.8762 C   0  0  0  0  0  0  0  0  0  0  0  0
   29.7804   17.1792   19.7391 N   0  0  0  0  0  0  0  0  0  0  0  0
   29.2991   15.9464   17.7909 N   0  0  0  0  0  0  0  0  0  0  0  0
   29.5527   14.9355   16.9275 C   0  0  0  0  0  0  0  0  0  0  0  0
   30.6439   14.0637   17.1715 C   0  0  0  0  0  0  0  0  0  0  0  0
   31.4319   14.3007   18.3370 C   0  0  0  0  0  0  0  0  0  0  0  0
   32.5110   13.4924   18.6403 N   0  0  0  0  0  0  0  0  0  0  0  0
   30.6635   13.1551   16.1653 N   0  0  0  0  0  0  0  0  0  0  0  0
   29.6855   13.4026   15.3405 C   0  0  0  0  0  0  0  0  0  0  0  0
   28.9737   14.4899   15.7671 N   0  0  0  0  0  0  0  0  0  0  0  0
  1  7  2  0  0  0  0
  1  2  1  0  0  0  0
  2  3  1  0  0  0  0
  2  4  2  0  0  0  0
  4  5  1  0  0  0  0
  5  6  2  0  0  0  0
  5 11  1  0  0  0  0
  6  7  1  0  0  0  0
  6  9  1  0  0  0  0
  7  8  1  0  0  0  0
  9 10  1  0  0  0  0
 10 11  2  0  0  0  0
M  END
>  <CHROM.1>
30.34237358,14.78041243,17.64788515,-1.47266088,0.64236008,-2.29233732

>  <Name>
ligand

>  <RI>
0

>  <Rbt.Current_Directory>
/home/itssahil/PROJECTS/Mol_Feturizer/New_Systems/rnas/4FEP

>  <Rbt.Executable>
rbdock ($Id: //depot/dev/client3/rdock/2013.1/src/exe/rbdock.cxx#4 $)

>  <Rbt.Library>
libRbt.so (2013.1, Build901 2013/11/27)

>  <Rbt.Parameter_File>
/export/apps/rDock/src/rDock_2013.1_src/data/scripts/dock_solv.prm

>  <Rbt.Receptor>
prm/blind_docking_100.prm

>  <SCORE>
-7.29363

>  <SCORE.INTER>
-7.29363

>  <SCORE.INTER.CONST>
1

>  <SCORE.INTER.POLAR>
0

>  <SCORE.INTER.ROT>
0

>  <SCORE.INTER.SOLV>
3.11034

>  <SCORE.INTER.VDW>
-9.4992

>  <SCORE.INTER.norm>
-0.663057

>  <SCORE.INTRA>
0

>  <SCORE.INTRA.DIHEDRAL>
0

>  <SCORE.INTRA.DIHEDRAL.0>
0

>  <SCORE.INTRA.POLAR>
0

>  <SCORE.INTRA.POLAR.0>
0

>  <SCORE.INTRA.REPUL>
0

>  <SCORE.INTRA.REPUL.0>
0

>  <SCORE.INTRA.SOLV>
0

>  <SCORE.INTRA.SOLV.lig_0>
-48.9558

>  <SCORE.INTRA.VDW>
0

>  <SCORE.INTRA.VDW.0>
0

>  <SCORE.INTRA.norm>
0

>  <SCORE.RESTR>
0

>  <SCORE.RESTR.CAVITY>
0

>  <SCORE.RESTR.norm>
0

>  <SCORE.SYSTEM>
0

>  <SCORE.SYSTEM.CONST>
0

>  <SCORE.SYSTEM.DIHEDRAL>
0

>  <SCORE.SYSTEM.SOLV>
0

>  <SCORE.SYSTEM.norm>
0

>  <SCORE.heavy>
11

>  <SCORE.norm>
-0.663057

>  <RMSD>
21.565

$$$$
ligand
 OpenBabel11021811493D
libRbt.so/2013.1/901 2013/11/27
 11 12  0  0  0  0  0  0  0  0999 V2000
   31.1540   15.3728   19.0769 N   0  0  0  0  0  0  0  0  0  0  0  0
   30.1077   16.1701   18.8076 C   0  0  0  0  0  0  0  0  0  0  0  0
   29.8312   17.2289   19.6562 N   0  0  0  0  0  0  0  0  0  0  0  0
   29.3258   15.9631   17.7355 N   0  0  0  0  0  0  0  0  0  0  0  0
   29.5690   14.9377   16.8862 C   0  0  0  0  0  0  0  0  0  0  0  0
   30.6637   14.0706   17.1311 C   0  0  0  0  0  0  0  0  0  0  0  0
   31.4664   14.3277   18.2822 C   0  0  0  0  0  0  0  0  0  0  0  0
   32.5497   13.5251   18.5854 N   0  0  0  0  0  0  0  0  0  0  0  0
   30.6711   13.1451   16.1402 N   0  0  0  0  0  0  0  0  0  0  0  0
   29.6824   13.3782   15.3239 C   0  0  0  0  0  0  0  0  0  0  0  0
   28.9755   14.4722   15.7410 N   0  0  0  0  0  0  0  0  0  0  0  0
  1  7  2  0  0  0  0
  1  2  1  0  0  0  0
  2  3  1  0  0  0  0
  2  4  2  0  0  0  0
  4  5  1  0  0  0  0
  5  6  2  0  0  0  0
  5 11  1  0  0  0  0
  6  7  1  0  0  0  0
  6  9  1  0  0  0  0
  7  8  1  0  0  0  0
  9 10  1  0  0  0  0
 10 11  2  0  0  0  0
M  END
>  <CHROM.1>
30.36786044,14.79519533,17.59898589,-1.46128469,0.63346034,-2.31607869

>  <Name>
ligand

>  <RI>
0

>  <Rbt.Current_Directory>
/home/itssahil/PROJECTS/Mol_Feturizer/New_Systems/rnas/4FEP

>  <Rbt.Executable>
rbdock ($Id: //depot/dev/client3/rdock/2013.1/src/exe/rbdock.cxx#4 $)

>  <Rbt.Library>
libRbt.so (2013.1, Build901 2013/11/27)

>  <Rbt.Parameter_File>
/export/apps/rDock/src/rDock_2013.1_src/data/scripts/dock_solv.prm

>  <Rbt.Receptor>
prm/blind_docking_60.prm

>  <SCORE>
-7.22545

>  <SCORE.INTER>
-7.22553

>  <SCORE.INTER.CONST>
1

>  <SCORE.INTER.POLAR>
0

>  <SCORE.INTER.ROT>
0

>  <SCORE.INTER.SOLV>
3.40911

>  <SCORE.INTER.VDW>
-9.55339

>  <SCORE.INTER.norm>
-0.656867

>  <SCORE.INTRA>
0

>  <SCORE.INTRA.DIHEDRAL>
0

>  <SCORE.INTRA.DIHEDRAL.0>
0

>  <SCORE.INTRA.POLAR>
0

>  <SCORE.INTRA.POLAR.0>
0

>  <SCORE.INTRA.REPUL>
0

>  <SCORE.INTRA.REPUL.0>
0

>  <SCORE.INTRA.SOLV>
0

>  <SCORE.INTRA.SOLV.lig_0>
-48.9558

>  <SCORE.INTRA.VDW>
0

>  <SCORE.INTRA.VDW.0>
0

>  <SCORE.INTRA.norm>
0

>  <SCORE.RESTR>
8.41364e-05

>  <SCORE.RESTR.CAVITY>
8.41364e-05

>  <SCORE.RESTR.norm>
7.64877e-06

>  <SCORE.SYSTEM>
0

>  <SCORE.SYSTEM.CONST>
0

>  <SCORE.SYSTEM.DIHEDRAL>
0

>  <SCORE.SYSTEM.SOLV>
0

>  <SCORE.SYSTEM.norm>
0

>  <SCORE.heavy>
11

>  <SCORE.norm>
-0.656859

>  <RMSD>
21.568

$$$$
ligand
 OpenBabel11021811493D
libRbt.so/2013.1/901 2013/11/27
 11 12  0  0  0  0  0  0  0  0999 V2000
   31.1449   15.3450   19.0963 N   0  0  0  0  0  0  0  0  0  0  0  0
   30.1135   16.1578   18.8164 C   0  0  0  0  0  0  0  0  0  0  0  0
   29.8442   17.2207   19.6621 N   0  0  0  0  0  0  0  0  0  0  0  0
   29.3394   15.9621   17.7365 N   0  0  0  0  0  0  0  0  0  0  0  0
   29.5758   14.9331   16.8898 C   0  0  0  0  0  0  0  0  0  0  0  0
   30.6549   14.0498   17.1458 C   0  0  0  0  0  0  0  0  0  0  0  0
   31.4497   14.2952   18.3049 C   0  0  0  0  0  0  0  0  0  0  0  0
   32.5178   13.4765   18.6191 N   0  0  0  0  0  0  0  0  0  0  0  0
   30.6585   13.1241   16.1551 N   0  0  0  0  0  0  0  0  0  0  0  0
   29.6817   13.3717   15.3288 C   0  0  0  0  0  0  0  0  0  0  0  0
   28.9870   14.4763   15.7387 N   0  0  0  0  0  0  0  0  0  0  0  0
  1  7  2  0  0  0  0
  1  2  1  0  0  0  0
  2  3  1  0  0  0  0
  2  4  2  0  0  0  0
  4  5  1  0  0  0  0
  5  6  2  0  0  0  0
  5 11  1  0  0  0  0
  6  7  1  0  0  0  0
  6  9  1  0  0  0  0
  7  8  1  0  0  0  0
  9 10  1  0  0  0  0
 10 11  2  0  0  0  0
M  END
>  <CHROM.1>
30.36521338,14.77882371,17.61061368,-1.45788132,0.65126145,-2.31827210

>  <Name>
ligand

>  <RI>
0

>  <Rbt.Current_Directory>
/home/itssahil/PROJECTS/Mol_Feturizer/New_Systems/rnas/4FEP

>  <Rbt.Executable>
rbdock ($Id: //depot/dev/client3/rdock/2013.1/src/exe/rbdock.cxx#4 $)

>  <Rbt.Library>
libRbt.so (2013.1, Build901 2013/11/27)

>  <Rbt.Parameter_File>
/export/apps/rDock/src/rDock_2013.1_src/data/scripts/dock_solv.prm

>  <Rbt.Receptor>
prm/blind_docking_60.prm

>  <SCORE>
-7.25039

>  <SCORE.INTER>
-7.25039

>  <SCORE.INTER.CONST>
1

>  <SCORE.INTER.POLAR>
0

>  <SCORE.INTER.ROT>
0

>  <SCORE.INTER.SOLV>
3.29339

>  <SCORE.INTER.VDW>
-9.53139

>  <SCORE.INTER.norm>
-0.659126

>  <SCORE.INTRA>
0

>  <SCORE.INTRA.DIHEDRAL>
0

>  <SCORE.INTRA.DIHEDRAL.0>
0

>  <SCORE.INTRA.POLAR>
0

>  <SCORE.INTRA.POLAR.0>
0

>  <SCORE.INTRA.REPUL>
0

>  <SCORE.INTRA.REPUL.0>
0

>  <SCORE.INTRA.SOLV>
0

>  <SCORE.INTRA.SOLV.lig_0>
-48.9558

>  <SCORE.INTRA.VDW>
0

>  <SCORE.INTRA.VDW.0>
0

>  <SCORE.INTRA.norm>
0

>  <SCORE.RESTR>
0

>  <SCORE.RESTR.CAVITY>
0

>  <SCORE.RESTR.norm>
0

>  <SCORE.SYSTEM>
0

>  <SCORE.SYSTEM.CONST>
0

>  <SCORE.SYSTEM.DIHEDRAL>
0

>  <SCORE.SYSTEM.SOLV>
0

>  <SCORE.SYSTEM.norm>
0

>  <SCORE.heavy>
11

>  <SCORE.norm>
-0.659126

>  <RMSD>
21.569

$$$$
ligand
 OpenBabel11021811493D
libRbt.so/2013.1/901 2013/11/27
 11 12  0  0  0  0  0  0  0  0999 V2000
   31.2010   15.0297   19.1169 N   0  0  0  0  0  0  0  0  0  0  0  0
   30.1715   15.8656   18.9067 C   0  0  0  0  0  0  0  0  0  0  0  0
   29.9132   16.8629   19.8320 N   0  0  0  0  0  0  0  0  0  0  0  0
   29.3889   15.7553   17.8208 N   0  0  0  0  0  0  0  0  0  0  0  0
   29.6145   14.7920   16.8972 C   0  0  0  0  0  0  0  0  0  0  0  0
   30.6911   13.8874   17.0779 C   0  0  0  0  0  0  0  0  0  0  0  0
   31.4952   14.0413   18.2463 C   0  0  0  0  0  0  0  0  0  0  0  0
   32.5616   13.1968   18.4901 N   0  0  0  0  0  0  0  0  0  0  0  0
   30.6833   13.0390   16.0202 N   0  0  0  0  0  0  0  0  0  0  0  0
   29.7019   13.3523   15.2222 C   0  0  0  0  0  0  0  0  0  0  0  0
   29.0154   14.4258   15.7194 N   0  0  0  0  0  0  0  0  0  0  0  0
  1  7  2  0  0  0  0
  1  2  1  0  0  0  0
  2  3  1  0  0  0  0
  2  4  2  0  0  0  0
  4  5  1  0  0  0  0
  5  6  2  0  0  0  0
  5 11  1  0  0  0  0
  6  7  1  0  0  0  0
  6  9  1  0  0  0  0
  7  8  1  0  0  0  0
  9 10  1  0  0  0  0
 10 11  2  0  0  0  0
M  END
>  <CHROM.1>
30.40818560,14.58049350,17.59851609,-1.44733615,0.64995572,-2.24918694

>  <Name>
ligand

>  <RI>
0

>  <Rbt.Current_Directory>
/home/itssahil/PROJECTS/Mol_Feturizer/New_Systems/rnas/4FEP

>  <Rbt.Executable>
rbdock ($Id: //depot/dev/client3/rdock/2013.1/src/exe/rbdock.cxx#4 $)

>  <Rbt.Library>
libRbt.so (2013.1, Build901 2013/11/27)

>  <Rbt.Parameter_File>
/export/apps/rDock/src/rDock_2013.1_src/data/scripts/dock_solv.prm

>  <Rbt.Receptor>
prm/blind_docking_100.prm

>  <SCORE>
-7.20395

>  <SCORE.INTER>
-7.20395

>  <SCORE.INTER.CONST>
1

>  <SCORE.INTER.POLAR>
0

>  <SCORE.INTER.ROT>
0

>  <SCORE.INTER.SOLV>
2.49261

>  <SCORE.INTER.VDW>
-9.2335

>  <SCORE.INTER.norm>
-0.654905

>  <SCORE.INTRA>
0

>  <SCORE.INTRA.DIHEDRAL>
0

>  <SCORE.INTRA.DIHEDRAL.0>
0

>  <SCORE.INTRA.POLAR>
0

>  <SCORE.INTRA.POLAR.0>
0

>  <SCORE.INTRA.REPUL>
0

>  <SCORE.INTRA.REPUL.0>
0

>  <SCORE.INTRA.SOLV>
0

>  <SCORE.INTRA.SOLV.lig_0>
-48.9558

>  <SCORE.INTRA.VDW>
0

>  <SCORE.INTRA.VDW.0>
0

>  <SCORE.INTRA.norm>
0

>  <SCORE.RESTR>
0

>  <SCORE.RESTR.CAVITY>
0

>  <SCORE.RESTR.norm>
0

>  <SCORE.SYSTEM>
0

>  <SCORE.SYSTEM.CONST>
0

>  <SCORE.SYSTEM.DIHEDRAL>
0

>  <SCORE.SYSTEM.SOLV>
0

>  <SCORE.SYSTEM.norm>
0

>  <SCORE.heavy>
11

>  <SCORE.norm>
-0.654905

>  <RMSD>
21.570

$$$$
ligand
 OpenBabel11021811493D
libRbt.so/2013.1/901 2013/11/27
 11 12  0  0  0  0  0  0  0  0999 V2000
   31.2139   15.0434   19.1359 N   0  0  0  0  0  0  0  0  0  0  0  0
   30.1845   15.8808   18.9303 C   0  0  0  0  0  0  0  0  0  0  0  0
   29.9269   16.8734   19.8608 N   0  0  0  0  0  0  0  0  0  0  0  0
   29.4015   15.7762   17.8441 N   0  0  0  0  0  0  0  0  0  0  0  0
   29.6264   14.8176   16.9156 C   0  0  0  0  0  0  0  0  0  0  0  0
   30.7029   13.9117   17.0913 C   0  0  0  0  0  0  0  0  0  0  0  0
   31.5074   14.0594   18.2602 C   0  0  0  0  0  0  0  0  0  0  0  0
   32.5736   13.2133   18.4992 N   0  0  0  0  0  0  0  0  0  0  0  0
   30.6944   13.0687   16.0293 N   0  0  0  0  0  0  0  0  0  0  0  0
   29.7128   13.3864   15.2333 C   0  0  0  0  0  0  0  0  0  0  0  0
   29.0268   14.4576   15.7361 N   0  0  0  0  0  0  0  0  0  0  0  0
  1  7  2  0  0  0  0
  1  2  1  0  0  0  0
  2  3  1  0  0  0  0
  2  4  2  0  0  0  0
  4  5  1  0  0  0  0
  5  6  2  0  0  0  0
  5 11  1  0  0  0  0
  6  7  1  0  0  0  0
  6  9  1  0  0  0  0
  7  8  1  0  0  0  0
  9 10  1  0  0  0  0
 10 11  2  0  0  0  0
M  END
>  <CHROM.1>
30.42032362,14.60224201,17.61553512,-1.44672043,0.64997603,-2.24446542

>  <Name>
ligand

>  <RI>
0

>  <Rbt.Current_Directory>
/home/itssahil/PROJECTS/Mol_Feturizer/New_Systems/rnas/4FEP

>  <Rbt.Executable>
rbdock ($Id: //depot/dev/client3/rdock/2013.1/src/exe/rbdock.cxx#4 $)

>  <Rbt.Library>
libRbt.so (2013.1, Build901 2013/11/27)

>  <Rbt.Parameter_File>
/export/apps/rDock/src/rDock_2013.1_src/data/scripts/dock_solv.prm

>  <Rbt.Receptor>
prm/blind_docking_100.prm

>  <SCORE>
-7.19522

>  <SCORE.INTER>
-7.19522

>  <SCORE.INTER.CONST>
1

>  <SCORE.INTER.POLAR>
0

>  <SCORE.INTER.ROT>
0

>  <SCORE.INTER.SOLV>
2.50538

>  <SCORE.INTER.VDW>
-9.23194

>  <SCORE.INTER.norm>
-0.654111

>  <SCORE.INTRA>
0

>  <SCORE.INTRA.DIHEDRAL>
0

>  <SCORE.INTRA.DIHEDRAL.0>
0

>  <SCORE.INTRA.POLAR>
0

>  <SCORE.INTRA.POLAR.0>
0

>  <SCORE.INTRA.REPUL>
0

>  <SCORE.INTRA.REPUL.0>
0

>  <SCORE.INTRA.SOLV>
0

>  <SCORE.INTRA.SOLV.lig_0>
-48.9558

>  <SCORE.INTRA.VDW>
0

>  <SCORE.INTRA.VDW.0>
0

>  <SCORE.INTRA.norm>
0

>  <SCORE.RESTR>
0

>  <SCORE.RESTR.CAVITY>
0

>  <SCORE.RESTR.norm>
0

>  <SCORE.SYSTEM>
0

>  <SCORE.SYSTEM.CONST>
0

>  <SCORE.SYSTEM.DIHEDRAL>
0

>  <SCORE.SYSTEM.SOLV>
0

>  <SCORE.SYSTEM.norm>
0

>  <SCORE.heavy>
11

>  <SCORE.norm>
-0.654111

>  <RMSD>
21.590

$$$$
ligand
 OpenBabel11021811493D
libRbt.so/2013.1/901 2013/11/27
 11 12  0  0  0  0  0  0  0  0999 V2000
   31.9705   13.5859   18.6302 N   0  0  0  0  0  0  0  0  0  0  0  0
   31.4733   14.8118   18.8599 C   0  0  0  0  0  0  0  0  0  0  0  0
   31.9493   15.5413   19.9364 N   0  0  0  0  0  0  0  0  0  0  0  0
   30.5266   15.3441   18.0699 N   0  0  0  0  0  0  0  0  0  0  0  0
   30.0403   14.6577   17.0096 C   0  0  0  0  0  0  0  0  0  0  0  0
   30.5368   13.3597   16.7287 C   0  0  0  0  0  0  0  0  0  0  0  0
   31.5409   12.8339   17.5951 C   0  0  0  0  0  0  0  0  0  0  0  0
   32.0721   11.5757   17.3842 N   0  0  0  0  0  0  0  0  0  0  0  0
   29.8823   12.9096   15.6298 N   0  0  0  0  0  0  0  0  0  0  0  0
   29.0402   13.8184   15.2260 C   0  0  0  0  0  0  0  0  0  0  0  0
   29.1014   14.9133   16.0435 N   0  0  0  0  0  0  0  0  0  0  0  0
  1  7  2  0  0  0  0
  1  2  1  0  0  0  0
  2  3  1  0  0  0  0
  2  4  2  0  0  0  0
  4  5  1  0  0  0  0
  5  6  2  0  0  0  0
  5 11  1  0  0  0  0
  6  7  1  0  0  0  0
  6  9  1  0  0  0  0
  7  8  1  0  0  0  0
  9 10  1  0  0  0  0
 10 11  2  0  0  0  0
M  END
>  <CHROM.1>
30.75419063,13.94412373,17.39402838,-0.70163529,0.78809296,-2.54376009

>  <Name>
ligand

>  <RI>
0

>  <Rbt.Current_Directory>
/home/itssahil/PROJECTS/Mol_Feturizer/New_Systems/rnas/4FEP

>  <Rbt.Executable>
rbdock ($Id: //depot/dev/client3/rdock/2013.1/src/exe/rbdock.cxx#4 $)

>  <Rbt.Library>
libRbt.so (2013.1, Build901 2013/11/27)

>  <Rbt.Parameter_File>
/export/apps/rDock/src/rDock_2013.1_src/data/scripts/dock_solv.prm

>  <Rbt.Receptor>
prm/blind_docking_80.prm

>  <SCORE>
-6.00981

>  <SCORE.INTER>
-6.00981

>  <SCORE.INTER.CONST>
1

>  <SCORE.INTER.POLAR>
0

>  <SCORE.INTER.ROT>
0

>  <SCORE.INTER.SOLV>
4.44572

>  <SCORE.INTER.VDW>
-9.08845

>  <SCORE.INTER.norm>
-0.546347

>  <SCORE.INTRA>
0

>  <SCORE.INTRA.DIHEDRAL>
0

>  <SCORE.INTRA.DIHEDRAL.0>
0

>  <SCORE.INTRA.POLAR>
0

>  <SCORE.INTRA.POLAR.0>
0

>  <SCORE.INTRA.REPUL>
0

>  <SCORE.INTRA.REPUL.0>
0

>  <SCORE.INTRA.SOLV>
0

>  <SCORE.INTRA.SOLV.lig_0>
-48.9558

>  <SCORE.INTRA.VDW>
0

>  <SCORE.INTRA.VDW.0>
0

>  <SCORE.INTRA.norm>
0

>  <SCORE.RESTR>
0

>  <SCORE.RESTR.CAVITY>
0

>  <SCORE.RESTR.norm>
0

>  <SCORE.SYSTEM>
0

>  <SCORE.SYSTEM.CONST>
0

>  <SCORE.SYSTEM.DIHEDRAL>
0

>  <SCORE.SYSTEM.SOLV>
0

>  <SCORE.SYSTEM.norm>
0

>  <SCORE.heavy>
11

>  <SCORE.norm>
-0.546347

>  <RMSD>
21.693

$$$$
ligand
 OpenBabel11021811493D
libRbt.so/2013.1/901 2013/11/27
 11 12  0  0  0  0  0  0  0  0999 V2000
   31.8855   14.4176   19.1481 N   0  0  0  0  0  0  0  0  0  0  0  0
   31.0823   15.4368   19.4929 C   0  0  0  0  0  0  0  0  0  0  0  0
   31.2983   16.0879   20.6958 N   0  0  0  0  0  0  0  0  0  0  0  0
   30.0765   15.8371   18.6980 N   0  0  0  0  0  0  0  0  0  0  0  0
   29.8388   15.2224   17.5159 C   0  0  0  0  0  0  0  0  0  0  0  0
   30.6623   14.1417   17.1109 C   0  0  0  0  0  0  0  0  0  0  0  0
   31.7177   13.7499   17.9872 C   0  0  0  0  0  0  0  0  0  0  0  0
   32.5609   12.7051   17.6598 N   0  0  0  0  0  0  0  0  0  0  0  0
   30.2043   13.7185   15.9069 N   0  0  0  0  0  0  0  0  0  0  0  0
   29.1830   14.4463   15.5529 C   0  0  0  0  0  0  0  0  0  0  0  0
   28.9202   15.3862   16.5111 N   0  0  0  0  0  0  0  0  0  0  0  0
  1  7  2  0  0  0  0
  1  2  1  0  0  0  0
  2  3  1  0  0  0  0
  2  4  2  0  0  0  0
  4  5  1  0  0  0  0
  5  6  2  0  0  0  0
  5 11  1  0  0  0  0
  6  7  1  0  0  0  0
  6  9  1  0  0  0  0
  7  8  1  0  0  0  0
  9 10  1  0  0  0  0
 10 11  2  0  0  0  0
M  END
>  <CHROM.1>
30.68781549,14.65345415,17.86517391,-1.01148181,0.66404692,-2.19122187

>  <Name>
ligand

>  <RI>
0

>  <Rbt.Current_Directory>
/home/itssahil/PROJECTS/Mol_Feturizer/New_Systems/rnas/4FEP

>  <Rbt.Executable>
rbdock ($Id: //depot/dev/client3/rdock/2013.1/src/exe/rbdock.cxx#4 $)

>  <Rbt.Library>
libRbt.so (2013.1, Build901 2013/11/27)

>  <Rbt.Parameter_File>
/export/apps/rDock/src/rDock_2013.1_src/data/scripts/dock_solv.prm

>  <Rbt.Receptor>
prm/blind_docking_100.prm

>  <SCORE>
-7.03396

>  <SCORE.INTER>
-7.03396

>  <SCORE.INTER.CONST>
1

>  <SCORE.INTER.POLAR>
0

>  <SCORE.INTER.ROT>
0

>  <SCORE.INTER.SOLV>
3.55706

>  <SCORE.INTER.VDW>
-9.475

>  <SCORE.INTER.norm>
-0.639451

>  <SCORE.INTRA>
0

>  <SCORE.INTRA.DIHEDRAL>
0

>  <SCORE.INTRA.DIHEDRAL.0>
0

>  <SCORE.INTRA.POLAR>
0

>  <SCORE.INTRA.POLAR.0>
0

>  <SCORE.INTRA.REPUL>
0

>  <SCORE.INTRA.REPUL.0>
0

>  <SCORE.INTRA.SOLV>
0

>  <SCORE.INTRA.SOLV.lig_0>
-48.9558

>  <SCORE.INTRA.VDW>
0

>  <SCORE.INTRA.VDW.0>
0

>  <SCORE.INTRA.norm>
0

>  <SCORE.RESTR>
0

>  <SCORE.RESTR.CAVITY>
0

>  <SCORE.RESTR.norm>
0

>  <SCORE.SYSTEM>
0

>  <SCORE.SYSTEM.CONST>
0

>  <SCORE.SYSTEM.DIHEDRAL>
0

>  <SCORE.SYSTEM.SOLV>
0

>  <SCORE.SYSTEM.norm>
0

>  <SCORE.heavy>
11

>  <SCORE.norm>
-0.639451

>  <RMSD>
21.920

$$$$
ligand
 OpenBabel11021811493D
libRbt.so/2013.1/901 2013/11/27
 11 12  0  0  0  0  0  0  0  0999 V2000
   31.2459   14.8960   19.6246 N   0  0  0  0  0  0  0  0  0  0  0  0
   31.8968   13.8742   19.0457 C   0  0  0  0  0  0  0  0  0  0  0  0
   32.8870   13.2167   19.7563 N   0  0  0  0  0  0  0  0  0  0  0  0
   31.6087   13.4774   17.7954 N   0  0  0  0  0  0  0  0  0  0  0  0
   30.6464   14.0984   17.0741 C   0  0  0  0  0  0  0  0  0  0  0  0
   29.9328   15.1820   17.6457 C   0  0  0  0  0  0  0  0  0  0  0  0
   30.2731   15.5699   18.9758 C   0  0  0  0  0  0  0  0  0  0  0  0
   29.6210   16.6172   19.5983 N   0  0  0  0  0  0  0  0  0  0  0  0
   29.0443   15.6114   16.7158 N   0  0  0  0  0  0  0  0  0  0  0  0
   29.1592   14.8846   15.6403 C   0  0  0  0  0  0  0  0  0  0  0  0
   30.1325   13.9392   15.8129 N   0  0  0  0  0  0  0  0  0  0  0  0
  1  7  2  0  0  0  0
  1  2  1  0  0  0  0
  2  3  1  0  0  0  0
  2  4  2  0  0  0  0
  4  5  1  0  0  0  0
  5  6  2  0  0  0  0
  5 11  1  0  0  0  0
  6  7  1  0  0  0  0
  6  9  1  0  0  0  0
  7  8  1  0  0  0  0
  9 10  1  0  0  0  0
 10 11  2  0  0  0  0
M  END
>  <CHROM.1>
30.60031526,14.66613079,17.99178481,0.57552216,-0.74983120,1.05801052

>  <Name>
ligand

>  <RI>
0

>  <Rbt.Current_Directory>
/home/itssahil/PROJECTS/Mol_Feturizer/New_Systems/rnas/4FEP

>  <Rbt.Executable>
rbdock ($Id: //depot/dev/client3/rdock/2013.1/src/exe/rbdock.cxx#4 $)

>  <Rbt.Library>
libRbt.so (2013.1, Build901 2013/11/27)

>  <Rbt.Parameter_File>
/export/apps/rDock/src/rDock_2013.1_src/data/scripts/dock_solv.prm

>  <Rbt.Receptor>
prm/blind_docking_80.prm

>  <SCORE>
-6.94007

>  <SCORE.INTER>
-6.94007

>  <SCORE.INTER.CONST>
1

>  <SCORE.INTER.POLAR>
0

>  <SCORE.INTER.ROT>
0

>  <SCORE.INTER.SOLV>
3.14537

>  <SCORE.INTER.VDW>
-9.27517

>  <SCORE.INTER.norm>
-0.630915

>  <SCORE.INTRA>
0

>  <SCORE.INTRA.DIHEDRAL>
0

>  <SCORE.INTRA.DIHEDRAL.0>
0

>  <SCORE.INTRA.POLAR>
0

>  <SCORE.INTRA.POLAR.0>
0

>  <SCORE.INTRA.REPUL>
0

>  <SCORE.INTRA.REPUL.0>
0

>  <SCORE.INTRA.SOLV>
0

>  <SCORE.INTRA.SOLV.lig_0>
-48.9558

>  <SCORE.INTRA.VDW>
0

>  <SCORE.INTRA.VDW.0>
0

>  <SCORE.INTRA.norm>
0

>  <SCORE.RESTR>
0

>  <SCORE.RESTR.CAVITY>
0

>  <SCORE.RESTR.norm>
0

>  <SCORE.SYSTEM>
0

>  <SCORE.SYSTEM.CONST>
0

>  <SCORE.SYSTEM.DIHEDRAL>
0

>  <SCORE.SYSTEM.SOLV>
0

>  <SCORE.SYSTEM.norm>
0

>  <SCORE.heavy>
11

>  <SCORE.norm>
-0.630915

>  <RMSD>
22.046

$$$$
ligand
 OpenBabel11021811493D
libRbt.so/2013.1/901 2013/11/27
 11 12  0  0  0  0  0  0  0  0999 V2000
   31.9293   15.4882   19.1790 N   0  0  0  0  0  0  0  0  0  0  0  0
   31.0465   16.4993   19.2148 C   0  0  0  0  0  0  0  0  0  0  0  0
   31.2251   17.5178   20.1359 N   0  0  0  0  0  0  0  0  0  0  0  0
   29.9966   16.5437   18.3784 N   0  0  0  0  0  0  0  0  0  0  0  0
   29.7934   15.5646   17.4663 C   0  0  0  0  0  0  0  0  0  0  0  0
   30.7008   14.4777   17.3923 C   0  0  0  0  0  0  0  0  0  0  0  0
   31.8008   14.4714   18.3009 C   0  0  0  0  0  0  0  0  0  0  0  0
   32.7259   13.4449   18.2880 N   0  0  0  0  0  0  0  0  0  0  0  0
   30.2613   13.6553   16.4080 N   0  0  0  0  0  0  0  0  0  0  0  0
   29.1749   14.1495   15.8849 C   0  0  0  0  0  0  0  0  0  0  0  0
   28.8475   15.3249   16.5030 N   0  0  0  0  0  0  0  0  0  0  0  0
  1  7  2  0  0  0  0
  1  2  1  0  0  0  0
  2  3  1  0  0  0  0
  2  4  2  0  0  0  0
  4  5  1  0  0  0  0
  5  6  2  0  0  0  0
  5 11  1  0  0  0  0
  6  7  1  0  0  0  0
  6  9  1  0  0  0  0
  7  8  1  0  0  0  0
  9 10  1  0  0  0  0
 10 11  2  0  0  0  0
M  END
>  <CHROM.1>
30.69438221,15.20550658,17.94163941,-1.05571878,0.58311251,-2.49266778

>  <Name>
ligand

>  <RI>
0

>  <Rbt.Current_Directory>
/home/itssahil/PROJECTS/Mol_Feturizer/New_Systems/rnas/4FEP

>  <Rbt.Executable>
rbdock ($Id: //depot/dev/client3/rdock/2013.1/src/exe/rbdock.cxx#4 $)

>  <Rbt.Library>
libRbt.so (2013.1, Build901 2013/11/27)

>  <Rbt.Parameter_File>
/export/apps/rDock/src/rDock_2013.1_src/data/scripts/dock_solv.prm

>  <Rbt.Receptor>
prm/blind_docking_100.prm

>  <SCORE>
-7.27023

>  <SCORE.INTER>
-7.27023

>  <SCORE.INTER.CONST>
1

>  <SCORE.INTER.POLAR>
0

>  <SCORE.INTER.ROT>
0

>  <SCORE.INTER.SOLV>
4.3867

>  <SCORE.INTER.VDW>
-9.90905

>  <SCORE.INTER.norm>
-0.66093

>  <SCORE.INTRA>
0

>  <SCORE.INTRA.DIHEDRAL>
0

>  <SCORE.INTRA.DIHEDRAL.0>
0

>  <SCORE.INTRA.POLAR>
0

>  <SCORE.INTRA.POLAR.0>
0

>  <SCORE.INTRA.REPUL>
0

>  <SCORE.INTRA.REPUL.0>
0

>  <SCORE.INTRA.SOLV>
0

>  <SCORE.INTRA.SOLV.lig_0>
-48.9558

>  <SCORE.INTRA.VDW>
0

>  <SCORE.INTRA.VDW.0>
0

>  <SCORE.INTRA.norm>
0

>  <SCORE.RESTR>
0

>  <SCORE.RESTR.CAVITY>
0

>  <SCORE.RESTR.norm>
0

>  <SCORE.SYSTEM>
0

>  <SCORE.SYSTEM.CONST>
0

>  <SCORE.SYSTEM.DIHEDRAL>
0

>  <SCORE.SYSTEM.SOLV>
0

>  <SCORE.SYSTEM.norm>
0

>  <SCORE.heavy>
11

>  <SCORE.norm>
-0.66093

>  <RMSD>
22.049

$$$$
ligand
 OpenBabel11021811493D
libRbt.so/2013.1/901 2013/11/27
 11 12  0  0  0  0  0  0  0  0999 V2000
   31.9895   15.4208   19.1777 N   0  0  0  0  0  0  0  0  0  0  0  0
   31.1055   16.4270   19.2736 C   0  0  0  0  0  0  0  0  0  0  0  0
   31.3158   17.4216   20.2138 N   0  0  0  0  0  0  0  0  0  0  0  0
   30.0245   16.4889   18.4790 N   0  0  0  0  0  0  0  0  0  0  0  0
   29.7900   15.5333   17.5497 C   0  0  0  0  0  0  0  0  0  0  0  0
   30.6974   14.4525   17.4128 C   0  0  0  0  0  0  0  0  0  0  0  0
   31.8310   14.4269   18.2786 C   0  0  0  0  0  0  0  0  0  0  0  0
   32.7581   13.4049   18.2037 N   0  0  0  0  0  0  0  0  0  0  0  0
   30.2234   13.6544   16.4244 N   0  0  0  0  0  0  0  0  0  0  0  0
   29.1165   14.1577   15.9560 C   0  0  0  0  0  0  0  0  0  0  0  0
   28.8090   15.3151   16.6168 N   0  0  0  0  0  0  0  0  0  0  0  0
  1  7  2  0  0  0  0
  1  2  1  0  0  0  0
  2  3  1  0  0  0  0
  2  4  2  0  0  0  0
  4  5  1  0  0  0  0
  5  6  2  0  0  0  0
  5 11  1  0  0  0  0
  6  7  1  0  0  0  0
  6  9  1  0  0  0  0
  7  8  1  0  0  0  0
  9 10  1  0  0  0  0
 10 11  2  0  0  0  0
M  END
>  <CHROM.1>
30.70946748,15.16560249,17.98093614,-1.03175817,0.55087396,-2.47919975

>  <Name>
ligand

>  <RI>
0

>  <Rbt.Current_Directory>
/home/itssahil/PROJECTS/Mol_Feturizer/New_Systems/rnas/4FEP

>  <Rbt.Executable>
rbdock ($Id: //depot/dev/client3/rdock/2013.1/src/exe/rbdock.cxx#4 $)

>  <Rbt.Library>
libRbt.so (2013.1, Build901 2013/11/27)

>  <Rbt.Parameter_File>
/export/apps/rDock/src/rDock_2013.1_src/data/scripts/dock_solv.prm

>  <Rbt.Receptor>
prm/blind_docking_100.prm

>  <SCORE>
-7.30928

>  <SCORE.INTER>
-7.30928

>  <SCORE.INTER.CONST>
1

>  <SCORE.INTER.POLAR>
0

>  <SCORE.INTER.ROT>
0

>  <SCORE.INTER.SOLV>
4.2179

>  <SCORE.INTER.VDW>
-9.87882

>  <SCORE.INTER.norm>
-0.66448

>  <SCORE.INTRA>
0

>  <SCORE.INTRA.DIHEDRAL>
0

>  <SCORE.INTRA.DIHEDRAL.0>
0

>  <SCORE.INTRA.POLAR>
0

>  <SCORE.INTRA.POLAR.0>
0

>  <SCORE.INTRA.REPUL>
0

>  <SCORE.INTRA.REPUL.0>
0

>  <SCORE.INTRA.SOLV>
0

>  <SCORE.INTRA.SOLV.lig_0>
-48.9558

>  <SCORE.INTRA.VDW>
0

>  <SCORE.INTRA.VDW.0>
0

>  <SCORE.INTRA.norm>
0

>  <SCORE.RESTR>
0

>  <SCORE.RESTR.CAVITY>
0

>  <SCORE.RESTR.norm>
0

>  <SCORE.SYSTEM>
0

>  <SCORE.SYSTEM.CONST>
0

>  <SCORE.SYSTEM.DIHEDRAL>
0

>  <SCORE.SYSTEM.SOLV>
0

>  <SCORE.SYSTEM.norm>
0

>  <SCORE.heavy>
11

>  <SCORE.norm>
-0.66448

>  <RMSD>
22.075

$$$$
ligand
 OpenBabel11021811493D
libRbt.so/2013.1/901 2013/11/27
 11 12  0  0  0  0  0  0  0  0999 V2000
   31.4007   14.9305   19.7353 N   0  0  0  0  0  0  0  0  0  0  0  0
   31.9800   13.8850   19.1236 C   0  0  0  0  0  0  0  0  0  0  0  0
   32.9728   13.1823   19.7854 N   0  0  0  0  0  0  0  0  0  0  0  0
   31.6179   13.5075   17.8866 N   0  0  0  0  0  0  0  0  0  0  0  0
   30.6508   14.1726   17.2126 C   0  0  0  0  0  0  0  0  0  0  0  0
   30.0112   15.2825   17.8202 C   0  0  0  0  0  0  0  0  0  0  0  0
   30.4287   15.6486   19.1344 C   0  0  0  0  0  0  0  0  0  0  0  0
   29.8512   16.7194   19.7898 N   0  0  0  0  0  0  0  0  0  0  0  0
   29.1000   15.7543   16.9338 N   0  0  0  0  0  0  0  0  0  0  0  0
   29.1341   15.0289   15.8517 C   0  0  0  0  0  0  0  0  0  0  0  0
   30.0730   14.0421   15.9760 N   0  0  0  0  0  0  0  0  0  0  0  0
  1  7  2  0  0  0  0
  1  2  1  0  0  0  0
  2  3  1  0  0  0  0
  2  4  2  0  0  0  0
  4  5  1  0  0  0  0
  5  6  2  0  0  0  0
  5 11  1  0  0  0  0
  6  7  1  0  0  0  0
  6  9  1  0  0  0  0
  7  8  1  0  0  0  0
  9 10  1  0  0  0  0
 10 11  2  0  0  0  0
M  END
>  <CHROM.1>
30.67132598,14.73693271,18.13332069,0.49093258,-0.76269715,1.00426139

>  <Name>
ligand

>  <RI>
0

>  <Rbt.Current_Directory>
/home/itssahil/PROJECTS/Mol_Feturizer/New_Systems/rnas/4FEP

>  <Rbt.Executable>
rbdock ($Id: //depot/dev/client3/rdock/2013.1/src/exe/rbdock.cxx#4 $)

>  <Rbt.Library>
libRbt.so (2013.1, Build901 2013/11/27)

>  <Rbt.Parameter_File>
/export/apps/rDock/src/rDock_2013.1_src/data/scripts/dock_solv.prm

>  <Rbt.Receptor>
prm/blind_docking_100.prm

>  <SCORE>
-7.10954

>  <SCORE.INTER>
-7.10954

>  <SCORE.INTER.CONST>
1

>  <SCORE.INTER.POLAR>
0

>  <SCORE.INTER.ROT>
0

>  <SCORE.INTER.SOLV>
2.26735

>  <SCORE.INTER.VDW>
-9.09548

>  <SCORE.INTER.norm>
-0.646322

>  <SCORE.INTRA>
0

>  <SCORE.INTRA.DIHEDRAL>
0

>  <SCORE.INTRA.DIHEDRAL.0>
0

>  <SCORE.INTRA.POLAR>
0

>  <SCORE.INTRA.POLAR.0>
0

>  <SCORE.INTRA.REPUL>
0

>  <SCORE.INTRA.REPUL.0>
0

>  <SCORE.INTRA.SOLV>
0

>  <SCORE.INTRA.SOLV.lig_0>
-48.9558

>  <SCORE.INTRA.VDW>
0

>  <SCORE.INTRA.VDW.0>
0

>  <SCORE.INTRA.norm>
0

>  <SCORE.RESTR>
0

>  <SCORE.RESTR.CAVITY>
0

>  <SCORE.RESTR.norm>
0

>  <SCORE.SYSTEM>
0

>  <SCORE.SYSTEM.CONST>
0

>  <SCORE.SYSTEM.DIHEDRAL>
0

>  <SCORE.SYSTEM.SOLV>
0

>  <SCORE.SYSTEM.norm>
0

>  <SCORE.heavy>
11

>  <SCORE.norm>
-0.646322

>  <RMSD>
22.185

$$$$
ligand
 OpenBabel11021811493D
libRbt.so/2013.1/901 2013/11/27
 11 12  0  0  0  0  0  0  0  0999 V2000
   31.5771   14.8842   19.6780 N   0  0  0  0  0  0  0  0  0  0  0  0
   32.0918   13.8201   19.0410 C   0  0  0  0  0  0  0  0  0  0  0  0
   33.0965   13.0894   19.6527 N   0  0  0  0  0  0  0  0  0  0  0  0
   31.6540   13.4504   17.8264 N   0  0  0  0  0  0  0  0  0  0  0  0
   30.6733   14.1427   17.2013 C   0  0  0  0  0  0  0  0  0  0  0  0
   30.1001   15.2730   17.8369 C   0  0  0  0  0  0  0  0  0  0  0  0
   30.5969   15.6297   19.1258 C   0  0  0  0  0  0  0  0  0  0  0  0
   30.0871   16.7191   19.8062 N   0  0  0  0  0  0  0  0  0  0  0  0
   29.1581   15.7697   16.9976 N   0  0  0  0  0  0  0  0  0  0  0  0
   29.1135   15.0409   15.9183 C   0  0  0  0  0  0  0  0  0  0  0  0
   30.0276   14.0265   15.9972 N   0  0  0  0  0  0  0  0  0  0  0  0
  1  7  2  0  0  0  0
  1  2  1  0  0  0  0
  2  3  1  0  0  0  0
  2  4  2  0  0  0  0
  4  5  1  0  0  0  0
  5  6  2  0  0  0  0
  5 11  1  0  0  0  0
  6  7  1  0  0  0  0
  6  9  1  0  0  0  0
  7  8  1  0  0  0  0
  9 10  1  0  0  0  0
 10 11  2  0  0  0  0
M  END
>  <CHROM.1>
30.75907990,14.70852083,18.11725949,0.40754836,-0.75807974,0.94337622

>  <Name>
ligand

>  <RI>
0

>  <Rbt.Current_Directory>
/home/itssahil/PROJECTS/Mol_Feturizer/New_Systems/rnas/4FEP

>  <Rbt.Executable>
rbdock ($Id: //depot/dev/client3/rdock/2013.1/src/exe/rbdock.cxx#4 $)

>  <Rbt.Library>
libRbt.so (2013.1, Build901 2013/11/27)

>  <Rbt.Parameter_File>
/export/apps/rDock/src/rDock_2013.1_src/data/scripts/dock_solv.prm

>  <Rbt.Receptor>
prm/blind_docking_100.prm

>  <SCORE>
-7.12968

>  <SCORE.INTER>
-7.12968

>  <SCORE.INTER.CONST>
1

>  <SCORE.INTER.POLAR>
0

>  <SCORE.INTER.ROT>
0

>  <SCORE.INTER.SOLV>
2.15984

>  <SCORE.INTER.VDW>
-9.07306

>  <SCORE.INTER.norm>
-0.648152

>  <SCORE.INTRA>
0

>  <SCORE.INTRA.DIHEDRAL>
0

>  <SCORE.INTRA.DIHEDRAL.0>
0

>  <SCORE.INTRA.POLAR>
0

>  <SCORE.INTRA.POLAR.0>
0

>  <SCORE.INTRA.REPUL>
0

>  <SCORE.INTRA.REPUL.0>
0

>  <SCORE.INTRA.SOLV>
0

>  <SCORE.INTRA.SOLV.lig_0>
-48.9558

>  <SCORE.INTRA.VDW>
0

>  <SCORE.INTRA.VDW.0>
0

>  <SCORE.INTRA.norm>
0

>  <SCORE.RESTR>
0

>  <SCORE.RESTR.CAVITY>
0

>  <SCORE.RESTR.norm>
0

>  <SCORE.SYSTEM>
0

>  <SCORE.SYSTEM.CONST>
0

>  <SCORE.SYSTEM.DIHEDRAL>
0

>  <SCORE.SYSTEM.SOLV>
0

>  <SCORE.SYSTEM.norm>
0

>  <SCORE.heavy>
11

>  <SCORE.norm>
-0.648152

>  <RMSD>
22.253

$$$$
ligand
 OpenBabel11021811493D
libRbt.so/2013.1/901 2013/11/27
 11 12  0  0  0  0  0  0  0  0999 V2000
   33.1828   11.5609   14.5316 N   0  0  0  0  0  0  0  0  0  0  0  0
   34.3420   12.2321   14.6245 C   0  0  0  0  0  0  0  0  0  0  0  0
   35.2237   11.9165   15.6446 N   0  0  0  0  0  0  0  0  0  0  0  0
   34.6637   13.2006   13.7514 N   0  0  0  0  0  0  0  0  0  0  0  0
   33.8245   13.5332   12.7429 C   0  0  0  0  0  0  0  0  0  0  0  0
   32.5896   12.8502   12.6059 C   0  0  0  0  0  0  0  0  0  0  0  0
   32.2892   11.8297   13.5566 C   0  0  0  0  0  0  0  0  0  0  0  0
   31.1046   11.1215   13.4868 N   0  0  0  0  0  0  0  0  0  0  0  0
   31.9564   13.3795   11.5300 N   0  0  0  0  0  0  0  0  0  0  0  0
   32.6983   14.3159   11.0095 C   0  0  0  0  0  0  0  0  0  0  0  0
   33.8589   14.4470   11.7212 N   0  0  0  0  0  0  0  0  0  0  0  0
  1  7  2  0  0  0  0
  1  2  1  0  0  0  0
  2  3  1  0  0  0  0
  2  4  2  0  0  0  0
  4  5  1  0  0  0  0
  5  6  2  0  0  0  0
  5 11  1  0  0  0  0
  6  7  1  0  0  0  0
  6  9  1  0  0  0  0
  7  8  1  0  0  0  0
  9 10  1  0  0  0  0
 10 11  2  0  0  0  0
M  END
>  <CHROM.1>
33.25544183,12.74932222,13.22069925,1.14238415,0.45515670,2.28736590

>  <Name>
ligand

>  <RI>
0

>  <Rbt.Current_Directory>
/home/itssahil/PROJECTS/Mol_Feturizer/New_Systems/rnas/4FEP

>  <Rbt.Executable>
rbdock ($Id: //depot/dev/client3/rdock/2013.1/src/exe/rbdock.cxx#4 $)

>  <Rbt.Library>
libRbt.so (2013.1, Build901 2013/11/27)

>  <Rbt.Parameter_File>
/export/apps/rDock/src/rDock_2013.1_src/data/scripts/dock_solv.prm

>  <Rbt.Receptor>
prm/blind_docking_80.prm

>  <SCORE>
-5.49429

>  <SCORE.INTER>
-5.49429

>  <SCORE.INTER.CONST>
1

>  <SCORE.INTER.POLAR>
0

>  <SCORE.INTER.ROT>
0

>  <SCORE.INTER.SOLV>
6.83857

>  <SCORE.INTER.VDW>
-9.54238

>  <SCORE.INTER.norm>
-0.499481

>  <SCORE.INTRA>
0

>  <SCORE.INTRA.DIHEDRAL>
0

>  <SCORE.INTRA.DIHEDRAL.0>
0

>  <SCORE.INTRA.POLAR>
0

>  <SCORE.INTRA.POLAR.0>
0

>  <SCORE.INTRA.REPUL>
0

>  <SCORE.INTRA.REPUL.0>
0

>  <SCORE.INTRA.SOLV>
0

>  <SCORE.INTRA.SOLV.lig_0>
-48.9558

>  <SCORE.INTRA.VDW>
0

>  <SCORE.INTRA.VDW.0>
0

>  <SCORE.INTRA.norm>
0

>  <SCORE.RESTR>
0

>  <SCORE.RESTR.CAVITY>
0

>  <SCORE.RESTR.norm>
0

>  <SCORE.SYSTEM>
0

>  <SCORE.SYSTEM.CONST>
0

>  <SCORE.SYSTEM.DIHEDRAL>
0

>  <SCORE.SYSTEM.SOLV>
0

>  <SCORE.SYSTEM.norm>
0

>  <SCORE.heavy>
11

>  <SCORE.norm>
-0.499481

>  <RMSD>
22.556

$$$$
ligand
 OpenBabel11021811493D
libRbt.so/2013.1/901 2013/11/27
 11 12  0  0  0  0  0  0  0  0999 V2000
   32.6268   14.6446   19.2168 N   0  0  0  0  0  0  0  0  0  0  0  0
   32.7896   13.5931   18.3978 C   0  0  0  0  0  0  0  0  0  0  0  0
   33.8810   12.7602   18.5790 N   0  0  0  0  0  0  0  0  0  0  0  0
   31.9187   13.3326   17.4091 N   0  0  0  0  0  0  0  0  0  0  0  0
   30.8417   14.1266   17.2054 C   0  0  0  0  0  0  0  0  0  0  0  0
   30.6296   15.2479   18.0467 C   0  0  0  0  0  0  0  0  0  0  0  0
   31.5807   15.4867   19.0829 C   0  0  0  0  0  0  0  0  0  0  0  0
   31.4400   16.5603   19.9416 N   0  0  0  0  0  0  0  0  0  0  0  0
   29.4959   15.8585   17.6219 N   0  0  0  0  0  0  0  0  0  0  0  0
   29.0089   15.2061   16.6044 C   0  0  0  0  0  0  0  0  0  0  0  0
   29.8024   14.1314   16.3109 N   0  0  0  0  0  0  0  0  0  0  0  0
  1  7  2  0  0  0  0
  1  2  1  0  0  0  0
  2  3  1  0  0  0  0
  2  4  2  0  0  0  0
  4  5  1  0  0  0  0
  5  6  2  0  0  0  0
  5 11  1  0  0  0  0
  6  7  1  0  0  0  0
  6  9  1  0  0  0  0
  7  8  1  0  0  0  0
  9 10  1  0  0  0  0
 10 11  2  0  0  0  0
M  END
>  <CHROM.1>
31.29519096,14.62467776,18.04967199,-0.00428085,-0.56759846,0.73983052

>  <Name>
ligand

>  <RI>
0

>  <Rbt.Current_Directory>
/home/itssahil/PROJECTS/Mol_Feturizer/New_Systems/rnas/4FEP

>  <Rbt.Executable>
rbdock ($Id: //depot/dev/client3/rdock/2013.1/src/exe/rbdock.cxx#4 $)

>  <Rbt.Library>
libRbt.so (2013.1, Build901 2013/11/27)

>  <Rbt.Parameter_File>
/export/apps/rDock/src/rDock_2013.1_src/data/scripts/dock_solv.prm

>  <Rbt.Receptor>
prm/blind_docking_80.prm

>  <SCORE>
-6.39147

>  <SCORE.INTER>
-6.39147

>  <SCORE.INTER.CONST>
1

>  <SCORE.INTER.POLAR>
0

>  <SCORE.INTER.ROT>
0

>  <SCORE.INTER.SOLV>
3.94615

>  <SCORE.INTER.VDW>
-9.17636

>  <SCORE.INTER.norm>
-0.581043

>  <SCORE.INTRA>
0

>  <SCORE.INTRA.DIHEDRAL>
0

>  <SCORE.INTRA.DIHEDRAL.0>
0

>  <SCORE.INTRA.POLAR>
0

>  <SCORE.INTRA.POLAR.0>
0

>  <SCORE.INTRA.REPUL>
0

>  <SCORE.INTRA.REPUL.0>
0

>  <SCORE.INTRA.SOLV>
0

>  <SCORE.INTRA.SOLV.lig_0>
-48.9558

>  <SCORE.INTRA.VDW>
0

>  <SCORE.INTRA.VDW.0>
0

>  <SCORE.INTRA.norm>
0

>  <SCORE.RESTR>
0

>  <SCORE.RESTR.CAVITY>
0

>  <SCORE.RESTR.norm>
0

>  <SCORE.SYSTEM>
0

>  <SCORE.SYSTEM.CONST>
0

>  <SCORE.SYSTEM.DIHEDRAL>
0

>  <SCORE.SYSTEM.SOLV>
0

>  <SCORE.SYSTEM.norm>
0

>  <SCORE.heavy>
11

>  <SCORE.norm>
-0.581043

>  <RMSD>
22.701

$$$$
ligand
 OpenBabel11021811493D
libRbt.so/2013.1/901 2013/11/27
 11 12  0  0  0  0  0  0  0  0999 V2000
   32.0430   11.5376   19.1557 N   0  0  0  0  0  0  0  0  0  0  0  0
   31.6327   11.6530   17.8824 C   0  0  0  0  0  0  0  0  0  0  0  0
   31.4512   10.5071   17.1263 N   0  0  0  0  0  0  0  0  0  0  0  0
   31.3953   12.8530   17.3280 N   0  0  0  0  0  0  0  0  0  0  0  0
   31.5626   13.9921   18.0396 C   0  0  0  0  0  0  0  0  0  0  0  0
   31.9940   13.9179   19.3881 C   0  0  0  0  0  0  0  0  0  0  0  0
   32.2351   12.6225   19.9351 C   0  0  0  0  0  0  0  0  0  0  0  0
   32.6576   12.4717   21.2422 N   0  0  0  0  0  0  0  0  0  0  0  0
   32.0791   15.1892   19.8519 N   0  0  0  0  0  0  0  0  0  0  0  0
   31.7378   16.0180   18.9059 C   0  0  0  0  0  0  0  0  0  0  0  0
   31.4108   15.3281   17.7711 N   0  0  0  0  0  0  0  0  0  0  0  0
  1  7  2  0  0  0  0
  1  2  1  0  0  0  0
  2  3  1  0  0  0  0
  2  4  2  0  0  0  0
  4  5  1  0  0  0  0
  5  6  2  0  0  0  0
  5 11  1  0  0  0  0
  6  7  1  0  0  0  0
  6  9  1  0  0  0  0
  7  8  1  0  0  0  0
  9 10  1  0  0  0  0
 10 11  2  0  0  0  0
M  END
>  <CHROM.1>
31.83655706,13.25601845,18.78102300,-1.65478831,-1.25972727,0.15825980

>  <Name>
ligand

>  <RI>
0

>  <Rbt.Current_Directory>
/home/itssahil/PROJECTS/Mol_Feturizer/New_Systems/rnas/4FEP

>  <Rbt.Executable>
rbdock ($Id: //depot/dev/client3/rdock/2013.1/src/exe/rbdock.cxx#4 $)

>  <Rbt.Library>
libRbt.so (2013.1, Build901 2013/11/27)

>  <Rbt.Parameter_File>
/export/apps/rDock/src/rDock_2013.1_src/data/scripts/dock_solv.prm

>  <Rbt.Receptor>
prm/blind_docking_100.prm

>  <SCORE>
-4.17418

>  <SCORE.INTER>
-4.17418

>  <SCORE.INTER.CONST>
1

>  <SCORE.INTER.POLAR>
0

>  <SCORE.INTER.ROT>
0

>  <SCORE.INTER.SOLV>
6.7392

>  <SCORE.INTER.VDW>
-8.62918

>  <SCORE.INTER.norm>
-0.379471

>  <SCORE.INTRA>
0

>  <SCORE.INTRA.DIHEDRAL>
0

>  <SCORE.INTRA.DIHEDRAL.0>
0

>  <SCORE.INTRA.POLAR>
0

>  <SCORE.INTRA.POLAR.0>
0

>  <SCORE.INTRA.REPUL>
0

>  <SCORE.INTRA.REPUL.0>
0

>  <SCORE.INTRA.SOLV>
0

>  <SCORE.INTRA.SOLV.lig_0>
-48.9558

>  <SCORE.INTRA.VDW>
0

>  <SCORE.INTRA.VDW.0>
0

>  <SCORE.INTRA.norm>
0

>  <SCORE.RESTR>
0

>  <SCORE.RESTR.CAVITY>
0

>  <SCORE.RESTR.norm>
0

>  <SCORE.SYSTEM>
0

>  <SCORE.SYSTEM.CONST>
0

>  <SCORE.SYSTEM.DIHEDRAL>
0

>  <SCORE.SYSTEM.SOLV>
0

>  <SCORE.SYSTEM.norm>
0

>  <SCORE.heavy>
11

>  <SCORE.norm>
-0.379471

>  <RMSD>
23.466

$$$$
ligand
 OpenBabel11021811493D
libRbt.so/2013.1/901 2013/11/27
 11 12  0  0  0  0  0  0  0  0999 V2000
   33.9861   11.8055   20.0697 N   0  0  0  0  0  0  0  0  0  0  0  0
   32.8454   11.7965   20.7780 C   0  0  0  0  0  0  0  0  0  0  0  0
   32.8880   12.1006   22.1283 N   0  0  0  0  0  0  0  0  0  0  0  0
   31.6671   11.4994   20.2062 N   0  0  0  0  0  0  0  0  0  0  0  0
   31.5908   11.1981   18.8889 C   0  0  0  0  0  0  0  0  0  0  0  0
   32.7701   11.1961   18.1019 C   0  0  0  0  0  0  0  0  0  0  0  0
   33.9993   11.5164   18.7515 C   0  0  0  0  0  0  0  0  0  0  0  0
   35.1893   11.5342   18.0493 N   0  0  0  0  0  0  0  0  0  0  0  0
   32.4081   10.8620   16.8386 N   0  0  0  0  0  0  0  0  0  0  0  0
   31.1207   10.6645   16.7960 C   0  0  0  0  0  0  0  0  0  0  0  0
   30.5733   10.8602   18.0341 N   0  0  0  0  0  0  0  0  0  0  0  0
  1  7  2  0  0  0  0
  1  2  1  0  0  0  0
  2  3  1  0  0  0  0
  2  4  2  0  0  0  0
  4  5  1  0  0  0  0
  5  6  2  0  0  0  0
  5 11  1  0  0  0  0
  6  7  1  0  0  0  0
  6  9  1  0  0  0  0
  7  8  1  0  0  0  0
  9 10  1  0  0  0  0
 10 11  2  0  0  0  0
M  END
>  <CHROM.1>
32.65192010,11.37309456,18.98856939,-1.18005447,-0.14093588,-1.78830322

>  <Name>
ligand

>  <RI>
0

>  <Rbt.Current_Directory>
/home/itssahil/PROJECTS/Mol_Feturizer/New_Systems/rnas/4FEP

>  <Rbt.Executable>
rbdock ($Id: //depot/dev/client3/rdock/2013.1/src/exe/rbdock.cxx#4 $)

>  <Rbt.Library>
libRbt.so (2013.1, Build901 2013/11/27)

>  <Rbt.Parameter_File>
/export/apps/rDock/src/rDock_2013.1_src/data/scripts/dock_solv.prm

>  <Rbt.Receptor>
prm/blind_docking_100.prm

>  <SCORE>
-5.65965

>  <SCORE.INTER>
-5.65965

>  <SCORE.INTER.CONST>
1

>  <SCORE.INTER.POLAR>
0

>  <SCORE.INTER.ROT>
0

>  <SCORE.INTER.SOLV>
2.13107

>  <SCORE.INTER.VDW>
-8.08346

>  <SCORE.INTER.norm>
-0.514514

>  <SCORE.INTRA>
0

>  <SCORE.INTRA.DIHEDRAL>
0

>  <SCORE.INTRA.DIHEDRAL.0>
0

>  <SCORE.INTRA.POLAR>
0

>  <SCORE.INTRA.POLAR.0>
0

>  <SCORE.INTRA.REPUL>
0

>  <SCORE.INTRA.REPUL.0>
0

>  <SCORE.INTRA.SOLV>
0

>  <SCORE.INTRA.SOLV.lig_0>
-48.9558

>  <SCORE.INTRA.VDW>
0

>  <SCORE.INTRA.VDW.0>
0

>  <SCORE.INTRA.norm>
0

>  <SCORE.RESTR>
0

>  <SCORE.RESTR.CAVITY>
0

>  <SCORE.RESTR.norm>
0

>  <SCORE.SYSTEM>
0

>  <SCORE.SYSTEM.CONST>
0

>  <SCORE.SYSTEM.DIHEDRAL>
0

>  <SCORE.SYSTEM.SOLV>
0

>  <SCORE.SYSTEM.norm>
0

>  <SCORE.heavy>
11

>  <SCORE.norm>
-0.514514

>  <RMSD>
24.092

$$$$
ligand
 OpenBabel11021811493D
libRbt.so/2013.1/901 2013/11/27
 11 12  0  0  0  0  0  0  0  0999 V2000
   32.9891   22.4705    7.4762 N   0  0  0  0  0  0  0  0  0  0  0  0
   32.4245   21.3350    7.9176 C   0  0  0  0  0  0  0  0  0  0  0  0
   31.0978   21.0795    7.6140 N   0  0  0  0  0  0  0  0  0  0  0  0
   33.1174   20.4441    8.6456 N   0  0  0  0  0  0  0  0  0  0  0  0
   34.4156   20.6633    8.9594 C   0  0  0  0  0  0  0  0  0  0  0  0
   35.0529   21.8488    8.5137 C   0  0  0  0  0  0  0  0  0  0  0  0
   34.2781   22.7671    7.7444 C   0  0  0  0  0  0  0  0  0  0  0  0
   34.8312   23.9436    7.2759 N   0  0  0  0  0  0  0  0  0  0  0  0
   36.3303   21.8114    8.9668 N   0  0  0  0  0  0  0  0  0  0  0  0
   36.5173   20.7127    9.6420 C   0  0  0  0  0  0  0  0  0  0  0  0
   35.3673   19.9728    9.6649 N   0  0  0  0  0  0  0  0  0  0  0  0
  1  7  2  0  0  0  0
  1  2  1  0  0  0  0
  2  3  1  0  0  0  0
  2  4  2  0  0  0  0
  4  5  1  0  0  0  0
  5  6  2  0  0  0  0
  5 11  1  0  0  0  0
  6  7  1  0  0  0  0
  6  9  1  0  0  0  0
  7  8  1  0  0  0  0
  9 10  1  0  0  0  0
 10 11  2  0  0  0  0
M  END
>  <CHROM.1>
34.19813671,21.55575066,8.39122230,-2.83654654,0.28591191,2.63398894

>  <Name>
ligand

>  <RI>
0

>  <Rbt.Current_Directory>
/home/itssahil/PROJECTS/Mol_Feturizer/New_Systems/rnas/4FEP

>  <Rbt.Executable>
rbdock ($Id: //depot/dev/client3/rdock/2013.1/src/exe/rbdock.cxx#4 $)

>  <Rbt.Library>
libRbt.so (2013.1, Build901 2013/11/27)

>  <Rbt.Parameter_File>
/export/apps/rDock/src/rDock_2013.1_src/data/scripts/dock_solv.prm

>  <Rbt.Receptor>
prm/blind_docking_100.prm

>  <SCORE>
-5.51275

>  <SCORE.INTER>
-5.51275

>  <SCORE.INTER.CONST>
1

>  <SCORE.INTER.POLAR>
0

>  <SCORE.INTER.ROT>
0

>  <SCORE.INTER.SOLV>
6.58954

>  <SCORE.INTER.VDW>
-9.47168

>  <SCORE.INTER.norm>
-0.501159

>  <SCORE.INTRA>
0

>  <SCORE.INTRA.DIHEDRAL>
0

>  <SCORE.INTRA.DIHEDRAL.0>
0

>  <SCORE.INTRA.POLAR>
0

>  <SCORE.INTRA.POLAR.0>
0

>  <SCORE.INTRA.REPUL>
0

>  <SCORE.INTRA.REPUL.0>
0

>  <SCORE.INTRA.SOLV>
0

>  <SCORE.INTRA.SOLV.lig_0>
-48.9558

>  <SCORE.INTRA.VDW>
0

>  <SCORE.INTRA.VDW.0>
0

>  <SCORE.INTRA.norm>
0

>  <SCORE.RESTR>
0

>  <SCORE.RESTR.CAVITY>
0

>  <SCORE.RESTR.norm>
0

>  <SCORE.SYSTEM>
0

>  <SCORE.SYSTEM.CONST>
0

>  <SCORE.SYSTEM.DIHEDRAL>
0

>  <SCORE.SYSTEM.SOLV>
0

>  <SCORE.SYSTEM.norm>
0

>  <SCORE.heavy>
11

>  <SCORE.norm>
-0.501159

>  <RMSD>
24.876

$$$$
ligand
 OpenBabel11021811493D
libRbt.so/2013.1/901 2013/11/27
 11 12  0  0  0  0  0  0  0  0999 V2000
   34.7071    9.8274   16.9993 N   0  0  0  0  0  0  0  0  0  0  0  0
   36.0018    9.8026   16.6441 C   0  0  0  0  0  0  0  0  0  0  0  0
   36.8703    8.9627   17.3208 N   0  0  0  0  0  0  0  0  0  0  0  0
   36.4710   10.5730   15.6491 N   0  0  0  0  0  0  0  0  0  0  0  0
   35.6487   11.4043   14.9676 C   0  0  0  0  0  0  0  0  0  0  0  0
   34.2736   11.4628   15.3082 C   0  0  0  0  0  0  0  0  0  0  0  0
   33.8197   10.6279   16.3723 C   0  0  0  0  0  0  0  0  0  0  0  0
   32.4934   10.6311   16.7604 N   0  0  0  0  0  0  0  0  0  0  0  0
   33.6938   12.3661   14.4797 N   0  0  0  0  0  0  0  0  0  0  0  0
   34.5944   12.8536   13.6738 C   0  0  0  0  0  0  0  0  0  0  0  0
   35.8136   12.2916   13.9353 N   0  0  0  0  0  0  0  0  0  0  0  0
  1  7  2  0  0  0  0
  1  2  1  0  0  0  0
  2  3  1  0  0  0  0
  2  4  2  0  0  0  0
  4  5  1  0  0  0  0
  5  6  2  0  0  0  0
  5 11  1  0  0  0  0
  6  7  1  0  0  0  0
  6  9  1  0  0  0  0
  7  8  1  0  0  0  0
  9 10  1  0  0  0  0
 10 11  2  0  0  0  0
M  END
>  <CHROM.1>
34.94962155,10.96491593,15.66395739,1.23690202,-0.19521200,2.30388519

>  <Name>
ligand

>  <RI>
0

>  <Rbt.Current_Directory>
/home/itssahil/PROJECTS/Mol_Feturizer/New_Systems/rnas/4FEP

>  <Rbt.Executable>
rbdock ($Id: //depot/dev/client3/rdock/2013.1/src/exe/rbdock.cxx#4 $)

>  <Rbt.Library>
libRbt.so (2013.1, Build901 2013/11/27)

>  <Rbt.Parameter_File>
/export/apps/rDock/src/rDock_2013.1_src/data/scripts/dock_solv.prm

>  <Rbt.Receptor>
prm/blind_docking_60.prm

>  <SCORE>
-5.48943

>  <SCORE.INTER>
-5.48943

>  <SCORE.INTER.CONST>
1

>  <SCORE.INTER.POLAR>
0

>  <SCORE.INTER.ROT>
0

>  <SCORE.INTER.SOLV>
3.29182

>  <SCORE.INTER.VDW>
-8.35689

>  <SCORE.INTER.norm>
-0.499039

>  <SCORE.INTRA>
0

>  <SCORE.INTRA.DIHEDRAL>
0

>  <SCORE.INTRA.DIHEDRAL.0>
0

>  <SCORE.INTRA.POLAR>
0

>  <SCORE.INTRA.POLAR.0>
0

>  <SCORE.INTRA.REPUL>
0

>  <SCORE.INTRA.REPUL.0>
0

>  <SCORE.INTRA.SOLV>
0

>  <SCORE.INTRA.SOLV.lig_0>
-48.9558

>  <SCORE.INTRA.VDW>
0

>  <SCORE.INTRA.VDW.0>
0

>  <SCORE.INTRA.norm>
0

>  <SCORE.RESTR>
0

>  <SCORE.RESTR.CAVITY>
0

>  <SCORE.RESTR.norm>
0

>  <SCORE.SYSTEM>
0

>  <SCORE.SYSTEM.CONST>
0

>  <SCORE.SYSTEM.DIHEDRAL>
0

>  <SCORE.SYSTEM.SOLV>
0

>  <SCORE.SYSTEM.norm>
0

>  <SCORE.heavy>
11

>  <SCORE.norm>
-0.499039

>  <RMSD>
24.952

$$$$
ligand
 OpenBabel11021811493D
libRbt.so/2013.1/901 2013/11/27
 11 12  0  0  0  0  0  0  0  0999 V2000
   33.7612   21.6950    8.2246 N   0  0  0  0  0  0  0  0  0  0  0  0
   35.0282   22.1278    8.1226 C   0  0  0  0  0  0  0  0  0  0  0  0
   35.2637   23.4502    7.7858 N   0  0  0  0  0  0  0  0  0  0  0  0
   36.0691   21.3074    8.3396 N   0  0  0  0  0  0  0  0  0  0  0  0
   35.8735   20.0098    8.6707 C   0  0  0  0  0  0  0  0  0  0  0  0
   34.5522   19.5095    8.7903 C   0  0  0  0  0  0  0  0  0  0  0  0
   33.4774   20.4163    8.5497 C   0  0  0  0  0  0  0  0  0  0  0  0
   32.1631   20.0006    8.6474 N   0  0  0  0  0  0  0  0  0  0  0  0
   34.6489   18.1988    9.1236 N   0  0  0  0  0  0  0  0  0  0  0  0
   35.9059   17.8678    9.2154 C   0  0  0  0  0  0  0  0  0  0  0  0
   36.6983   18.9496    8.9459 N   0  0  0  0  0  0  0  0  0  0  0  0
  1  7  2  0  0  0  0
  1  2  1  0  0  0  0
  2  3  1  0  0  0  0
  2  4  2  0  0  0  0
  4  5  1  0  0  0  0
  5  6  2  0  0  0  0
  5 11  1  0  0  0  0
  6  7  1  0  0  0  0
  6  9  1  0  0  0  0
  7  8  1  0  0  0  0
  9 10  1  0  0  0  0
 10 11  2  0  0  0  0
M  END
>  <CHROM.1>
34.85076022,20.34436448,8.57725411,1.75957877,-0.00638935,-0.25013755

>  <Name>
ligand

>  <RI>
0

>  <Rbt.Current_Directory>
/home/itssahil/PROJECTS/Mol_Feturizer/New_Systems/rnas/4FEP

>  <Rbt.Executable>
rbdock ($Id: //depot/dev/client3/rdock/2013.1/src/exe/rbdock.cxx#4 $)

>  <Rbt.Library>
libRbt.so (2013.1, Build901 2013/11/27)

>  <Rbt.Parameter_File>
/export/apps/rDock/src/rDock_2013.1_src/data/scripts/dock_solv.prm

>  <Rbt.Receptor>
prm/blind_docking_60.prm

>  <SCORE>
-6.00538

>  <SCORE.INTER>
-6.00538

>  <SCORE.INTER.CONST>
1

>  <SCORE.INTER.POLAR>
0

>  <SCORE.INTER.ROT>
0

>  <SCORE.INTER.SOLV>
11.3909

>  <SCORE.INTER.VDW>
-11.4005

>  <SCORE.INTER.norm>
-0.545944

>  <SCORE.INTRA>
0

>  <SCORE.INTRA.DIHEDRAL>
0

>  <SCORE.INTRA.DIHEDRAL.0>
0

>  <SCORE.INTRA.POLAR>
0

>  <SCORE.INTRA.POLAR.0>
0

>  <SCORE.INTRA.REPUL>
0

>  <SCORE.INTRA.REPUL.0>
0

>  <SCORE.INTRA.SOLV>
0

>  <SCORE.INTRA.SOLV.lig_0>
-48.9558

>  <SCORE.INTRA.VDW>
0

>  <SCORE.INTRA.VDW.0>
0

>  <SCORE.INTRA.norm>
0

>  <SCORE.RESTR>
0

>  <SCORE.RESTR.CAVITY>
0

>  <SCORE.RESTR.norm>
0

>  <SCORE.SYSTEM>
0

>  <SCORE.SYSTEM.CONST>
0

>  <SCORE.SYSTEM.DIHEDRAL>
0

>  <SCORE.SYSTEM.SOLV>
0

>  <SCORE.SYSTEM.norm>
0

>  <SCORE.heavy>
11

>  <SCORE.norm>
-0.545944

>  <RMSD>
24.981

$$$$
ligand
 OpenBabel11021811493D
libRbt.so/2013.1/901 2013/11/27
 11 12  0  0  0  0  0  0  0  0999 V2000
   33.9367   11.1080   16.1051 N   0  0  0  0  0  0  0  0  0  0  0  0
   33.0285   10.2404   15.6305 C   0  0  0  0  0  0  0  0  0  0  0  0
   32.0746   10.6875   14.7317 N   0  0  0  0  0  0  0  0  0  0  0  0
   33.0255    8.9515   16.0081 N   0  0  0  0  0  0  0  0  0  0  0  0
   33.9441    8.4825   16.8844 C   0  0  0  0  0  0  0  0  0  0  0  0
   34.9227    9.3630   17.4109 C   0  0  0  0  0  0  0  0  0  0  0  0
   34.8871   10.7235   16.9828 C   0  0  0  0  0  0  0  0  0  0  0  0
   35.8085   11.6397   17.4533 N   0  0  0  0  0  0  0  0  0  0  0  0
   35.7008    8.6395   18.2534 N   0  0  0  0  0  0  0  0  0  0  0  0
   35.2791    7.4067   18.2795 C   0  0  0  0  0  0  0  0  0  0  0  0
   34.1997    7.2608   17.4523 N   0  0  0  0  0  0  0  0  0  0  0  0
  1  7  2  0  0  0  0
  1  2  1  0  0  0  0
  2  3  1  0  0  0  0
  2  4  2  0  0  0  0
  4  5  1  0  0  0  0
  5  6  2  0  0  0  0
  5 11  1  0  0  0  0
  6  7  1  0  0  0  0
  6  9  1  0  0  0  0
  7  8  1  0  0  0  0
  9 10  1  0  0  0  0
 10 11  2  0  0  0  0
M  END
>  <CHROM.1>
34.24433989,9.51808790,16.82165392,-2.26580714,0.65712106,2.85443367

>  <Name>
ligand

>  <RI>
0

>  <Rbt.Current_Directory>
/home/itssahil/PROJECTS/Mol_Feturizer/New_Systems/rnas/4FEP

>  <Rbt.Executable>
rbdock ($Id: //depot/dev/client3/rdock/2013.1/src/exe/rbdock.cxx#4 $)

>  <Rbt.Library>
libRbt.so (2013.1, Build901 2013/11/27)

>  <Rbt.Parameter_File>
/export/apps/rDock/src/rDock_2013.1_src/data/scripts/dock_solv.prm

>  <Rbt.Receptor>
prm/blind_docking_60.prm

>  <SCORE>
-5.30962

>  <SCORE.INTER>
-5.30962

>  <SCORE.INTER.CONST>
1

>  <SCORE.INTER.POLAR>
0

>  <SCORE.INTER.ROT>
0

>  <SCORE.INTER.SOLV>
4.67289

>  <SCORE.INTER.VDW>
-8.69738

>  <SCORE.INTER.norm>
-0.482693

>  <SCORE.INTRA>
0

>  <SCORE.INTRA.DIHEDRAL>
0

>  <SCORE.INTRA.DIHEDRAL.0>
0

>  <SCORE.INTRA.POLAR>
0

>  <SCORE.INTRA.POLAR.0>
0

>  <SCORE.INTRA.REPUL>
0

>  <SCORE.INTRA.REPUL.0>
0

>  <SCORE.INTRA.SOLV>
0

>  <SCORE.INTRA.SOLV.lig_0>
-48.9558

>  <SCORE.INTRA.VDW>
0

>  <SCORE.INTRA.VDW.0>
0

>  <SCORE.INTRA.norm>
0

>  <SCORE.RESTR>
0

>  <SCORE.RESTR.CAVITY>
0

>  <SCORE.RESTR.norm>
0

>  <SCORE.SYSTEM>
0

>  <SCORE.SYSTEM.CONST>
0

>  <SCORE.SYSTEM.DIHEDRAL>
0

>  <SCORE.SYSTEM.SOLV>
0

>  <SCORE.SYSTEM.norm>
0

>  <SCORE.heavy>
11

>  <SCORE.norm>
-0.482693

>  <RMSD>
25.002

$$$$
ligand
 OpenBabel11021811493D
libRbt.so/2013.1/901 2013/11/27
 11 12  0  0  0  0  0  0  0  0999 V2000
   34.2573   21.9339    8.1885 N   0  0  0  0  0  0  0  0  0  0  0  0
   35.5669   22.1176    7.9559 C   0  0  0  0  0  0  0  0  0  0  0  0
   36.0087   23.3603    7.5340 N   0  0  0  0  0  0  0  0  0  0  0  0
   36.4551   21.1241    8.1232 N   0  0  0  0  0  0  0  0  0  0  0  0
   36.0563   19.8980    8.5348 C   0  0  0  0  0  0  0  0  0  0  0  0
   34.6829   19.6588    8.7931 C   0  0  0  0  0  0  0  0  0  0  0  0
   33.7752   20.7426    8.6008 C   0  0  0  0  0  0  0  0  0  0  0  0
   32.4221   20.5844    8.8323 N   0  0  0  0  0  0  0  0  0  0  0  0
   34.5679   18.3651    9.1823 N   0  0  0  0  0  0  0  0  0  0  0  0
   35.7457   17.8074    9.1818 C   0  0  0  0  0  0  0  0  0  0  0  0
   36.6945   18.7117    8.7908 N   0  0  0  0  0  0  0  0  0  0  0  0
  1  7  2  0  0  0  0
  1  2  1  0  0  0  0
  2  3  1  0  0  0  0
  2  4  2  0  0  0  0
  4  5  1  0  0  0  0
  5  6  2  0  0  0  0
  5 11  1  0  0  0  0
  6  7  1  0  0  0  0
  6  9  1  0  0  0  0
  7  8  1  0  0  0  0
  9 10  1  0  0  0  0
 10 11  2  0  0  0  0
M  END
>  <CHROM.1>
35.10836949,20.41525344,8.51330152,1.60282850,0.13084788,-0.28263923

>  <Name>
ligand

>  <RI>
0

>  <Rbt.Current_Directory>
/home/itssahil/PROJECTS/Mol_Feturizer/New_Systems/rnas/4FEP

>  <Rbt.Executable>
rbdock ($Id: //depot/dev/client3/rdock/2013.1/src/exe/rbdock.cxx#4 $)

>  <Rbt.Library>
libRbt.so (2013.1, Build901 2013/11/27)

>  <Rbt.Parameter_File>
/export/apps/rDock/src/rDock_2013.1_src/data/scripts/dock_solv.prm

>  <Rbt.Receptor>
prm/blind_docking_60.prm

>  <SCORE>
-6.58695

>  <SCORE.INTER>
-6.58695

>  <SCORE.INTER.CONST>
1

>  <SCORE.INTER.POLAR>
0

>  <SCORE.INTER.ROT>
0

>  <SCORE.INTER.SOLV>
11.8529

>  <SCORE.INTER.VDW>
-11.9423

>  <SCORE.INTER.norm>
-0.598814

>  <SCORE.INTRA>
0

>  <SCORE.INTRA.DIHEDRAL>
0

>  <SCORE.INTRA.DIHEDRAL.0>
0

>  <SCORE.INTRA.POLAR>
0

>  <SCORE.INTRA.POLAR.0>
0

>  <SCORE.INTRA.REPUL>
0

>  <SCORE.INTRA.REPUL.0>
0

>  <SCORE.INTRA.SOLV>
0

>  <SCORE.INTRA.SOLV.lig_0>
-48.9558

>  <SCORE.INTRA.VDW>
0

>  <SCORE.INTRA.VDW.0>
0

>  <SCORE.INTRA.norm>
0

>  <SCORE.RESTR>
0

>  <SCORE.RESTR.CAVITY>
0

>  <SCORE.RESTR.norm>
0

>  <SCORE.SYSTEM>
0

>  <SCORE.SYSTEM.CONST>
0

>  <SCORE.SYSTEM.DIHEDRAL>
0

>  <SCORE.SYSTEM.SOLV>
0

>  <SCORE.SYSTEM.norm>
0

>  <SCORE.heavy>
11

>  <SCORE.norm>
-0.598814

>  <RMSD>
25.250

$$$$
ligand
 OpenBabel11021811493D
libRbt.so/2013.1/901 2013/11/27
 11 12  0  0  0  0  0  0  0  0999 V2000
   34.3313   21.9327    8.1868 N   0  0  0  0  0  0  0  0  0  0  0  0
   35.6471   22.0883    7.9692 C   0  0  0  0  0  0  0  0  0  0  0  0
   36.1196   23.3201    7.5485 N   0  0  0  0  0  0  0  0  0  0  0  0
   36.5123   21.0772    8.1503 N   0  0  0  0  0  0  0  0  0  0  0  0
   36.0832   19.8612    8.5612 C   0  0  0  0  0  0  0  0  0  0  0  0
   34.7021   19.6515    8.8038 C   0  0  0  0  0  0  0  0  0  0  0  0
   33.8196   20.7533    8.5973 C   0  0  0  0  0  0  0  0  0  0  0  0
   32.4608   20.6241    8.8132 N   0  0  0  0  0  0  0  0  0  0  0  0
   34.5556   18.3618    9.1959 N   0  0  0  0  0  0  0  0  0  0  0  0
   35.7214   17.7797    9.2112 C   0  0  0  0  0  0  0  0  0  0  0  0
   36.6934   18.6627    8.8286 N   0  0  0  0  0  0  0  0  0  0  0  0
  1  7  2  0  0  0  0
  1  2  1  0  0  0  0
  2  3  1  0  0  0  0
  2  4  2  0  0  0  0
  4  5  1  0  0  0  0
  5  6  2  0  0  0  0
  5 11  1  0  0  0  0
  6  7  1  0  0  0  0
  6  9  1  0  0  0  0
  7  8  1  0  0  0  0
  9 10  1  0  0  0  0
 10 11  2  0  0  0  0
M  END
>  <CHROM.1>
35.14654194,20.39790588,8.52667464,1.57932029,0.12527157,-0.28302342

>  <Name>
ligand

>  <RI>
0

>  <Rbt.Current_Directory>
/home/itssahil/PROJECTS/Mol_Feturizer/New_Systems/rnas/4FEP

>  <Rbt.Executable>
rbdock ($Id: //depot/dev/client3/rdock/2013.1/src/exe/rbdock.cxx#4 $)

>  <Rbt.Library>
libRbt.so (2013.1, Build901 2013/11/27)

>  <Rbt.Parameter_File>
/export/apps/rDock/src/rDock_2013.1_src/data/scripts/dock_solv.prm

>  <Rbt.Receptor>
prm/blind_docking_60.prm

>  <SCORE>
-6.60907

>  <SCORE.INTER>
-6.60907

>  <SCORE.INTER.CONST>
1

>  <SCORE.INTER.POLAR>
0

>  <SCORE.INTER.ROT>
0

>  <SCORE.INTER.SOLV>
11.977

>  <SCORE.INTER.VDW>
-11.9984

>  <SCORE.INTER.norm>
-0.600825

>  <SCORE.INTRA>
0

>  <SCORE.INTRA.DIHEDRAL>
0

>  <SCORE.INTRA.DIHEDRAL.0>
0

>  <SCORE.INTRA.POLAR>
0

>  <SCORE.INTRA.POLAR.0>
0

>  <SCORE.INTRA.REPUL>
0

>  <SCORE.INTRA.REPUL.0>
0

>  <SCORE.INTRA.SOLV>
0

>  <SCORE.INTRA.SOLV.lig_0>
-48.9558

>  <SCORE.INTRA.VDW>
0

>  <SCORE.INTRA.VDW.0>
0

>  <SCORE.INTRA.norm>
0

>  <SCORE.RESTR>
0

>  <SCORE.RESTR.CAVITY>
0

>  <SCORE.RESTR.norm>
0

>  <SCORE.SYSTEM>
0

>  <SCORE.SYSTEM.CONST>
0

>  <SCORE.SYSTEM.DIHEDRAL>
0

>  <SCORE.SYSTEM.SOLV>
0

>  <SCORE.SYSTEM.norm>
0

>  <SCORE.heavy>
11

>  <SCORE.norm>
-0.600825

>  <RMSD>
25.281

$$$$
ligand
 OpenBabel11021811493D
libRbt.so/2013.1/901 2013/11/27
 11 12  0  0  0  0  0  0  0  0999 V2000
   34.3389   21.9408    8.2166 N   0  0  0  0  0  0  0  0  0  0  0  0
   35.6518   22.0922    7.9796 C   0  0  0  0  0  0  0  0  0  0  0  0
   36.1221   23.3227    7.5526 N   0  0  0  0  0  0  0  0  0  0  0  0
   36.5163   21.0782    8.1473 N   0  0  0  0  0  0  0  0  0  0  0  0
   36.0894   19.8633    8.5638 C   0  0  0  0  0  0  0  0  0  0  0  0
   34.7114   19.6579    8.8268 C   0  0  0  0  0  0  0  0  0  0  0  0
   33.8295   20.7627    8.6339 C   0  0  0  0  0  0  0  0  0  0  0  0
   32.4736   20.6379    8.8699 N   0  0  0  0  0  0  0  0  0  0  0  0
   34.5665   18.3685    9.2202 N   0  0  0  0  0  0  0  0  0  0  0  0
   35.7305   17.7826    9.2179 C   0  0  0  0  0  0  0  0  0  0  0  0
   36.6995   18.6626    8.8214 N   0  0  0  0  0  0  0  0  0  0  0  0
  1  7  2  0  0  0  0
  1  2  1  0  0  0  0
  2  3  1  0  0  0  0
  2  4  2  0  0  0  0
  4  5  1  0  0  0  0
  5  6  2  0  0  0  0
  5 11  1  0  0  0  0
  6  7  1  0  0  0  0
  6  9  1  0  0  0  0
  7  8  1  0  0  0  0
  9 10  1  0  0  0  0
 10 11  2  0  0  0  0
M  END
>  <CHROM.1>
35.15409694,20.40308137,8.54347447,1.58032338,0.14042070,-0.28257478

>  <Name>
ligand

>  <RI>
0

>  <Rbt.Current_Directory>
/home/itssahil/PROJECTS/Mol_Feturizer/New_Systems/rnas/4FEP

>  <Rbt.Executable>
rbdock ($Id: //depot/dev/client3/rdock/2013.1/src/exe/rbdock.cxx#4 $)

>  <Rbt.Library>
libRbt.so (2013.1, Build901 2013/11/27)

>  <Rbt.Parameter_File>
/export/apps/rDock/src/rDock_2013.1_src/data/scripts/dock_solv.prm

>  <Rbt.Receptor>
prm/blind_docking_80.prm

>  <SCORE>
-6.58921

>  <SCORE.INTER>
-6.58921

>  <SCORE.INTER.CONST>
1

>  <SCORE.INTER.POLAR>
0

>  <SCORE.INTER.ROT>
0

>  <SCORE.INTER.SOLV>
12.042

>  <SCORE.INTER.VDW>
-12.0068

>  <SCORE.INTER.norm>
-0.599019

>  <SCORE.INTRA>
0

>  <SCORE.INTRA.DIHEDRAL>
0

>  <SCORE.INTRA.DIHEDRAL.0>
0

>  <SCORE.INTRA.POLAR>
0

>  <SCORE.INTRA.POLAR.0>
0

>  <SCORE.INTRA.REPUL>
0

>  <SCORE.INTRA.REPUL.0>
0

>  <SCORE.INTRA.SOLV>
0

>  <SCORE.INTRA.SOLV.lig_0>
-48.9558

>  <SCORE.INTRA.VDW>
0

>  <SCORE.INTRA.VDW.0>
0

>  <SCORE.INTRA.norm>
0

>  <SCORE.RESTR>
0

>  <SCORE.RESTR.CAVITY>
0

>  <SCORE.RESTR.norm>
0

>  <SCORE.SYSTEM>
0

>  <SCORE.SYSTEM.CONST>
0

>  <SCORE.SYSTEM.DIHEDRAL>
0

>  <SCORE.SYSTEM.SOLV>
0

>  <SCORE.SYSTEM.norm>
0

>  <SCORE.heavy>
11

>  <SCORE.norm>
-0.599019

>  <RMSD>
25.290

$$$$
ligand
 OpenBabel11021811493D
libRbt.so/2013.1/901 2013/11/27
 11 12  0  0  0  0  0  0  0  0999 V2000
   36.3962   10.7145   15.7640 N   0  0  0  0  0  0  0  0  0  0  0  0
   35.0952   10.8622   15.4663 C   0  0  0  0  0  0  0  0  0  0  0  0
   34.6978   11.9449   14.6999 N   0  0  0  0  0  0  0  0  0  0  0  0
   34.1736    9.9844   15.8950 N   0  0  0  0  0  0  0  0  0  0  0  0
   34.5287    8.9155   16.6454 C   0  0  0  0  0  0  0  0  0  0  0  0
   35.8916    8.7194   16.9835 C   0  0  0  0  0  0  0  0  0  0  0  0
   36.8355    9.6774   16.5074 C   0  0  0  0  0  0  0  0  0  0  0  0
   38.1810    9.5522   16.7970 N   0  0  0  0  0  0  0  0  0  0  0  0
   35.9602    7.5909   17.7320 N   0  0  0  0  0  0  0  0  0  0  0  0
   34.7645    7.0925   17.8729 C   0  0  0  0  0  0  0  0  0  0  0  0
   33.8495    7.8727   17.2211 N   0  0  0  0  0  0  0  0  0  0  0  0
  1  7  2  0  0  0  0
  1  2  1  0  0  0  0
  2  3  1  0  0  0  0
  2  4  2  0  0  0  0
  4  5  1  0  0  0  0
  5  6  2  0  0  0  0
  5 11  1  0  0  0  0
  6  7  1  0  0  0  0
  6  9  1  0  0  0  0
  7  8  1  0  0  0  0
  9 10  1  0  0  0  0
 10 11  2  0  0  0  0
M  END
>  <CHROM.1>
35.49306701,9.37798548,16.49471600,-1.50461968,0.12890745,2.56411725

>  <Name>
ligand

>  <RI>
0

>  <Rbt.Current_Directory>
/home/itssahil/PROJECTS/Mol_Feturizer/New_Systems/rnas/4FEP

>  <Rbt.Executable>
rbdock ($Id: //depot/dev/client3/rdock/2013.1/src/exe/rbdock.cxx#4 $)

>  <Rbt.Library>
libRbt.so (2013.1, Build901 2013/11/27)

>  <Rbt.Parameter_File>
/export/apps/rDock/src/rDock_2013.1_src/data/scripts/dock_solv.prm

>  <Rbt.Receptor>
prm/blind_docking_100.prm

>  <SCORE>
-4.87628

>  <SCORE.INTER>
-4.87628

>  <SCORE.INTER.CONST>
1

>  <SCORE.INTER.POLAR>
0

>  <SCORE.INTER.ROT>
0

>  <SCORE.INTER.SOLV>
8.19341

>  <SCORE.INTER.VDW>
-9.58199

>  <SCORE.INTER.norm>
-0.443298

>  <SCORE.INTRA>
0

>  <SCORE.INTRA.DIHEDRAL>
0

>  <SCORE.INTRA.DIHEDRAL.0>
0

>  <SCORE.INTRA.POLAR>
0

>  <SCORE.INTRA.POLAR.0>
0

>  <SCORE.INTRA.REPUL>
0

>  <SCORE.INTRA.REPUL.0>
0

>  <SCORE.INTRA.SOLV>
0

>  <SCORE.INTRA.SOLV.lig_0>
-48.9558

>  <SCORE.INTRA.VDW>
0

>  <SCORE.INTRA.VDW.0>
0

>  <SCORE.INTRA.norm>
0

>  <SCORE.RESTR>
0

>  <SCORE.RESTR.CAVITY>
0

>  <SCORE.RESTR.norm>
0

>  <SCORE.SYSTEM>
0

>  <SCORE.SYSTEM.CONST>
0

>  <SCORE.SYSTEM.DIHEDRAL>
0

>  <SCORE.SYSTEM.SOLV>
0

>  <SCORE.SYSTEM.norm>
0

>  <SCORE.heavy>
11

>  <SCORE.norm>
-0.443298

>  <RMSD>
25.963

$$$$
