@<TRIPOS>MOLECULE
4FEP_rdock.pdb
 1423 1590 0 0 0
SMALL
GASTEIGER

@<TRIPOS>ATOM
      1  C5'        3.6970    3.9630   22.1450 C.3    15  G15         0.2141
      2  O5'        2.9880    4.1430   20.9170 O.3    15  G15        -0.2176
      3  C4'        3.7590    2.5130   22.5640 C.3    15  G15         0.1802
      4  O4'        2.4060    2.0000   22.6990 O.3    15  G15        -0.3306
      5  C3'        4.4420    1.5810   21.5740 C.3    15  G15         0.1861
      6  O3'        5.8380    1.5100   21.8390 O.3    15  G15        -0.3112
      7  C2'        3.7590    0.2480   21.8550 C.3    15  G15         0.2309
      8  O2'        4.2920   -0.4190   22.9820 O.3    15  G15        -0.2156
      9  C1'        2.3290    0.6980   22.1440 C.3    15  G15         0.2408
     10  N1        -0.1610   -1.9660   18.6130 N.ar   15  G15        -0.1709
     11  C2         0.6240   -2.4120   19.6470 C.ar   15  G15         0.2606
     12  N2         0.7570   -3.7420   19.7590 N.pl3  15  G15        -0.0859
     13  N3         1.2350   -1.6150   20.5070 N.ar   15  G15        -0.1918
     14  C4         0.9990   -0.3120   20.2430 C.ar   15  G15         0.1723
     15  C5         0.2350    0.2370   19.2340 C.ar   15  G15         0.1748
     16  C6        -0.4200   -0.6310   18.3220 C.ar   15  G15         0.3023
     17  O6        -1.1470   -0.3380   17.3650 O.2    15  G15        -0.2633
     18  N7         0.2480    1.6230   19.3050 N.ar   15  G15        -0.2173
     19  C8         1.0000    1.8870   20.3390 C.ar   15  G15         0.1817
     20  N9         1.4820    0.7580   20.9570 N.ar   15  G15        -0.2693
     21  P          6.8740    1.3790   20.6170 P.3    16  G16         0.2141
     22  C5'        7.0080   -1.2360   20.7890 C.3    16  G16         0.1812
     23  O5'        6.6130   -0.0860   20.0470 O.3    16  G16        -0.3114
     24  C4'        6.5670   -2.4950   20.0820 C.3    16  G16         0.1773
     25  O4'        5.1160   -2.5800   20.0990 O.3    16  G16        -0.3307
     26  C3'        6.9120   -2.5850   18.6050 C.3    16  G16         0.1860
     27  O3'        8.2460   -3.0300   18.4050 O.3    16  G16        -0.3112
     28  C2'        5.9050   -3.6190   18.1240 C.3    16  G16         0.2309
     29  O2'        6.2650   -4.9400   18.4750 O.3    16  G16        -0.2156
     30  C1'        4.6610   -3.1930   18.9020 C.3    16  G16         0.2408
     31  N1         1.2840   -2.5130   15.1840 N.ar   16  G16        -0.1709
     32  C2         1.8520   -3.6750   15.6460 C.ar   16  G16         0.2606
     33  N2         1.4760   -4.8040   15.0300 N.pl3  16  G16        -0.0859
     34  N3         2.7260   -3.7260   16.6370 N.ar   16  G16        -0.1918
     35  C4         2.9950   -2.5010   17.1350 C.ar   16  G16         0.1723
     36  C5         2.4850   -1.2810   16.7450 C.ar   16  G16         0.1748
     37  C6         1.5450   -1.2410   15.6840 C.ar   16  G16         0.3023
     38  O6         0.9750   -0.2590   15.1950 O.2    16  G16        -0.2633
     39  N7         3.0200   -0.2560   17.5130 N.ar   16  G16        -0.2173
     40  C8         3.8290   -0.8610   18.3400 C.ar   16  G16         0.1817
     41  N9         3.8620   -2.2230   18.1620 N.ar   16  G16        -0.2693
     42  OP1        8.2540    1.4260   21.1650 O.3    16  G16        -0.4373
     43  OP2        6.4610    2.3610   19.5810 O.co2  16  G16        -0.5172
     44  P          9.0210   -2.6270   17.0560 P.3    17  A17         0.2141
     45  C5'        8.2300   -4.9020   16.0110 C.3    17  A17         0.1812
     46  O5'        8.2970   -3.4820   15.9240 O.3    17  A17        -0.3114
     47  C4'        7.5400   -5.4670   14.7930 C.3    17  A17         0.1773
     48  O4'        6.1020   -5.2750   14.9160 O.3    17  A17        -0.3307
     49  C3'        7.8850   -4.7900   13.4780 C.3    17  A17         0.1860
     50  O3'        9.0970   -5.2970   12.9360 O.3    17  A17        -0.3112
     51  C2'        6.6770   -5.1500   12.6270 C.3    17  A17         0.2309
     52  O2'        6.7010   -6.4890   12.1710 O.3    17  A17        -0.2156
     53  C1'        5.5490   -4.9700   13.6430 C.3    17  A17         0.2408
     54  N1         2.1630   -1.6070   11.7190 N.ar   17  A17        -0.2040
     55  C2         2.3850   -2.9040   11.4680 C.ar   17  A17         0.2016
     56  N3         3.2820   -3.7260   12.0080 N.ar   17  A17        -0.2048
     57  C4         4.0260   -3.0800   12.9210 C.ar   17  A17         0.1692
     58  C5         3.9180   -1.7500   13.2880 C.ar   17  A17         0.1518
     59  C6         2.9290   -0.9890   12.6430 C.ar   17  A17         0.1919
     60  N6         2.7080    0.3020   12.8930 N.pl3  17  A17        -0.1054
     61  N7         4.8530   -1.4320   14.2620 N.ar   17  A17        -0.2193
     62  C8         5.4950   -2.5580   14.4600 C.ar   17  A17         0.1816
     63  N9         5.0480   -3.5960   13.6800 N.ar   17  A17        -0.2693
     64  OP1       10.4280   -3.0870   17.1690 O.3    17  A17        -0.4373
     65  OP2        8.7360   -1.1920   16.7930 O.co2  17  A17        -0.5172
     66  P          9.8210   -4.5040   11.7400 P.3    18  C18         0.2141
     67  C5'        8.8420   -3.9590    9.3780 C.3    18  C18         0.1812
     68  O5'        8.9280   -4.8560   10.4710 O.3    18  C18        -0.3114
     69  C4'        7.6630   -4.3130    8.5100 C.3    18  C18         0.1773
     70  O4'        6.4490   -4.2950    9.3120 O.3    18  C18        -0.3307
     71  C3'        7.4100   -3.3290    7.3800 C.3    18  C18         0.1860
     72  O3'        8.1390   -3.7200    6.2260 O.3    18  C18        -0.3112
     73  C2'        5.9060   -3.4470    7.1850 C.3    18  C18         0.2309
     74  O2'        5.5430   -4.6010    6.4560 O.3    18  C18        -0.2156
     75  C1'        5.4390   -3.5660    8.6350 C.3    18  C18         0.2420
     76  N1         5.3040   -2.2570    9.2940 N.ar   18  C18        -0.2535
     77  C2         4.2460   -1.4220    8.9230 C.ar   18  C18         0.3532
     78  O2         3.4460   -1.8160    8.0620 O.2    18  C18        -0.2443
     79  N3         4.1220   -0.2110    9.5120 N.ar   18  C18        -0.1739
     80  C4         5.0020    0.1730   10.4390 C.ar   18  C18         0.1759
     81  N4         4.8420    1.3780   10.9920 N.pl3  18  C18        -0.1070
     82  C5         6.0860   -0.6610   10.8400 C.ar   18  C18         0.0566
     83  C6         6.1970   -1.8560   10.2490 C.ar   18  C18         0.0850
     84  OP1       11.1740   -5.0780   11.5280 O.2    18  C18        -0.5172
     85  OP2        9.6750   -3.0510   12.0080 O.co2  18  C18        -0.4373
     86  P          8.9850   -2.6220    5.4190 P.3    19  A19         0.2141
     87  C5'        6.8740   -2.5000    3.8730 C.3    19  A19         0.1812
     88  O5'        7.8690   -1.8130    4.6210 O.3    19  A19        -0.3114
     89  C4'        5.8430   -1.5250    3.3650 C.3    19  A19         0.1773
     90  O4'        4.9580   -1.1520    4.4560 O.3    19  A19        -0.3307
     91  C3'        6.3980   -0.1990    2.8750 C.3    19  A19         0.1860
     92  O3'        6.8310   -0.3030    1.5250 O.3    19  A19        -0.3112
     93  C2'        5.1820    0.7080    3.0030 C.3    19  A19         0.2309
     94  O2'        4.2600    0.5170    1.9490 O.3    19  A19        -0.2156
     95  C1'        4.5790    0.2090    4.3170 C.3    19  A19         0.2408
     96  N1         3.9830    4.3760    7.2730 N.ar   19  A19        -0.2040
     97  C2         3.3870    3.9840    6.1420 C.ar   19  A19         0.2016
     98  N3         3.5990    2.8920    5.4130 N.ar   19  A19        -0.2048
     99  C4         4.5680    2.1370    5.9590 C.ar   19  A19         0.1692
    100  C5         5.2790    2.4110    7.1150 C.ar   19  A19         0.1518
    101  C6         4.9490    3.5940    7.8020 C.ar   19  A19         0.1919
    102  N6         5.5280    3.9790    8.9430 N.pl3  19  A19        -0.1054
    103  N7         6.2100    1.4120    7.3660 N.ar   19  A19        -0.2193
    104  C8         6.0360    0.5640    6.3790 C.ar   19  A19         0.1816
    105  N9         5.0500    0.9350    5.4970 N.ar   19  A19        -0.2693
    106  OP1        9.8480   -3.3220    4.4350 O.2    19  A19        -0.5172
    107  OP2        9.5970   -1.7090    6.4180 O.co2  19  A19        -0.4373
    108  P          8.0890    0.5630    1.0260 P.3    20  U20         0.2141
    109  C5'        6.4650    2.3410   -0.0010 C.3    20  U20         0.1812
    110  O5'        7.5110    2.0430    0.9150 O.3    20  U20        -0.3114
    111  C4'        5.8740    3.6960    0.3000 C.3    20  U20         0.1773
    112  O4'        5.3050    3.7050    1.6360 O.3    20  U20        -0.3307
    113  C3'        6.8620    4.8460    0.3580 C.3    20  U20         0.1860
    114  O3'        7.2330    5.2760   -0.9440 O.3    20  U20        -0.3112
    115  C2'        6.0470    5.8940    1.1030 C.3    20  U20         0.2309
    116  O2'        5.0700    6.5090    0.2870 O.3    20  U20        -0.2156
    117  C1'        5.3540    5.0260    2.1560 C.3    20  U20         0.2420
    118  N1         6.0760    5.0060    3.4350 N.ar   20  U20        -0.2534
    119  C2         5.7820    6.0050    4.3390 C.ar   20  U20         0.3546
    120  O2         4.9650    6.8800    4.1120 O.2    20  U20        -0.2443
    121  N3         6.4780    5.9450    5.5190 N.ar   20  U20        -0.1530
    122  C4         7.4200    5.0110    5.8800 C.ar   20  U20         0.2846
    123  O4         7.9400    5.0820    6.9930 O.2    20  U20        -0.2650
    124  C5         7.6780    4.0070    4.8880 C.ar   20  U20         0.0814
    125  C6         7.0100    4.0390    3.7270 C.ar   20  U20         0.0870
    126  OP1        8.4480    0.1050   -0.3410 O.2    20  U20        -0.5172
    127  OP2        9.1110    0.5340    2.1050 O.co2  20  U20        -0.4373
    128  P          8.7540    5.7100   -1.2310 P.3    21  A21         0.2141
    129  C5'        8.0860    8.1850   -0.6840 C.3    21  A21         0.1812
    130  O5'        8.9260    7.0680   -0.4160 O.3    21  A21        -0.3114
    131  C4'        8.3550    9.2960    0.3020 C.3    21  A21         0.1773
    132  O4'        7.8310    8.9430    1.6050 O.3    21  A21        -0.3307
    133  C3'        9.8130    9.5940    0.6090 C.3    21  A21         0.1860
    134  O3'       10.4050   10.3790   -0.4250 O.3    21  A21        -0.3112
    135  C2'        9.7010   10.3800    1.9150 C.3    21  A21         0.2309
    136  O2'        9.4520   11.7560    1.7180 O.3    21  A21        -0.2156
    137  C1'        8.4840    9.7280    2.5830 C.3    21  A21         0.2408
    138  N1         8.9430    9.4540    7.6810 N.ar   21  A21        -0.2040
    139  C2         8.4730   10.4070    6.8660 C.ar   21  A21         0.2016
    140  N3         8.3640   10.4030    5.5390 N.ar   21  A21        -0.2048
    141  C4         8.8040    9.2370    5.0320 C.ar   21  A21         0.1692
    142  C5         9.3090    8.1620    5.7390 C.ar   21  A21         0.1518
    143  C6         9.3850    8.2970    7.1360 C.ar   21  A21         0.1919
    144  N6         9.8730    7.3560    7.9460 N.pl3  21  A21        -0.1054
    145  N7         9.6490    7.1270    4.8790 N.ar   21  A21        -0.2193
    146  C8         9.3580    7.5980    3.6890 C.ar   21  A21         0.1816
    147  N9         8.8590    8.8750    3.7090 N.ar   21  A21        -0.2693
    148  OP1        8.8800    6.0090   -2.6800 O.2    21  A21        -0.5172
    149  OP2        9.6420    4.6990   -0.6110 O.co2  21  A21        -0.4373
    150  P         11.7160    9.8390   -1.1900 P.3    22  U22         0.2141
    151  C5'       13.9790    8.9920   -0.1270 C.3    22  U22         0.1812
    152  O5'       12.8480    9.8660   -0.0650 O.3    22  U22        -0.3114
    153  C4'       14.5560    8.7800    1.2580 C.3    22  U22         0.1773
    154  O4'       15.0000   10.0640    1.7830 O.3    22  U22        -0.3307
    155  C3'       13.5790    8.2220    2.2900 C.3    22  U22         0.1860
    156  O3'       14.2450    7.4250    3.2660 O.3    22  U22        -0.3112
    157  C2'       13.0420    9.4870    2.9450 C.3    22  U22         0.2309
    158  O2'       12.5470    9.2790    4.2530 O.3    22  U22        -0.2156
    159  C1'       14.2940   10.3630    2.9740 C.3    22  U22         0.2420
    160  N1        13.9580   11.7930    2.9700 N.ar   22  U22        -0.2534
    161  C2        14.2420   12.5350    4.1050 C.ar   22  U22         0.3546
    162  O2        14.8050   12.0710    5.0840 O.2    22  U22        -0.2443
    163  N3        13.8430   13.8450    4.0500 N.ar   22  U22        -0.1530
    164  C4        13.2110   14.4780    2.9960 C.ar   22  U22         0.2846
    165  O4        12.8630   15.6510    3.1170 O.2    22  U22        -0.2650
    166  C5        12.9810   13.6500    1.8560 C.ar   22  U22         0.0814
    167  C6        13.3550   12.3700    1.8800 C.ar   22  U22         0.0870
    168  OP1       12.0700   10.8290   -2.2370 O.2    22  U22        -0.5172
    169  OP2       11.4730    8.4260   -1.5800 O.co2  22  U22        -0.4373
    170  P         14.7010    5.9230    2.9090 P.3    23  A23         0.2141
    171  C5'       17.0850    6.9050    3.3850 C.3    23  A23         0.1812
    172  O5'       16.2490    6.0760    2.5810 O.3    23  A23        -0.3114
    173  C4'       18.3180    7.2950    2.6130 C.3    23  A23         0.1773
    174  O4'       17.9170    7.8660    1.3440 O.3    23  A23        -0.3307
    175  C3'       19.1880    8.3690    3.2480 C.3    23  A23         0.1860
    176  O3'       20.1090    7.7780    4.1650 O.3    23  A23        -0.3112
    177  C2'       19.9320    8.9430    2.0400 C.3    23  A23         0.2309
    178  O2'       21.1020    8.2190    1.7120 O.3    23  A23        -0.2156
    179  C1'       18.9040    8.7840    0.9140 C.3    23  A23         0.2408
    180  N1        16.9810   13.3440    2.3840 N.ar   23  A23        -0.2040
    181  C2        17.5850   12.3670    3.0700 C.ar   23  A23         0.2016
    182  N3        18.0700   11.2060    2.6330 N.ar   23  A23        -0.2048
    183  C4        17.8830   11.0830    1.3070 C.ar   23  A23         0.1692
    184  C5        17.2810   12.0040    0.4680 C.ar   23  A23         0.1518
    185  C6        16.8090   13.1890    1.0530 C.ar   23  A23         0.1919
    186  N6        16.2020   14.1610    0.3670 N.pl3  23  A23        -0.1054
    187  N7        17.2650   11.5380   -0.8400 N.ar   23  A23        -0.2193
    188  C8        17.8430   10.3650   -0.7630 C.ar   23  A23         0.1816
    189  N9        18.2400   10.0240    0.5070 N.ar   23  A23        -0.2693
    190  OP1       14.0150    5.5040    1.6580 O.2    23  A23        -0.5172
    191  OP2       14.5710    5.0910    4.1290 O.co2  23  A23        -0.4373
    192  P         19.8840    7.9390    5.7540 P.3    24  U24         0.2141
    193  C5'       19.5760   10.5490    5.9360 C.3    24  U24         0.1812
    194  O5'       20.4120    9.4050    6.1020 O.3    24  U24        -0.3114
    195  C4'       19.3860   11.2710    7.2560 C.3    24  U24         0.1773
    196  O4'       18.5090   10.4990    8.1130 O.3    24  U24        -0.3307
    197  C3'       20.6260   11.4910    8.1090 C.3    24  U24         0.1860
    198  O3'       21.3180   12.6720    7.6990 O.3    24  U24        -0.3112
    199  C2'       20.0320   11.7000    9.5050 C.3    24  U24         0.2309
    200  O2'       19.6560   13.0420    9.7380 O.3    24  U24        -0.2156
    201  C1'       18.7690   10.8320    9.4650 C.3    24  U24         0.2420
    202  N1        18.8530    9.5900   10.2490 N.ar   24  U24        -0.2534
    203  C2        18.9080    9.6970   11.6310 C.ar   24  U24         0.3546
    204  O2        18.9390   10.7680   12.2140 O.2    24  U24        -0.2443
    205  N3        18.9270    8.5010   12.3050 N.ar   24  U24        -0.1530
    206  C4        18.9070    7.2380   11.7570 C.ar   24  U24         0.2846
    207  O4        18.8620    6.2560   12.5030 O.2    24  U24        -0.2650
    208  C5        18.8830    7.2080   10.3250 C.ar   24  U24         0.0814
    209  C6        18.8570    8.3550    9.6370 C.ar   24  U24         0.0870
    210  OP1       20.7890    6.9640    6.4170 O.3    24  U24        -0.4373
    211  OP2       18.4290    7.8880    6.0270 O.co2  24  U24        -0.5172
    212  P         22.7770   12.5520    7.0280 P.3    25  A25         0.2141
    213  C5'       22.6660   13.2480    4.4900 C.3    25  A25         0.1812
    214  O5'       22.4630   12.2570    5.4960 O.3    25  A25        -0.3114
    215  C4'       22.3540   12.6630    3.1310 C.3    25  A25         0.1773
    216  O4'       20.9390   12.8340    2.8430 O.3    25  A25        -0.3307
    217  C3'       23.0270   13.3130    1.9360 C.3    25  A25         0.1860
    218  O3'       24.3650   12.8530    1.7800 O.3    25  A25        -0.3112
    219  C2'       22.1360   12.8290    0.8000 C.3    25  A25         0.2309
    220  O2'       22.3610   11.4750    0.4630 O.3    25  A25        -0.2156
    221  C1'       20.7540   12.9650    1.4390 C.3    25  A25         0.2408
    222  N1        18.7350   16.0310   -2.1570 N.ar   25  A25        -0.2040
    223  C2        19.2520   14.7960   -2.2100 C.ar   25  A25         0.2016
    224  N3        19.7640   14.0540   -1.2300 N.ar   25  A25        -0.2048
    225  C4        19.7150   14.7130   -0.0600 C.ar   25  A25         0.1692
    226  C5        19.2170   15.9840    0.1540 C.ar   25  A25         0.1518
    227  C6        18.7050   16.6670   -0.9660 C.ar   25  A25         0.1919
    228  N6        18.1970   17.9010   -0.9130 N.pl3  25  A25        -0.1054
    229  N7        19.3320   16.3370    1.4920 N.ar   25  A25        -0.2193
    230  C8        19.8830   15.2870    2.0490 C.ar   25  A25         0.1816
    231  N9        20.1440   14.2660    1.1680 N.ar   25  A25        -0.2693
    232  OP1       23.4350   11.3530    7.6070 O.3    25  A25        -0.4373
    233  OP2       23.4530   13.8700    7.1180 O.co2  25  A25        -0.5172
    234  P         25.5640   13.9180    1.6960 P.3    26  C26         0.2141
    235  C5'       24.9810   14.2620   -0.8420 C.3    26  C26         0.1812
    236  O5'       25.1900   14.8340    0.4450 O.3    26  C26        -0.3114
    237  C4'       24.3480   15.2740   -1.7670 C.3    26  C26         0.1773
    238  O4'       22.9880   15.5480   -1.3320 O.3    26  C26        -0.3307
    239  C3'       25.0030   16.6450   -1.7830 C.3    26  C26         0.1860
    240  O3'       26.1280   16.6680   -2.6510 O.3    26  C26        -0.3112
    241  C2'       23.8730   17.5170   -2.3080 C.3    26  C26         0.2309
    242  O2'       23.6850   17.3870   -3.7040 O.3    26  C26        -0.2156
    243  C1'       22.6780   16.9160   -1.5660 C.3    26  C26         0.2420
    244  N1        22.4240   17.5700   -0.2700 N.ar   26  C26        -0.2535
    245  C2        21.7390   18.7890   -0.2600 C.ar   26  C26         0.3532
    246  O2        21.3930   19.2880   -1.3390 O.2    26  C26        -0.2443
    247  N3        21.4800   19.3950    0.9230 N.ar   26  C26        -0.1739
    248  C4        21.8850   18.8340    2.0620 C.ar   26  C26         0.1759
    249  N4        21.6030   19.4660    3.2040 N.pl3  26  C26        -0.1070
    250  C5        22.5980   17.5980    2.0820 C.ar   26  C26         0.0566
    251  C6        22.8420   17.0050    0.9040 C.ar   26  C26         0.0850
    252  OP1       26.8150   13.1790    1.3830 O.2    26  C26        -0.5172
    253  OP2       25.5000   14.7660    2.9120 O.co2  26  C26        -0.4373
    254  P         27.3700   17.6270   -2.3080 P.3    27  G27         0.2141
    255  C5'       26.3850   19.4200   -3.9570 C.3    27  G27         0.1812
    256  O5'       26.8270   19.0860   -2.6440 O.3    27  G27        -0.3114
    257  C4'       26.0440   20.8900   -4.0310 C.3    27  G27         0.1773
    258  O4'       24.7660   21.1330   -3.3910 O.3    27  G27        -0.3307
    259  C3'       26.9880   21.8120   -3.2810 C.3    27  G27         0.1860
    260  O3'       28.1550   22.0600   -4.0500 O.3    27  G27        -0.3112
    261  C2'       26.1260   23.0560   -3.1200 C.3    27  G27         0.2309
    262  O2'       26.0470   23.8250   -4.3050 O.3    27  G27        -0.2156
    263  C1'       24.7640   22.4300   -2.8110 C.3    27  G27         0.2408
    264  N1        23.2880   24.7710    1.4380 N.ar   27  G27        -0.1709
    265  C2        23.3810   25.2610    0.1560 C.ar   27  G27         0.2606
    266  N2        23.0410   26.5430   -0.0180 N.pl3  27  G27        -0.0859
    267  N3        23.7780   24.5420   -0.8830 N.ar   27  G27        -0.1918
    268  C4        24.0810   23.2750   -0.5310 C.ar   27  G27         0.1723
    269  C5        24.0190   22.6870    0.7150 C.ar   27  G27         0.1748
    270  C6        23.5830   23.4630    1.8170 C.ar   27  G27         0.3023
    271  O6        23.4410   23.1110    2.9980 O.2    27  G27        -0.2633
    272  N7        24.4240   21.3620    0.6540 N.ar   27  G27        -0.2173
    273  C8        24.7130   21.1700   -0.6040 C.ar   27  G27         0.1817
    274  N9        24.5280   22.2920   -1.3770 N.ar   27  G27        -0.2693
    275  OP1       28.4620   17.2760   -3.2550 O.2    27  G27        -0.5172
    276  OP2       27.6240   17.5730   -0.8400 O.co2  27  G27        -0.4373
    277  P         29.4570   22.6860   -3.3440 P.3    28  C28         0.2141
    278  C5'       29.3580   24.5720   -1.5220 C.3    28  C28         0.1812
    279  O5'       28.9060   24.0560   -2.7620 O.3    28  C28        -0.3114
    280  C4'       28.6850   25.8920   -1.2670 C.3    28  C28         0.1773
    281  O4'       27.2780   25.6630   -0.9680 O.3    28  C28        -0.3307
    282  C3'       29.1990   26.7080   -0.0930 C.3    28  C28         0.1860
    283  O3'       30.3370   27.4620   -0.4970 O.3    28  C28        -0.3112
    284  C2'       27.9880   27.5880    0.1820 C.3    28  C28         0.2309
    285  O2'       27.8200   28.5920   -0.8000 O.3    28  C28        -0.2156
    286  C1'       26.8560   26.5660    0.0450 C.3    28  C28         0.2420
    287  N1        26.6440   25.8040    1.2900 N.ar   28  C28        -0.2535
    288  C2        26.0810   26.4600    2.3820 C.ar   28  C28         0.3532
    289  O2        25.7200   27.6400    2.2500 O.2    28  C28        -0.2443
    290  N3        25.9360   25.7930    3.5550 N.ar   28  C28        -0.1739
    291  C4        26.3160   24.5170    3.6480 C.ar   28  C28         0.1759
    292  N4        26.1700   23.9030    4.8280 N.pl3  28  C28        -0.1070
    293  C5        26.8650   23.8140    2.5360 C.ar   28  C28         0.0566
    294  C6        27.0080   24.4890    1.3870 C.ar   28  C28         0.0850
    295  OP1       30.4540   22.9970   -4.4040 O.2    28  C28        -0.5172
    296  OP2       29.8470   21.8140   -2.2010 O.co2  28  C28        -0.4373
    297  P         31.4560   27.8800    0.5840 P.3    29  G29         0.2141
    298  C5'       30.3730   30.2640    0.6880 C.3    29  G29         0.1812
    299  O5'       30.7780   29.0840    1.3680 O.3    29  G29        -0.3114
    300  C4'       29.6780   31.1930    1.6450 C.3    29  G29         0.1773
    301  O4'       28.4210   30.5930    2.0750 O.3    29  G29        -0.3307
    302  C3'       30.4280   31.4530    2.9420 C.3    29  G29         0.1860
    303  O3'       31.4090   32.4740    2.7500 O.3    29  G29        -0.3112
    304  C2'       29.2840   31.8940    3.8490 C.3    29  G29         0.2309
    305  O2'       28.8380   33.2060    3.5710 O.3    29  G29        -0.2156
    306  C1'       28.1950   30.8970    3.4450 C.3    29  G29         0.2408
    307  N1        27.2760   28.6980    7.9210 N.ar   29  G29        -0.1709
    308  C2        27.1000   30.0010    7.5320 C.ar   29  G29         0.2606
    309  N2        26.6210   30.8340    8.4650 N.pl3  29  G29        -0.0859
    310  N3        27.3780   30.4570    6.3200 N.ar   29  G29        -0.1918
    311  C4        27.8700   29.4920    5.5190 C.ar   29  G29         0.1723
    312  C5        28.0940   28.1630    5.8080 C.ar   29  G29         0.1748
    313  C6        27.7740   27.6830    7.1130 C.ar   29  G29         0.3023
    314  O6        27.8830   26.5370    7.5640 O.2    29  G29        -0.2633
    315  N7        28.6210   27.5000    4.7050 N.ar   29  G29        -0.2173
    316  C8        28.6960   28.4220    3.7800 C.ar   29  G29         0.1817
    317  N9        28.2540   29.6530    4.2090 N.ar   29  G29        -0.2693
    318  OP1       32.6410   28.4000   -0.1370 O.2    29  G29        -0.5172
    319  OP2       31.6280   26.7730    1.5590 O.co2  29  G29        -0.4373
    320  P         32.8940   32.3050    3.3600 P.3    30  U30         0.2141
    321  C5'       32.4020   33.9810    5.3100 C.3    30  U30         0.1812
    322  O5'       32.7000   32.6530    4.9030 O.3    30  U30        -0.3114
    323  C4'       32.0670   34.0130    6.7800 C.3    30  U30         0.1773
    324  O4'       30.8060   33.3310    7.0040 O.3    30  U30        -0.3307
    325  C3'       33.0250   33.2830    7.7060 C.3    30  U30         0.1860
    326  O3'       34.1880   34.0620    7.9770 O.3    30  U30        -0.3112
    327  C2'       32.1470   33.1240    8.9370 C.3    30  U30         0.2309
    328  O2'       31.9830   34.3500    9.6320 O.3    30  U30        -0.2156
    329  C1'       30.8300   32.7040    8.2790 C.3    30  U30         0.2420
    330  N1        30.7980   31.2480    8.0870 N.ar   30  U30        -0.2534
    331  C2        30.4480   30.4930    9.1770 C.ar   30  U30         0.3546
    332  O2        30.1250   30.9940   10.2440 O.2    30  U30        -0.2443
    333  N3        30.4930   29.1340    8.9820 N.ar   30  U30        -0.1530
    334  C4        30.8470   28.4740    7.8210 C.ar   30  U30         0.2846
    335  O4        30.9090   27.2420    7.8200 O.2    30  U30        -0.2650
    336  C5        31.1690   29.3340    6.7190 C.ar   30  U30         0.0814
    337  C6        31.1310   30.6590    6.8860 C.ar   30  U30         0.0870
    338  OP1       33.7410   33.3590    2.7460 O.2    30  U30        -0.5172
    339  OP2       33.3290   30.8890    3.2890 O.co2  30  U30        -0.4373
    340  P         35.5930   33.3330    8.2580 P.3    31  G31         0.2141
    341  C5'       35.3160   33.7170   10.8360 C.3    31  G31         0.1812
    342  O5'       35.4650   32.8040    9.7560 O.3    31  G31        -0.3114
    343  C4'       34.7460   33.0080   12.0380 C.3    31  G31         0.1773
    344  O4'       33.5080   32.3410   11.6570 O.3    31  G31        -0.3307
    345  C3'       35.5780   31.8690   12.6060 C.3    31  G31         0.1860
    346  O3'       36.6410   32.3380   13.4320 O.3    31  G31        -0.3112
    347  C2'       34.5220   31.1350   13.4140 C.3    31  G31         0.2309
    348  O2'       34.1720   31.8400   14.5900 O.3    31  G31        -0.2156
    349  C1'       33.3510   31.1620   12.4290 C.3    31  G31         0.2408
    350  N1        32.9610   26.1350   12.1850 N.ar   31  G31        -0.1709
    351  C2        32.7700   26.9840   13.2490 C.ar   31  G31         0.2606
    352  N2        32.4600   26.4080   14.4290 N.pl3  31  G31        -0.0859
    353  N3        32.8720   28.2990   13.1700 N.ar   31  G31        -0.1918
    354  C4        33.1870   28.7090   11.9230 C.ar   31  G31         0.1723
    355  C5        33.3940   27.9500   10.7930 C.ar   31  G31         0.1748
    356  C6        33.2830   26.5330   10.8920 C.ar   31  G31         0.3023
    357  O6        33.4390   25.6880   10.0150 O.2    31  G31        -0.2633
    358  N7        33.7050   28.7580    9.7080 N.ar   31  G31        -0.2173
    359  C8        33.6900   29.9730   10.1960 C.ar   31  G31         0.1817
    360  N9        33.3980   30.0060   11.5400 N.ar   31  G31        -0.2693
    361  OP1       36.6650   34.3600    8.2450 O.3    31  G31        -0.4373
    362  OP2       35.7160   32.1360    7.3870 O.co2  31  G31        -0.5172
    363  P         37.9520   31.4240   13.6420 P.3    32  G32         0.2141
    364  C5'       36.8300   30.2820   15.7270 C.3    32  G32         0.1812
    365  O5'       37.4180   30.1500   14.4350 O.3    32  G32        -0.3114
    366  C4'       36.5140   28.9180   16.2870 C.3    32  G32         0.1773
    367  O4'       35.4620   28.3080   15.4910 O.3    32  G32        -0.3307
    368  C3'       37.6510   27.9190   16.2040 C.3    32  G32         0.1860
    369  O3'       38.5270   28.0740   17.3100 O.3    32  G32        -0.3112
    370  C2'       36.9020   26.5980   16.2630 C.3    32  G32         0.2309
    371  O2'       36.4390   26.2830   17.5630 O.3    32  G32        -0.2156
    372  C1'       35.7050   26.9120   15.3680 C.3    32  G32         0.2408
    373  N1        36.1580   23.2390   11.8870 N.ar   32  G32        -0.1709
    374  C2        35.9000   23.1460   13.2380 C.ar   32  G32         0.2606
    375  N2        35.7460   21.9070   13.7300 N.pl3  32  G32        -0.0859
    376  N3        35.8070   24.1920   14.0490 N.ar   32  G32        -0.1918
    377  C4        36.0050   25.3540   13.4010 C.ar   32  G32         0.1723
    378  C5        36.2750   25.5590   12.0630 C.ar   32  G32         0.1748
    379  C6        36.3670   24.4240   11.1960 C.ar   32  G32         0.3023
    380  O6        36.6000   24.3930    9.9750 O.2    32  G32        -0.2633
    381  N7        36.4120   26.9140   11.7930 N.ar   32  G32        -0.2173
    382  C8        36.2230   27.4960   12.9480 C.ar   32  G32         0.1817
    383  N9        35.9680   26.6070   13.9640 N.ar   32  G32        -0.2693
    384  OP1       38.8910   32.1710   14.5230 O.3    32  G32        -0.4373
    385  OP2       38.4290   30.9150   12.3250 O.co2  32  G32        -0.5172
    386  P         40.0320   27.5480   17.2010 P.3    33  A33         0.2141
    387  C5'       39.3900   25.3850   18.5240 C.3    33  A33         0.1812
    388  O5'       39.8880   25.9650   17.3260 O.3    33  A33        -0.3114
    389  C4'       39.3290   23.8870   18.3920 C.3    33  A33         0.1773
    390  O4'       38.3870   23.5120   17.3550 O.3    33  A33        -0.3307
    391  C3'       40.6050   23.2020   17.9400 C.3    33  A33         0.1860
    392  O3'       41.5330   23.0990   19.0200 O.3    33  A33        -0.3112
    393  C2'       40.0570   21.8410   17.5330 C.3    33  A33         0.2309
    394  O2'       39.7310   21.0520   18.6650 O.3    33  A33        -0.2156
    395  C1'       38.7620   22.2490   16.8240 C.3    33  A33         0.2408
    396  N1        39.4490   19.7290   12.3960 N.ar   33  A33        -0.2040
    397  C2        39.3970   19.3180   13.6720 C.ar   33  A33         0.2016
    398  N3        39.2280   20.0370   14.7850 N.ar   33  A33        -0.2048
    399  C4        39.1100   21.3440   14.4910 C.ar   33  A33         0.1692
    400  C5        39.1530   21.9200   13.2340 C.ar   33  A33         0.1518
    401  C6        39.3190   21.0490   12.1360 C.ar   33  A33         0.1919
    402  N6        39.3450   21.4550   10.8620 N.pl3  33  A33        -0.1054
    403  N7        39.0180   23.3000   13.3210 N.ar   33  A33        -0.2193
    404  C8        38.8760   23.5230   14.6080 C.ar   33  A33         0.1816
    405  N9        38.9120   22.3810   15.3730 N.ar   33  A33        -0.2693
    406  OP1       40.7550   28.0390   18.4050 O.3    33  A33        -0.4373
    407  OP2       40.5750   27.8330   15.8510 O.co2  33  A33        -0.5172
    408  P         43.1130   23.1690   18.7270 P.3    34  U34         0.2141
    409  C5'       43.0320   20.5440   18.5860 C.3    34  U34         0.1812
    410  O5'       43.4460   21.7810   18.0190 O.3    34  U34        -0.3114
    411  C4'       43.2330   19.4260   17.5920 C.3    34  U34         0.1773
    412  O4'       42.4290   19.6790   16.4030 O.3    34  U34        -0.3307
    413  C3'       44.6730   19.2410   17.1140 C.3    34  U34         0.1860
    414  O3'       44.9780   17.8610   17.0170 O.3    34  U34        -0.3112
    415  C2'       44.6590   19.8460   15.7150 C.3    34  U34         0.2309
    416  O2'       45.5740   19.2470   14.8260 O.3    34  U34        -0.2156
    417  C1'       43.2380   19.5430   15.2520 C.3    34  U34         0.2420
    418  N1        42.8380   20.5480   14.2580 N.ar   34  U34        -0.2534
    419  C2        42.7560   20.1560   12.9320 C.ar   34  U34         0.3546
    420  O2        42.9230   19.0080   12.5720 O.2    34  U34        -0.2443
    421  N3        42.4720   21.1670   12.0440 N.ar   34  U34        -0.1530
    422  C4        42.2580   22.4950   12.3410 C.ar   34  U34         0.2846
    423  O4        42.1170   23.3050   11.4230 O.2    34  U34        -0.2650
    424  C5        42.3190   22.8110   13.7380 C.ar   34  U34         0.0814
    425  C6        42.5950   21.8480   14.6250 C.ar   34  U34         0.0870
    426  OP1       43.8140   23.2130   20.0410 O.3    34  U34        -0.4373
    427  OP2       43.3700   24.2340   17.7270 O.co2  34  U34        -0.5172
    428  P         46.0480   17.2020   18.0170 P.3    35  A35         0.2141
    429  C5'       44.5360   15.0750   18.2310 C.3    35  A35         0.1812
    430  O5'       45.7740   15.6500   17.8330 O.3    35  A35        -0.3114
    431  C4'       44.5760   13.5920   17.9960 C.3    35  A35         0.1773
    432  O4'       44.4880   13.3470   16.5670 O.3    35  A35        -0.3307
    433  C3'       45.8660   12.9420   18.4670 C.3    35  A35         0.1860
    434  O3'       45.6070   11.6640   19.0410 O.3    35  A35        -0.3112
    435  C2'       46.7220   12.8890   17.2000 C.3    35  A35         0.2309
    436  O2'       47.6410   11.8150   17.2080 O.3    35  A35        -0.2156
    437  C1'       45.6680   12.7210   16.1010 C.3    35  A35         0.2408
    438  N1        47.8490   12.1010   11.4580 N.ar   35  A35        -0.2040
    439  C2        47.6190   11.2480   12.4640 C.ar   35  A35         0.2016
    440  N3        47.0340   11.4690   13.6440 N.ar   35  A35        -0.2048
    441  C4        46.6490   12.7510   13.7520 C.ar   35  A35         0.1692
    442  C5        46.8080   13.7460   12.8010 C.ar   35  A35         0.1518
    443  C6        47.4530   13.3840   11.5970 C.ar   35  A35         0.1919
    444  N6        47.6990   14.2380   10.5970 N.pl3  35  A35        -0.1054
    445  N7        46.2790   14.9460   13.2530 N.ar   35  A35        -0.2193
    446  C8        45.8290   14.6590   14.4550 C.ar   35  A35         0.1816
    447  N9        46.0290   13.3510   14.8250 N.ar   35  A35        -0.2693
    448  OP1       45.6770   17.5770   19.4060 O.3    35  A35        -0.4373
    449  OP2       47.4180   17.4840   17.5270 O.co2  35  A35        -0.5172
    450  P         45.5810   11.5020   20.6480 P.3    36  U36         0.2141
    451  C5'       43.0610   11.8190   21.3930 C.3    36  U36         0.1812
    452  O5'       44.3390   12.3900   21.1190 O.3    36  U36        -0.3114
    453  C4'       42.3290   12.6370   22.4470 C.3    36  U36         0.1773
    454  O4'       43.1240   12.6660   23.6670 O.3    36  U36        -0.3307
    455  C3'       42.0510   14.1040   22.1000 C.3    36  U36         0.1860
    456  O3'       40.8440   14.5500   22.7260 O.3    36  U36        -0.3112
    457  C2'       43.2180   14.8140   22.7760 C.3    36  U36         0.2309
    458  O2'       42.9550   16.1760   23.0630 O.3    36  U36        -0.2156
    459  C1'       43.3210   14.0060   24.0680 C.3    36  U36         0.2420
    460  N1        44.6180   14.0980   24.7550 N.ar   36  U36        -0.2534
    461  C2        44.6260   14.6190   26.0370 C.ar   36  U36         0.3546
    462  O2        43.6130   14.9870   26.6020 O.2    36  U36        -0.2443
    463  N3        45.8670   14.6840   26.6300 N.ar   36  U36        -0.1530
    464  C4        47.0700   14.2830   26.0810 C.ar   36  U36         0.2846
    465  O4        48.1090   14.4040   26.7370 O.2    36  U36        -0.2650
    466  C5        46.9730   13.7510   24.7540 C.ar   36  U36         0.0814
    467  C6        45.7810   13.6800   24.1520 C.ar   36  U36         0.0870
    468  OP1       46.8050   12.1480   21.1760 O.3    36  U36        -0.4373
    469  OP2       45.3150   10.0710   20.9690 O.co2  36  U36        -0.5172
    470  P         39.4220   14.3060   22.0180 P.3    37  G37         0.2141
    471  C5'       39.4420   16.7880   21.1110 C.3    37  G37         0.1812
    472  O5'       39.3750   15.3890   20.8470 O.3    37  G37        -0.3114
    473  C4'       39.3520   17.5590   19.8090 C.3    37  G37         0.1773
    474  O4'       40.6010   17.4060   19.0780 O.3    37  G37        -0.3307
    475  C3'       38.2830   17.0690   18.8430 C.3    37  G37         0.1860
    476  O3'       37.0370   17.6970   19.1120 O.3    37  G37        -0.3112
    477  C2'       38.8470   17.5140   17.4970 C.3    37  G37         0.2309
    478  O2'       38.6430   18.8950   17.2530 O.3    37  G37        -0.2156
    479  C1'       40.3340   17.2210   17.6930 C.3    37  G37         0.2408
    480  N1        42.1410   14.1180   14.0800 N.ar   37  G37        -0.1709
    481  C2        41.9040   15.4690   14.0210 C.ar   37  G37         0.2606
    482  N2        42.2150   16.0730   12.8530 N.pl3  37  G37        -0.0859
    483  N3        41.4090   16.1800   15.0300 N.ar   37  G37        -0.1918
    484  C4        41.1910   15.4160   16.1250 C.ar   37  G37         0.1723
    485  C5        41.4070   14.0620   16.2850 C.ar   37  G37         0.1748
    486  C6        41.9190   13.3140   15.1940 C.ar   37  G37         0.3023
    487  O6        42.1700   12.1080   15.1420 O.2    37  G37        -0.2633
    488  N7        41.0650   13.6560   17.5680 N.ar   37  G37        -0.2173
    489  C8        40.6530   14.7480   18.1550 C.ar   37  G37         0.1817
    490  N9        40.7070   15.8540   17.3390 N.ar   37  G37        -0.2693
    491  OP1       38.3660   14.6380   23.0060 O.3    37  G37        -0.4373
    492  OP2       39.4240   12.9700   21.3640 O.co2  37  G37        -0.5172
    493  P         35.6720   16.9150   18.8150 P.3    38  G38         0.2141
    494  C5'       35.3120   18.0890   16.4830 C.3    38  G38         0.1812
    495  O5'       35.5690   16.8990   17.2210 O.3    38  G38        -0.3114
    496  C4'       35.5400   17.8390   15.0060 C.3    38  G38         0.1773
    497  O4'       36.9330   17.4790   14.7940 O.3    38  G38        -0.3307
    498  C3'       34.7610   16.6710   14.4230 C.3    38  G38         0.1860
    499  O3'       33.4430   17.0740   14.0580 O.3    38  G38        -0.3112
    500  C2'       35.6140   16.2950   13.2110 C.3    38  G38         0.2309
    501  O2'       35.3950   17.0970   12.0660 O.3    38  G38        -0.2156
    502  C1'       37.0260   16.5140   13.7560 C.3    38  G38         0.2408
    503  N1        39.6690   12.3210   12.7840 N.ar   38  G38        -0.1709
    504  C2        39.5110   13.4480   12.0190 C.ar   38  G38         0.2606
    505  N2        40.1070   13.4350   10.8110 N.pl3  38  G38        -0.0859
    506  N3        38.8280   14.5110   12.4080 N.ar   38  G38        -0.1918
    507  C4        38.3270   14.3630   13.6520 C.ar   38  G38         0.1723
    508  C5        38.4470   13.2890   14.5080 C.ar   38  G38         0.1748
    509  C6        39.1580   12.1420   14.0650 C.ar   38  G38         0.3023
    510  O6        39.3460   11.0720   14.6570 O.2    38  G38        -0.2633
    511  N7        37.8010   13.5450   15.7140 N.ar   38  G38        -0.2173
    512  C8        37.2900   14.7350   15.5560 C.ar   38  G38         0.1817
    513  N9        37.5420   15.2680   14.3120 N.ar   38  G38        -0.2693
    514  OP1       34.5590   17.7250   19.3650 O.3    38  G38        -0.4373
    515  OP2       35.8410   15.4980   19.2470 O.co2  38  G38        -0.5172
    516  P         32.1850   16.1480   14.4430 P.3    39  C39         0.2141
    517  C5'       30.5640   18.0390   15.2870 C.3    39  C39         0.1812
    518  O5'       31.4290   16.9500   15.5980 O.3    39  C39        -0.3114
    519  C4'       30.9290   19.2500   16.1090 C.3    39  C39         0.1773
    520  O4'       32.2480   19.7260   15.7130 O.3    39  C39        -0.3307
    521  C3'       30.0020   20.4430   15.9250 C.3    39  C39         0.1860
    522  O3'       28.9040   20.3540   16.8350 O.3    39  C39        -0.3112
    523  C2'       30.9170   21.6140   16.2620 C.3    39  C39         0.2309
    524  O2'       31.0450   21.8050   17.6600 O.3    39  C39        -0.2156
    525  C1'       32.2460   21.1470   15.6590 C.3    39  C39         0.2420
    526  N1        32.4320   21.5570   14.2540 N.ar   39  C39        -0.2535
    527  C2        32.5350   22.9200   13.9570 C.ar   39  C39         0.3532
    528  O2        32.4570   23.7430   14.8840 O.2    39  C39        -0.2443
    529  N3        32.7130   23.3070   12.6700 N.ar   39  C39        -0.1739
    530  C4        32.7850   22.3910   11.7020 C.ar   39  C39         0.1759
    531  N4        32.9740   22.8140   10.4480 N.pl3  39  C39        -0.1070
    532  C5        32.6720   20.9950   11.9760 C.ar   39  C39         0.0566
    533  C6        32.5020   20.6270   13.2540 C.ar   39  C39         0.0850
    534  OP1       32.6880   14.8780   15.0340 O.3    39  C39        -0.4373
    535  OP2       31.3100   16.1040   13.2430 O.co2  39  C39        -0.5172
    536  P         27.5050   21.0750   16.4840 P.3    40  A40         0.2141
    537  C5'       27.9940   23.2600   17.8560 C.3    40  A40         0.1812
    538  O5'       27.8310   22.6310   16.5930 O.3    40  A40        -0.3114
    539  C4'       28.0180   24.7590   17.6860 C.3    40  A40         0.1773
    540  O4'       29.2220   25.1480   16.9740 O.3    40  A40        -0.3307
    541  C3'       26.8990   25.3290   16.8330 C.3    40  A40         0.1860
    542  O3'       25.7110   25.4880   17.6010 O.3    40  A40        -0.3112
    543  C2'       27.5000   26.6610   16.4090 C.3    40  A40         0.2309
    544  O2'       27.5110   27.5960   17.4740 O.3    40  A40        -0.2156
    545  C1'       28.9350   26.2350   16.0990 C.3    40  A40         0.2408
    546  N1        29.8490   27.6210   11.2100 N.ar   40  A40        -0.2040
    547  C2        29.6310   28.3360   12.3250 C.ar   40  A40         0.2016
    548  N3        29.3830   27.9140   13.5670 N.ar   40  A40        -0.2048
    549  C4        29.3580   26.5720   13.6150 C.ar   40  A40         0.1692
    550  C5        29.5530   25.7000   12.5560 C.ar   40  A40         0.1518
    551  C6        29.8220   26.2720   11.2930 C.ar   40  A40         0.1919
    552  N6        30.0600   25.5560   10.1820 N.pl3  40  A40        -0.1054
    553  N7        29.4500   24.3850   12.9800 N.ar   40  A40        -0.2193
    554  C8        29.2120   24.4850   14.2680 C.ar   40  A40         0.1816
    555  N9        29.1530   25.7820   14.7210 N.ar   40  A40        -0.2693
    556  OP1       26.5380   20.7190   17.5570 O.3    40  A40        -0.4373
    557  OP2       27.1530   20.7920   15.0630 O.co2  40  A40        -0.5172
    558  P         24.2810   25.3670   16.8830 P.3    41  C41         0.2141
    559  C5'       24.0560   27.9730   16.6330 C.3    41  C41         0.1812
    560  O5'       24.1670   26.6960   16.0060 O.3    41  C41        -0.3114
    561  C4'       24.2180   29.0870   15.6190 C.3    41  C41         0.1773
    562  O4'       25.5560   29.0620   15.0470 O.3    41  C41        -0.3307
    563  C3'       23.3280   29.0440   14.3930 C.3    41  C41         0.1860
    564  O3'       21.9930   29.4600   14.6620 O.3    41  C41        -0.3112
    565  C2'       24.0680   30.0030   13.4740 C.3    41  C41         0.2309
    566  O2'       23.9350   31.3630   13.8530 O.3    41  C41        -0.2156
    567  C1'       25.5050   29.5400   13.7080 C.3    41  C41         0.2420
    568  N1        25.8460   28.4380   12.7930 N.ar   41  C41        -0.2535
    569  C2        26.1930   28.7610   11.4850 C.ar   41  C41         0.3532
    570  O2        26.2310   29.9600   11.1600 O.2    41  C41        -0.2443
    571  N3        26.4750   27.7750   10.6090 N.ar   41  C41        -0.1739
    572  C4        26.4160   26.5010   10.9970 C.ar   41  C41         0.1759
    573  N4        26.6800   25.5600   10.0830 N.pl3  41  C41        -0.1070
    574  C5        26.0790   26.1360   12.3350 C.ar   41  C41         0.0566
    575  C6        25.8070   27.1300   13.1950 C.ar   41  C41         0.0850
    576  OP1       23.2300   25.4020   17.9420 O.3    41  C41        -0.4373
    577  OP2       24.3460   24.2120   15.9490 O.co2  41  C41        -0.5172
    578  P         20.7810   28.7700   13.8680 P.3    42  G42         0.2141
    579  C5'       20.7520   30.7300   12.1260 C.3    42  G42         0.1812
    580  O5'       20.9180   29.3380   12.3830 O.3    42  G42        -0.3114
    581  C4'       21.1810   31.0700   10.7150 C.3    42  G42         0.1773
    582  O4'       22.5860   30.7480   10.5230 O.3    42  G42        -0.3307
    583  C3'       20.5060   30.3290    9.5710 C.3    42  G42         0.1860
    584  O3'       19.2050   30.8410    9.2960 O.3    42  G42        -0.3112
    585  C2'       21.4720   30.6340    8.4350 C.3    42  G42         0.2309
    586  O2'       21.3590   31.9550    7.9550 O.3    42  G42        -0.2156
    587  C1'       22.8170   30.4720    9.1450 C.3    42  G42         0.2408
    588  N1        24.7960   27.1000    5.9370 N.ar   42  G42        -0.1709
    589  C2        24.5430   28.4410    5.7530 C.ar   42  G42         0.2606
    590  N2        24.8310   28.9470    4.5390 N.pl3  42  G42        -0.0859
    591  N3        24.0440   29.2280    6.6910 N.ar   42  G42        -0.1918
    592  C4        23.8150   28.5600    7.8470 C.ar   42  G42         0.1723
    593  C5        24.0340   27.2310    8.1310 C.ar   42  G42         0.1748
    594  C6        24.5650   26.3960    7.1210 C.ar   42  G42         0.3023
    595  O6        24.8220   25.1910    7.1820 O.2    42  G42        -0.2633
    596  N7        23.6660   26.9390    9.4390 N.ar   42  G42        -0.2173
    597  C8        23.2320   28.0780    9.9150 C.ar   42  G42         0.1817
    598  N9        23.2780   29.0960    8.9950 N.ar   42  G42        -0.2693
    599  OP1       19.5060   29.2600   14.4460 O.3    42  G42        -0.4373
    600  OP2       21.0490   27.3060   13.8040 O.co2  42  G42        -0.5172
    601  P         18.1510   29.9540    8.4580 P.3    43  C43         0.2141
    602  C5'       18.7570   31.3150    6.2930 C.3    43  C43         0.1812
    603  O5'       18.6610   30.0510    6.9490 O.3    43  C43        -0.3114
    604  C4'       19.2930   31.1530    4.8860 C.3    43  C43         0.1773
    605  O4'       20.6660   30.6750    4.9250 O.3    43  C43        -0.3307
    606  C3'       18.5970   30.1360    3.9970 C.3    43  C43         0.1860
    607  O3'       17.3900   30.6420    3.4420 O.3    43  C43        -0.3112
    608  C2'       19.6480   29.9100    2.9190 C.3    43  C43         0.2309
    609  O2'       19.7020   30.9390    1.9490 O.3    43  C43        -0.2156
    610  C1'       20.9270   29.9040    3.7570 C.3    43  C43         0.2420
    611  N1        21.2820   28.5370    4.1630 N.ar   43  C43        -0.2535
    612  C2        21.9210   27.7180    3.2310 C.ar   43  C43         0.3532
    613  O2        22.1700   28.1770    2.1080 O.2    43  C43        -0.2443
    614  N3        22.2480   26.4510    3.5750 N.ar   43  C43        -0.1739
    615  C4        21.9550   25.9950    4.7970 C.ar   43  C43         0.1759
    616  N4        22.2950   24.7370    5.0950 N.pl3  43  C43        -0.1070
    617  C5        21.3010   26.8110    5.7680 C.ar   43  C43         0.0566
    618  C6        20.9880   28.0650    5.4120 C.ar   43  C43         0.0850
    619  OP1       16.8370   30.6450    8.5440 O.2    43  C43        -0.5172
    620  OP2       18.2690   28.5470    8.9060 O.co2  43  C43        -0.4373
    621  P         16.1970   29.6250    3.0870 P.3    44  G44         0.2141
    622  C5'       16.7050   29.2620    0.5380 C.3    44  G44         0.1812
    623  O5'       16.7630   28.7680    1.8680 O.3    44  G44        -0.3114
    624  C4'       17.5970   28.4440   -0.3670 C.3    44  G44         0.1773
    625  O4'       18.8100   28.0620    0.3360 O.3    44  G44        -0.3307
    626  C3'       17.0550   27.1020   -0.8260 C.3    44  G44         0.1860
    627  O3'       16.1260   27.2500   -1.8870 O.3    44  G44        -0.3112
    628  C2'       18.3300   26.4340   -1.3170 C.3    44  G44         0.2309
    629  O2'       18.7560   26.9450   -2.5630 O.3    44  G44        -0.2156
    630  C1'       19.3170   26.8580   -0.2280 C.3    44  G44         0.2408
    631  N1        20.6620   22.0980    0.9050 N.ar   44  G44        -0.1709
    632  C2        20.6740   22.7430   -0.3060 C.ar   44  G44         0.2606
    633  N2        21.0980   22.0220   -1.3540 N.pl3  44  G44        -0.0859
    634  N3        20.2980   24.0010   -0.4780 N.ar   44  G44        -0.1918
    635  C4        19.8920   24.5690    0.6790 C.ar   44  G44         0.1723
    636  C5        19.8370   24.0110    1.9380 C.ar   44  G44         0.1748
    637  C6        20.2600   22.6630    2.1090 C.ar   44  G44         0.3023
    638  O6        20.3110   21.9940    3.1470 O.2    44  G44        -0.2633
    639  N7        19.3480   24.9280    2.8610 N.ar   44  G44        -0.2173
    640  C8        19.1270   26.0060    2.1600 C.ar   44  G44         0.1817
    641  N9        19.4370   25.8580    0.8290 N.ar   44  G44        -0.2693
    642  OP1       15.0390   30.4250    2.6150 O.2    44  G44        -0.5172
    643  OP2       16.0270   28.6900    4.2270 O.co2  44  G44        -0.4373
    644  P         14.9230   26.1960   -2.0410 P.3    45  A45         0.2141
    645  C5'       16.4030   24.3490   -3.1910 C.3    45  A45         0.1812
    646  O5'       15.6380   24.7720   -2.0650 O.3    45  A45        -0.3114
    647  C4'       16.8270   22.9100   -3.0210 C.3    45  A45         0.1773
    648  O4'       17.7690   22.8140   -1.9200 O.3    45  A45        -0.3307
    649  C3'       15.7080   21.9500   -2.6470 C.3    45  A45         0.1860
    650  O3'       15.0460   21.4940   -3.8220 O.3    45  A45        -0.3112
    651  C2'       16.4710   20.8220   -1.9600 C.3    45  A45         0.2309
    652  O2'       17.0580   19.9160   -2.8720 O.3    45  A45        -0.2156
    653  C1'       17.5700   21.5950   -1.2290 C.3    45  A45         0.2408
    654  N1        17.8080   19.9530    3.6280 N.ar   45  A45        -0.2040
    655  C2        18.1730   19.3940    2.4680 C.ar   45  A45         0.2016
    656  N3        18.0690   19.8740    1.2310 N.ar   45  A45        -0.2048
    657  C4        17.5060   21.0950    1.2430 C.ar   45  A45         0.1692
    658  C5        17.0720   21.7980    2.3530 C.ar   45  A45         0.1518
    659  C6        17.2440   21.1810    3.6060 C.ar   45  A45         0.1919
    660  N6        16.8870   21.7400    4.7660 N.pl3  45  A45        -0.1054
    661  N7        16.5400   23.0260    1.9770 N.ar   45  A45        -0.2193
    662  C8        16.6690   23.0370    0.6730 C.ar   45  A45         0.1816
    663  N9        17.2530   21.9040    0.1640 N.ar   45  A45        -0.2693
    664  OP1       14.2840   26.4260   -3.3630 O.2    45  A45        -0.5172
    665  OP2       14.1040   26.2570   -0.8070 O.co2  45  A45        -0.4373
    666  P         13.4650   21.2150   -3.7900 P.3    46  G46         0.2141
    667  C5'       13.9500   18.6680   -4.1650 C.3    46  G46         0.1812
    668  O5'       13.3580   19.6850   -3.3660 O.3    46  G46        -0.3114
    669  C4'       14.2910   17.4690   -3.3170 C.3    46  G46         0.1773
    670  O4'       15.1550   17.8800   -2.2260 O.3    46  G46        -0.3307
    671  C3'       13.1150   16.8090   -2.6210 C.3    46  G46         0.1860
    672  O3'       12.4650   15.9060   -3.5090 O.3    46  G46        -0.3112
    673  C2'       13.7950   16.0860   -1.4620 C.3    46  G46         0.2309
    674  O2'       14.3940   14.8690   -1.8600 O.3    46  G46        -0.2156
    675  C1'       14.8970   17.0790   -1.0850 C.3    46  G46         0.2408
    676  N1        15.3030   17.9230    3.9170 N.ar   46  G46        -0.1709
    677  C2        15.7430   16.8520    3.1790 C.ar   46  G46         0.2606
    678  N2        16.3970   15.8930    3.8570 N.pl3  46  G46        -0.0859
    679  N3        15.5580   16.7290    1.8700 N.ar   46  G46        -0.1918
    680  C4        14.8940   17.7850    1.3520 C.ar   46  G46         0.1723
    681  C5        14.4130   18.9020    2.0020 C.ar   46  G46         0.1748
    682  C6        14.6110   19.0190    3.4040 C.ar   46  G46         0.3023
    683  O6        14.2550   19.9330    4.1620 O.2    46  G46        -0.2633
    684  N7        13.7830   19.7580    1.1070 N.ar   46  G46        -0.2173
    685  C8        13.8950   19.1610   -0.0480 C.ar   46  G46         0.1817
    686  N9        14.5680   17.9670    0.0250 N.ar   46  G46        -0.2693
    687  OP1       12.9570   21.3450   -5.1810 O.2    46  G46        -0.5172
    688  OP2       12.8520   22.0250   -2.7090 O.co2  46  G46        -0.4373
    689  P         10.8970   16.0860   -3.8170 P.3    47  U47         0.2141
    690  C5'       10.3750   13.9240   -2.4050 C.3    47  U47         0.1812
    691  O5'       10.1770   15.3240   -2.6140 O.3    47  U47        -0.3114
    692  C4'        9.4910   13.4250   -1.2800 C.3    47  U47         0.1773
    693  O4'        9.9990   13.9040   -0.0020 O.3    47  U47        -0.3307
    694  C3'        8.0280   13.8540   -1.3400 C.3    47  U47         0.1860
    695  O3'        7.2040   12.8040   -0.8470 O.3    47  U47        -0.3112
    696  C2'        7.9910   15.0390   -0.3810 C.3    47  U47         0.2309
    697  O2'        6.7150   15.2790    0.1760 O.3    47  U47        -0.2156
    698  C1'        8.9710   14.5790    0.6980 C.3    47  U47         0.2420
    699  N1         9.5720   15.6950    1.4440 N.ar   47  U47        -0.2534
    700  C2         9.5140   15.6650    2.8300 C.ar   47  U47         0.3546
    701  O2         9.0130   14.7490    3.4550 O.2    47  U47        -0.2443
    702  N3        10.0720   16.7520    3.4560 N.ar   47  U47        -0.1530
    703  C4        10.6750   17.8380    2.8560 C.ar   47  U47         0.2846
    704  O4        11.1000   18.7570    3.5570 O.2    47  U47        -0.2650
    705  C5        10.7090   17.7880    1.4270 C.ar   47  U47         0.0814
    706  C6        10.1700   16.7450    0.7870 C.ar   47  U47         0.0870
    707  OP1       10.6030   15.3520   -5.0780 O.2    47  U47        -0.5172
    708  OP2       10.5650   17.5290   -3.7190 O.co2  47  U47        -0.4373
    709  P          6.4150   11.8550   -1.8780 P.3    48  U48         0.2141
    710  C5'        4.3450   13.4260   -1.6100 C.3    48  U48         0.1812
    711  O5'        5.2870   12.8030   -2.4730 O.3    48  U48        -0.3114
    712  C4'        3.6830   14.5810   -2.3120 C.3    48  U48         0.1773
    713  O4'        2.8730   14.0710   -3.4050 O.3    48  U48        -0.3307
    714  C3'        2.7570   15.4100   -1.4320 C.3    48  U48         0.1860
    715  O3'        2.9200   16.7900   -1.7220 O.3    48  U48        -0.3112
    716  C2'        1.3670   14.9180   -1.8250 C.3    48  U48         0.2309
    717  O2'        0.3770   15.9130   -1.6760 O.3    48  U48        -0.2156
    718  C1'        1.5650   14.5860   -3.3020 C.3    48  U48         0.2420
    719  N1         0.6300   13.5640   -3.7930 N.ar   48  U48        -0.2534
    720  C2        -0.2310   13.9170   -4.8150 C.ar   48  U48         0.3546
    721  O2        -0.2290   15.0230   -5.3330 O.2    48  U48        -0.2443
    722  N3        -1.0980   12.9260   -5.2080 N.ar   48  U48        -0.1530
    723  C4        -1.1860   11.6500   -4.6960 C.ar   48  U48         0.2846
    724  O4        -2.0540   10.8860   -5.1200 O.2    48  U48        -0.2650
    725  C5        -0.2490   11.3590   -3.6540 C.ar   48  U48         0.0814
    726  C6         0.6050   12.3030   -3.2490 C.ar   48  U48         0.0870
    727  OP1        5.7610   10.8100   -1.0520 O.3    48  U48        -0.4373
    728  OP2        7.3240   11.4600   -2.9820 O.co2  48  U48        -0.5172
    729  P          4.1310   17.6080   -1.0490 P.3    49  U49         0.2141
    730  C5'        2.9580   17.5420    1.3020 C.3    49  U49         0.1812
    731  O5'        4.0720   17.1960    0.4890 O.3    49  U49        -0.3114
    732  C4'        3.3210   17.4110    2.7610 C.3    49  U49         0.1773
    733  O4'        3.2650   16.0130    3.1520 O.3    49  U49        -0.3307
    734  C3'        4.7180   17.9050    3.1350 C.3    49  U49         0.1860
    735  O3'        4.6460   18.6670    4.3310 O.3    49  U49        -0.3112
    736  C2'        5.5030   16.6130    3.3650 C.3    49  U49         0.2309
    737  O2'        6.5450   16.7580    4.3110 O.3    49  U49        -0.2156
    738  C1'        4.4110   15.7000    3.9130 C.3    49  U49         0.2420
    739  N1         4.6830   14.2640    3.7680 N.ar   49  U49        -0.2534
    740  C2         4.4860   13.4660    4.8760 C.ar   49  U49         0.3546
    741  O2         4.1270   13.9060    5.9500 O.2    49  U49        -0.2443
    742  N3         4.7290   12.1310    4.6800 N.ar   49  U49        -0.1530
    743  C4         5.1450   11.5260    3.5130 C.ar   49  U49         0.2846
    744  O4         5.2790   10.3030    3.4820 O.2    49  U49        -0.2650
    745  C5         5.3430   12.4210    2.4150 C.ar   49  U49         0.0814
    746  C6         5.1110   13.7280    2.5760 C.ar   49  U49         0.0870
    747  OP1        3.7920   19.0460   -1.1710 O.3    49  U49        -0.4373
    748  OP2        5.4140   17.1070   -1.6070 O.co2  49  U49        -0.5172
    749  P          5.7090   19.8410    4.5920 P.3    50  C50         0.2141
    750  C5'        4.3730   20.8950    6.5860 C.3    50  C50         0.1812
    751  O5'        5.5190   20.1780    6.1350 O.3    50  C50        -0.3114
    752  C4'        4.1210   20.6140    8.0480 C.3    50  C50         0.1773
    753  O4'        3.6200   19.2580    8.1920 O.3    50  C50        -0.3307
    754  C3'        5.3450   20.6500    8.9490 C.3    50  C50         0.1860
    755  O3'        5.6460   21.9760    9.3680 O.3    50  C50        -0.3112
    756  C2'        4.8920   19.7910   10.1200 C.3    50  C50         0.2309
    757  O2'        4.0380   20.4780   11.0100 O.3    50  C50        -0.2156
    758  C1'        4.1070   18.6960    9.3990 C.3    50  C50         0.2420
    759  N1         4.9310   17.5260    9.0650 N.ar   50  C50        -0.2535
    760  C2         5.4200   16.7340   10.1040 C.ar   50  C50         0.3532
    761  O2         5.1470   17.0480   11.2740 O.2    50  C50        -0.2443
    762  N3         6.1730   15.6470    9.8110 N.ar   50  C50        -0.1739
    763  C4         6.4320   15.3400    8.5370 C.ar   50  C50         0.1759
    764  N4         7.1620   14.2490    8.2910 N.pl3  50  C50        -0.1070
    765  C5         5.9520   16.1360    7.4580 C.ar   50  C50         0.0566
    766  C6         5.2140   17.2110    7.7640 C.ar   50  C50         0.0850
    767  OP1        5.2860   21.0260    3.8040 O.2    50  C50        -0.5172
    768  OP2        7.0680   19.2810    4.3910 O.co2  50  C50        -0.4373
    769  P          7.1720   22.4910    9.3490 P.3    51  U51         0.2141
    770  C5'        7.7560   21.4520   11.6840 C.3    51  U51         0.1812
    771  O5'        7.9430   21.4480   10.2710 O.3    51  U51        -0.3114
    772  C4'        8.3230   20.1910   12.2910 C.3    51  U51         0.1773
    773  O4'        7.7440   19.0350   11.6270 O.3    51  U51        -0.3307
    774  C3'        9.8170   19.9810   12.1120 C.3    51  U51         0.1860
    775  O3'       10.5640   20.7130   13.0800 O.3    51  U51        -0.3112
    776  C2'        9.9330   18.4830   12.3510 C.3    51  U51         0.2309
    777  O2'        9.8430   18.1650   13.7260 O.3    51  U51        -0.2156
    778  C1'        8.6830   17.9710   11.6300 C.3    51  U51         0.2420
    779  N1         8.9370   17.5620   10.2400 N.ar   51  U51        -0.2534
    780  C2         9.6010   16.3650   10.0380 C.ar   51  U51         0.3546
    781  O2         9.9720   15.6540   10.9550 O.2    51  U51        -0.2443
    782  N3         9.8150   16.0320    8.7220 N.ar   51  U51        -0.1530
    783  C4         9.4410   16.7610    7.6110 C.ar   51  U51         0.2846
    784  O4         9.7070   16.3320    6.4850 O.2    51  U51        -0.2650
    785  C5         8.7580   17.9870    7.9050 C.ar   51  U51         0.0814
    786  C6         8.5340   18.3350    9.1770 C.ar   51  U51         0.0870
    787  OP1        7.2360   23.8150   10.0230 O.3    51  U51        -0.4373
    788  OP2        7.6790   22.3530    7.9620 O.co2  51  U51        -0.5172
    789  P         12.0880   21.1210   12.7650 P.3    52  A52         0.2141
    790  C5'       13.0090   18.9480   13.9080 C.3    52  A52         0.1812
    791  O5'       12.8560   19.7280   12.7280 O.3    52  A52        -0.3114
    792  C4'       13.6220   17.6130   13.5690 C.3    52  A52         0.1773
    793  O4'       12.7710   16.9220   12.6190 O.3    52  A52        -0.3307
    794  C3'       14.9840   17.6850   12.8960 C.3    52  A52         0.1860
    795  O3'       15.9960   17.7320   13.8990 O.3    52  A52        -0.3112
    796  C2'       15.0330   16.3730   12.1180 C.3    52  A52         0.2309
    797  O2'       15.4400   15.2790   12.9180 O.3    52  A52        -0.2156
    798  C1'       13.5690   16.1980   11.7000 C.3    52  A52         0.2408
    799  N1        13.7690   15.2080    6.6520 N.ar   52  A52        -0.2040
    800  C2        14.2130   14.5320    7.7190 C.ar   52  A52         0.2016
    801  N3        14.1450   14.8530    9.0090 N.ar   52  A52        -0.2048
    802  C4        13.5280   16.0360    9.1710 C.ar   52  A52         0.1692
    803  C5        13.0230   16.8510    8.1720 C.ar   52  A52         0.1518
    804  C6        13.1580   16.3980    6.8490 C.ar   52  A52         0.1919
    805  N6        12.7190   17.0760    5.7830 N.pl3  52  A52        -0.1054
    806  N7        12.4660   18.0010    8.7130 N.ar   52  A52        -0.2193
    807  C8        12.6370   17.8550   10.0050 C.ar   52  A52         0.1816
    808  N9        13.2620   16.6820   10.3530 N.ar   52  A52        -0.2693
    809  OP1       12.6130   21.9070   13.9090 O.3    52  A52        -0.4373
    810  OP2       12.1310   21.6990   11.3980 O.co2  52  A52        -0.5172
    811  P         17.2360   18.7410   13.7410 P.3    53  C53         0.2141
    812  C5'       18.7620   16.8890   12.6740 C.3    53  C53         0.1812
    813  O5'       18.0810   18.1310   12.5350 O.3    53  C53        -0.3114
    814  C4'       19.1410   16.3430   11.3180 C.3    53  C53         0.1773
    815  O4'       17.9380   16.0740   10.5510 O.3    53  C53        -0.3307
    816  C3'       19.9400   17.2720   10.4160 C.3    53  C53         0.1860
    817  O3'       21.3290   17.2140   10.7310 O.3    53  C53        -0.3112
    818  C2'       19.6790   16.6670    9.0430 C.3    53  C53         0.2309
    819  O2'       20.4830   15.5270    8.8110 O.3    53  C53        -0.2156
    820  C1'       18.2100   16.2520    9.1670 C.3    53  C53         0.2420
    821  N1        17.2800   17.2590    8.6310 N.ar   53  C53        -0.2535
    822  C2        16.8710   17.1540    7.2960 C.ar   53  C53         0.3532
    823  O2        17.3030   16.2160    6.6120 O.2    53  C53        -0.2443
    824  N3        16.0180   18.0750    6.7890 N.ar   53  C53        -0.1739
    825  C4        15.5710   19.0650    7.5620 C.ar   53  C53         0.1759
    826  N4        14.7270   19.9490    7.0210 N.pl3  53  C53        -0.1070
    827  C5        15.9680   19.1950    8.9250 C.ar   53  C53         0.0566
    828  C6        16.8180   18.2780    9.4140 C.ar   53  C53         0.0850
    829  OP1       18.0520   18.6470   14.9790 O.3    53  C53        -0.4373
    830  OP2       16.7260   20.0650   13.2970 O.co2  53  C53        -0.5172
    831  P         22.0690   18.5230   11.2980 P.3    54  C54         0.2141
    832  C5'       23.1860   17.3230   13.3500 C.3    54  C54         0.1812
    833  O5'       22.2160   18.2400   12.8580 O.3    54  C54        -0.3114
    834  C4'       22.5600   16.4070   14.3710 C.3    54  C54         0.1773
    835  O4'       21.5490   15.5910   13.7190 O.3    54  C54        -0.3307
    836  C3'       23.5010   15.3960   15.0060 C.3    54  C54         0.1860
    837  O3'       24.1790   15.9750   16.1140 O.3    54  C54        -0.3112
    838  C2'       22.5290   14.3140   15.4490 C.3    54  C54         0.2309
    839  O2'       21.8230   14.6660   16.6240 O.3    54  C54        -0.2156
    840  C1'       21.5730   14.2770   14.2550 C.3    54  C54         0.2420
    841  N1        22.0210   13.3550   13.1970 N.ar   54  C54        -0.2535
    842  C2        22.0130   11.9820   13.4600 C.ar   54  C54         0.3532
    843  O2        21.6100   11.5890   14.5670 O.2    54  C54        -0.2443
    844  N3        22.4460   11.1240   12.5070 N.ar   54  C54        -0.1739
    845  C4        22.8710   11.5920   11.3300 C.ar   54  C54         0.1759
    846  N4        23.3010   10.7120   10.4230 N.pl3  54  C54        -0.1070
    847  C5        22.8770   12.9850   11.0310 C.ar   54  C54         0.0566
    848  C6        22.4460   13.8220   11.9840 C.ar   54  C54         0.0850
    849  OP1       21.1440   19.6780   11.1620 O.3    54  C54        -0.4373
    850  OP2       23.4200   18.5890   10.6880 O.co2  54  C54        -0.5172
    851  P         25.6240   15.4150   16.5440 P.3    55  G55         0.2141
    852  C5'       24.7190   13.9870   18.5560 C.3    55  G55         0.1812
    853  O5'       25.3040   14.0250   17.2540 O.3    55  G55        -0.3114
    854  C4'       24.7060   12.5710   19.0950 C.3    55  G55         0.1773
    855  O4'       23.8440   11.7370   18.2710 O.3    55  G55        -0.3307
    856  C3'       26.0350   11.8340   19.1020 C.3    55  G55         0.1860
    857  O3'       26.7940   12.1320   20.2680 O.3    55  G55        -0.3112
    858  C2'       25.5860   10.3820   19.1240 C.3    55  G55         0.2309
    859  O2'       25.1470    9.9710   20.4020 O.3    55  G55        -0.2156
    860  C1'       24.3950   10.4320   18.1720 C.3    55  G55         0.2408
    861  N1        25.1790    6.9810   14.5270 N.ar   55  G55        -0.1709
    862  C2        24.9300    6.7880   15.8660 C.ar   55  G55         0.2606
    863  N2        24.8420    5.5120   16.2790 N.pl3  55  G55        -0.0859
    864  N3        24.7760    7.7730   16.7370 N.ar   55  G55        -0.1918
    865  C4        24.9020    8.9820   16.1550 C.ar   55  G55         0.1723
    866  C5        25.1650    9.2790   14.8330 C.ar   55  G55         0.1748
    867  C6        25.3060    8.2190   13.9070 C.ar   55  G55         0.3023
    868  O6        25.5040    8.2830   12.6850 O.2    55  G55        -0.2633
    869  N7        25.2360   10.6510   14.6410 N.ar   55  G55        -0.2173
    870  C8        24.9980   11.1560   15.8210 C.ar   55  G55         0.1817
    871  N9        24.7610   10.2000   16.7800 N.ar   55  G55        -0.2693
    872  OP1       26.1660   16.3460   17.5720 O.3    55  G55        -0.4373
    873  OP2       26.4040   15.1490   15.3130 O.co2  55  G55        -0.5172
    874  P         28.3930   12.1830   20.1700 P.3    56  G56         0.2141
    875  C5'       28.8620    9.8790   21.3330 C.3    56  G56         0.1812
    876  O5'       28.8300   10.6530   20.1390 O.3    56  G56        -0.3114
    877  C4'       28.9270    8.4070   20.9970 C.3    56  G56         0.1773
    878  O4'       27.8400    8.0580   20.0930 O.3    56  G56        -0.3307
    879  C3'       30.1610    7.9420   20.2460 C.3    56  G56         0.1860
    880  O3'       31.2660    7.7530   21.1240 O.3    56  G56        -0.3112
    881  C2'       29.6630    6.6220   19.6870 C.3    56  G56         0.2309
    882  O2'       29.5380    5.6550   20.7130 O.3    56  G56        -0.2156
    883  C1'       28.2740    7.0360   19.1990 C.3    56  G56         0.2408
    884  N1        28.5330    6.0180   14.2190 N.ar   56  G56        -0.1709
    885  C2        28.4600    5.1500   15.2770 C.ar   56  G56         0.2606
    886  N2        28.4980    3.8380   14.9700 N.pl3  56  G56        -0.0859
    887  N3        28.3660    5.5340   16.5440 N.ar   56  G56        -0.1918
    888  C4        28.3640    6.8780   16.6660 C.ar   56  G56         0.1723
    889  C5        28.4370    7.8310   15.6700 C.ar   56  G56         0.1748
    890  C6        28.5420    7.4050   14.3200 C.ar   56  G56         0.3023
    891  O6        28.6520    8.0980   13.2980 O.2    56  G56        -0.2633
    892  N7        28.4070    9.1100   16.2070 N.ar   56  G56        -0.2173
    893  C8        28.3290    8.9190   17.4980 C.ar   56  G56         0.1817
    894  N9        28.3120    7.5880   17.8470 N.ar   56  G56        -0.2693
    895  OP1       28.9150   12.8190   21.4100 O.3    56  G56        -0.4373
    896  OP2       28.7390   12.7570   18.8420 O.co2  56  G56        -0.5172
    897  P         32.7560    7.7180   20.5290 P.3    57  G57         0.2141
    898  C5'       32.7620    5.0800   20.4850 C.3    57  G57         0.1812
    899  O5'       32.8570    6.3130   19.7780 O.3    57  G57        -0.3114
    900  C4'       32.7710    3.9150   19.5150 C.3    57  G57         0.1773
    901  O4'       31.6400    4.0100   18.6040 O.3    57  G57        -0.3307
    902  C3'       33.9680    3.8290   18.5820 C.3    57  G57         0.1860
    903  O3'       35.0790    3.2180   19.2250 O.3    57  G57        -0.3112
    904  C2'       33.4270    2.9380   17.4740 C.3    57  G57         0.2309
    905  O2'       33.3920    1.5700   17.8510 O.3    57  G57        -0.2156
    906  C1'       32.0080    3.4880   17.3290 C.3    57  G57         0.2408
    907  N1        31.9330    4.7010   12.3830 N.ar   57  G57        -0.1709
    908  C2        32.0940    3.4720   12.9700 C.ar   57  G57         0.2606
    909  N2        32.2570    2.4350   12.1300 N.pl3  57  G57        -0.0859
    910  N3        32.1010    3.2760   14.2850 N.ar   57  G57        -0.1918
    911  C4        31.9470    4.4310   14.9690 C.ar   57  G57         0.1723
    912  C5        31.7910    5.7110   14.4730 C.ar   57  G57         0.1748
    913  C6        31.7690    5.9010   13.0620 C.ar   57  G57         0.3023
    914  O6        31.6220    6.9510   12.4240 O.2    57  G57        -0.2633
    915  N7        31.6790    6.6310   15.5070 N.ar   57  G57        -0.2173
    916  C8        31.7540    5.9090   16.5960 C.ar   57  G57         0.1817
    917  N9        31.9100    4.5650   16.3440 N.ar   57  G57        -0.2693
    918  OP1       33.7110    7.7460   21.6660 O.3    57  G57        -0.4373
    919  OP2       32.8450    8.7650   19.4710 O.co2  57  G57        -0.5172
    920  P         36.5650    3.6710   18.8380 P.3    58  C58         0.2141
    921  C5'       37.0120    1.9300   16.9240 C.3    58  C58         0.1812
    922  O5'       36.7110    3.2680   17.3030 O.3    58  C58        -0.3114
    923  C4'       36.8890    1.7690   15.4280 C.3    58  C58         0.1773
    924  O4'       35.5940    2.2600   14.9800 O.3    58  C58        -0.3307
    925  C3'       37.8650    2.5720   14.5860 C.3    58  C58         0.1860
    926  O3'       39.1540    1.9660   14.5510 O.3    58  C58        -0.3112
    927  C2'       37.1650    2.5260   13.2370 C.3    58  C58         0.2309
    928  O2'       37.2450    1.2560   12.6220 O.3    58  C58        -0.2156
    929  C1'       35.7220    2.7910   13.6650 C.3    58  C58         0.2420
    930  N1        35.4390    4.2340   13.7120 N.ar   58  C58        -0.2535
    931  C2        35.2300    4.9040   12.5070 C.ar   58  C58         0.3532
    932  O2        35.2790    4.2550   11.4490 O.2    58  C58        -0.2443
    933  N3        34.9820    6.2320   12.5230 N.ar   58  C58        -0.1739
    934  C4        34.9330    6.8880   13.6840 C.ar   58  C58         0.1759
    935  N4        34.6730    8.1990   13.6480 N.pl3  58  C58        -0.1070
    936  C5        35.1430    6.2290   14.9310 C.ar   58  C58         0.0566
    937  C6        35.3900    4.9120   14.8980 C.ar   58  C58         0.0850
    938  OP1       37.5030    2.8370   19.6360 O.3    58  C58        -0.4373
    939  OP2       36.6480    5.1470   18.9250 O.co2  58  C58        -0.5172
    940  P         40.4640    2.8780   14.3610 P.3    59  A59         0.2141
    941  C5'       40.6130    2.3760   11.7830 C.3    59  A59         0.1812
    942  O5'       40.4100    3.3240   12.8280 O.3    59  A59        -0.3114
    943  C4'       40.2020    2.9590   10.4460 C.3    59  A59         0.1773
    944  O4'       38.8700    3.5230   10.5410 O.3    59  A59        -0.3307
    945  C3'       41.0750    4.0830    9.9070 C.3    59  A59         0.1860
    946  O3'       42.1290    3.5380    9.1280 O.3    59  A59        -0.3112
    947  C2'       40.1160    4.8400    8.9980 C.3    59  A59         0.2309
    948  O2'       40.0240    4.2710    7.7020 O.3    59  A59        -0.2156
    949  C1'       38.7970    4.7060    9.7610 C.3    59  A59         0.2408
    950  N1        37.5600    9.6780   10.0670 N.ar   59  A59        -0.2040
    951  C2        37.8020    8.8700    9.0280 C.ar   59  A59         0.2016
    952  N3        38.1410    7.5800    9.0210 N.ar   59  A59        -0.2048
    953  C4        38.2370    7.1130   10.2750 C.ar   59  A59         0.1692
    954  C5        38.0300    7.8220   11.4440 C.ar   59  A59         0.1518
    955  C6        37.6610    9.1710   11.3170 C.ar   59  A59         0.1919
    956  N6        37.3980    9.9730   12.3560 N.pl3  59  A59        -0.1054
    957  N7        38.2390    7.0100   12.5540 N.ar   59  A59        -0.2193
    958  C8        38.5500    5.8460   12.0350 C.ar   59  A59         0.1816
    959  N9        38.5490    5.8340   10.6600 N.ar   59  A59        -0.2693
    960  OP1       41.6480    2.0010   14.5500 O.2    59  A59        -0.5172
    961  OP2       40.3120    4.0880   15.2050 O.co2  59  A59        -0.4373
    962  P         43.5720    4.2280    9.1460 P.3    60  C60         0.2141
    963  C5'       42.9740    5.7540    7.0990 C.3    60  C60         0.1812
    964  O5'       43.3380    5.6470    8.4690 O.3    60  C60        -0.3114
    965  C4'       42.6060    7.1830    6.7780 C.3    60  C60         0.1773
    966  O4'       41.3670    7.5310    7.4640 O.3    60  C60        -0.3307
    967  C3'       43.5950    8.2330    7.2610 C.3    60  C60         0.1860
    968  O3'       44.6610    8.3900    6.3330 O.3    60  C60        -0.3112
    969  C2'       42.7090    9.4700    7.3300 C.3    60  C60         0.2309
    970  O2'       42.4010    9.9860    6.0460 O.3    60  C60        -0.2156
    971  C1'       41.4360    8.8730    7.9250 C.3    60  C60         0.2420
    972  N1        41.3910    8.8720    9.4020 N.ar   60  C60        -0.2535
    973  C2        40.9650   10.0370   10.0680 C.ar   60  C60         0.3532
    974  O2        40.7140   11.0530    9.4010 O.2    60  C60        -0.2443
    975  N3        40.8480   10.0260   11.4200 N.ar   60  C60        -0.1739
    976  C4        41.1580    8.9230   12.1040 C.ar   60  C60         0.1759
    977  N4        40.9850    8.9450   13.4360 N.pl3  60  C60        -0.1070
    978  C5        41.6430    7.7440   11.4590 C.ar   60  C60         0.0566
    979  C6        41.7350    7.7600   10.1170 C.ar   60  C60         0.0850
    980  OP1       44.4670    3.4310    8.2580 O.2    60  C60        -0.5172
    981  OP2       43.9590    4.4800   10.5560 O.co2  60  C60        -0.4373
    982  P         46.1190    8.8170    6.8560 P.3    61  C61         0.2141
    983  C5'       45.6190   11.1910    5.8470 C.3    61  C61         0.1812
    984  O5'       46.0550   10.4080    6.9520 O.3    61  C61        -0.3114
    985  C4'       45.1780   12.5610    6.3170 C.3    61  C61         0.1773
    986  O4'       44.0430   12.4290    7.2140 O.3    61  C61        -0.3307
    987  C3'       46.2010   13.3350    7.1310 C.3    61  C61         0.1860
    988  O3'       47.0810   14.0250    6.2550 O.3    61  C61        -0.3112
    989  C2'       45.3170   14.3100    7.9030 C.3    61  C61         0.2309
    990  O2'       44.8870   15.3870    7.0890 O.3    61  C61        -0.2156
    991  C1'       44.1080   13.4310    8.2170 C.3    61  C61         0.2420
    992  N1        44.1180   12.7710    9.5370 N.ar   61  C61        -0.2535
    993  C2        43.6100   13.4670   10.6410 C.ar   61  C61         0.3532
    994  O2        43.2630   14.6490   10.4990 O.2    61  C61        -0.2443
    995  N3        43.5200   12.8350   11.8370 N.ar   61  C61        -0.1739
    996  C4        43.9420   11.5750   11.9580 C.ar   61  C61         0.1759
    997  N4        43.8070   10.9830   13.1550 N.pl3  61  C61        -0.1070
    998  C5        44.5110   10.8620   10.8620 C.ar   61  C61         0.0566
    999  C6        44.5780   11.4920    9.6820 C.ar   61  C61         0.0850
   1000  OP1       47.1020    8.4560    5.8050 O.2    61  C61        -0.5172
   1001  OP2       46.2960    8.3020    8.2390 O.co2  61  C61        -0.4373
   1002  P         48.6470   13.6780    6.2670 P.3    62  G62         0.2141
   1003  C5'       50.6440   14.8360    7.5050 C.3    62  G62         0.1812
   1004  O5'       49.2420   14.6360    7.3890 O.3    62  G62        -0.3114
   1005  C4'       50.9700   15.3970    8.8630 C.3    62  G62         0.1773
   1006  O4'       50.6850   14.3920    9.8740 O.3    62  G62        -0.3307
   1007  C3'       52.4180   15.8140    9.0820 C.3    62  G62         0.1860
   1008  O3'       52.4380   16.9160    9.9860 O.3    62  G62        -0.3112
   1009  C2'       53.0140   14.5700    9.7340 C.3    62  G62         0.2309
   1010  O2'       54.1650   14.8400   10.5060 O.3    62  G62        -0.2156
   1011  C1'       51.8540   14.1330   10.6260 C.3    62  G62         0.2408
   1012  N1        50.5890   10.6760   14.1200 N.ar   62  G62        -0.1709
   1013  C2        50.4250   12.0390   14.1460 C.ar   62  G62         0.2606
   1014  N2        49.8470   12.5460   15.2500 N.pl3  62  G62        -0.0859
   1015  N3        50.8000   12.8460   13.1650 N.ar   62  G62        -0.1918
   1016  C4        51.3650   12.1680   12.1400 C.ar   62  G62         0.1723
   1017  C5        51.5750   10.8110   12.0190 C.ar   62  G62         0.1748
   1018  C6        51.1650    9.9580   13.0760 C.ar   62  G62         0.3023
   1019  O6        51.2610    8.7270   13.1540 O.2    62  G62        -0.2633
   1020  N7        52.1860   10.5130   10.8080 N.ar   62  G62        -0.2173
   1021  C8        52.3340   11.6710   10.2260 C.ar   62  G62         0.1817
   1022  N9        51.8550   12.7180   10.9790 N.ar   62  G62        -0.2693
   1023  OP1       49.2210   14.0860    4.9600 O.2    62  G62        -0.5172
   1024  OP2       48.8090   12.2810    6.7320 O.co2  62  G62        -0.4373
   1025  P         53.1960   18.2720    9.5790 P.3    63  U63         0.2141
   1026  C5'       50.9850   19.6560    9.2380 C.3    63  U63         0.1812
   1027  O5'       52.1800   19.4290    9.9810 O.3    63  U63        -0.3114
   1028  C4'       50.0020   20.4340   10.0780 C.3    63  U63         0.1773
   1029  O4'       49.1960   19.5020   10.8540 O.3    63  U63        -0.3307
   1030  C3'       50.6550   21.3700   11.0880 C.3    63  U63         0.1860
   1031  O3'       49.8940   22.5620   11.2230 O.3    63  U63        -0.3112
   1032  C2'       50.6170   20.5560   12.3770 C.3    63  U63         0.2309
   1033  O2'       50.6160   21.3620   13.5370 O.3    63  U63        -0.2156
   1034  C1'       49.2830   19.8310   12.2250 C.3    63  U63         0.2420
   1035  N1        49.1790   18.5910   13.0080 N.ar   63  U63        -0.2534
   1036  C2        48.5590   18.6650   14.2410 C.ar   63  U63         0.3546
   1037  O2        48.0960   19.7000   14.6810 O.2    63  U63        -0.2443
   1038  N3        48.4990   17.4800   14.9360 N.ar   63  U63        -0.1530
   1039  C4        48.9880   16.2550   14.5300 C.ar   63  U63         0.2846
   1040  O4        48.8970   15.2840   15.2840 O.2    63  U63        -0.2650
   1041  C5        49.6060   16.2610   13.2370 C.ar   63  U63         0.0814
   1042  C6        49.6790   17.4000   12.5400 C.ar   63  U63         0.0870
   1043  OP1       53.3500   18.2840    8.1020 O.2    63  U63        -0.5172
   1044  OP2       54.3940   18.4030   10.4470 O.co2  63  U63        -0.4373
   1045  P         50.3940   23.9150   10.5150 P.3    64  A64         0.2141
   1046  C5'       48.1830   24.0400    9.1110 C.3    64  A64         0.1812
   1047  O5'       49.6020   23.9430    9.1360 O.3    64  A64        -0.3114
   1048  C4'       47.6570   23.5550    7.7840 C.3    64  A64         0.1773
   1049  O4'       47.9080   22.1310    7.6730 O.3    64  A64        -0.3307
   1050  C3'       46.1630   23.7610    7.5660 C.3    64  A64         0.1860
   1051  O3'       45.9740   24.8990    6.7310 O.3    64  A64        -0.3112
   1052  C2'       45.7280   22.4800    6.8550 C.3    64  A64         0.2309
   1053  O2'       45.9230   22.5390    5.4540 O.3    64  A64        -0.2156
   1054  C1'       46.6950   21.4520    7.4400 C.3    64  A64         0.2408
   1055  N1        46.6830   17.0240   10.0000 N.ar   64  A64        -0.2040
   1056  C2        47.0130   17.3460    8.7410 C.ar   64  A64         0.2016
   1057  N3        46.9520   18.5270    8.1300 N.ar   64  A64        -0.2048
   1058  C4        46.4690   19.4660    8.9600 C.ar   64  A64         0.1692
   1059  C5        46.0700   19.2880   10.2740 C.ar   64  A64         0.1518
   1060  C6        46.2050   17.9920   10.8120 C.ar   64  A64         0.1919
   1061  N6        45.8970   17.6700   12.0740 N.pl3  64  A64        -0.1054
   1062  N7        45.6080   20.4830   10.8110 N.ar   64  A64        -0.2193
   1063  C8        45.7540   21.3480    9.8300 C.ar   64  A64         0.1816
   1064  N9        46.2980   20.8020    8.6910 N.ar   64  A64        -0.2693
   1065  OP1       51.8370   23.7650   10.1980 O.2    64  A64        -0.5172
   1066  OP2       49.9360   25.0530   11.3480 O.co2  64  A64        -0.4373
   1067  P         44.6510   25.7950    6.8870 P.3    65  A65         0.2141
   1068  C5'       43.5200   24.6880    4.8010 C.3    65  A65         0.1812
   1069  O5'       43.5110   24.9200    6.2040 O.3    65  A65        -0.3114
   1070  C4'       42.5230   23.6130    4.4440 C.3    65  A65         0.1773
   1071  O4'       42.8530   22.3920    5.1770 O.3    65  A65        -0.3307
   1072  C3'       41.0670   23.9160    4.7950 C.3    65  A65         0.1860
   1073  O3'       40.2510   23.2190    3.8570 O.3    65  A65        -0.3112
   1074  C2'       40.9470   23.2510    6.1620 C.3    65  A65         0.2309
   1075  O2'       39.6240   22.9790    6.5730 O.3    65  A65        -0.2156
   1076  C1'       41.7060   21.9590    5.8790 C.3    65  A65         0.2408
   1077  N1        43.2140   17.3690    7.5950 N.ar   65  A65        -0.2040
   1078  C2        42.9570   17.8350    6.3660 C.ar   65  A65         0.2016
   1079  N3        42.5870   19.0570    5.9900 N.ar   65  A65        -0.2048
   1080  C4        42.4890   19.8730    7.0550 C.ar   65  A65         0.1692
   1081  C5        42.7210   19.5420    8.3780 C.ar   65  A65         0.1518
   1082  C6        43.0920   18.2110    8.6460 C.ar   65  A65         0.1919
   1083  N6        43.3160   17.7360    9.8720 N.pl3  65  A65        -0.1054
   1084  N7        42.5200   20.6430    9.2020 N.ar   65  A65        -0.2193
   1085  C8        42.1710   21.5980    8.3720 C.ar   65  A65         0.1816
   1086  N9        42.1150   21.1950    7.0580 N.ar   65  A65        -0.2693
   1087  OP1       44.8260   27.0270    6.0630 O.2    65  A65        -0.5172
   1088  OP2       44.3280   25.9220    8.3330 O.co2  65  A65        -0.4373
   1089  P         38.9690   23.9330    3.2040 P.3    66  A66         0.2141
   1090  C5'       37.5950   21.9690    4.3000 C.3    66  A66         0.1812
   1091  O5'       37.8930   22.7570    3.1440 O.3    66  A66        -0.3114
   1092  C4'       37.8480   20.5060    4.0130 C.3    66  A66         0.1773
   1093  O4'       39.1850   20.1360    4.4600 O.3    66  A66        -0.3307
   1094  C3'       36.9650   19.5220    4.7550 C.3    66  A66         0.1860
   1095  O3'       35.6680   19.4120    4.1800 O.3    66  A66        -0.3112
   1096  C2'       37.7780   18.2500    4.5990 C.3    66  A66         0.2309
   1097  O2'       37.7240   17.7600    3.2720 O.3    66  A66        -0.2156
   1098  C1'       39.1730   18.7880    4.9230 C.3    66  A66         0.2408
   1099  N1        39.9190   15.7810    8.9850 N.ar   66  A66        -0.2040
   1100  C2        39.9160   15.5480    7.6680 C.ar   66  A66         0.2016
   1101  N3        39.7610   16.4040    6.6600 N.ar   66  A66        -0.2048
   1102  C4        39.5930   17.6540    7.1190 C.ar   66  A66         0.1692
   1103  C5        39.5810   18.0600    8.4410 C.ar   66  A66         0.1518
   1104  C6        39.7470   17.0520    9.4190 C.ar   66  A66         0.1919
   1105  N6        39.7310   17.2790   10.7380 N.pl3  66  A66        -0.1054
   1106  N7        39.3880   19.4330    8.5270 N.ar   66  A66        -0.2193
   1107  C8        39.2760   19.8150    7.2740 C.ar   66  A66         0.1816
   1108  N9        39.3590   18.7830    6.3740 N.ar   66  A66        -0.2693
   1109  OP1       39.3090   24.3050    1.7960 O.2    66  A66        -0.5172
   1110  OP2       38.4480   24.9710    4.1270 O.co2  66  A66        -0.4373
   1111  P         34.3870   19.4180    5.1380 P.3    67  U67         0.2141
   1112  C5'       34.0890   16.9900    6.1180 C.3    67  U67         0.1812
   1113  O5'       34.7150   18.2610    6.1900 O.3    67  U67        -0.3114
   1114  C4'       34.9960   15.9850    5.4390 C.3    67  U67         0.1773
   1115  O4'       36.2530   15.8320    6.1700 O.3    67  U67        -0.3307
   1116  C3'       34.4090   14.5850    5.4070 C.3    67  U67         0.1860
   1117  O3'       33.5670   14.4450    4.2670 O.3    67  U67        -0.3112
   1118  C2'       35.6540   13.7230    5.2790 C.3    67  U67         0.2309
   1119  O2'       36.1440   13.7480    3.9550 O.3    67  U67        -0.2156
   1120  C1'       36.6210   14.4570    6.2100 C.3    67  U67         0.2420
   1121  N1        36.5760   13.9970    7.6100 N.ar   67  U67        -0.2534
   1122  C2        36.9790   12.6950    7.8870 C.ar   67  U67         0.3546
   1123  O2        37.3690   11.9210    7.0310 O.2    67  U67        -0.2443
   1124  N3        36.9120   12.3320    9.2130 N.ar   67  U67        -0.1530
   1125  C4        36.4960   13.1130   10.2700 C.ar   67  U67         0.2846
   1126  O4        36.4900   12.6340   11.4100 O.2    67  U67        -0.2650
   1127  C5        36.0980   14.4420    9.9100 C.ar   67  U67         0.0814
   1128  C6        36.1500   14.8300    8.6220 C.ar   67  U67         0.0870
   1129  OP1       33.1710   19.0910    4.3590 O.2    67  U67        -0.5172
   1130  OP2       34.4460   20.6880    5.8980 O.co2  67  U67        -0.4373
   1131  P         32.2050   13.6140    4.3890 P.3    68  G68         0.2141
   1132  C5'       33.2520   11.5870    3.0870 C.3    68  G68         0.1812
   1133  O5'       32.6730   12.0930    4.2890 O.3    68  G68        -0.3114
   1134  C4'       33.8480   10.2170    3.3280 C.3    68  G68         0.1773
   1135  O4'       34.8600   10.3110    4.3620 O.3    68  G68        -0.3307
   1136  C3'       32.8910    9.1500    3.8370 C.3    68  G68         0.1860
   1137  O3'       32.2170    8.5310    2.7450 O.3    68  G68        -0.3112
   1138  C2'       33.8480    8.1680    4.4960 C.3    68  G68         0.2309
   1139  O2'       34.5100    7.3410    3.5530 O.3    68  G68        -0.2156
   1140  C1'       34.8570    9.1210    5.1370 C.3    68  G68         0.2408
   1141  N1        34.7460    7.5080    9.9390 N.ar   68  G68        -0.1709
   1142  C2        35.1090    6.8330    8.8010 C.ar   68  G68         0.2606
   1143  N2        35.5180    5.5580    8.9650 N.pl3  68  G68        -0.0859
   1144  N3        35.0770    7.3630    7.5900 N.ar   68  G68        -0.1918
   1145  C4        34.6470    8.6420    7.6100 C.ar   68  G68         0.1723
   1146  C5        34.2580    9.4030    8.6880 C.ar   68  G68         0.1748
   1147  C6        34.3060    8.8290    9.9810 C.ar   68  G68         0.3023
   1148  O6        34.0280    9.3530   11.0650 O.2    68  G68        -0.2633
   1149  N7        33.8660   10.6720    8.2800 N.ar   68  G68        -0.2173
   1150  C8        34.0390   10.6630    6.9840 C.ar   68  G68         0.1817
   1151  N9        34.5220    9.4680    6.5150 N.ar   68  G68        -0.2693
   1152  OP1       31.3650   13.9240    3.1980 O.2    68  G68        -0.5172
   1153  OP2       31.6510   13.8080    5.7510 O.co2  68  G68        -0.4373
   1154  P         30.7250    7.9720    2.9350 P.3    69  U69         0.2141
   1155  C5'       31.7040    5.5650    3.3790 C.3    69  U69         0.1812
   1156  O5'       30.8840    6.6480    3.8080 O.3    69  U69        -0.3114
   1157  C4'       31.9610    4.6260    4.5370 C.3    69  U69         0.1773
   1158  O4'       32.7570    5.3240    5.5340 O.3    69  U69        -0.3307
   1159  C3'       30.7190    4.1870    5.2980 C.3    69  U69         0.1860
   1160  O3'       30.0920    3.0760    4.6570 O.3    69  U69        -0.3112
   1161  C2'       31.3000    3.8240    6.6610 C.3    69  U69         0.2309
   1162  O2'       31.9300    2.5570    6.6910 O.3    69  U69        -0.2156
   1163  C1'       32.3580    4.9150    6.8340 C.3    69  U69         0.2420
   1164  N1        31.8730    6.0920    7.5730 N.ar   69  U69        -0.2534
   1165  C2        31.8140    5.9840    8.9500 C.ar   69  U69         0.3546
   1166  O2        32.0950    4.9580    9.5380 O.2    69  U69        -0.2443
   1167  N3        31.4020    7.1130    9.6110 N.ar   69  U69        -0.1530
   1168  C4        31.0320    8.3140    9.0490 C.ar   69  U69         0.2846
   1169  O4        30.7220    9.2530    9.7870 O.2    69  U69        -0.2650
   1170  C5        31.0870    8.3440    7.6110 C.ar   69  U69         0.0814
   1171  C6        31.4990    7.2550    6.9400 C.ar   69  U69         0.0870
   1172  OP1       30.2520    7.5770    1.5710 O.2    69  U69        -0.5172
   1173  OP2       29.9180    8.9200    3.7390 O.co2  69  U69        -0.4373
   1174  P         28.4900    2.9130    4.7200 P.3    70  C70         0.2141
   1175  C5'       28.7510    0.8570    6.3400 C.3    70  C70         0.1812
   1176  O5'       28.2300    2.1660    6.1080 O.3    70  C70        -0.3114
   1177  C4'       28.7920    0.5560    7.8260 C.3    70  C70         0.1773
   1178  O4'       29.6250    1.5270    8.5120 O.3    70  C70        -0.3307
   1179  C3'       27.4700    0.6200    8.5730 C.3    70  C70         0.1860
   1180  O3'       26.7850   -0.6120    8.4160 O.3    70  C70        -0.3112
   1181  C2'       27.9450    0.7810   10.0130 C.3    70  C70         0.2309
   1182  O2'       28.4110   -0.4370   10.5700 O.3    70  C70        -0.2156
   1183  C1'       29.1320    1.7260    9.8290 C.3    70  C70         0.2420
   1184  N1        28.8000    3.1510    9.9960 N.ar   70  C70        -0.2535
   1185  C2        28.7000    3.6690   11.2960 C.ar   70  C70         0.3532
   1186  O2        28.7990    2.8940   12.2610 O.2    70  C70        -0.2443
   1187  N3        28.4890    4.9920   11.4660 N.ar   70  C70        -0.1739
   1188  C4        28.3550    5.7910   10.4020 C.ar   70  C70         0.1759
   1189  N4        28.2000    7.0970   10.6230 N.pl3  70  C70        -0.1070
   1190  C5        28.3910    5.2850    9.0690 C.ar   70  C70         0.0566
   1191  C6        28.6180    3.9690    8.9130 C.ar   70  C70         0.0850
   1192  OP1       28.1020    2.0100    3.6020 O.2    70  C70        -0.5172
   1193  OP2       27.8550    4.2570    4.8190 O.co2  70  C70        -0.4373
   1194  P         25.2090   -0.6270    8.1130 P.3    71  C71         0.2141
   1195  C5'       24.5260   -1.5090   10.4940 C.3    71  C71         0.1812
   1196  O5'       24.5240   -0.4440    9.5440 O.3    71  C71        -0.3114
   1197  C4'       24.3720   -0.9690   11.9000 C.3    71  C71         0.1773
   1198  O4'       25.4220   -0.0040   12.1710 O.3    71  C71        -0.3307
   1199  C3'       23.1010   -0.1880   12.2010 C.3    71  C71         0.1860
   1200  O3'       22.0100   -1.0590   12.4770 O.3    71  C71        -0.3112
   1201  C2'       23.5170    0.5620   13.4570 C.3    71  C71         0.2309
   1202  O2'       23.5410   -0.2790   14.5900 O.3    71  C71        -0.2156
   1203  C1'       24.9480    0.9630   13.0980 C.3    71  C71         0.2420
   1204  N1        25.0220    2.2910   12.4660 N.ar   71  C71        -0.2535
   1205  C2        25.0180    3.4240   13.2830 C.ar   71  C71         0.3532
   1206  O2        24.9370    3.2770   14.5160 O.2    71  C71        -0.2443
   1207  N3        25.0930    4.6470   12.7150 N.ar   71  C71        -0.1739
   1208  C4        25.1550    4.7650   11.3850 C.ar   71  C71         0.1759
   1209  N4        25.2080    5.9960   10.8710 N.pl3  71  C71        -0.1070
   1210  C5        25.1580    3.6270   10.5270 C.ar   71  C71         0.0566
   1211  C6        25.0900    2.4200   11.1040 C.ar   71  C71         0.0850
   1212  OP1       24.9210   -1.9950    7.6080 O.3    71  C71        -0.4373
   1213  OP2       24.8430    0.5540    7.2900 O.co2  71  C71        -0.5172
   1214  P         20.4970   -0.5560   12.2360 P.3    72  G72         0.2141
   1215  C5'       20.0530    0.4490   14.6200 C.3    72  G72         0.1812
   1216  O5'       20.3180    0.6710   13.2390 O.3    72  G72        -0.3114
   1217  C4'       19.9920    1.7650   15.3600 C.3    72  G72         0.1773
   1218  O4'       21.2400    2.4860   15.1600 O.3    72  G72        -0.3307
   1219  C3'       18.9490    2.7650   14.8830 C.3    72  G72         0.1860
   1220  O3'       17.6310    2.4690   15.3590 O.3    72  G72        -0.3112
   1221  C2'       19.4870    4.0510   15.4930 C.3    72  G72         0.2309
   1222  O2'       19.2080    4.1500   16.8750 O.3    72  G72        -0.2156
   1223  C1'       20.9930    3.8800   15.2700 C.3    72  G72         0.2408
   1224  N1        22.1200    8.3370   13.1810 N.ar   72  G72        -0.1709
   1225  C2        21.8390    8.0210   14.4910 C.ar   72  G72         0.2606
   1226  N2        21.8160    9.0420   15.3670 N.pl3  72  G72        -0.0859
   1227  N3        21.5950    6.7960   14.9150 N.ar   72  G72        -0.1918
   1228  C4        21.6570    5.8920   13.9150 C.ar   72  G72         0.1723
   1229  C5        21.9320    6.0950   12.5790 C.ar   72  G72         0.1748
   1230  C6        22.1820    7.4250   12.1310 C.ar   72  G72         0.3023
   1231  O6        22.4190    7.8250   10.9820 O.2    72  G72        -0.2633
   1232  N7        21.8920    4.8930   11.8790 N.ar   72  G72        -0.2173
   1233  C8        21.5910    4.0020   12.7890 C.ar   72  G72         0.1817
   1234  N9        21.4130    4.5470   14.0400 N.ar   72  G72        -0.2693
   1235  OP1       19.5890   -1.6520   12.6540 O.3    72  G72        -0.4373
   1236  OP2       20.4120   -0.0210   10.8440 O.co2  72  G72        -0.5172
   1237  P         16.5120    1.9270   14.3300 P.3    73  A73         0.2141
   1238  C5'       14.9320    3.1990   16.0060 C.3    73  A73         0.1812
   1239  O5'       15.1810    2.7260   14.6910 O.3    73  A73        -0.3114
   1240  C4'       15.3020    4.6620   16.1230 C.3    73  A73         0.1773
   1241  O4'       16.1090    5.1040   15.0030 O.3    73  A73        -0.3307
   1242  C3'       14.1720    5.6730   16.0770 C.3    73  A73         0.1860
   1243  O3'       13.4470    5.6790   17.2980 O.3    73  A73        -0.3112
   1244  C2'       14.9580    6.9680   15.9140 C.3    73  A73         0.2309
   1245  O2'       15.5370    7.3680   17.1390 O.3    73  A73        -0.2156
   1246  C1'       16.0740    6.5250   14.9600 C.3    73  A73         0.2408
   1247  N1        15.7210   10.5500   11.7770 N.ar   73  A73        -0.2040
   1248  C2        15.8940   10.4620   13.1010 C.ar   73  A73         0.2016
   1249  N3        15.9680    9.3770   13.8720 N.ar   73  A73        -0.2048
   1250  C4        15.8390    8.2600   13.1340 C.ar   73  A73         0.1692
   1251  C5        15.6540    8.1890   11.7650 C.ar   73  A73         0.1518
   1252  C6        15.6000    9.4080   11.0630 C.ar   73  A73         0.1919
   1253  N6        15.4430    9.4940    9.7390 N.pl3  73  A73        -0.1054
   1254  N7        15.5580    6.8670   11.3510 N.ar   73  A73        -0.2193
   1255  C8        15.6900    6.1790   12.4600 C.ar   73  A73         0.1816
   1256  N9        15.8710    6.9580   13.5770 N.ar   73  A73        -0.2693
   1257  OP1       16.3020    0.4790   14.5790 O.3    73  A73        -0.4373
   1258  OP2       16.8870    2.3880   12.9670 O.co2  73  A73        -0.5172
   1259  P         11.8570    5.8970   17.2760 P.3    74  U74         0.2141
   1260  C5'       12.2350    8.4250   17.8870 C.3    74  U74         0.1812
   1261  O5'       11.6840    7.4570   16.9960 O.3    74  U74        -0.3114
   1262  C4'       12.2360    9.7930   17.2430 C.3    74  U74         0.1773
   1263  O4'       13.1630    9.8050   16.1230 O.3    74  U74        -0.3307
   1264  C3'       10.9190   10.2360   16.6220 C.3    74  U74         0.1860
   1265  O3'       10.0500   10.7970   17.6010 O.3    74  U74        -0.3112
   1266  C2'       11.3850   11.3070   15.6430 C.3    74  U74         0.2309
   1267  O2'       11.6690   12.5270   16.3000 O.3    74  U74        -0.2156
   1268  C1'       12.6890   10.6960   15.1250 C.3    74  U74         0.2420
   1269  N1        12.5440    9.9590   13.8600 N.ar   74  U74        -0.2534
   1270  C2        12.5620   10.6950   12.6890 C.ar   74  U74         0.3546
   1271  O2        12.6600   11.9070   12.6780 O.2    74  U74        -0.2443
   1272  N3        12.4610    9.9570   11.5350 N.ar   74  U74        -0.1530
   1273  C4        12.3450    8.5820   11.4350 C.ar   74  U74         0.2846
   1274  O4        12.3690    8.0500   10.3200 O.2    74  U74        -0.2650
   1275  C5        12.3080    7.8970   12.6910 C.ar   74  U74         0.0814
   1276  C6        12.4070    8.5910   13.8320 C.ar   74  U74         0.0870
   1277  OP1       11.3560    5.5980   18.6480 O.3    74  U74        -0.4373
   1278  OP2       11.3050    5.1560   16.1150 O.co2  74  U74        -0.5172
   1279  P          8.4580   10.6580   17.4220 P.3    75  U75         0.2141
   1280  C5'        8.2900   12.9280   16.1200 C.3    75  U75         0.1812
   1281  O5'        8.1360   11.5150   16.1180 O.3    75  U75        -0.3114
   1282  C4'        7.9260   13.4950   14.7680 C.3    75  U75         0.1773
   1283  O4'        8.9680   13.1750   13.8060 O.3    75  U75        -0.3307
   1284  C3'        6.6680   12.9410   14.1230 C.3    75  U75         0.1860
   1285  O3'        5.5040   13.5650   14.6500 O.3    75  U75        -0.3112
   1286  C2'        6.9020   13.3120   12.6650 C.3    75  U75         0.2309
   1287  O2'        6.7130   14.6910   12.4200 O.3    75  U75        -0.2156
   1288  C1'        8.3880   12.9830   12.5220 C.3    75  U75         0.2420
   1289  N1         8.6290   11.5940   12.1090 N.ar   75  U75        -0.2534
   1290  C2         8.6180   11.3150   10.7560 C.ar   75  U75         0.3546
   1291  O2         8.4170   12.1660    9.9050 O.2    75  U75        -0.2443
   1292  N3         8.8500   10.0000   10.4340 N.ar   75  U75        -0.1530
   1293  C4         9.0800    8.9600   11.3090 C.ar   75  U75         0.2846
   1294  O4         9.2720    7.8290   10.8650 O.2    75  U75        -0.2650
   1295  C5         9.0730    9.3290   12.6920 C.ar   75  U75         0.0814
   1296  C6         8.8560   10.6020   13.0360 C.ar   75  U75         0.0870
   1297  OP1        7.7930   11.3040   18.5830 O.3    75  U75        -0.4373
   1298  OP2        8.1760    9.2350   17.1120 O.co2  75  U75        -0.5172
   1299  P          4.0790   12.8300   14.5220 P.3    76  A76         0.2141
   1300  C5'        3.4240   14.0860   12.3130 C.3    76  A76         0.1812
   1301  O5'        3.7630   12.8640   12.9610 O.3    76  A76        -0.3114
   1302  C4'        3.1120   13.8350   10.8580 C.3    76  A76         0.1773
   1303  O4'        4.3210   13.4270   10.1620 O.3    76  A76        -0.3307
   1304  C3'        2.1260   12.7120   10.5720 C.3    76  A76         0.1860
   1305  O3'        0.7820   13.1690   10.7060 O.3    76  A76        -0.3112
   1306  C2'        2.4650   12.3730    9.1250 C.3    76  A76         0.2309
   1307  O2'        1.9170   13.2930    8.2000 O.3    76  A76        -0.2156
   1308  C1'        3.9900   12.5000    9.1390 C.3    76  A76         0.2408
   1309  N1         5.9400    8.1410    7.2030 N.ar   76  A76        -0.2040
   1310  C2         5.3310    9.1870    6.6260 C.ar   76  A76         0.2016
   1311  N3         4.8470   10.2970    7.1880 N.ar   76  A76        -0.2048
   1312  C4         5.0360   10.2760    8.5200 C.ar   76  A76         0.1692
   1313  C5         5.6460    9.2750    9.2550 C.ar   76  A76         0.1518
   1314  C6         6.1200    8.1570    8.5440 C.ar   76  A76         0.1919
   1315  N6         6.7370    7.1210    9.1220 N.pl3  76  A76        -0.1054
   1316  N7         5.6620    9.5980   10.6050 N.ar   76  A76        -0.2193
   1317  C8         5.0730   10.7680   10.6560 C.ar   76  A76         0.1816
   1318  N9         4.6690   11.2380    9.4310 N.ar   76  A76        -0.2693
   1319  OP1        3.0720   13.6720   15.2170 O.3    76  A76        -0.4373
   1320  OP2        4.2510   11.4090   14.9200 O.co2  76  A76        -0.5172
   1321  P         -0.3430   12.1810   11.3000 P.3    77  U77         0.2141
   1322  C5'       -1.2440   11.7540    8.8800 C.3    77  U77         0.1812
   1323  O5'       -0.6930   11.2240   10.0780 O.3    77  U77        -0.3114
   1324  C4'       -1.1430   10.7440    7.7670 C.3    77  U77         0.1773
   1325  O4'        0.2560   10.5040    7.4570 O.3    77  U77        -0.3307
   1326  C3'       -1.6670    9.3560    8.0850 C.3    77  U77         0.1860
   1327  O3'       -3.0800    9.2910    7.9540 O.3    77  U77        -0.3112
   1328  C2'       -0.9730    8.5240    7.0160 C.3    77  U77         0.2309
   1329  O2'       -1.5810    8.6490    5.7460 O.3    77  U77        -0.2156
   1330  C1'        0.4140    9.1680    7.0020 C.3    77  U77         0.2420
   1331  N1         1.3500    8.4780    7.8990 N.ar   77  U77        -0.2534
   1332  C2         2.0050    7.3760    7.3970 C.ar   77  U77         0.3546
   1333  O2         1.8400    6.9790    6.2580 O.2    77  U77        -0.2443
   1334  N3         2.8550    6.7550    8.2780 N.ar   77  U77        -0.1530
   1335  C4         3.1080    7.1210    9.5830 C.ar   77  U77         0.2846
   1336  O4         3.8750    6.4410   10.2630 O.2    77  U77        -0.2650
   1337  C5         2.3960    8.2800   10.0270 C.ar   77  U77         0.0814
   1338  C6         1.5620    8.9040    9.1890 C.ar   77  U77         0.0870
   1339  OP1       -1.5440   12.9960   11.6050 O.2    77  U77        -0.5172
   1340  OP2        0.2730   11.3580   12.3670 O.co2  77  U77        -0.4373
   1341  P         -3.8910    8.1410    8.7240 P.3    78  G78         0.2141
   1342  C5'       -4.0220    6.5980    6.6050 C.3    78  G78         0.1812
   1343  O5'       -3.5290    6.8120    7.9220 O.3    78  G78        -0.3114
   1344  C4'       -3.3970    5.3620    6.0080 C.3    78  G78         0.1773
   1345  O4'       -1.9520    5.4820    6.0530 O.3    78  G78        -0.3307
   1346  C3'       -3.6700    4.0620    6.7470 C.3    78  G78         0.1860
   1347  O3'       -4.9330    3.5230    6.3710 O.3    78  G78        -0.3112
   1348  C2'       -2.5230    3.1860    6.2580 C.3    78  G78         0.2309
   1349  O2'       -2.7530    2.6590    4.9670 O.3    78  G78        -0.2156
   1350  C1'       -1.3750    4.1960    6.2000 C.3    78  G78         0.2408
   1351  N1         2.2580    1.7800    8.7930 N.ar   78  G78        -0.1709
   1352  C2         1.6540    1.4340    7.6100 C.ar   78  G78         0.2606
   1353  N2         2.0830    0.3030    7.0380 N.pl3  78  G78        -0.0859
   1354  N3         0.7010    2.1470    7.0290 N.ar   78  G78        -0.1918
   1355  C4         0.3970    3.2540    7.7390 C.ar   78  G78         0.1723
   1356  C5         0.9390    3.6890    8.9300 C.ar   78  G78         0.1748
   1357  C6         1.9630    2.9140    9.5410 C.ar   78  G78         0.3023
   1358  O6         2.5770    3.1350   10.5930 O.2    78  G78        -0.2633
   1359  N7         0.3480    4.8780    9.3340 N.ar   78  G78        -0.2173
   1360  C8        -0.5230    5.1420    8.3970 C.ar   78  G78         0.1817
   1361  N9        -0.5400    4.2000    7.3970 N.ar   78  G78        -0.2693
   1362  OP1       -5.3420    8.4120    8.5630 O.2    78  G78        -0.5172
   1363  OP2       -3.3110    8.0170   10.0870 O.co2  78  G78        -0.4373
   1364  P         -5.7080    2.5400    7.3770 P.3    79  U79         0.2141
   1365  C5'       -4.9670    0.3770    6.0910 C.3    79  U79         0.1812
   1366  O5'       -4.9090    1.1670    7.2740 O.3    79  U79        -0.3114
   1367  C4'       -4.0610   -0.8230    6.2210 C.3    79  U79         0.1773
   1368  O4'       -2.6970   -0.3690    6.4210 O.3    79  U79        -0.3307
   1369  C3'       -4.3240   -1.7150    7.4230 C.3    79  U79         0.1860
   1370  O3'       -5.3590   -2.6510    7.1440 O.3    79  U79        -0.3112
   1371  C2'       -2.9840   -2.4190    7.5930 C.3    79  U79         0.2309
   1372  O2'       -2.8180   -3.5040    6.7030 O.3    79  U79        -0.2156
   1373  C1'       -2.0040   -1.3000    7.2350 C.3    79  U79         0.2420
   1374  N1        -1.4850   -0.5930    8.4120 N.ar   79  U79        -0.2534
   1375  C2        -0.4510   -1.1870    9.1080 C.ar   79  U79         0.3546
   1376  O2         0.0290   -2.2600    8.7890 O.2    79  U79        -0.2443
   1377  N3         0.0010   -0.4790   10.1920 N.ar   79  U79        -0.1530
   1378  C4        -0.4650    0.7370   10.6410 C.ar   79  U79         0.2846
   1379  O4         0.0820    1.2760   11.6040 O.2    79  U79        -0.2650
   1380  C5        -1.5430    1.2830    9.8720 C.ar   79  U79         0.0814
   1381  C6        -2.0040    0.6150    8.8100 C.ar   79  U79         0.0870
   1382  OP1       -7.0800    2.3230    6.8500 O.2    79  U79        -0.5172
   1383  OP2       -5.5260    3.0700    8.7540 O.co2  79  U79        -0.4373
   1384  P         -6.1590   -3.3380    8.3560 P.3    80  C80         0.2141
   1385  C5'       -4.5810   -5.4260    8.5680 C.3    80  C80         0.1812
   1386  O5'       -5.0520   -4.1970    9.1170 O.3    80  C80        -0.3114
   1387  C4'       -3.5650   -6.0610    9.4890 C.3    80  C80         0.1773
   1388  O4'       -2.4350   -5.1690    9.6530 O.3    80  C80        -0.3307
   1389  C3'       -4.0270   -6.3240   10.9130 C.3    80  C80         0.1860
   1390  O3'       -4.7320   -7.5570   10.9920 O.3    80  C80        -0.3112
   1391  C2'       -2.7040   -6.4140   11.6660 C.3    80  C80         0.2309
   1392  O2'       -2.1060   -7.6910   11.5710 O.3    80  C80        -0.2156
   1393  C1'       -1.8500   -5.3790   10.9260 C.3    80  C80         0.2420
   1394  N1        -1.7770   -4.0880   11.6240 N.ar   80  C80        -0.2535
   1395  C2        -0.7840   -3.9040   12.5890 C.ar   80  C80         0.3532
   1396  O2         0.0020   -4.8330   12.8230 O.2    80  C80        -0.2443
   1397  N3        -0.7050   -2.7210   13.2410 N.ar   80  C80        -0.1739
   1398  C4        -1.5710   -1.7460   12.9580 C.ar   80  C80         0.1759
   1399  N4        -1.4560   -0.5960   13.6260 N.pl3  80  C80        -0.1070
   1400  C5        -2.5940   -1.9070   11.9780 C.ar   80  C80         0.0566
   1401  C6        -2.6600   -3.0830   11.3410 C.ar   80  C80         0.0850
   1402  OP1       -7.1540   -4.2750    7.7750 O.2    80  C80        -0.5172
   1403  OP2       -6.6140   -2.2540    9.2640 O.co2  80  C80        -0.4373
   1404  P         -5.6460   -7.8700   12.2760 P.3    81  C81         0.2141
   1405  C5'       -3.8250   -9.2330   13.5910 C.3    81  C81         0.1813
   1406  O5'       -4.6010   -8.0440   13.4670 O.3    81  C81        -0.3114
   1407  C4'       -2.8690   -9.1150   14.7550 C.3    81  C81         0.1801
   1408  O4'       -2.0470   -7.9300   14.5960 O.3    81  C81        -0.3306
   1409  C3'       -3.5080   -8.9160   16.1190 C.3    81  C81         0.2161
   1410  O3'       -4.0750  -10.1140   16.6680 O.3    81  C81        -0.2175
   1411  C2'       -2.3540   -8.3280   16.9200 C.3    81  C81         0.2338
   1412  O2'       -1.4230   -9.3030   17.3430 O.3    81  C81        -0.2155
   1413  C1'       -1.6990   -7.4210   15.8750 C.3    81  C81         0.2421
   1414  N1        -2.1510   -6.0240   15.9520 N.ar   81  C81        -0.2535
   1415  C2        -1.4500   -5.1340   16.7710 C.ar   81  C81         0.3532
   1416  O2        -0.4700   -5.5490   17.4070 O.2    81  C81        -0.2443
   1417  N3        -1.8580   -3.8460   16.8480 N.ar   81  C81        -0.1739
   1418  C4        -2.9200   -3.4400   16.1490 C.ar   81  C81         0.1759
   1419  N4        -3.2880   -2.1610   16.2560 N.pl3  81  C81        -0.1070
   1420  C5        -3.6530   -4.3270   15.3080 C.ar   81  C81         0.0566
   1421  C6        -3.2380   -5.5980   15.2400 C.ar   81  C81         0.0850
   1422  OP1       -6.3240   -9.1720   12.0510 O.2    81  C81        -0.5172
   1423  OP2       -6.4610   -6.6570   12.5500 O.co2  81  C81        -0.4373
@<TRIPOS>BOND
     1   721   720    2
     2   722   720   ar
     3   722   723   ar
     4   687   666    2
     5   724   723    2
     6   707   689    2
     7   720   719   ar
     8   723   725   ar
     9   295   277    2
    10   262   261    1
    11   667   668    1
    12   667   669    1
    13   260   277    1
    14   260   259    1
    15   257   255    1
    16   257   258    1
    17   257   259    1
    18   255   256    1
    19   650   666    1
    20   650   649    1
    21   689   708    1
    22   689   672    1
    23   689   691    1
    24   719   718    1
    25   719   726   ar
    26   666   668    1
    27   666   688    1
    28   242   241    1
    29   725   726   ar
    30   672   671    1
    31   713   718    1
    32   713   712    1
    33   258   263    1
    34   664   644    2
    35   277   279    1
    36   277   296    1
    37   669   671    1
    38   669   670    1
    39   718   716    1
    40   259   261    1
    41   275   254    2
    42   645   647    1
    43   645   646    1
    44   261   263    1
    45   647   649    1
    46   647   648    1
    47   728   709    2
    48   652   651    1
    49   263   274    1
    50   279   278    1
    51   148   128    2
    52   240   254    1
    53   240   239    1
    54   649   651    1
    55   256   254    1
    56   671   673    1
    57   691   690    1
    58   629   628    1
    59   711   709    1
    60   711   710    1
    61   690   692    1
    62   712   710    1
    63   712   714    1
    64   254   276    1
    65   241   239    1
    66   241   243    1
    67   168   150    2
    68   670   675    1
    69   223   222   ar
    70   223   224   ar
    71   222   227   ar
    72   646   644    1
    73   644   627    1
    74   644   665    1
    75   651   653    1
    76   648   653    1
    77   627   626    1
    78   709   727    1
    79   709   695    1
    80   674   673    1
    81   716   717    1
    82   716   714    1
    83   239   237    1
    84   237   238    1
    85   237   235    1
    86   715   714    1
    87   715   729    1
    88   748   729    2
    89   169   150    1
    90   243   238    1
    91   243   244    1
    92   278   280    1
    93   673   675    1
    94   274   273   ar
    95   274   268   ar
    96   633   632    1
    97   694   692    1
    98   694   695    1
    99   694   696    1
   100   246   245    2
   101   628   626    1
   102   628   630    1
   103   692   693    1
   104   280   281    1
   105   280   282    1
   106   128   114    1
   107   128   149    1
   108   128   130    1
   109   224   225   ar
   110   653   663    1
   111   150   134    1
   112   150   152    1
   113   747   729    1
   114   675   686    1
   115   729   731    1
   116   281   286    1
   117   227   228    1
   118   227   226   ar
   119   114   113    1
   120   267   268   ar
   121   267   265   ar
   122   235   236    1
   123   187   188   ar
   124   187   184   ar
   125   626   624    1
   126   285   284    1
   127   188   189   ar
   128   129   130    1
   129   129   131    1
   130   273   272   ar
   131   268   269   ar
   132   283   282    1
   133   283   297    1
   134   634   632   ar
   135   634   635   ar
   136   134   133    1
   137   696   697    1
   138   696   698    1
   139   624   625    1
   140   624   622    1
   141   126   108    2
   142   632   631   ar
   143   244   245   ar
   144   244   251   ar
   145   245   247   ar
   146   630   625    1
   147   630   641    1
   148   318   297    2
   149   151   152    1
   150   151   153    1
   151   282   284    1
   152   225   226   ar
   153   225   231   ar
   154   685   686   ar
   155   685   684   ar
   156   266   265    1
   157   693   698    1
   158   109   111    1
   159   109   110    1
   160   686   680   ar
   161   286   284    1
   162   286   287    1
   163   226   229   ar
   164   265   264   ar
   165   663   662   ar
   166   663   657   ar
   167   116   115    1
   168   111   113    1
   169   111   112    1
   170   131   133    1
   171   131   132    1
   172   113   115    1
   173   186   185    1
   174   236   234    1
   175   220   219    1
   176   184   185   ar
   177   184   183   ar
   178   731   730    1
   179   189   179    1
   180   189   183   ar
   181   622   623    1
   182   297   299    1
   183   297   319    1
   184   133   135    1
   185   272   269   ar
   186   662   661   ar
   187   635   641   ar
   188   635   636   ar
   189   298   299    1
   190   298   300    1
   191   698   699    1
   192   269   270   ar
   193   706   705   ar
   194   706   699   ar
   195   219   221    1
   196   219   217    1
   197   641   640   ar
   198   251   250   ar
   199   631   637   ar
   200   179   174    1
   201   179   177    1
   202   110   108    1
   203   247   248   ar
   204   108    92    1
   205   108   127    1
   206   185   180   ar
   207   115   117    1
   208   684   681   ar
   209   231   221    1
   210   231   230   ar
   211   656   657   ar
   212   656   655   ar
   213   657   658   ar
   214   153   154    1
   215   153   155    1
   216   287   294   ar
   217   287   288   ar
   218   730   732    1
   219   183   182   ar
   220   174   173    1
   221   680   679   ar
   222   680   681   ar
   223   252   234    2
   224   294   293   ar
   225   705   703   ar
   226   264   270   ar
   227   221   216    1
   228   699   700   ar
   229   229   230   ar
   230    92    91    1
   231  1172  1154    2
   232   132   137    1
   233   112   117    1
   234   300   301    1
   235   300   302    1
   236   190   170    2
   237   234   218    1
   238   234   253    1
   239   178   177    1
   240   136   135    1
   241   218   217    1
   242   154   159    1
   243  1109  1089    2
   244   270   271    2
   245   166   167   ar
   246   166   164   ar
   247   623   621    1
   248   679   677   ar
   249   167   160   ar
   250   135   137    1
   251   217   215    1
   252   636   637   ar
   253   636   639   ar
   254    94    93    1
   255   609   608    1
   256   661   658   ar
   257   681   682   ar
   258   177   175    1
   259   248   250   ar
   260   248   249    1
   261   301   306    1
   262   613   612    2
   263   637   638    2
   264   117   118    1
   265   640   639   ar
   266   289   288    2
   267   155   157    1
   268   155   156    1
   269   658   659   ar
   270   288   290   ar
   271   180   181   ar
   272   745   746   ar
   273   745   743   ar
   274   655   654   ar
   275   293   291   ar
   276   746   739   ar
   277   172   170    1
   278   172   171    1
   279   137   147    1
   280   173   175    1
   281   173   171    1
   282   642   621    2
   283   182   181   ar
   284  1137  1154    1
   285  1137  1136    1
   286   338   320    2
   287   303   302    1
   288   303   320    1
   289   732   734    1
   290   732   733    1
   291   700   701    2
   292   700   702   ar
   293   216   215    1
   294   703   702   ar
   295   703   704    2
   296    91    93    1
   297    91    89    1
   298   170   156    1
   299   170   191    1
   300   608   610    1
   301   608   606    1
   302  1154  1173    1
   303  1154  1156    1
   304   302   304    1
   305   157   159    1
   306   157   158    1
   307   160   159    1
   308   160   161   ar
   309   164   165    2
   310   164   163   ar
   311    93    95    1
   312  1132  1134    1
   313  1132  1133    1
   314   621   607    1
   315   621   643    1
   316   215   213    1
   317   734   736    1
   318   734   735    1
   319  1091  1089    1
   320  1091  1090    1
   321   733   738    1
   322   677   678    1
   323   677   676   ar
   324  1152  1131    2
   325  1089  1073    1
   326  1089  1110    1
   327   612   614   ar
   328   612   611   ar
   329   175   176    1
   330  1097  1096    1
   331   339   320    1
   332  1134  1136    1
   333  1134  1135    1
   334   320   322    1
   335    89    87    1
   336    89    90    1
   337   736   738    1
   338   736   737    1
   339  1155  1156    1
   340  1155  1157    1
   341   682   676   ar
   342   682   683    2
   343   118   125   ar
   344   118   119   ar
   345   607   606    1
   346   306   304    1
   347   306   317    1
   348   744   743    2
   349   743   742   ar
   350  1139  1138    1
   351   290   291   ar
   352   305   304    1
   353   614   615   ar
   354  1192  1174    2
   355   659   654   ar
   356   659   660    1
   357   291   292    1
   358   146   147   ar
   359   146   145   ar
   360   147   141   ar
   361   125   124   ar
   362   610   611    1
   363   610   605    1
   364   739   738    1
   365   739   740   ar
   366   316   317   ar
   367   316   315   ar
   368   767   749    2
   369  1136  1138    1
   370  1073  1072    1
   371    87    88    1
   372  1119  1118    1
   373   606   604    1
   374  1092  1090    1
   375  1092  1093    1
   376  1092  1094    1
   377   163   161   ar
   378   161   162    2
   379   120   119    2
   380   611   618   ar
   381   176   192    1
   382  1095  1094    1
   383  1095  1111    1
   384   317   311   ar
   385  1117  1131    1
   386  1117  1116    1
   387  1133  1131    1
   388    95    90    1
   389    95   105    1
   390   735   749    1
   391   119   121   ar
   392  1129  1111    2
   393  1135  1140    1
   394  1131  1153    1
   395   768   749    1
   396   106    86    2
   397  1070  1072    1
   398  1070  1068    1
   399  1070  1071    1
   400  1093  1098    1
   401   213   214    1
   402  1138  1140    1
   403  1157  1159    1
   404  1157  1158    1
   405   590   589    1
   406   749   751    1
   407  1096  1094    1
   408  1096  1098    1
   409    88    86    1
   410  1160  1174    1
   411  1160  1159    1
   412   742   740   ar
   413   315   312   ar
   414  1174  1193    1
   415  1174  1176    1
   416  1072  1074    1
   417   615   616    1
   418   615   617   ar
   419  1068  1069    1
   420   740   741    2
   421   145   142   ar
   422   604   605    1
   423   604   602    1
   424   124   122   ar
   425   322   321    1
   426  1098  1108    1
   427  1023  1002    2
   428  1349  1348    1
   429   141   140   ar
   430   141   142   ar
   431  1140  1151    1
   432  1111  1130    1
   433  1111  1113    1
   434  1071  1076    1
   435  1118  1116    1
   436  1118  1120    1
   437  1159  1161    1
   438   321   323    1
   439  1116  1114    1
   440   618   617   ar
   441    98    99   ar
   442    98    97   ar
   443    86    72    1
   444    86   107    1
   445  1114  1112    1
   446  1114  1115    1
   447  1053  1052    1
   448   214   212    1
   449   105    99   ar
   450   105   104   ar
   451   121   122   ar
   452   311   312   ar
   453   311   310   ar
   454  1158  1163    1
   455   140   139   ar
   456   142   143   ar
   457  1329  1328    1
   458   589   588   ar
   459   589   591   ar
   460   192   211    2
   461   192   194    1
   462   192   210    1
   463   805   804    1
   464  1000   982    2
   465   312   313   ar
   466   983   985    1
   467   983   984    1
   468  1076  1074    1
   469  1076  1086    1
   470   122   123    2
   471   193   194    1
   472   193   195    1
   473   588   594   ar
   474    99   100   ar
   475  1079  1078   ar
   476  1079  1080   ar
   477  1344  1345    1
   478  1344  1342    1
   479  1344  1346    1
   480   970   969    1
   481  1345  1350    1
   482  1087  1067    2
   483  1365  1367    1
   484  1365  1366    1
   485  1176  1175    1
   486  1112  1113    1
   487   751   750    1
   488    97    96   ar
   489  1074  1075    1
   490  1115  1120    1
   491  1350  1348    1
   492  1350  1361    1
   493  1069  1067    1
   494  1120  1121    1
   495  1367  1368    1
   496  1367  1369    1
   497    72    71    1
   498   988  1002    1
   499   988   987    1
   500  1348  1346    1
   501  1333  1332    2
   502  1002  1024    1
   503  1002  1004    1
   504   602   603    1
   505   985   987    1
   506   985   986    1
   507   310   308   ar
   508   968   982    1
   509   968   967    1
   510  1175  1177    1
   511  1078  1077   ar
   512  1347  1346    1
   513  1347  1364    1
   514  1108  1102   ar
   515  1108  1107   ar
   516   104   103   ar
   517  1368  1373    1
   518    74    73    1
   519   784   783    2
   520  1151  1150   ar
   521  1151  1145   ar
   522   750   752    1
   523  1342  1343    1
   524   823   822    2
   525  1310  1311   ar
   526  1310  1309   ar
   527   799   804   ar
   528   799   800   ar
   529  1101  1102   ar
   530  1101  1100   ar
   531  1161  1162    1
   532  1161  1163    1
   533   591   592   ar
   534  1372  1371    1
   535   336   337   ar
   536   336   334   ar
   537  1051  1067    1
   538  1051  1050    1
   539   965   963    1
   540   965   967    1
   541   965   966    1
   542   323   324    1
   543   323   325    1
   544   824   822   ar
   545   824   825   ar
   546  1163  1164    1
   547   804   803   ar
   548  1382  1364    2
   549  1052  1054    1
   550  1052  1050    1
   551   982   984    1
   552   982  1001    1
   553   139   138   ar
   554   337   330   ar
   555  1067  1088    1
   556  1171  1164   ar
   557  1171  1170   ar
   558   603   601    1
   559  1150  1149   ar
   560  1330  1328    1
   561  1330  1325    1
   562  1330  1331    1
   563   324   329    1
   564  1328  1326    1
   565   826   825    1
   566   212   233    2
   567   212   232    1
   568   212   198    1
   569  1354  1352   ar
   570  1354  1355   ar
   571  1123  1122    2
   572  1353  1352    1
   573  1080  1086   ar
   574  1080  1081   ar
   575  1086  1085   ar
   576   990   989    1
   577   963   964    1
   578   313   314    2
   579   313   307   ar
   580   100   103   ar
   581   100   101   ar
   582  1102  1103   ar
   583   594   595    2
   584   594   593   ar
   585   987   989    1
   586   143   138   ar
   587   143   144    1
   588  1370  1369    1
   589  1370  1384    1
   590    73    71    1
   591    73    75    1
   592  1311  1312   ar
   593  1309  1314   ar
   594   986   991    1
   595  1373  1371    1
   596  1373  1374    1
   597   195   197    1
   598   195   196    1
   599   967   969    1
   600    96   101   ar
   601  1366  1364    1
   602  1107  1106   ar
   603  1213  1194    2
   604   822   821   ar
   605   969   971    1
   606  1364  1383    1
   607    71    69    1
   608   362   340    2
   609  1004  1003    1
   610  1361  1355   ar
   611  1361  1360   ar
   612  1332  1331   ar
   613  1332  1334   ar
   614  1369  1371    1
   615  1054  1049    1
   616  1054  1064    1
   617  1325  1324    1
   618   765   766   ar
   619   765   763   ar
   620   966   971    1
   621  1003  1005    1
   622   308   307   ar
   623   308   309    1
   624   825   827   ar
   625  1050  1048    1
   626  1164  1165   ar
   627  1144  1145   ar
   628  1144  1142   ar
   629  1077  1082   ar
   630  1212  1194    1
   631  1121  1122   ar
   632  1121  1128   ar
   633  1352  1351   ar
   634  1145  1146   ar
   635   783   785   ar
   636   783   782   ar
   637  1170  1168   ar
   638  1100  1099   ar
   639  1049  1048    1
   640   198   197    1
   641   948   947    1
   642   325   326    1
   643   325   327    1
   644   800   801   ar
   645  1355  1356   ar
   646   766   759   ar
   647  1324  1326    1
   648  1324  1322    1
   649  1402  1384    2
   650  1048  1046    1
   651   101   102    1
   652   335   334    2
   653   334   333   ar
   654  1177  1178    1
   655  1177  1179    1
   656   592   593   ar
   657   592   598   ar
   658  1122  1124   ar
   659  1331  1338   ar
   660   989   991    1
   661   785   786   ar
   662  1343  1341    1
   663   971   972    1
   664  1327  1326    1
   665  1327  1341    1
   666   586   585    1
   667   788   769    2
   668   326   340    1
   669   752   753    1
   670   752   754    1
   671    78    77    2
   672   330   329    1
   673   330   331   ar
   674  1043  1025    2
   675   197   199    1
   676   196   201    1
   677  1194  1180    1
   678  1194  1196    1
   679  1057  1056   ar
   680  1057  1058   ar
   681   593   596   ar
   682   803   806   ar
   683   803   802   ar
   684   753   758    1
   685  1307  1306    1
   686   991   992    1
   687   361   340    1
   688   340   342    1
   689   980   962    2
   690  1334  1335   ar
   691   329   327    1
   692  1149  1146   ar
   693   764   763    1
   694  1384  1386    1
   695  1384  1403    1
   696  1085  1084   ar
   697  1081  1082   ar
   698  1081  1084   ar
   699  1360  1359   ar
   700  1374  1381   ar
   701  1374  1375   ar
   702  1180  1179    1
   703   585   587    1
   704   585   583    1
   705  1103  1106   ar
   706  1103  1104   ar
   707   601   619    2
   708   601   620    1
   709   601   584    1
   710   964   962    1
   711    69    70    1
   712    69    67    1
   713  1178  1183    1
   714  1312  1313   ar
   715  1312  1318   ar
   716   763   762   ar
   717  1314  1315    1
   718  1314  1313   ar
   719  1362  1341    2
   720  1385  1386    1
   721  1385  1387    1
   722  1179  1181    1
   723  1128  1127   ar
   724   821   820    1
   725   821   828   ar
   726    75    76    1
   727    75    70    1
   728  1082  1083    1
   729  1146  1147   ar
   730  1064  1058   ar
   731  1064  1063   ar
   732   806   807   ar
   733   782   780   ar
   734  1341  1363    1
   735  1056  1055   ar
   736  1376  1375    2
   737  1351  1357   ar
   738  1142  1143    1
   739  1142  1141   ar
   740  1381  1380   ar
   741   819   818    1
   742  1005  1007    1
   743  1005  1006    1
   744  1322  1323    1
   745  1191  1190   ar
   746  1191  1184   ar
   747    77    76   ar
   748    77    79   ar
   749   827   828   ar
   750  1356  1359   ar
   751  1356  1357   ar
   752   327   328    1
   753   754   755    1
   754   754   756    1
   755  1165  1166    2
   756  1165  1167   ar
   757  1058  1059   ar
   758   333   331   ar
   759  1099  1104   ar
   760   598   587    1
   761   598   597   ar
   762   947   949    1
   763   947   945    1
   764   801   802   ar
   765   952   951   ar
   766   952   953   ar
   767   951   950   ar
   768   818   820    1
   769   818   816    1
   770  1168  1167   ar
   771  1168  1169    2
   772   759   758    1
   773   759   760   ar
   774  1190  1188   ar
   775  1007  1009    1
   776  1007  1008    1
   777  1375  1377   ar
   778  1046  1047    1
   779  1306  1308    1
   780  1306  1304    1
   781   946   962    1
   782   946   945    1
   783  1047  1045    1
   784  1308  1318    1
   785  1308  1303    1
   786   587   582    1
   787   962   981    1
   788   820   815    1
   789   802   808   ar
   790   331   332    2
   791   786   779   ar
   792  1338  1337   ar
   793  1124  1125   ar
   794  1026  1027    1
   795  1026  1028    1
   796  1313  1316   ar
   797    76    83   ar
   798   584   583    1
   799   769   755    1
   800   769   787    1
   801   769   771    1
   802    67    68    1
   803   758   756    1
   804   974   973    2
   805   972   973   ar
   806   972   979   ar
   807  1104  1105    1
   808  1318  1317   ar
   809   596   597   ar
   810   201   199    1
   811   201   202    1
   812  1387  1388    1
   813  1387  1389    1
   814   199   200    1
   815    79    80   ar
   816   992   999   ar
   817   992   993   ar
   818  1357  1358    2
   819  1196  1195    1
   820   583   581    1
   821  1025  1027    1
   822  1025  1008    1
   823  1025  1044    1
   824  1335  1337   ar
   825  1335  1336    2
   826   209   202   ar
   827   209   208   ar
   828  1388  1393    1
   829   999   998   ar
   830   358   359   ar
   831   358   355   ar
   832  1009  1010    1
   833  1009  1011    1
   834  1253  1252    1
   835   342   341    1
   836   949   944    1
   837   949   959    1
   838   762   760   ar
   839  1183  1184    1
   840  1183  1181    1
   841  1063  1062   ar
   842  1380  1378   ar
   843  1006  1011    1
   844  1291  1290    2
   845   945   943    1
   846  1127  1125   ar
   847  1141  1147   ar
   848   380   379    2
   849  1147  1148    2
   850  1184  1185   ar
   851  1055  1060   ar
   852   807   808   ar
   853  1181  1182    1
   854   357   356    2
   855   780   779   ar
   856   780   781    2
   857   950   955   ar
   858   973   975   ar
   859  1323  1321    1
   860  1028  1029    1
   861  1028  1030    1
   862   573   572    1
   863   760   761    2
   864   979   978   ar
   865   756   757    1
   866  1303  1302    1
   867   552   551    1
   868  1377  1378   ar
   869   359   360   ar
   870  1065  1045    2
   871  1021  1020   ar
   872  1021  1022   ar
   873   779   778    1
   874    83    82   ar
   875   202   203   ar
   876  1125  1126    2
   877   771   770    1
   878  1059  1062   ar
   879  1059  1060   ar
   880   953   959   ar
   881   953   954   ar
   882  1274  1273    2
   883   208   206   ar
   884   808   798    1
   885  1188  1189    1
   886  1188  1187   ar
   887   816   817    1
   888   816   814    1
   889   846   845    1
   890  1292  1290   ar
   891  1292  1293   ar
   892    80    82   ar
   893    80    81    1
   894   943   944    1
   895   943   941    1
   896   531   530    1
   897    68    66    1
   898  1195  1197    1
   899   994   993    2
   900  1045  1031    1
   901  1045  1066    1
   902   582   581    1
   903  1210  1211   ar
   904  1210  1208   ar
   905   815   814    1
   906  1304  1305    1
   907  1304  1302    1
   908   444   443    1
   909  1316  1317   ar
   910   571   572   ar
   911   571   569   ar
   912  1011  1022    1
   913   993   995   ar
   914  1378  1379    2
   915   959   958   ar
   916   850   831    2
   917  1305  1321    1
   918   581   579    1
   919   817   831    1
   920  1290  1289   ar
   921   355   356   ar
   922   355   354   ar
   923  1020  1017   ar
   924   505   504    1
   925  1060  1061    1
   926   341   343    1
   927  1236  1214    2
   928  1029  1034    1
   929  1302  1300    1
   930   402   401    1
   931   998   996   ar
   932  1294  1293    2
   933  1209  1208    1
   934   356   350   ar
   935  1389  1390    1
   936  1389  1391    1
   937  1393  1394    1
   938  1393  1391    1
   939  1022  1016   ar
   940  1231  1230    2
   941  1390  1404    1
   942   572   574   ar
   943   847   845   ar
   944   847   848   ar
   945  1252  1251   ar
   946  1252  1247   ar
   947  1030  1031    1
   948  1030  1032    1
   949  1211  1204   ar
   950   570   569    2
   951   849   831    1
   952   379   373   ar
   953   379   378   ar
   954   546   551   ar
   955   546   547   ar
   956   551   550   ar
   957  1185  1187   ar
   958  1185  1186    2
   959   831   833    1
   960  1321  1339    2
   961  1321  1340    1
   962  1293  1295   ar
   963   955   954   ar
   964   955   956    1
   965   814   812    1
   966   845   844   ar
   967  1401  1394   ar
   968  1401  1400   ar
   969  1254  1251   ar
   970  1254  1255   ar
   971  1208  1207   ar
   972   810   789    2
   973   975   976   ar
   974   423   422    2
   975  1273  1272   ar
   976  1273  1275   ar
   977   954   957   ar
   978   932   931    2
   979   438   443   ar
   980   438   439   ar
   981   978   976   ar
   982    55    54   ar
   983    55    56   ar
   984   569   568   ar
   985    84    66    2
   986  1272  1270   ar
   987   360   354   ar
   988   360   349    1
   989  1392  1391    1
   990   443   442   ar
   991  1394  1395   ar
   992   773   778    1
   993   773   772    1
   994   778   776    1
   995   203   204    2
   996   203   205   ar
   997   344   343    1
   998   344   349    1
   999   770   772    1
  1000   798   796    1
  1001   798   793    1
  1002   530   532   ar
  1003   530   529   ar
  1004    54    59   ar
  1005    66    85    1
  1006    66    50    1
  1007   206   205   ar
  1008   206   207    2
  1009  1251  1250   ar
  1010  1247  1248   ar
  1011   941   942    1
  1012   381   378   ar
  1013   381   382   ar
  1014   995   996   ar
  1015  1232  1229   ar
  1016  1232  1233   ar
  1017   373   374   ar
  1018  1197  1198    1
  1019  1197  1199    1
  1020   354   353   ar
  1021   996   997    1
  1022   532   533   ar
  1023  1400  1398   ar
  1024   848   841   ar
  1025    56    57   ar
  1026   504   506   ar
  1027   504   503   ar
  1028  1017  1016   ar
  1029  1017  1018   ar
  1030   958   957   ar
  1031   343   345    1
  1032   421   422   ar
  1033   421   419   ar
  1034  1422  1404    2
  1035   378   377   ar
  1036   501   500    1
  1037   976   977    1
  1038  1289  1288    1
  1039  1289  1296   ar
  1040   774   772    1
  1041   774   776    1
  1042   774   775    1
  1043   796   794    1
  1044   796   797    1
  1045   579   580    1
  1046   909   908    1
  1047  1230  1229   ar
  1048  1230  1224   ar
  1049   401   396   ar
  1050   401   400   ar
  1051  1016  1015   ar
  1052    52    51    1
  1053  1198  1203    1
  1054   350   351   ar
  1055  1199  1200    1
  1056  1199  1201    1
  1057  1034  1032    1
  1058  1034  1035    1
  1059  1214  1200    1
  1060  1214  1235    1
  1061  1214  1216    1
  1062  1404  1423    1
  1063  1404  1406    1
  1064  1300  1301    1
  1065   547   548   ar
  1066   385   363    2
  1067   574   575   ar
  1068   422   424   ar
  1069   776   777    1
  1070  1032  1033    1
  1071   580   578    1
  1072   907   908   ar
  1073   907   913   ar
  1074   396   397   ar
  1075   506   507   ar
  1076  1287  1286    1
  1077   914   913    2
  1078   349   347    1
  1079  1255  1256   ar
  1080   439   440   ar
  1081  1204  1203    1
  1082  1204  1205   ar
  1083   931   933   ar
  1084   931   930   ar
  1085   844   842   ar
  1086  1288  1286    1
  1087  1288  1283    1
  1088   933   934   ar
  1089   813   812    1
  1090   813   811    1
  1091  1042  1035   ar
  1092  1042  1041   ar
  1093   550   553   ar
  1094   550   549   ar
  1095   420   419    2
  1096  1229  1228   ar
  1097  1395  1396    2
  1098  1395  1397   ar
  1099   345   347    1
  1100   345   346    1
  1101   793   792    1
  1102   928   927    1
  1103    51    49    1
  1104    51    53    1
  1105    59    60    1
  1106    59    58   ar
  1107  1286  1284    1
  1108   529   527   ar
  1109  1271  1270    2
  1110   868   867    2
  1111  1270  1269   ar
  1112  1275  1276   ar
  1113  1295  1296   ar
  1114  1207  1205   ar
  1115   791   789    1
  1116   791   790    1
  1117   789   775    1
  1118   789   809    1
  1119   503   509   ar
  1120  1233  1234   ar
  1121   568   575   ar
  1122   568   567    1
  1123   442   445   ar
  1124   442   441   ar
  1125   942   940    1
  1126   482   481    1
  1127   833   832    1
  1128   794   792    1
  1129   794   795    1
  1130    57    58   ar
  1131    57    63   ar
  1132   419   418   ar
  1133    50    49    1
  1134   382   383   ar
  1135  1398  1397   ar
  1136  1398  1399    1
  1137  1301  1299    1
  1138  1258  1237    2
  1139   908   910   ar
  1140   553   554   ar
  1141  1035  1036   ar
  1142   913   912   ar
  1143  1018  1019    2
  1144  1018  1012   ar
  1145  1203  1201    1
  1146  1248  1249   ar
  1147  1250  1256   ar
  1148  1250  1249   ar
  1149  1015  1013   ar
  1150   353   351   ar
  1151  1224  1225   ar
  1152   841   842   ar
  1153   841   840    1
  1154   500   502    1
  1155   500   498    1
  1156   400   403   ar
  1157   400   399   ar
  1158   927   929    1
  1159   927   925    1
  1160  1041  1039   ar
  1161   374   375    1
  1162   374   376   ar
  1163  1216  1215    1
  1164   535   516    2
  1165   351   352    1
  1166   445   446   ar
  1167   533   526   ar
  1168  1205  1206    2
  1169    58    61   ar
  1170   830   811    2
  1171   891   890    2
  1172   403   404   ar
  1173   832   834    1
  1174   377   383   ar
  1175   377   376   ar
  1176   347   348    1
  1177   346   363    1
  1178  1201  1202    1
  1179   842   843    2
  1180  1406  1405    1
  1181   565   567    1
  1182   565   566    1
  1183   565   563    1
  1184    49    47    1
  1185   548   549   ar
  1186   792   790    1
  1187  1256  1246    1
  1188  1405  1407    1
  1189   549   555   ar
  1190   363   365    1
  1191   363   384    1
  1192    53    63    1
  1193    53    48    1
  1194   440   441   ar
  1195   935   934    1
  1196   507   513   ar
  1197   507   508   ar
  1198   929   930    1
  1199   929   924    1
  1200   397   398   ar
  1201    63    62   ar
  1202   934   936   ar
  1203   567   562    1
  1204   930   937   ar
  1205   835   840    1
  1206   835   834    1
  1207   424   425   ar
  1208   811   795    1
  1209   811   829    1
  1210   441   447   ar
  1211   502   513    1
  1212   502   497    1
  1213   600   578    2
  1214  1283  1282    1
  1215  1276  1269   ar
  1216  1269  1268    1
  1217   578   599    1
  1218   578   564    1
  1219   867   861   ar
  1220   867   866   ar
  1221  1228  1234   ar
  1222  1228  1227   ar
  1223   527   526   ar
  1224   527   528    2
  1225   383   372    1
  1226   481   480   ar
  1227   481   483   ar
  1228  1234  1223    1
  1229   499   498    1
  1230   499   516    1
  1231   509   508   ar
  1232   509   510    2
  1233   480   486   ar
  1234  1012  1013   ar
  1235  1284  1285    1
  1236  1284  1282    1
  1237  1013  1014    1
  1238   884   890   ar
  1239   884   885   ar
  1240  1036  1037    2
  1241  1036  1038   ar
  1242   526   525    1
  1243   840   838    1
  1244   418   425   ar
  1245   418   417    1
  1246    61    62   ar
  1247   554   555   ar
  1248   910   911   ar
  1249   513   512   ar
  1250   890   889   ar
  1251  1237  1257    1
  1252  1237  1239    1
  1253  1237  1220    1
  1254   940   960    2
  1255   940   926    1
  1256   940   961    1
  1257   834   836    1
  1258   563   564    1
  1259   563   561    1
  1260   498   496    1
  1261   365   364    1
  1262   516   534    1
  1263   516   518    1
  1264   446   447   ar
  1265   912   911   ar
  1266   912   915   ar
  1267  1225  1227   ar
  1268  1225  1226    1
  1269   399   398   ar
  1270   399   405   ar
  1271   508   511   ar
  1272  1299  1285    1
  1273  1299  1320    2
  1274  1299  1319    1
  1275   861   862   ar
  1276  1039  1038   ar
  1277  1039  1040    2
  1278   926   925    1
  1279   925   923    1
  1280  1408  1407    1
  1281  1408  1413    1
  1282   404   405   ar
  1283  1215  1217    1
  1284   869   866   ar
  1285   869   870   ar
  1286  1239  1238    1
  1287   555   545    1
  1288  1407  1409    1
  1289  1282  1280    1
  1290    47    48    1
  1291    47    45    1
  1292   497   496    1
  1293   447   437    1
  1294   416   415    1
  1295   866   865   ar
  1296  1219  1220    1
  1297  1219  1217    1
  1298  1219  1221    1
  1299   937   936   ar
  1300  1246  1241    1
  1301  1246  1244    1
  1302   911   917   ar
  1303   886   885    1
  1304   924   923    1
  1305  1241  1240    1
  1306   836   838    1
  1307   836   837    1
  1308   496   494    1
  1309    33    32    1
  1310   483   484   ar
  1311   562   561    1
  1312   557   536    2
  1313  1268  1266    1
  1314  1268  1263    1
  1315   487   486    2
  1316  1218  1223    1
  1317  1218  1217    1
  1318    31    32   ar
  1319    31    37   ar
  1320   486   485   ar
  1321    38    37    2
  1322  1421  1420   ar
  1323  1421  1414   ar
  1324   417   415    1
  1325   417   412    1
  1326  1223  1221    1
  1327   885   887   ar
  1328   517   518    1
  1329   517   519    1
  1330  1420  1418   ar
  1331   873   851    2
  1332   372   367    1
  1333   372   370    1
  1334   405   395    1
  1335   923   921    1
  1336   838   839    1
  1337   367   366    1
  1338  1221  1222    1
  1339   915   916   ar
  1340   512   511   ar
  1341   561   559    1
  1342  1266  1267    1
  1343  1266  1264    1
  1344    32    34   ar
  1345   525   520    1
  1346   525   523    1
  1347   889   892   ar
  1348   889   888   ar
  1349    37    36   ar
  1350   520   519    1
  1351   415   413    1
  1352   364   366    1
  1353   870   871   ar
  1354   407   386    2
  1355   862   863    1
  1356   862   864   ar
  1357  1413  1414    1
  1358  1413  1411    1
  1359  1244  1242    1
  1360  1244  1245    1
  1361    46    45    1
  1362    46    44    1
  1363   521   519    1
  1364   521   523    1
  1365   521   522    1
  1366   577   558    2
  1367  1414  1415   ar
  1368  1238  1240    1
  1369   560   559    1
  1370   560   558    1
  1371  1242  1240    1
  1372  1242  1243    1
  1373   545   543    1
  1374   545   540    1
  1375   437   432    1
  1376   437   435    1
  1377   837   851    1
  1378  1278  1259    2
  1379  1281  1280    1
  1380  1281  1279    1
  1381  1409  1410    1
  1382  1409  1411    1
  1383  1263  1262    1
  1384   484   485   ar
  1385   484   490   ar
  1386  1418  1419    1
  1387  1418  1417   ar
  1388   865   864   ar
  1389   865   871   ar
  1390   368   370    1
  1391   368   366    1
  1392   368   369    1
  1393   892   893   ar
  1394   523   524    1
  1395   370   371    1
  1396   485   488   ar
  1397   917   916   ar
  1398   917   906    1
  1399   412   411    1
  1400   543   541    1
  1401   543   544    1
  1402   494   495    1
  1403   536   538    1
  1404   536   522    1
  1405   536   556    1
  1406   851   853    1
  1407   851   872    1
  1408   887   888   ar
  1409   432   431    1
  1410   538   537    1
  1411  1264  1262    1
  1412  1264  1265    1
  1413    34    35   ar
  1414   888   894   ar
  1415    36    35   ar
  1416    36    39   ar
  1417  1415  1417   ar
  1418  1415  1416    2
  1419   871   860    1
  1420    65    44    2
  1421   395   390    1
  1422   395   393    1
  1423   541   542    1
  1424   541   539    1
  1425   558   542    1
  1426   558   576    1
  1427  1411  1412    1
  1428   921   922    1
  1429   540   539    1
  1430  1261  1259    1
  1431  1261  1260    1
  1432   414   413    1
  1433   414   428    1
  1434    44    64    1
  1435    44    27    1
  1436  1298  1279    2
  1437   413   411    1
  1438    35    41   ar
  1439   435   436    1
  1440   435   433    1
  1441   386   369    1
  1442   386   388    1
  1443   386   406    1
  1444   495   493    1
  1445  1262  1260    1
  1446   478   477    1
  1447   853   852    1
  1448  1259  1243    1
  1449  1259  1277    1
  1450   922   920    1
  1451   388   387    1
  1452   906   904    1
  1453   906   901    1
  1454   490   479    1
  1455   490   489   ar
  1456   390   389    1
  1457    17    16    2
  1458  1279  1265    1
  1459  1279  1297    1
  1460   904   905    1
  1461   904   902    1
  1462   477   479    1
  1463   477   475    1
  1464   893   894   ar
  1465    39    40   ar
  1466   449   428    2
  1467   393   391    1
  1468   393   394    1
  1469   488   489   ar
  1470   411   409    1
  1471   539   537    1
  1472   479   474    1
  1473   427   408    2
  1474   430   428    1
  1475   430   429    1
  1476   894   883    1
  1477   391   389    1
  1478   391   392    1
  1479   431   429    1
  1480   431   433    1
  1481   428   448    1
  1482   410   409    1
  1483   410   408    1
  1484    28    29    1
  1485    28    26    1
  1486    28    30    1
  1487    41    40   ar
  1488    41    30    1
  1489   860   855    1
  1490   860   858    1
  1491   855   854    1
  1492    16    10   ar
  1493    16    15   ar
  1494   389   387    1
  1495    27    26    1
  1496   433   434    1
  1497   852   854    1
  1498   902   903    1
  1499   902   900    1
  1500   901   900    1
  1501    26    24    1
  1502    10    11   ar
  1503   408   392    1
  1504   408   426    1
  1505   493   476    1
  1506   493   515    2
  1507   493   514    1
  1508   920   939    2
  1509   920   903    1
  1510   920   938    1
  1511   896   874    2
  1512   475   476    1
  1513   475   473    1
  1514    30    25    1
  1515   434   450    1
  1516   474   473    1
  1517   854   856    1
  1518   856   858    1
  1519   856   857    1
  1520   858   859    1
  1521   883   881    1
  1522   883   878    1
  1523    15    18   ar
  1524    15    14   ar
  1525    18    19   ar
  1526   919   897    2
  1527   900   898    1
  1528    43    21    2
  1529    11    12    1
  1530    11    13   ar
  1531   881   879    1
  1532   881   882    1
  1533   899   898    1
  1534   899   897    1
  1535   473   471    1
  1536    23    21    1
  1537    23    22    1
  1538    24    25    1
  1539    24    22    1
  1540   878   877    1
  1541   876   874    1
  1542   876   875    1
  1543   874   857    1
  1544   874   895    1
  1545    14    13   ar
  1546    14    20   ar
  1547   879   877    1
  1548   879   880    1
  1549    19    20   ar
  1550   897   880    1
  1551   897   918    1
  1552    21    42    1
  1553    21     6    1
  1554   450   469    2
  1555   450   452    1
  1556   450   468    1
  1557   472   471    1
  1558   472   470    1
  1559     2     1    1
  1560    20     9    1
  1561   877   875    1
  1562   452   451    1
  1563   492   470    2
  1564   451   453    1
  1565     5     6    1
  1566     5     7    1
  1567     5     3    1
  1568     7     9    1
  1569     7     8    1
  1570   470   456    1
  1571   470   491    1
  1572   455   453    1
  1573   455   456    1
  1574   455   457    1
  1575     9     4    1
  1576     1     3    1
  1577   453   454    1
  1578     3     4    1
  1579   457   458    1
  1580   457   459    1
  1581   454   459    1
  1582   459   460    1
  1583   467   466   ar
  1584   467   460   ar
  1585   466   464   ar
  1586   460   461   ar
  1587   461   462    2
  1588   461   463   ar
  1589   464   463   ar
  1590   464   465    2
