2et3_lig
 OpenBabel02221317003D

 31 33  0  0  1  0  0  0  0  0999 V2000
    0.9320   -7.1200   29.4420 C   0  0  2  0  0  0  0  0  0  0  0  0
    0.0060   -8.2310   29.3220 O   0  0  0  0  0  0  0  0  0  0  0  0
   -1.4020  -11.3510   31.8890 C   0  0  2  0  0  0  0  0  0  0  0  0
   -1.4110  -12.3210   32.9400 N   0  0  0  0  0  0  0  0  0  0  0  0
   -2.1780   -9.8410   34.8380 C   0  0  2  0  0  0  0  0  0  0  0  0
    0.3270   -5.8690   28.7960 C   0  0  2  0  0  0  0  0  0  0  0  0
   -0.9370   -5.6040   29.4110 N   0  0  0  0  0  0  0  0  0  0  0  0
   -0.2540  -11.6830   30.8820 C   0  0  0  0  0  0  0  0  0  0  0  0
   -3.6230  -10.0400   35.3460 C   0  0  2  0  0  0  0  0  0  0  0  0
   -4.1760  -11.1750   34.7180 O   0  0  0  0  0  0  0  0  0  0  0  0
    0.1930   -6.0640   27.2470 C   0  0  0  0  0  0  0  0  0  0  0  0
   -0.2310  -10.6160   29.7270 C   0  0  2  0  0  0  0  0  0  0  0  0
    0.8490  -10.9240   28.7760 N   0  0  0  0  0  0  0  0  0  0  0  0
   -4.4420   -8.7260   35.0150 C   0  0  1  0  0  0  0  0  0  0  0  0
   -5.8760   -8.8530   35.4350 N   0  0  0  0  0  0  0  0  0  0  0  0
    1.6200   -6.3170   26.6670 C   0  0  0  0  0  0  0  0  0  0  0  0
   -0.0370   -9.1770   30.3420 C   0  0  2  0  0  0  0  0  0  0  0  0
   -3.7640   -7.4460   35.7400 C   0  0  1  0  0  0  0  0  0  0  0  0
   -3.7850   -7.5810   37.1460 O   0  0  0  0  0  0  0  0  0  0  0  0
    2.2350   -7.6030   27.3760 C   0  0  2  0  0  0  0  0  0  0  0  0
    2.2410   -7.4830   28.8330 O   0  0  0  0  0  0  0  0  0  0  0  0
   -1.2080   -8.8730   31.3540 C   0  0  2  0  0  0  0  0  0  0  0  0
   -1.0540   -7.5750   31.9190 O   0  0  0  0  0  0  0  0  0  0  0  0
   -2.2720   -7.3400   35.2970 C   0  0  0  0  0  0  0  0  0  0  0  0
   -1.5670   -8.6500   35.4960 O   0  0  0  0  0  0  0  0  0  0  0  0
    3.6170   -7.9740   26.8920 C   0  0  0  0  0  0  0  0  0  0  0  0
    4.5590   -8.0590   27.9770 N   0  0  0  0  0  0  0  0  0  0  0  0
   -1.2160   -9.9480   32.4970 C   0  0  1  0  0  0  0  0  0  0  0  0
   -2.2820   -9.6610   33.3940 O   0  0  0  0  0  0  0  0  0  0  0  0
   -4.4320   -6.0840   35.5070 C   0  0  0  0  0  0  0  0  0  0  0  0
   -6.7700   -9.6160   34.5480 C   0  0  0  0  0  0  0  0  0  0  0  0
  1  2  1  6  0  0  0
  1  6  1  0  0  0  0
  1 21  1  0  0  0  0
  3  4  1  1  0  0  0
  3  8  1  0  0  0  0
  3 28  1  0  0  0  0
  5  9  1  0  0  0  0
  5 25  1  0  0  0  0
  5 29  1  6  0  0  0
  6  7  1  6  0  0  0
  6 11  1  0  0  0  0
  8 12  1  0  0  0  0
  9 10  1  6  0  0  0
  9 14  1  0  0  0  0
 11 16  1  0  0  0  0
 12 13  1  1  0  0  0
 12 17  1  0  0  0  0
 14 15  1  1  0  0  0
 14 18  1  0  0  0  0
 15 31  1  0  0  0  0
 16 20  1  0  0  0  0
 17  2  1  6  0  0  0
 17 22  1  0  0  0  0
 18 19  1  1  0  0  0
 18 24  1  0  0  0  0
 18 30  1  0  0  0  0
 20 21  1  0  0  0  0
 20 26  1  1  0  0  0
 22 23  1  1  0  0  0
 22 28  1  0  0  0  0
 24 25  1  0  0  0  0
 26 27  1  0  0  0  0
 28 29  1  6  0  0  0
M  END
$$$$
