2et3_lig
 OpenBabel11021811423D
libRbt.so/2013.1/901 2013/11/27
 31 33  0  0  0  0  0  0  0  0999 V2000
    0.5044   -6.7351   29.4559 C   0  0  2  0  0  0  0  0  0  0  0  0
   -0.4224   -7.8507   29.4026 O   0  0  0  0  0  0  0  0  0  0  0  0
   -1.4042  -11.1801   31.9041 C   0  0  2  0  0  0  0  0  0  0  0  0
   -1.2551  -12.2101   32.8852 N   0  0  0  0  0  0  0  0  0  0  0  0
   -1.8317   -9.5642   35.0193 C   0  0  2  0  0  0  0  0  0  0  0  0
    0.0807   -5.6609   28.4484 C   0  0  2  0  0  0  0  0  0  0  0  0
   -1.2666   -5.2743   28.7334 N   0  0  0  0  0  0  0  0  0  0  0  0
   -0.3655  -11.3975   30.7570 C   0  0  0  0  0  0  0  0  0  0  0  0
   -3.1426   -9.8463   35.7860 C   0  0  2  0  0  0  0  0  0  0  0  0
   -3.6204  -11.1217   35.4204 O   0  0  0  0  0  0  0  0  0  0  0  0
    0.2377   -6.1934   26.9831 C   0  0  0  0  0  0  0  0  0  0  0  0
   -0.5163  -10.2640   29.6774 C   0  0  2  0  0  0  0  0  0  0  0  0
    0.4603  -10.4640   28.5949 N   0  0  0  0  0  0  0  0  0  0  0  0
   -4.1763   -8.7035   35.4223 C   0  0  1  0  0  0  0  0  0  0  0  0
   -5.4995   -8.9275   36.0914 N   0  0  0  0  0  0  0  0  0  0  0  0
    1.7387   -6.5596   26.7606 C   0  0  0  0  0  0  0  0  0  0  0  0
   -0.3116   -8.8565   30.3583 C   0  0  2  0  0  0  0  0  0  0  0  0
   -3.5817   -7.2564   35.8418 C   0  0  1  0  0  0  0  0  0  0  0  0
   -3.3730   -7.1712   37.2364 O   0  0  0  0  0  0  0  0  0  0  0  0
    2.1588   -7.6540   27.8379 C   0  0  2  0  0  0  0  0  0  0  0  0
    1.8911   -7.2157   29.2066 O   0  0  0  0  0  0  0  0  0  0  0  0
   -1.3714   -8.6684   31.5111 C   0  0  2  0  0  0  0  0  0  0  0  0
   -1.2064   -7.4003   32.1378 O   0  0  0  0  0  0  0  0  0  0  0  0
   -2.2022   -7.0499   35.1434 C   0  0  0  0  0  0  0  0  0  0  0  0
   -1.3004   -8.2226   35.3968 O   0  0  0  0  0  0  0  0  0  0  0  0
    3.5930   -8.1144   27.7242 C   0  0  0  0  0  0  0  0  0  0  0  0
    4.5198   -7.0296   27.9134 N   0  0  0  0  0  0  0  0  0  0  0  0
   -1.2067   -9.8084   32.5766 C   0  0  1  0  0  0  0  0  0  0  0  0
   -2.1747   -9.6255   33.6027 O   0  0  0  0  0  0  0  0  0  0  0  0
   -4.4596   -6.0337   35.5419 C   0  0  0  0  0  0  0  0  0  0  0  0
   -6.5016   -9.7123   35.3510 C   0  0  0  0  0  0  0  0  0  0  0  0
  1  2  1  6  0  0  0
  1  6  1  0  0  0  0
  1 21  1  0  0  0  0
  3  4  1  1  0  0  0
  3  8  1  0  0  0  0
  3 28  1  0  0  0  0
  5  9  1  0  0  0  0
  5 25  1  0  0  0  0
  5 29  1  6  0  0  0
  6  7  1  1  0  0  0
  6 11  1  0  0  0  0
  8 12  1  0  0  0  0
  9 10  1  6  0  0  0
  9 14  1  0  0  0  0
 11 16  1  0  0  0  0
 12 13  1  6  0  0  0
 12 17  1  0  0  0  0
 14 15  1  1  0  0  0
 14 18  1  0  0  0  0
 15 31  1  0  0  0  0
 16 20  1  0  0  0  0
 17  2  1  6  0  0  0
 17 22  1  0  0  0  0
 18 19  1  1  0  0  0
 18 24  1  0  0  0  0
 18 30  1  0  0  0  0
 20 21  1  0  0  0  0
 20 26  1  1  0  0  0
 22 23  1  1  0  0  0
 22 28  1  0  0  0  0
 24 25  1  0  0  0  0
 26 27  1  0  0  0  0
 28 29  1  1  0  0  0
M  END
>  <CHROM.1>
-172.00246717,-161.08499843,-90.57962888,-138.94009106,60.95165472,112.77124940
-1.18329877,-8.43541104,31.94045396,0.25651621,0.93091404,-0.12936923

>  <Name>
2et3_lig

>  <RI>
0

>  <Rbt.Current_Directory>
/home/itssahil/PROJECTS/Mol_Feturizer/New_Systems/rnas/2et3

>  <Rbt.Executable>
rbdock ($Id: //depot/dev/client3/rdock/2013.1/src/exe/rbdock.cxx#4 $)

>  <Rbt.Library>
libRbt.so (2013.1, Build901 2013/11/27)

>  <Rbt.Parameter_File>
/export/apps/rDock/src/rDock_2013.1_src/data/scripts/dock_solv.prm

>  <Rbt.Receptor>
prm/pocket_docking_2.prm

>  <SCORE>
-24.0778

>  <SCORE.INTER>
-19.585

>  <SCORE.INTER.CONST>
1

>  <SCORE.INTER.POLAR>
-1.45705

>  <SCORE.INTER.ROT>
6

>  <SCORE.INTER.SOLV>
20.8383

>  <SCORE.INTER.VDW>
-22.7459

>  <SCORE.INTER.norm>
-0.631775

>  <SCORE.INTRA>
-4.49281

>  <SCORE.INTRA.DIHEDRAL>
-7.02149

>  <SCORE.INTRA.DIHEDRAL.0>
22.2484

>  <SCORE.INTRA.POLAR>
0

>  <SCORE.INTRA.POLAR.0>
0

>  <SCORE.INTRA.REPUL>
0

>  <SCORE.INTRA.REPUL.0>
0

>  <SCORE.INTRA.SOLV>
-0.316189

>  <SCORE.INTRA.SOLV.lig_0>
-75.7198

>  <SCORE.INTRA.VDW>
-0.823967

>  <SCORE.INTRA.VDW.0>
-3.34171

>  <SCORE.INTRA.norm>
-0.144929

>  <SCORE.RESTR>
0

>  <SCORE.RESTR.CAVITY>
0

>  <SCORE.RESTR.norm>
0

>  <SCORE.SYSTEM>
0

>  <SCORE.SYSTEM.CONST>
0

>  <SCORE.SYSTEM.DIHEDRAL>
0

>  <SCORE.SYSTEM.SOLV>
0

>  <SCORE.SYSTEM.norm>
0

>  <SCORE.heavy>
31

>  <SCORE.norm>
-0.776704

>  <RMSD>
0.543

$$$$
2et3_lig
 OpenBabel11021811423D
libRbt.so/2013.1/901 2013/11/27
 31 33  0  0  0  0  0  0  0  0999 V2000
    0.2788   -6.6822   29.3707 C   0  0  2  0  0  0  0  0  0  0  0  0
   -0.3584   -7.9714   29.1755 O   0  0  0  0  0  0  0  0  0  0  0  0
   -1.4735  -11.0603   31.9180 C   0  0  2  0  0  0  0  0  0  0  0  0
   -1.3624  -12.0272   32.9660 N   0  0  0  0  0  0  0  0  0  0  0  0
   -1.8031   -9.4323   34.9369 C   0  0  2  0  0  0  0  0  0  0  0  0
   -0.2508   -5.6807   28.3388 C   0  0  2  0  0  0  0  0  0  0  0  0
   -1.6750   -5.6165   28.4548 N   0  0  0  0  0  0  0  0  0  0  0  0
   -0.4710  -11.4143   30.7727 C   0  0  0  0  0  0  0  0  0  0  0  0
   -3.1161   -9.8307   35.6462 C   0  0  2  0  0  0  0  0  0  0  0  0
   -3.5510  -11.0725   35.1389 O   0  0  0  0  0  0  0  0  0  0  0  0
    0.1994   -6.0931   26.8957 C   0  0  0  0  0  0  0  0  0  0  0  0
   -0.5801  -10.3509   29.6192 C   0  0  2  0  0  0  0  0  0  0  0  0
    0.3627  -10.6797   28.5381 N   0  0  0  0  0  0  0  0  0  0  0  0
   -4.1775   -8.6846   35.3880 C   0  0  1  0  0  0  0  0  0  0  0  0
   -5.5031   -9.0151   36.0063 N   0  0  0  0  0  0  0  0  0  0  0  0
    1.7600   -6.1065   26.8620 C   0  0  0  0  0  0  0  0  0  0  0  0
   -0.2847   -8.9138   30.1970 C   0  0  2  0  0  0  0  0  0  0  0  0
   -3.6317   -7.2746   35.9691 C   0  0  1  0  0  0  0  0  0  0  0  0
   -3.4456   -7.3329   37.3682 O   0  0  0  0  0  0  0  0  0  0  0  0
    2.2822   -7.1319   27.9623 C   0  0  2  0  0  0  0  0  0  0  0  0
    1.7580   -6.8310   29.2934 O   0  0  0  0  0  0  0  0  0  0  0  0
   -1.3098   -8.5874   31.3504 C   0  0  2  0  0  0  0  0  0  0  0  0
   -1.0628   -7.2906   31.8845 O   0  0  0  0  0  0  0  0  0  0  0  0
   -2.2489   -6.9568   35.3207 C   0  0  0  0  0  0  0  0  0  0  0  0
   -1.3168   -8.1245   35.4639 O   0  0  0  0  0  0  0  0  0  0  0  0
    3.7863   -7.2571   28.0259 C   0  0  0  0  0  0  0  0  0  0  0  0
    4.3174   -7.9215   26.8647 N   0  0  0  0  0  0  0  0  0  0  0  0
   -1.1875   -9.6590   32.4901 C   0  0  1  0  0  0  0  0  0  0  0  0
   -2.1237   -9.3517   33.5159 O   0  0  0  0  0  0  0  0  0  0  0  0
   -4.5406   -6.0516   35.7854 C   0  0  0  0  0  0  0  0  0  0  0  0
   -6.4379   -9.8182   35.2004 C   0  0  0  0  0  0  0  0  0  0  0  0
  1  2  1  6  0  0  0
  1  6  1  0  0  0  0
  1 21  1  0  0  0  0
  3  4  1  1  0  0  0
  3  8  1  0  0  0  0
  3 28  1  0  0  0  0
  5  9  1  0  0  0  0
  5 25  1  0  0  0  0
  5 29  1  6  0  0  0
  6  7  1  6  0  0  0
  6 11  1  0  0  0  0
  8 12  1  0  0  0  0
  9 10  1  6  0  0  0
  9 14  1  0  0  0  0
 11 16  1  0  0  0  0
 12 13  1  6  0  0  0
 12 17  1  0  0  0  0
 14 15  1  1  0  0  0
 14 18  1  0  0  0  0
 15 31  1  0  0  0  0
 16 20  1  0  0  0  0
 17  2  1  6  0  0  0
 17 22  1  0  0  0  0
 18 19  1  1  0  0  0
 18 24  1  0  0  0  0
 18 30  1  0  0  0  0
 20 21  1  0  0  0  0
 20 26  1  1  0  0  0
 22 23  1  1  0  0  0
 22 28  1  0  0  0  0
 24 25  1  0  0  0  0
 26 27  1  0  0  0  0
 28 29  1  1  0  0  0
M  END
>  <CHROM.1>
-163.76780595,-148.23664963,-86.77019590,-160.60719493,-69.89027947,102.13057110
-1.21891122,-8.38508555,31.87520702,0.24111927,0.94782243,-0.10416813

>  <Name>
2et3_lig

>  <RI>
0

>  <Rbt.Current_Directory>
/home/itssahil/PROJECTS/Mol_Feturizer/New_Systems/rnas/2et3

>  <Rbt.Executable>
rbdock ($Id: //depot/dev/client3/rdock/2013.1/src/exe/rbdock.cxx#4 $)

>  <Rbt.Library>
libRbt.so (2013.1, Build901 2013/11/27)

>  <Rbt.Parameter_File>
/export/apps/rDock/src/rDock_2013.1_src/data/scripts/dock_solv.prm

>  <Rbt.Receptor>
prm/pocket_docking_2.prm

>  <SCORE>
-29.0646

>  <SCORE.INTER>
-23.5822

>  <SCORE.INTER.CONST>
1

>  <SCORE.INTER.POLAR>
-1.4919

>  <SCORE.INTER.ROT>
6

>  <SCORE.INTER.SOLV>
15.6174

>  <SCORE.INTER.VDW>
-23.5542

>  <SCORE.INTER.norm>
-0.760716

>  <SCORE.INTRA>
-5.48242

>  <SCORE.INTRA.DIHEDRAL>
-8.69793

>  <SCORE.INTRA.DIHEDRAL.0>
22.2484

>  <SCORE.INTRA.POLAR>
0

>  <SCORE.INTRA.POLAR.0>
0

>  <SCORE.INTRA.REPUL>
0

>  <SCORE.INTRA.REPUL.0>
0

>  <SCORE.INTRA.SOLV>
-1.90776

>  <SCORE.INTRA.SOLV.lig_0>
-75.7198

>  <SCORE.INTRA.VDW>
-0.179571

>  <SCORE.INTRA.VDW.0>
-3.34171

>  <SCORE.INTRA.norm>
-0.176852

>  <SCORE.RESTR>
0

>  <SCORE.RESTR.CAVITY>
0

>  <SCORE.RESTR.norm>
0

>  <SCORE.SYSTEM>
0

>  <SCORE.SYSTEM.CONST>
0

>  <SCORE.SYSTEM.DIHEDRAL>
0

>  <SCORE.SYSTEM.SOLV>
0

>  <SCORE.SYSTEM.norm>
0

>  <SCORE.heavy>
31

>  <SCORE.norm>
-0.937568

>  <RMSD>
0.637

$$$$
2et3_lig
 OpenBabel11021811423D
libRbt.so/2013.1/901 2013/11/27
 31 33  0  0  0  0  0  0  0  0999 V2000
    0.5540   -6.6977   29.4238 C   0  0  2  0  0  0  0  0  0  0  0  0
   -0.3617   -7.8207   29.3440 O   0  0  0  0  0  0  0  0  0  0  0  0
   -1.4265  -11.0978   31.8804 C   0  0  2  0  0  0  0  0  0  0  0  0
   -1.3011  -12.1252   32.8674 N   0  0  0  0  0  0  0  0  0  0  0  0
   -1.7519   -9.1040   34.9270 C   0  0  2  0  0  0  0  0  0  0  0  0
    0.0687   -5.5673   28.5100 C   0  0  2  0  0  0  0  0  0  0  0  0
   -1.2670   -5.2191   28.8853 N   0  0  0  0  0  0  0  0  0  0  0  0
   -0.4082  -11.3579   30.7239 C   0  0  0  0  0  0  0  0  0  0  0  0
   -2.9764   -9.4134   35.8163 C   0  0  2  0  0  0  0  0  0  0  0  0
   -3.2577  -10.7932   35.7427 O   0  0  0  0  0  0  0  0  0  0  0  0
    0.1583   -6.0024   27.0074 C   0  0  0  0  0  0  0  0  0  0  0  0
   -0.5330  -10.2275   29.6376 C   0  0  2  0  0  0  0  0  0  0  0  0
    0.4245  -10.4677   28.5462 N   0  0  0  0  0  0  0  0  0  0  0  0
   -4.1891   -8.5365   35.2992 C   0  0  1  0  0  0  0  0  0  0  0  0
   -5.4381   -8.8117   36.0823 N   0  0  0  0  0  0  0  0  0  0  0  0
    1.6503   -6.3320   26.6883 C   0  0  0  0  0  0  0  0  0  0  0  0
   -0.2740   -8.8229   30.3058 C   0  0  2  0  0  0  0  0  0  0  0  0
   -3.8180   -6.9621   35.3840 C   0  0  1  0  0  0  0  0  0  0  0  0
   -3.5809   -6.5612   36.7176 O   0  0  0  0  0  0  0  0  0  0  0  0
    2.1359   -7.4871   27.6705 C   0  0  2  0  0  0  0  0  0  0  0  0
    1.9319   -7.1413   29.0763 O   0  0  0  0  0  0  0  0  0  0  0  0
   -1.3143   -8.5914   31.4685 C   0  0  2  0  0  0  0  0  0  0  0  0
   -1.1003   -7.3252   32.0840 O   0  0  0  0  0  0  0  0  0  0  0  0
   -2.5117   -6.7016   34.5721 C   0  0  0  0  0  0  0  0  0  0  0  0
   -1.4279   -7.6497   34.9957 O   0  0  0  0  0  0  0  0  0  0  0  0
    3.5677   -7.9186   27.4570 C   0  0  0  0  0  0  0  0  0  0  0  0
    4.4855   -6.8197   27.6053 N   0  0  0  0  0  0  0  0  0  0  0  0
   -1.1760   -9.7288   32.5406 C   0  0  1  0  0  0  0  0  0  0  0  0
   -2.1261   -9.5064   33.5756 O   0  0  0  0  0  0  0  0  0  0  0  0
   -4.8876   -5.9718   34.9034 C   0  0  0  0  0  0  0  0  0  0  0  0
   -6.4078   -9.7490   35.4914 C   0  0  0  0  0  0  0  0  0  0  0  0
  1  2  1  6  0  0  0
  1  6  1  0  0  0  0
  1 21  1  0  0  0  0
  3  4  1  1  0  0  0
  3  8  1  0  0  0  0
  3 28  1  0  0  0  0
  5  9  1  0  0  0  0
  5 25  1  0  0  0  0
  5 29  1  6  0  0  0
  6  7  1  1  0  0  0
  6 11  1  0  0  0  0
  8 12  1  0  0  0  0
  9 10  1  6  0  0  0
  9 14  1  0  0  0  0
 11 16  1  0  0  0  0
 12 13  1  6  0  0  0
 12 17  1  0  0  0  0
 14 15  1  1  0  0  0
 14 18  1  0  0  0  0
 15 31  1  0  0  0  0
 16 20  1  0  0  0  0
 17  2  1  6  0  0  0
 17 22  1  0  0  0  0
 18 19  1  1  0  0  0
 18 24  1  0  0  0  0
 18 30  1  0  0  0  0
 20 21  1  0  0  0  0
 20 26  1  1  0  0  0
 22 23  1  1  0  0  0
 22 28  1  0  0  0  0
 24 25  1  0  0  0  0
 26 27  1  0  0  0  0
 28 29  1  1  0  0  0
M  END
>  <CHROM.1>
-165.91512548,-162.20846728,-98.06488297,-142.37544538,58.07884694,129.15337576
-1.20019992,-8.26371431,31.82671474,0.29362270,0.90961495,-0.19047885

>  <Name>
2et3_lig

>  <RI>
0

>  <Rbt.Current_Directory>
/home/itssahil/PROJECTS/Mol_Feturizer/New_Systems/rnas/2et3

>  <Rbt.Executable>
rbdock ($Id: //depot/dev/client3/rdock/2013.1/src/exe/rbdock.cxx#4 $)

>  <Rbt.Library>
libRbt.so (2013.1, Build901 2013/11/27)

>  <Rbt.Parameter_File>
/export/apps/rDock/src/rDock_2013.1_src/data/scripts/dock_solv.prm

>  <Rbt.Receptor>
prm/pocket_docking_3.prm

>  <SCORE>
-24.8207

>  <SCORE.INTER>
-20.2054

>  <SCORE.INTER.CONST>
1

>  <SCORE.INTER.POLAR>
-1.76158

>  <SCORE.INTER.ROT>
6

>  <SCORE.INTER.SOLV>
20.2442

>  <SCORE.INTER.VDW>
-21.9464

>  <SCORE.INTER.norm>
-0.651786

>  <SCORE.INTRA>
-4.6153

>  <SCORE.INTRA.DIHEDRAL>
-7.06885

>  <SCORE.INTRA.DIHEDRAL.0>
22.2484

>  <SCORE.INTRA.POLAR>
0

>  <SCORE.INTRA.POLAR.0>
0

>  <SCORE.INTRA.REPUL>
0

>  <SCORE.INTRA.REPUL.0>
0

>  <SCORE.INTRA.SOLV>
-0.747432

>  <SCORE.INTRA.SOLV.lig_0>
-75.7198

>  <SCORE.INTRA.VDW>
-0.707162

>  <SCORE.INTRA.VDW.0>
-3.34171

>  <SCORE.INTRA.norm>
-0.148881

>  <SCORE.RESTR>
0

>  <SCORE.RESTR.CAVITY>
0

>  <SCORE.RESTR.norm>
0

>  <SCORE.SYSTEM>
0

>  <SCORE.SYSTEM.CONST>
0

>  <SCORE.SYSTEM.DIHEDRAL>
0

>  <SCORE.SYSTEM.SOLV>
0

>  <SCORE.SYSTEM.norm>
0

>  <SCORE.heavy>
31

>  <SCORE.norm>
-0.800667

>  <RMSD>
0.706

$$$$
2et3_lig
 OpenBabel11021811423D
libRbt.so/2013.1/901 2013/11/27
 31 33  0  0  0  0  0  0  0  0999 V2000
    0.4092   -6.6172   29.3890 C   0  0  2  0  0  0  0  0  0  0  0  0
   -0.2826   -7.8794   29.2034 O   0  0  0  0  0  0  0  0  0  0  0  0
   -1.4295  -10.9959   31.9012 C   0  0  2  0  0  0  0  0  0  0  0  0
   -1.3319  -11.9702   32.9437 N   0  0  0  0  0  0  0  0  0  0  0  0
   -1.7549   -9.0311   34.8861 C   0  0  2  0  0  0  0  0  0  0  0  0
   -0.0899   -5.5966   28.3607 C   0  0  2  0  0  0  0  0  0  0  0  0
   -1.5090   -5.4736   28.4918 N   0  0  0  0  0  0  0  0  0  0  0  0
   -0.4040  -11.3352   30.7719 C   0  0  0  0  0  0  0  0  0  0  0  0
   -2.9876   -9.4178   35.7326 C   0  0  2  0  0  0  0  0  0  0  0  0
   -3.2726  -10.7835   35.5276 O   0  0  0  0  0  0  0  0  0  0  0  0
    0.3273   -6.0296   26.9137 C   0  0  0  0  0  0  0  0  0  0  0  0
   -0.4982  -10.2636   29.6248 C   0  0  2  0  0  0  0  0  0  0  0  0
    0.4662  -10.5785   28.5587 N   0  0  0  0  0  0  0  0  0  0  0  0
   -4.1933   -8.4916   35.2904 C   0  0  1  0  0  0  0  0  0  0  0  0
   -5.4496   -8.8342   36.0342 N   0  0  0  0  0  0  0  0  0  0  0  0
    1.8855   -6.1072   26.8633 C   0  0  0  0  0  0  0  0  0  0  0  0
   -0.2220   -8.8293   30.2189 C   0  0  2  0  0  0  0  0  0  0  0  0
   -3.8180   -6.9335   35.5255 C   0  0  1  0  0  0  0  0  0  0  0  0
   -3.5907   -6.6603   36.8926 O   0  0  0  0  0  0  0  0  0  0  0  0
    2.3771   -7.1513   27.9601 C   0  0  2  0  0  0  0  0  0  0  0  0
    1.8802   -6.8269   29.2961 O   0  0  0  0  0  0  0  0  0  0  0  0
   -1.2701   -8.5178   31.3556 C   0  0  2  0  0  0  0  0  0  0  0  0
   -1.0407   -7.2238   31.9041 O   0  0  0  0  0  0  0  0  0  0  0  0
   -2.5042   -6.6031   34.7520 C   0  0  0  0  0  0  0  0  0  0  0  0
   -1.4270   -7.5909   35.0935 O   0  0  0  0  0  0  0  0  0  0  0  0
    3.8753   -7.3382   28.0078 C   0  0  0  0  0  0  0  0  0  0  0  0
    4.3749   -7.9633   26.8113 N   0  0  0  0  0  0  0  0  0  0  0  0
   -1.1624   -9.5975   32.4891 C   0  0  1  0  0  0  0  0  0  0  0  0
   -2.1191   -9.3035   33.4999 O   0  0  0  0  0  0  0  0  0  0  0  0
   -4.8805   -5.8984   35.1314 C   0  0  0  0  0  0  0  0  0  0  0  0
   -6.3889   -9.7573   35.3756 C   0  0  0  0  0  0  0  0  0  0  0  0
  1  2  1  6  0  0  0
  1  6  1  0  0  0  0
  1 21  1  0  0  0  0
  3  4  1  1  0  0  0
  3  8  1  0  0  0  0
  3 28  1  0  0  0  0
  5  9  1  0  0  0  0
  5 25  1  0  0  0  0
  5 29  1  6  0  0  0
  6  7  1  6  0  0  0
  6 11  1  0  0  0  0
  8 12  1  0  0  0  0
  9 10  1  6  0  0  0
  9 14  1  0  0  0  0
 11 16  1  0  0  0  0
 12 13  1  6  0  0  0
 12 17  1  0  0  0  0
 14 15  1  1  0  0  0
 14 18  1  0  0  0  0
 15 31  1  0  0  0  0
 16 20  1  0  0  0  0
 17  2  1  6  0  0  0
 17 22  1  0  0  0  0
 18 19  1  1  0  0  0
 18 24  1  0  0  0  0
 18 30  1  0  0  0  0
 20 21  1  0  0  0  0
 20 26  1  1  0  0  0
 22 23  1  1  0  0  0
 22 28  1  0  0  0  0
 24 25  1  0  0  0  0
 26 27  1  0  0  0  0
 28 29  1  1  0  0  0
M  END
>  <CHROM.1>
-164.59646285,-154.06792346,-95.34904364,-157.07420423,-66.87211254,119.58584024
-1.18302854,-8.23380909,31.81291065,0.28233492,0.90908177,-0.19049848

>  <Name>
2et3_lig

>  <RI>
0

>  <Rbt.Current_Directory>
/home/itssahil/PROJECTS/Mol_Feturizer/New_Systems/rnas/2et3

>  <Rbt.Executable>
rbdock ($Id: //depot/dev/client3/rdock/2013.1/src/exe/rbdock.cxx#4 $)

>  <Rbt.Library>
libRbt.so (2013.1, Build901 2013/11/27)

>  <Rbt.Parameter_File>
/export/apps/rDock/src/rDock_2013.1_src/data/scripts/dock_solv.prm

>  <Rbt.Receptor>
prm/pocket_docking_3.prm

>  <SCORE>
-29.5664

>  <SCORE.INTER>
-24.0715

>  <SCORE.INTER.CONST>
1

>  <SCORE.INTER.POLAR>
-1.7782

>  <SCORE.INTER.ROT>
6

>  <SCORE.INTER.SOLV>
15.6969

>  <SCORE.INTER.VDW>
-22.9526

>  <SCORE.INTER.norm>
-0.776499

>  <SCORE.INTRA>
-5.49493

>  <SCORE.INTRA.DIHEDRAL>
-7.74525

>  <SCORE.INTRA.DIHEDRAL.0>
22.2484

>  <SCORE.INTRA.POLAR>
0

>  <SCORE.INTRA.POLAR.0>
0

>  <SCORE.INTRA.REPUL>
0

>  <SCORE.INTRA.REPUL.0>
0

>  <SCORE.INTRA.SOLV>
-2.10295

>  <SCORE.INTRA.SOLV.lig_0>
-75.7198

>  <SCORE.INTRA.VDW>
-0.570823

>  <SCORE.INTRA.VDW.0>
-3.34171

>  <SCORE.INTRA.norm>
-0.177256

>  <SCORE.RESTR>
0

>  <SCORE.RESTR.CAVITY>
0

>  <SCORE.RESTR.norm>
0

>  <SCORE.SYSTEM>
0

>  <SCORE.SYSTEM.CONST>
0

>  <SCORE.SYSTEM.DIHEDRAL>
0

>  <SCORE.SYSTEM.SOLV>
0

>  <SCORE.SYSTEM.norm>
0

>  <SCORE.heavy>
31

>  <SCORE.norm>
-0.953754

>  <RMSD>
0.753

$$$$
2et3_lig
 OpenBabel11021811423D
libRbt.so/2013.1/901 2013/11/27
 31 33  0  0  0  0  0  0  0  0999 V2000
    0.3992   -6.6059   29.3801 C   0  0  2  0  0  0  0  0  0  0  0  0
   -0.2865   -7.8719   29.1978 O   0  0  0  0  0  0  0  0  0  0  0  0
   -1.4271  -10.9732   31.9158 C   0  0  2  0  0  0  0  0  0  0  0  0
   -1.3260  -11.9440   32.9612 N   0  0  0  0  0  0  0  0  0  0  0  0
   -1.7250   -9.0297   34.9027 C   0  0  2  0  0  0  0  0  0  0  0  0
   -0.1115   -5.5876   28.3551 C   0  0  2  0  0  0  0  0  0  0  0  0
   -1.5305   -5.4728   28.4942 N   0  0  0  0  0  0  0  0  0  0  0  0
   -0.4114  -11.3212   30.7802 C   0  0  0  0  0  0  0  0  0  0  0  0
   -2.9579   -9.4208   35.7468 C   0  0  2  0  0  0  0  0  0  0  0  0
   -3.2570  -10.7795   35.5168 O   0  0  0  0  0  0  0  0  0  0  0  0
    0.3000   -6.0177   26.9056 C   0  0  0  0  0  0  0  0  0  0  0  0
   -0.5094  -10.2535   29.6298 C   0  0  2  0  0  0  0  0  0  0  0  0
    0.4457  -10.5766   28.5579 N   0  0  0  0  0  0  0  0  0  0  0  0
   -4.1563   -8.4748   35.3278 C   0  0  1  0  0  0  0  0  0  0  0  0
   -5.4128   -8.8195   36.0703 N   0  0  0  0  0  0  0  0  0  0  0  0
    1.8583   -6.0864   26.8464 C   0  0  0  0  0  0  0  0  0  0  0  0
   -0.2226   -8.8182   30.2164 C   0  0  2  0  0  0  0  0  0  0  0  0
   -3.7651   -6.9252   35.5912 C   0  0  1  0  0  0  0  0  0  0  0  0
   -3.5295   -6.6807   36.9624 O   0  0  0  0  0  0  0  0  0  0  0  0
    2.3620   -7.1282   27.9399 C   0  0  2  0  0  0  0  0  0  0  0  0
    1.8707   -6.8072   29.2789 O   0  0  0  0  0  0  0  0  0  0  0  0
   -1.2609   -8.4978   31.3597 C   0  0  2  0  0  0  0  0  0  0  0  0
   -1.0218   -7.2028   31.9015 O   0  0  0  0  0  0  0  0  0  0  0  0
   -2.4513   -6.5925   34.8187 C   0  0  0  0  0  0  0  0  0  0  0  0
   -1.3822   -7.5970   35.1364 O   0  0  0  0  0  0  0  0  0  0  0  0
    3.8614   -7.3066   27.9791 C   0  0  0  0  0  0  0  0  0  0  0  0
    4.3512   -7.9788   26.8044 N   0  0  0  0  0  0  0  0  0  0  0  0
   -1.1495   -9.5738   32.4964 C   0  0  1  0  0  0  0  0  0  0  0  0
   -2.0975   -9.2718   33.5131 O   0  0  0  0  0  0  0  0  0  0  0  0
   -4.8190   -5.8725   35.2218 C   0  0  0  0  0  0  0  0  0  0  0  0
   -6.3493   -9.7451   35.4111 C   0  0  0  0  0  0  0  0  0  0  0  0
  1  2  1  6  0  0  0
  1  6  1  0  0  0  0
  1 21  1  0  0  0  0
  3  4  1  1  0  0  0
  3  8  1  0  0  0  0
  3 28  1  0  0  0  0
  5  9  1  0  0  0  0
  5 25  1  0  0  0  0
  5 29  1  6  0  0  0
  6  7  1  6  0  0  0
  6 11  1  0  0  0  0
  8 12  1  0  0  0  0
  9 10  1  6  0  0  0
  9 14  1  0  0  0  0
 11 16  1  0  0  0  0
 12 13  1  6  0  0  0
 12 17  1  0  0  0  0
 14 15  1  1  0  0  0
 14 18  1  0  0  0  0
 15 31  1  0  0  0  0
 16 20  1  0  0  0  0
 17  2  1  6  0  0  0
 17 22  1  0  0  0  0
 18 19  1  1  0  0  0
 18 24  1  0  0  0  0
 18 30  1  0  0  0  0
 20 21  1  0  0  0  0
 20 26  1  1  0  0  0
 22 23  1  1  0  0  0
 22 28  1  0  0  0  0
 24 25  1  0  0  0  0
 26 27  1  0  0  0  0
 28 29  1  1  0  0  0
M  END
>  <CHROM.1>
-164.15662748,-153.16273556,-93.98382722,-157.78487616,-69.29774176,117.95365729
-1.17227497,-8.22208632,31.82640651,0.27658701,0.91961454,-0.18200088

>  <Name>
2et3_lig

>  <RI>
2.5794e+07

>  <Rbt.Current_Directory>
/home/itssahil/PROJECTS/Mol_Feturizer/New_Systems/rnas/2et3

>  <Rbt.Executable>
rbdock ($Id: //depot/dev/client3/rdock/2013.1/src/exe/rbdock.cxx#4 $)

>  <Rbt.Library>
libRbt.so (2013.1, Build901 2013/11/27)

>  <Rbt.Parameter_File>
/export/apps/rDock/src/rDock_2013.1_src/data/scripts/dock_solv.prm

>  <Rbt.Receptor>
prm/pocket_docking_5.prm

>  <SCORE>
-29.5884

>  <SCORE.INTER>
-24.2172

>  <SCORE.INTER.CONST>
1

>  <SCORE.INTER.POLAR>
-1.77164

>  <SCORE.INTER.ROT>
6

>  <SCORE.INTER.SOLV>
15.7078

>  <SCORE.INTER.VDW>
-23.0752

>  <SCORE.INTER.norm>
-0.781199

>  <SCORE.INTRA>
-5.37124

>  <SCORE.INTRA.DIHEDRAL>
-7.57617

>  <SCORE.INTRA.DIHEDRAL.0>
22.2484

>  <SCORE.INTRA.POLAR>
0

>  <SCORE.INTRA.POLAR.0>
0

>  <SCORE.INTRA.REPUL>
0

>  <SCORE.INTRA.REPUL.0>
0

>  <SCORE.INTRA.SOLV>
-2.09799

>  <SCORE.INTRA.SOLV.lig_0>
-75.7198

>  <SCORE.INTRA.VDW>
-0.534159

>  <SCORE.INTRA.VDW.0>
-3.34171

>  <SCORE.INTRA.norm>
-0.173266

>  <SCORE.RESTR>
0

>  <SCORE.RESTR.CAVITY>
0

>  <SCORE.RESTR.norm>
0

>  <SCORE.SYSTEM>
0

>  <SCORE.SYSTEM.CONST>
0

>  <SCORE.SYSTEM.DIHEDRAL>
0

>  <SCORE.SYSTEM.SOLV>
0

>  <SCORE.SYSTEM.norm>
0

>  <SCORE.heavy>
31

>  <SCORE.norm>
-0.954465

>  <RMSD>
0.759

$$$$
2et3_lig
 OpenBabel11021811423D
libRbt.so/2013.1/901 2013/11/27
 31 33  0  0  0  0  0  0  0  0999 V2000
    0.3997   -6.6165   29.3831 C   0  0  2  0  0  0  0  0  0  0  0  0
   -0.3010   -7.8749   29.2054 O   0  0  0  0  0  0  0  0  0  0  0  0
   -1.4172  -11.0079   31.8971 C   0  0  2  0  0  0  0  0  0  0  0  0
   -1.3098  -11.9837   32.9372 N   0  0  0  0  0  0  0  0  0  0  0  0
   -1.7552   -9.0204   34.8796 C   0  0  2  0  0  0  0  0  0  0  0  0
   -0.1091   -5.5916   28.3638 C   0  0  2  0  0  0  0  0  0  0  0  0
   -1.5256   -5.4618   28.5156 N   0  0  0  0  0  0  0  0  0  0  0  0
   -0.3899  -11.3353   30.7659 C   0  0  0  0  0  0  0  0  0  0  0  0
   -2.9879   -9.3856   35.7356 C   0  0  2  0  0  0  0  0  0  0  0  0
   -3.2744  -10.7555   35.5633 O   0  0  0  0  0  0  0  0  0  0  0  0
    0.2848   -6.0242   26.9101 C   0  0  0  0  0  0  0  0  0  0  0  0
   -0.4949  -10.2619   29.6215 C   0  0  2  0  0  0  0  0  0  0  0  0
    0.4712  -10.5656   28.5537 N   0  0  0  0  0  0  0  0  0  0  0  0
   -4.1928   -8.4689   35.2720 C   0  0  1  0  0  0  0  0  0  0  0  0
   -5.4491   -8.7923   36.0243 N   0  0  0  0  0  0  0  0  0  0  0  0
    1.8418   -6.1095   26.8370 C   0  0  0  0  0  0  0  0  0  0  0  0
   -0.2308   -8.8266   30.2186 C   0  0  2  0  0  0  0  0  0  0  0  0
   -3.8158   -6.9061   35.4697 C   0  0  1  0  0  0  0  0  0  0  0  0
   -3.5876   -6.6007   36.8299 O   0  0  0  0  0  0  0  0  0  0  0  0
    2.3440   -7.1579   27.9249 C   0  0  2  0  0  0  0  0  0  0  0  0
    1.8681   -6.8333   29.2686 O   0  0  0  0  0  0  0  0  0  0  0  0
   -1.2805   -8.5271   31.3572 C   0  0  2  0  0  0  0  0  0  0  0  0
   -1.0621   -7.2324   31.9084 O   0  0  0  0  0  0  0  0  0  0  0  0
   -2.5020   -6.5955   34.6881 C   0  0  0  0  0  0  0  0  0  0  0  0
   -1.4256   -7.5761   35.0525 O   0  0  0  0  0  0  0  0  0  0  0  0
    3.8418   -7.3523   27.9506 C   0  0  0  0  0  0  0  0  0  0  0  0
    4.3222   -7.9679   26.7414 N   0  0  0  0  0  0  0  0  0  0  0  0
   -1.1620   -9.6085   32.4880 C   0  0  1  0  0  0  0  0  0  0  0  0
   -2.1202   -9.3254   33.5005 O   0  0  0  0  0  0  0  0  0  0  0  0
   -4.8773   -5.8795   35.0516 C   0  0  0  0  0  0  0  0  0  0  0  0
   -6.3687   -9.7637   35.4087 C   0  0  0  0  0  0  0  0  0  0  0  0
  1  2  1  6  0  0  0
  1  6  1  0  0  0  0
  1 21  1  0  0  0  0
  3  4  1  1  0  0  0
  3  8  1  0  0  0  0
  3 28  1  0  0  0  0
  5  9  1  0  0  0  0
  5 25  1  0  0  0  0
  5 29  1  6  0  0  0
  6  7  1  6  0  0  0
  6 11  1  0  0  0  0
  8 12  1  0  0  0  0
  9 10  1  6  0  0  0
  9 14  1  0  0  0  0
 11 16  1  0  0  0  0
 12 13  1  6  0  0  0
 12 17  1  0  0  0  0
 14 15  1  1  0  0  0
 14 18  1  0  0  0  0
 15 31  1  0  0  0  0
 16 20  1  0  0  0  0
 17  2  1  6  0  0  0
 17 22  1  0  0  0  0
 18 19  1  1  0  0  0
 18 24  1  0  0  0  0
 18 30  1  0  0  0  0
 20 21  1  0  0  0  0
 20 26  1  1  0  0  0
 22 23  1  1  0  0  0
 22 28  1  0  0  0  0
 24 25  1  0  0  0  0
 26 27  1  0  0  0  0
 28 29  1  1  0  0  0
M  END
>  <CHROM.1>
-164.57163005,-155.84666868,-93.39276635,-155.97696076,-66.40224259,121.15206237
-1.19060546,-8.22753674,31.79734444,0.29371836,0.90898648,-0.20672575

>  <Name>
2et3_lig

>  <RI>
2.5794e+07

>  <Rbt.Current_Directory>
/home/itssahil/PROJECTS/Mol_Feturizer/New_Systems/rnas/2et3

>  <Rbt.Executable>
rbdock ($Id: //depot/dev/client3/rdock/2013.1/src/exe/rbdock.cxx#4 $)

>  <Rbt.Library>
libRbt.so (2013.1, Build901 2013/11/27)

>  <Rbt.Parameter_File>
/export/apps/rDock/src/rDock_2013.1_src/data/scripts/dock_solv.prm

>  <Rbt.Receptor>
prm/pocket_docking_5.prm

>  <SCORE>
-29.5345

>  <SCORE.INTER>
-23.9548

>  <SCORE.INTER.CONST>
1

>  <SCORE.INTER.POLAR>
-1.78661

>  <SCORE.INTER.ROT>
6

>  <SCORE.INTER.SOLV>
15.4728

>  <SCORE.INTER.VDW>
-22.7721

>  <SCORE.INTER.norm>
-0.772736

>  <SCORE.INTRA>
-5.57968

>  <SCORE.INTRA.DIHEDRAL>
-7.95664

>  <SCORE.INTRA.DIHEDRAL.0>
22.2484

>  <SCORE.INTRA.POLAR>
0

>  <SCORE.INTRA.POLAR.0>
0

>  <SCORE.INTRA.REPUL>
0

>  <SCORE.INTRA.REPUL.0>
0

>  <SCORE.INTRA.SOLV>
-2.11197

>  <SCORE.INTRA.SOLV.lig_0>
-75.7198

>  <SCORE.INTRA.VDW>
-0.545376

>  <SCORE.INTRA.VDW.0>
-3.34171

>  <SCORE.INTRA.norm>
-0.17999

>  <SCORE.RESTR>
0

>  <SCORE.RESTR.CAVITY>
0

>  <SCORE.RESTR.norm>
0

>  <SCORE.SYSTEM>
0

>  <SCORE.SYSTEM.CONST>
0

>  <SCORE.SYSTEM.DIHEDRAL>
0

>  <SCORE.SYSTEM.SOLV>
0

>  <SCORE.SYSTEM.norm>
0

>  <SCORE.heavy>
31

>  <SCORE.norm>
-0.952725

>  <RMSD>
0.764

$$$$
2et3_lig
 OpenBabel11021811423D
libRbt.so/2013.1/901 2013/11/27
 31 33  0  0  0  0  0  0  0  0999 V2000
    0.4927   -6.9522   29.5688 C   0  0  2  0  0  0  0  0  0  0  0  0
   -0.4257   -8.0709   29.4615 O   0  0  0  0  0  0  0  0  0  0  0  0
   -1.3987  -11.5340   31.7780 C   0  0  2  0  0  0  0  0  0  0  0  0
   -1.2591  -12.5953   32.7265 N   0  0  0  0  0  0  0  0  0  0  0  0
   -2.2585  -10.7420   34.7871 C   0  0  2  0  0  0  0  0  0  0  0  0
    0.0081   -5.7974   28.6857 C   0  0  2  0  0  0  0  0  0  0  0  0
   -1.3261   -5.4563   29.0723 N   0  0  0  0  0  0  0  0  0  0  0  0
   -0.2915  -11.6636   30.6828 C   0  0  0  0  0  0  0  0  0  0  0  0
   -3.7185  -10.8635   35.2762 C   0  0  2  0  0  0  0  0  0  0  0  0
   -4.4520  -11.6228   34.3415 O   0  0  0  0  0  0  0  0  0  0  0  0
    0.0940   -6.1934   27.1720 C   0  0  0  0  0  0  0  0  0  0  0  0
   -0.4320  -10.4950   29.6399 C   0  0  2  0  0  0  0  0  0  0  0  0
    0.6091  -10.6124   28.6063 N   0  0  0  0  0  0  0  0  0  0  0  0
   -4.3032   -9.4007   35.4353 C   0  0  1  0  0  0  0  0  0  0  0  0
   -5.7399   -9.4279   35.8644 N   0  0  0  0  0  0  0  0  0  0  0  0
    1.5848   -6.5177   26.8417 C   0  0  0  0  0  0  0  0  0  0  0  0
   -0.3239   -9.1086   30.3833 C   0  0  2  0  0  0  0  0  0  0  0  0
   -3.4225   -8.5585   36.5025 C   0  0  1  0  0  0  0  0  0  0  0  0
   -3.4719   -9.1456   37.7864 O   0  0  0  0  0  0  0  0  0  0  0  0
    2.0696   -7.6991   27.7926 C   0  0  2  0  0  0  0  0  0  0  0  0
    1.8689   -7.3896   29.2072 O   0  0  0  0  0  0  0  0  0  0  0  0
   -1.4512   -9.0093   31.4820 C   0  0  2  0  0  0  0  0  0  0  0  0
   -1.3740   -7.7616   32.1639 O   0  0  0  0  0  0  0  0  0  0  0  0
   -1.9321   -8.5526   36.0419 C   0  0  0  0  0  0  0  0  0  0  0  0
   -1.4585   -9.9497   35.7654 O   0  0  0  0  0  0  0  0  0  0  0  0
    3.5001   -8.1279   27.5652 C   0  0  0  0  0  0  0  0  0  0  0  0
    4.4312   -7.0806   27.8934 N   0  0  0  0  0  0  0  0  0  0  0  0
   -1.2959  -10.1833   32.5114 C   0  0  1  0  0  0  0  0  0  0  0  0
   -2.3246  -10.0805   33.4884 O   0  0  0  0  0  0  0  0  0  0  0  0
   -3.8507   -7.1077   36.7620 C   0  0  0  0  0  0  0  0  0  0  0  0
   -6.7507   -9.6277   34.8125 C   0  0  0  0  0  0  0  0  0  0  0  0
  1  2  1  6  0  0  0
  1  6  1  0  0  0  0
  1 21  1  0  0  0  0
  3  4  1  1  0  0  0
  3  8  1  0  0  0  0
  3 28  1  0  0  0  0
  5  9  1  0  0  0  0
  5 25  1  0  0  0  0
  5 29  1  6  0  0  0
  6  7  1  1  0  0  0
  6 11  1  0  0  0  0
  8 12  1  0  0  0  0
  9 10  1  6  0  0  0
  9 14  1  0  0  0  0
 11 16  1  0  0  0  0
 12 13  1  6  0  0  0
 12 17  1  0  0  0  0
 14 15  1  1  0  0  0
 14 18  1  0  0  0  0
 15 31  1  0  0  0  0
 16 20  1  0  0  0  0
 17  2  1  6  0  0  0
 17 22  1  0  0  0  0
 18 19  1  1  0  0  0
 18 24  1  0  0  0  0
 18 30  1  0  0  0  0
 20 21  1  0  0  0  0
 20 26  1  1  0  0  0
 22 23  1  1  0  0  0
 22 28  1  0  0  0  0
 24 25  1  0  0  0  0
 26 27  1  0  0  0  0
 28 29  1  1  0  0  0
M  END
>  <CHROM.1>
-166.96517336,-157.71474575,-82.34552221,-135.97039791,64.94016019,78.45745979
-1.26971485,-8.94366939,31.98377955,0.34222033,0.92523078,-0.13343247

>  <Name>
2et3_lig

>  <RI>
0

>  <Rbt.Current_Directory>
/home/itssahil/PROJECTS/Mol_Feturizer/New_Systems/rnas/2et3

>  <Rbt.Executable>
rbdock ($Id: //depot/dev/client3/rdock/2013.1/src/exe/rbdock.cxx#4 $)

>  <Rbt.Library>
libRbt.so (2013.1, Build901 2013/11/27)

>  <Rbt.Parameter_File>
/export/apps/rDock/src/rDock_2013.1_src/data/scripts/dock_solv.prm

>  <Rbt.Receptor>
prm/pocket_docking_2.prm

>  <SCORE>
-28.809

>  <SCORE.INTER>
-23.0782

>  <SCORE.INTER.CONST>
1

>  <SCORE.INTER.POLAR>
-0.938083

>  <SCORE.INTER.ROT>
6

>  <SCORE.INTER.SOLV>
21.2868

>  <SCORE.INTER.VDW>
-26.9541

>  <SCORE.INTER.norm>
-0.744458

>  <SCORE.INTRA>
-5.73107

>  <SCORE.INTRA.DIHEDRAL>
-11.0823

>  <SCORE.INTRA.DIHEDRAL.0>
22.2484

>  <SCORE.INTRA.POLAR>
0

>  <SCORE.INTRA.POLAR.0>
0

>  <SCORE.INTRA.REPUL>
0

>  <SCORE.INTRA.REPUL.0>
0

>  <SCORE.INTRA.SOLV>
0.216128

>  <SCORE.INTRA.SOLV.lig_0>
-75.7198

>  <SCORE.INTRA.VDW>
-0.297976

>  <SCORE.INTRA.VDW.0>
-3.34171

>  <SCORE.INTRA.norm>
-0.184873

>  <SCORE.RESTR>
0.000272025

>  <SCORE.RESTR.CAVITY>
0.000272025

>  <SCORE.RESTR.norm>
8.77501e-06

>  <SCORE.SYSTEM>
0

>  <SCORE.SYSTEM.CONST>
0

>  <SCORE.SYSTEM.DIHEDRAL>
0

>  <SCORE.SYSTEM.SOLV>
0

>  <SCORE.SYSTEM.norm>
0

>  <SCORE.heavy>
31

>  <SCORE.norm>
-0.929322

>  <RMSD>
0.783

$$$$
2et3_lig
 OpenBabel11021811423D
libRbt.so/2013.1/901 2013/11/27
 31 33  0  0  0  0  0  0  0  0999 V2000
    0.3114   -6.9174   29.5687 C   0  0  2  0  0  0  0  0  0  0  0  0
   -0.3389   -8.1873   29.3027 O   0  0  0  0  0  0  0  0  0  0  0  0
   -1.3376  -11.5621   31.7358 C   0  0  2  0  0  0  0  0  0  0  0  0
   -1.2024  -12.5972   32.7135 N   0  0  0  0  0  0  0  0  0  0  0  0
   -2.1504  -10.6871   34.7224 C   0  0  2  0  0  0  0  0  0  0  0  0
   -0.3607   -5.8096   28.7505 C   0  0  2  0  0  0  0  0  0  0  0  0
   -1.7560   -5.7928   29.0653 N   0  0  0  0  0  0  0  0  0  0  0  0
   -0.2495  -11.7441   30.6289 C   0  0  0  0  0  0  0  0  0  0  0  0
   -3.6116  -10.7969   35.2106 C   0  0  2  0  0  0  0  0  0  0  0  0
   -4.3464  -11.5655   34.2844 O   0  0  0  0  0  0  0  0  0  0  0  0
   -0.1103   -6.0320   27.2198 C   0  0  0  0  0  0  0  0  0  0  0  0
   -0.3851  -10.6046   29.5537 C   0  0  2  0  0  0  0  0  0  0  0  0
    0.6379  -10.7713   28.5090 N   0  0  0  0  0  0  0  0  0  0  0  0
   -4.1912   -9.3300   35.3499 C   0  0  1  0  0  0  0  0  0  0  0  0
   -5.6287   -9.3464   35.7769 N   0  0  0  0  0  0  0  0  0  0  0  0
    1.4309   -6.0053   26.9738 C   0  0  0  0  0  0  0  0  0  0  0  0
   -0.2415   -9.1989   30.2537 C   0  0  2  0  0  0  0  0  0  0  0  0
   -3.3091   -8.4775   36.4077 C   0  0  1  0  0  0  0  0  0  0  0  0
   -3.3628   -9.0479   37.6990 O   0  0  0  0  0  0  0  0  0  0  0  0
    2.1053   -7.1453   27.8571 C   0  0  2  0  0  0  0  0  0  0  0  0
    1.7669   -7.0217   29.2740 O   0  0  0  0  0  0  0  0  0  0  0  0
   -1.3502   -9.0468   31.3652 C   0  0  2  0  0  0  0  0  0  0  0  0
   -1.2407   -7.7810   32.0083 O   0  0  0  0  0  0  0  0  0  0  0  0
   -1.8179   -8.4830   35.9496 C   0  0  0  0  0  0  0  0  0  0  0  0
   -1.3491   -9.8853   35.6918 O   0  0  0  0  0  0  0  0  0  0  0  0
    3.6046   -7.2428   27.7005 C   0  0  0  0  0  0  0  0  0  0  0  0
    4.1144   -8.4934   28.1985 N   0  0  0  0  0  0  0  0  0  0  0  0
   -1.2000  -10.1924   32.4269 C   0  0  1  0  0  0  0  0  0  0  0  0
   -2.2119  -10.0420   33.4153 O   0  0  0  0  0  0  0  0  0  0  0  0
   -3.7324   -7.0219   36.6478 C   0  0  0  0  0  0  0  0  0  0  0  0
   -6.6388   -9.5494   34.7250 C   0  0  0  0  0  0  0  0  0  0  0  0
  1  2  1  6  0  0  0
  1  6  1  0  0  0  0
  1 21  1  0  0  0  0
  3  4  1  1  0  0  0
  3  8  1  0  0  0  0
  3 28  1  0  0  0  0
  5  9  1  0  0  0  0
  5 25  1  0  0  0  0
  5 29  1  6  0  0  0
  6  7  1  6  0  0  0
  6 11  1  0  0  0  0
  8 12  1  0  0  0  0
  9 10  1  6  0  0  0
  9 14  1  0  0  0  0
 11 16  1  0  0  0  0
 12 13  1  6  0  0  0
 12 17  1  0  0  0  0
 14 15  1  1  0  0  0
 14 18  1  0  0  0  0
 15 31  1  0  0  0  0
 16 20  1  0  0  0  0
 17  2  1  6  0  0  0
 17 22  1  0  0  0  0
 18 19  1  1  0  0  0
 18 24  1  0  0  0  0
 18 30  1  0  0  0  0
 20 21  1  0  0  0  0
 20 26  1  1  0  0  0
 22 23  1  1  0  0  0
 22 28  1  0  0  0  0
 24 25  1  0  0  0  0
 26 27  1  0  0  0  0
 28 29  1  1  0  0  0
M  END
>  <CHROM.1>
-156.74278316,-155.84819421,-82.63793110,-153.64403842,-163.45972170,77.21643664
-1.25317498,-8.91209994,31.94690907,0.42482717,0.91386772,-0.23247945

>  <Name>
2et3_lig

>  <RI>
0

>  <Rbt.Current_Directory>
/home/itssahil/PROJECTS/Mol_Feturizer/New_Systems/rnas/2et3

>  <Rbt.Executable>
rbdock ($Id: //depot/dev/client3/rdock/2013.1/src/exe/rbdock.cxx#4 $)

>  <Rbt.Library>
libRbt.so (2013.1, Build901 2013/11/27)

>  <Rbt.Parameter_File>
/export/apps/rDock/src/rDock_2013.1_src/data/scripts/dock_solv.prm

>  <Rbt.Receptor>
prm/pocket_docking_2.prm

>  <SCORE>
-30.5121

>  <SCORE.INTER>
-24.0359

>  <SCORE.INTER.CONST>
1

>  <SCORE.INTER.POLAR>
-0.938083

>  <SCORE.INTER.ROT>
6

>  <SCORE.INTER.SOLV>
19.5262

>  <SCORE.INTER.VDW>
-27.0057

>  <SCORE.INTER.norm>
-0.775351

>  <SCORE.INTRA>
-6.47627

>  <SCORE.INTRA.DIHEDRAL>
-11.6651

>  <SCORE.INTRA.DIHEDRAL.0>
22.2484

>  <SCORE.INTRA.POLAR>
0

>  <SCORE.INTRA.POLAR.0>
0

>  <SCORE.INTRA.REPUL>
0

>  <SCORE.INTRA.REPUL.0>
0

>  <SCORE.INTRA.SOLV>
-1.17066

>  <SCORE.INTRA.SOLV.lig_0>
-75.7198

>  <SCORE.INTRA.VDW>
-0.0583969

>  <SCORE.INTRA.VDW.0>
-3.34171

>  <SCORE.INTRA.norm>
-0.208912

>  <SCORE.RESTR>
0

>  <SCORE.RESTR.CAVITY>
0

>  <SCORE.RESTR.norm>
0

>  <SCORE.SYSTEM>
0

>  <SCORE.SYSTEM.CONST>
0

>  <SCORE.SYSTEM.DIHEDRAL>
0

>  <SCORE.SYSTEM.SOLV>
0

>  <SCORE.SYSTEM.norm>
0

>  <SCORE.heavy>
31

>  <SCORE.norm>
-0.984263

>  <RMSD>
0.785

$$$$
2et3_lig
 OpenBabel11021811423D
libRbt.so/2013.1/901 2013/11/27
 31 33  0  0  0  0  0  0  0  0999 V2000
    0.4441   -6.8539   29.5342 C   0  0  2  0  0  0  0  0  0  0  0  0
   -0.4870   -7.9656   29.4779 O   0  0  0  0  0  0  0  0  0  0  0  0
   -1.3044  -11.4962   31.7523 C   0  0  2  0  0  0  0  0  0  0  0  0
   -1.1218  -12.5560   32.6952 N   0  0  0  0  0  0  0  0  0  0  0  0
   -2.2430  -10.7490   34.7656 C   0  0  2  0  0  0  0  0  0  0  0  0
   -0.0093   -5.7489   28.5741 C   0  0  2  0  0  0  0  0  0  0  0  0
   -1.3455   -5.3686   28.9149 N   0  0  0  0  0  0  0  0  0  0  0  0
   -0.1738  -11.5553   30.6751 C   0  0  0  0  0  0  0  0  0  0  0  0
   -3.6938  -10.8848   35.2776 C   0  0  2  0  0  0  0  0  0  0  0  0
   -4.4285  -11.6708   34.3662 O   0  0  0  0  0  0  0  0  0  0  0  0
    0.0978   -6.2372   27.0890 C   0  0  0  0  0  0  0  0  0  0  0  0
   -0.3617  -10.3877   29.6385 C   0  0  2  0  0  0  0  0  0  0  0  0
    0.7012  -10.4387   28.6219 N   0  0  0  0  0  0  0  0  0  0  0  0
   -4.2990   -9.4287   35.4210 C   0  0  1  0  0  0  0  0  0  0  0  0
   -5.7289   -9.4709   35.8711 N   0  0  0  0  0  0  0  0  0  0  0  0
    1.5896   -6.5993   26.8062 C   0  0  0  0  0  0  0  0  0  0  0  0
   -0.3430   -9.0037   30.3938 C   0  0  2  0  0  0  0  0  0  0  0  0
   -3.4166   -8.5555   36.4615 C   0  0  1  0  0  0  0  0  0  0  0  0
   -3.4387   -9.1217   37.7554 O   0  0  0  0  0  0  0  0  0  0  0  0
    2.0418   -7.7265   27.8356 C   0  0  2  0  0  0  0  0  0  0  0  0
    1.8206   -7.3293   29.2250 O   0  0  0  0  0  0  0  0  0  0  0  0
   -1.4921   -8.9760   31.4739 C   0  0  2  0  0  0  0  0  0  0  0  0
   -1.4956   -7.7316   32.1662 O   0  0  0  0  0  0  0  0  0  0  0  0
   -1.9331   -8.5343   35.9794 C   0  0  0  0  0  0  0  0  0  0  0  0
   -1.4417   -9.9284   35.7192 O   0  0  0  0  0  0  0  0  0  0  0  0
    3.4702   -8.1859   27.6608 C   0  0  0  0  0  0  0  0  0  0  0  0
    4.4056   -7.1081   27.8481 N   0  0  0  0  0  0  0  0  0  0  0  0
   -1.2889  -10.1480   32.4972 C   0  0  1  0  0  0  0  0  0  0  0  0
   -2.3377  -10.1104   33.4574 O   0  0  0  0  0  0  0  0  0  0  0  0
   -3.8638   -7.1073   36.7031 C   0  0  0  0  0  0  0  0  0  0  0  0
   -6.7559   -9.6355   34.8288 C   0  0  0  0  0  0  0  0  0  0  0  0
  1  2  1  6  0  0  0
  1  6  1  0  0  0  0
  1 21  1  0  0  0  0
  3  4  1  1  0  0  0
  3  8  1  0  0  0  0
  3 28  1  0  0  0  0
  5  9  1  0  0  0  0
  5 25  1  0  0  0  0
  5 29  1  6  0  0  0
  6  7  1  1  0  0  0
  6 11  1  0  0  0  0
  8 12  1  0  0  0  0
  9 10  1  6  0  0  0
  9 14  1  0  0  0  0
 11 16  1  0  0  0  0
 12 13  1  6  0  0  0
 12 17  1  0  0  0  0
 14 15  1  1  0  0  0
 14 18  1  0  0  0  0
 15 31  1  0  0  0  0
 16 20  1  0  0  0  0
 17  2  1  6  0  0  0
 17 22  1  0  0  0  0
 18 19  1  1  0  0  0
 18 24  1  0  0  0  0
 18 30  1  0  0  0  0
 20 21  1  0  0  0  0
 20 26  1  1  0  0  0
 22 23  1  1  0  0  0
 22 28  1  0  0  0  0
 24 25  1  0  0  0  0
 26 27  1  0  0  0  0
 28 29  1  1  0  0  0
M  END
>  <CHROM.1>
-172.36110257,-161.51451294,-85.36010548,-130.50179297,60.77752665,80.07846148
-1.26527243,-8.92097159,31.96445266,0.41590931,0.90606060,-0.22210784

>  <Name>
2et3_lig

>  <RI>
0

>  <Rbt.Current_Directory>
/home/itssahil/PROJECTS/Mol_Feturizer/New_Systems/rnas/2et3

>  <Rbt.Executable>
rbdock ($Id: //depot/dev/client3/rdock/2013.1/src/exe/rbdock.cxx#4 $)

>  <Rbt.Library>
libRbt.so (2013.1, Build901 2013/11/27)

>  <Rbt.Parameter_File>
/export/apps/rDock/src/rDock_2013.1_src/data/scripts/dock_solv.prm

>  <Rbt.Receptor>
prm/pocket_docking_2.prm

>  <SCORE>
-28.9024

>  <SCORE.INTER>
-23.0476

>  <SCORE.INTER.CONST>
1

>  <SCORE.INTER.POLAR>
-0.938083

>  <SCORE.INTER.ROT>
6

>  <SCORE.INTER.SOLV>
21.2185

>  <SCORE.INTER.VDW>
-26.9109

>  <SCORE.INTER.norm>
-0.74347

>  <SCORE.INTRA>
-5.85481

>  <SCORE.INTRA.DIHEDRAL>
-11.3131

>  <SCORE.INTRA.DIHEDRAL.0>
22.2484

>  <SCORE.INTRA.POLAR>
0

>  <SCORE.INTRA.POLAR.0>
0

>  <SCORE.INTRA.REPUL>
0

>  <SCORE.INTRA.REPUL.0>
0

>  <SCORE.INTRA.SOLV>
0.51995

>  <SCORE.INTRA.SOLV.lig_0>
-75.7198

>  <SCORE.INTRA.VDW>
-0.458241

>  <SCORE.INTRA.VDW.0>
-3.34171

>  <SCORE.INTRA.norm>
-0.188865

>  <SCORE.RESTR>
0

>  <SCORE.RESTR.CAVITY>
0

>  <SCORE.RESTR.norm>
0

>  <SCORE.SYSTEM>
0

>  <SCORE.SYSTEM.CONST>
0

>  <SCORE.SYSTEM.DIHEDRAL>
0

>  <SCORE.SYSTEM.SOLV>
0

>  <SCORE.SYSTEM.norm>
0

>  <SCORE.heavy>
31

>  <SCORE.norm>
-0.932335

>  <RMSD>
0.797

$$$$
2et3_lig
 OpenBabel11021811423D
libRbt.so/2013.1/901 2013/11/27
 31 33  0  0  0  0  0  0  0  0999 V2000
    0.2283   -6.9063   29.6045 C   0  0  2  0  0  0  0  0  0  0  0  0
   -0.4470   -8.1661   29.3535 O   0  0  0  0  0  0  0  0  0  0  0  0
   -1.5954  -11.3420   31.9806 C   0  0  2  0  0  0  0  0  0  0  0  0
   -1.4873  -12.3690   32.9701 N   0  0  0  0  0  0  0  0  0  0  0  0
   -2.0104  -10.3714   34.9846 C   0  0  2  0  0  0  0  0  0  0  0  0
   -0.4081   -5.7993   28.7573 C   0  0  2  0  0  0  0  0  0  0  0  0
   -1.8066   -5.7454   29.0533 N   0  0  0  0  0  0  0  0  0  0  0  0
   -0.6650  -11.6816   30.7718 C   0  0  0  0  0  0  0  0  0  0  0  0
   -3.4707  -10.6610   35.3959 C   0  0  2  0  0  0  0  0  0  0  0  0
   -4.0696  -11.4753   34.4128 O   0  0  0  0  0  0  0  0  0  0  0  0
   -0.1433   -6.0558   27.2344 C   0  0  0  0  0  0  0  0  0  0  0  0
   -0.7708  -10.5527   29.6821 C   0  0  2  0  0  0  0  0  0  0  0  0
    0.1042  -10.8676   28.5416 N   0  0  0  0  0  0  0  0  0  0  0  0
   -4.2192   -9.2740   35.5478 C   0  0  1  0  0  0  0  0  0  0  0  0
   -5.6637   -9.4660   35.9019 N   0  0  0  0  0  0  0  0  0  0  0  0
    1.4012   -6.0681   27.0083 C   0  0  0  0  0  0  0  0  0  0  0  0
   -0.3761   -9.1655   30.3196 C   0  0  2  0  0  0  0  0  0  0  0  0
   -3.4898   -8.3642   36.6721 C   0  0  1  0  0  0  0  0  0  0  0  0
   -3.5380   -8.9804   37.9424 O   0  0  0  0  0  0  0  0  0  0  0  0
    2.0384   -7.2062   27.9213 C   0  0  2  0  0  0  0  0  0  0  0  0
    1.6847   -7.0485   29.3311 O   0  0  0  0  0  0  0  0  0  0  0  0
   -1.3301   -8.8527   31.5360 C   0  0  2  0  0  0  0  0  0  0  0  0
   -0.9929   -7.6008   32.1249 O   0  0  0  0  0  0  0  0  0  0  0  0
   -1.9880   -8.1868   36.2890 C   0  0  0  0  0  0  0  0  0  0  0  0
   -1.3513   -9.5181   36.0152 O   0  0  0  0  0  0  0  0  0  0  0  0
    3.5369   -7.3400   27.7863 C   0  0  0  0  0  0  0  0  0  0  0  0
    4.0117   -8.5931   28.3119 N   0  0  0  0  0  0  0  0  0  0  0  0
   -1.2121   -9.9898   32.6109 C   0  0  1  0  0  0  0  0  0  0  0  0
   -2.0842   -9.6934   33.6949 O   0  0  0  0  0  0  0  0  0  0  0  0
   -4.0865   -6.9743   36.9321 C   0  0  0  0  0  0  0  0  0  0  0  0
   -6.6105   -9.6388   34.7875 C   0  0  0  0  0  0  0  0  0  0  0  0
  1  2  1  6  0  0  0
  1  6  1  0  0  0  0
  1 21  1  0  0  0  0
  3  4  1  1  0  0  0
  3  8  1  0  0  0  0
  3 28  1  0  0  0  0
  5  9  1  0  0  0  0
  5 25  1  0  0  0  0
  5 29  1  6  0  0  0
  6  7  1  6  0  0  0
  6 11  1  0  0  0  0
  8 12  1  0  0  0  0
  9 10  1  6  0  0  0
  9 14  1  0  0  0  0
 11 16  1  0  0  0  0
 12 13  1  6  0  0  0
 12 17  1  0  0  0  0
 14 15  1  1  0  0  0
 14 18  1  0  0  0  0
 15 31  1  0  0  0  0
 16 20  1  0  0  0  0
 17  2  1  6  0  0  0
 17 22  1  0  0  0  0
 18 19  1  1  0  0  0
 18 24  1  0  0  0  0
 18 30  1  0  0  0  0
 20 21  1  0  0  0  0
 20 26  1  1  0  0  0
 22 23  1  1  0  0  0
 22 28  1  0  0  0  0
 24 25  1  0  0  0  0
 26 27  1  0  0  0  0
 28 29  1  1  0  0  0
M  END
>  <CHROM.1>
-157.22916839,-137.45726334,-87.36090182,-162.56813444,-163.35519798,73.74338110
-1.33539328,-8.83293986,32.09227003,0.32204760,0.96362054,-0.12361451

>  <Name>
2et3_lig

>  <RI>
3.50789e+07

>  <Rbt.Current_Directory>
/home/itssahil/PROJECTS/Mol_Feturizer/New_Systems/rnas/2et3

>  <Rbt.Executable>
rbdock ($Id: //depot/dev/client3/rdock/2013.1/src/exe/rbdock.cxx#4 $)

>  <Rbt.Library>
libRbt.so (2013.1, Build901 2013/11/27)

>  <Rbt.Parameter_File>
/export/apps/rDock/src/rDock_2013.1_src/data/scripts/dock_solv.prm

>  <Rbt.Receptor>
prm/pocket_docking_4.prm

>  <SCORE>
-29.5944

>  <SCORE.INTER>
-23.8375

>  <SCORE.INTER.CONST>
1

>  <SCORE.INTER.POLAR>
-0.938083

>  <SCORE.INTER.ROT>
6

>  <SCORE.INTER.SOLV>
19.7636

>  <SCORE.INTER.VDW>
-26.9526

>  <SCORE.INTER.norm>
-0.768953

>  <SCORE.INTRA>
-5.75876

>  <SCORE.INTRA.DIHEDRAL>
-10.3041

>  <SCORE.INTRA.DIHEDRAL.0>
22.2484

>  <SCORE.INTRA.POLAR>
0

>  <SCORE.INTRA.POLAR.0>
0

>  <SCORE.INTRA.REPUL>
0

>  <SCORE.INTRA.REPUL.0>
0

>  <SCORE.INTRA.SOLV>
-1.31251

>  <SCORE.INTRA.SOLV.lig_0>
-75.7198

>  <SCORE.INTRA.VDW>
0.049559

>  <SCORE.INTRA.VDW.0>
-3.34171

>  <SCORE.INTRA.norm>
-0.185767

>  <SCORE.RESTR>
0.0018614

>  <SCORE.RESTR.CAVITY>
0.0018614

>  <SCORE.RESTR.norm>
6.0045e-05

>  <SCORE.SYSTEM>
0

>  <SCORE.SYSTEM.CONST>
0

>  <SCORE.SYSTEM.DIHEDRAL>
0

>  <SCORE.SYSTEM.SOLV>
0

>  <SCORE.SYSTEM.norm>
0

>  <SCORE.heavy>
31

>  <SCORE.norm>
-0.954659

>  <RMSD>
0.798

$$$$
2et3_lig
 OpenBabel11021811423D
libRbt.so/2013.1/901 2013/11/27
 31 33  0  0  0  0  0  0  0  0999 V2000
    0.1397   -6.9020   29.5705 C   0  0  2  0  0  0  0  0  0  0  0  0
   -0.5126   -8.1775   29.3390 O   0  0  0  0  0  0  0  0  0  0  0  0
   -1.6028  -11.3365   32.0108 C   0  0  2  0  0  0  0  0  0  0  0  0
   -1.4765  -12.3457   33.0163 N   0  0  0  0  0  0  0  0  0  0  0  0
   -2.0659  -10.3483   34.9894 C   0  0  2  0  0  0  0  0  0  0  0  0
   -0.5126   -5.8211   28.7019 C   0  0  2  0  0  0  0  0  0  0  0  0
   -1.9129   -5.7865   28.9919 N   0  0  0  0  0  0  0  0  0  0  0  0
   -0.6612  -11.6747   30.8104 C   0  0  0  0  0  0  0  0  0  0  0  0
   -3.5281  -10.6446   35.3890 C   0  0  2  0  0  0  0  0  0  0  0  0
   -4.1147  -11.4635   34.4021 O   0  0  0  0  0  0  0  0  0  0  0  0
   -0.2374   -6.0992   27.1846 C   0  0  0  0  0  0  0  0  0  0  0  0
   -0.7871  -10.5651   29.7032 C   0  0  2  0  0  0  0  0  0  0  0  0
    0.0983  -10.8788   28.5704 N   0  0  0  0  0  0  0  0  0  0  0  0
   -4.2848   -9.2612   35.5325 C   0  0  1  0  0  0  0  0  0  0  0  0
   -5.7312   -9.4600   35.8748 N   0  0  0  0  0  0  0  0  0  0  0  0
    1.3079   -6.0886   26.9643 C   0  0  0  0  0  0  0  0  0  0  0  0
   -0.4239   -9.1602   30.3206 C   0  0  2  0  0  0  0  0  0  0  0  0
   -3.5694   -8.3461   36.6615 C   0  0  1  0  0  0  0  0  0  0  0  0
   -3.6252   -8.9607   37.9322 O   0  0  0  0  0  0  0  0  0  0  0  0
    1.9612   -7.1993   27.8992 C   0  0  2  0  0  0  0  0  0  0  0  0
    1.5994   -7.0234   29.3048 O   0  0  0  0  0  0  0  0  0  0  0  0
   -1.3886   -8.8492   31.5291 C   0  0  2  0  0  0  0  0  0  0  0  0
   -1.0799   -7.5816   32.0997 O   0  0  0  0  0  0  0  0  0  0  0  0
   -2.0654   -8.1617   36.2907 C   0  0  0  0  0  0  0  0  0  0  0  0
   -1.4197   -9.4902   36.0243 O   0  0  0  0  0  0  0  0  0  0  0  0
    3.4624   -7.3094   27.7719 C   0  0  0  0  0  0  0  0  0  0  0  0
    3.9569   -8.5443   28.3217 N   0  0  0  0  0  0  0  0  0  0  0  0
   -1.2504   -9.9670   32.6216 C   0  0  1  0  0  0  0  0  0  0  0  0
   -2.1323   -9.6727   33.6982 O   0  0  0  0  0  0  0  0  0  0  0  0
   -4.1752   -6.9588   36.9143 C   0  0  0  0  0  0  0  0  0  0  0  0
   -6.6669   -9.6452   34.7530 C   0  0  0  0  0  0  0  0  0  0  0  0
  1  2  1  6  0  0  0
  1  6  1  0  0  0  0
  1 21  1  0  0  0  0
  3  4  1  1  0  0  0
  3  8  1  0  0  0  0
  3 28  1  0  0  0  0
  5  9  1  0  0  0  0
  5 25  1  0  0  0  0
  5 29  1  6  0  0  0
  6  7  1  6  0  0  0
  6 11  1  0  0  0  0
  8 12  1  0  0  0  0
  9 10  1  6  0  0  0
  9 14  1  0  0  0  0
 11 16  1  0  0  0  0
 12 13  1  6  0  0  0
 12 17  1  0  0  0  0
 14 15  1  1  0  0  0
 14 18  1  0  0  0  0
 15 31  1  0  0  0  0
 16 20  1  0  0  0  0
 17  2  1  6  0  0  0
 17 22  1  0  0  0  0
 18 19  1  1  0  0  0
 18 24  1  0  0  0  0
 18 30  1  0  0  0  0
 20 21  1  0  0  0  0
 20 26  1  1  0  0  0
 22 23  1  1  0  0  0
 22 28  1  0  0  0  0
 24 25  1  0  0  0  0
 26 27  1  0  0  0  0
 28 29  1  1  0  0  0
M  END
>  <CHROM.1>
-157.45966900,-137.40422232,-87.09632604,-162.31759842,-163.39311669,72.46609512
-1.39665924,-8.82522881,32.08298893,0.36549318,0.95467495,-0.17870913

>  <Name>
2et3_lig

>  <RI>
3.50789e+07

>  <Rbt.Current_Directory>
/home/itssahil/PROJECTS/Mol_Feturizer/New_Systems/rnas/2et3

>  <Rbt.Executable>
rbdock ($Id: //depot/dev/client3/rdock/2013.1/src/exe/rbdock.cxx#4 $)

>  <Rbt.Library>
libRbt.so (2013.1, Build901 2013/11/27)

>  <Rbt.Parameter_File>
/export/apps/rDock/src/rDock_2013.1_src/data/scripts/dock_solv.prm

>  <Rbt.Receptor>
prm/pocket_docking_4.prm

>  <SCORE>
-29.6294

>  <SCORE.INTER>
-23.8336

>  <SCORE.INTER.CONST>
1

>  <SCORE.INTER.POLAR>
-0.938083

>  <SCORE.INTER.ROT>
6

>  <SCORE.INTER.SOLV>
19.5154

>  <SCORE.INTER.VDW>
-26.8673

>  <SCORE.INTER.norm>
-0.768826

>  <SCORE.INTRA>
-5.7958

>  <SCORE.INTRA.DIHEDRAL>
-10.4631

>  <SCORE.INTRA.DIHEDRAL.0>
22.2484

>  <SCORE.INTRA.POLAR>
0

>  <SCORE.INTRA.POLAR.0>
0

>  <SCORE.INTRA.REPUL>
0

>  <SCORE.INTRA.REPUL.0>
0

>  <SCORE.INTRA.SOLV>
-1.29824

>  <SCORE.INTRA.SOLV.lig_0>
-75.7198

>  <SCORE.INTRA.VDW>
0.0848838

>  <SCORE.INTRA.VDW.0>
-3.34171

>  <SCORE.INTRA.norm>
-0.186961

>  <SCORE.RESTR>
0

>  <SCORE.RESTR.CAVITY>
0

>  <SCORE.RESTR.norm>
0

>  <SCORE.SYSTEM>
0

>  <SCORE.SYSTEM.CONST>
0

>  <SCORE.SYSTEM.DIHEDRAL>
0

>  <SCORE.SYSTEM.SOLV>
0

>  <SCORE.SYSTEM.norm>
0

>  <SCORE.heavy>
31

>  <SCORE.norm>
-0.955788

>  <RMSD>
0.802

$$$$
2et3_lig
 OpenBabel11021811423D
libRbt.so/2013.1/901 2013/11/27
 31 33  0  0  0  0  0  0  0  0999 V2000
    0.3306   -6.8553   29.7392 C   0  0  2  0  0  0  0  0  0  0  0  0
   -0.3302   -8.1126   29.4416 O   0  0  0  0  0  0  0  0  0  0  0  0
   -1.3802  -11.5270   31.7966 C   0  0  2  0  0  0  0  0  0  0  0  0
   -1.2621  -12.5841   32.7527 N   0  0  0  0  0  0  0  0  0  0  0  0
   -2.1857  -10.6837   34.8080 C   0  0  2  0  0  0  0  0  0  0  0  0
   -0.3471   -5.7182   28.9670 C   0  0  2  0  0  0  0  0  0  0  0  0
   -1.7377   -5.7048   29.3020 N   0  0  0  0  0  0  0  0  0  0  0  0
   -0.2881  -11.6977   30.6919 C   0  0  0  0  0  0  0  0  0  0  0  0
   -3.6488  -10.8160   35.2850 C   0  0  2  0  0  0  0  0  0  0  0  0
   -4.3662  -11.5902   34.3498 O   0  0  0  0  0  0  0  0  0  0  0  0
   -0.1194   -5.8920   27.4265 C   0  0  0  0  0  0  0  0  0  0  0  0
   -0.4049  -10.5341   29.6406 C   0  0  2  0  0  0  0  0  0  0  0  0
    0.6220  -10.6900   28.5981 N   0  0  0  0  0  0  0  0  0  0  0  0
   -4.2496   -9.3580   35.4271 C   0  0  1  0  0  0  0  0  0  0  0  0
   -5.6898   -9.3963   35.8434 N   0  0  0  0  0  0  0  0  0  0  0  0
    1.4184   -5.8649   27.1596 C   0  0  0  0  0  0  0  0  0  0  0  0
   -0.2494   -9.1453   30.3712 C   0  0  2  0  0  0  0  0  0  0  0  0
   -3.3871   -8.4985   36.4953 C   0  0  1  0  0  0  0  0  0  0  0  0
   -3.4422   -9.0758   37.7834 O   0  0  0  0  0  0  0  0  0  0  0  0
    2.0990   -7.0363   27.9959 C   0  0  2  0  0  0  0  0  0  0  0  0
    1.7812   -6.9570   29.4206 O   0  0  0  0  0  0  0  0  0  0  0  0
   -1.3625   -9.0043   31.4798 C   0  0  2  0  0  0  0  0  0  0  0  0
   -1.2424   -7.7539   32.1504 O   0  0  0  0  0  0  0  0  0  0  0  0
   -1.8927   -8.4812   36.0480 C   0  0  0  0  0  0  0  0  0  0  0  0
   -1.4026   -9.8756   35.7871 O   0  0  0  0  0  0  0  0  0  0  0  0
    3.5954   -7.1360   27.8148 C   0  0  0  0  0  0  0  0  0  0  0  0
    4.0825   -8.4589   28.1055 N   0  0  0  0  0  0  0  0  0  0  0  0
   -1.2311  -10.1739   32.5175 C   0  0  1  0  0  0  0  0  0  0  0  0
   -2.2467  -10.0332   33.5035 O   0  0  0  0  0  0  0  0  0  0  0  0
   -3.8322   -7.0501   36.7392 C   0  0  0  0  0  0  0  0  0  0  0  0
   -6.6910   -9.5825   34.7800 C   0  0  0  0  0  0  0  0  0  0  0  0
  1  2  1  6  0  0  0
  1  6  1  0  0  0  0
  1 21  1  0  0  0  0
  3  4  1  1  0  0  0
  3  8  1  0  0  0  0
  3 28  1  0  0  0  0
  5  9  1  0  0  0  0
  5 25  1  0  0  0  0
  5 29  1  6  0  0  0
  6  7  1  6  0  0  0
  6 11  1  0  0  0  0
  8 12  1  0  0  0  0
  9 10  1  6  0  0  0
  9 14  1  0  0  0  0
 11 16  1  0  0  0  0
 12 13  1  6  0  0  0
 12 17  1  0  0  0  0
 14 15  1  1  0  0  0
 14 18  1  0  0  0  0
 15 31  1  0  0  0  0
 16 20  1  0  0  0  0
 17  2  1  6  0  0  0
 17 22  1  0  0  0  0
 18 19  1  1  0  0  0
 18 24  1  0  0  0  0
 18 30  1  0  0  0  0
 20 21  1  0  0  0  0
 20 26  1  1  0  0  0
 22 23  1  1  0  0  0
 22 28  1  0  0  0  0
 24 25  1  0  0  0  0
 26 27  1  0  0  0  0
 28 29  1  1  0  0  0
M  END
>  <CHROM.1>
-155.35270835,-155.29857065,-83.76802091,-153.76492243,-156.16730130,78.57861511
-1.28255887,-8.87756113,32.05115472,0.40201909,0.91296584,-0.19120794

>  <Name>
2et3_lig

>  <RI>
0

>  <Rbt.Current_Directory>
/home/itssahil/PROJECTS/Mol_Feturizer/New_Systems/rnas/2et3

>  <Rbt.Executable>
rbdock ($Id: //depot/dev/client3/rdock/2013.1/src/exe/rbdock.cxx#4 $)

>  <Rbt.Library>
libRbt.so (2013.1, Build901 2013/11/27)

>  <Rbt.Parameter_File>
/export/apps/rDock/src/rDock_2013.1_src/data/scripts/dock_solv.prm

>  <Rbt.Receptor>
prm/pocket_docking_2.prm

>  <SCORE>
-30.2624

>  <SCORE.INTER>
-24.4209

>  <SCORE.INTER.CONST>
1

>  <SCORE.INTER.POLAR>
-0.938083

>  <SCORE.INTER.ROT>
6

>  <SCORE.INTER.SOLV>
19.6259

>  <SCORE.INTER.VDW>
-27.2956

>  <SCORE.INTER.norm>
-0.78777

>  <SCORE.INTRA>
-5.84148

>  <SCORE.INTRA.DIHEDRAL>
-10.2605

>  <SCORE.INTRA.DIHEDRAL.0>
22.2484

>  <SCORE.INTRA.POLAR>
0

>  <SCORE.INTRA.POLAR.0>
0

>  <SCORE.INTRA.REPUL>
0

>  <SCORE.INTRA.REPUL.0>
0

>  <SCORE.INTRA.SOLV>
-1.1975

>  <SCORE.INTRA.SOLV.lig_0>
-75.7198

>  <SCORE.INTRA.VDW>
-0.112501

>  <SCORE.INTRA.VDW.0>
-3.34171

>  <SCORE.INTRA.norm>
-0.188435

>  <SCORE.RESTR>
0

>  <SCORE.RESTR.CAVITY>
0

>  <SCORE.RESTR.norm>
0

>  <SCORE.SYSTEM>
0

>  <SCORE.SYSTEM.CONST>
0

>  <SCORE.SYSTEM.DIHEDRAL>
0

>  <SCORE.SYSTEM.SOLV>
0

>  <SCORE.SYSTEM.norm>
0

>  <SCORE.heavy>
31

>  <SCORE.norm>
-0.976205

>  <RMSD>
0.816

$$$$
2et3_lig
 OpenBabel11021811423D
libRbt.so/2013.1/901 2013/11/27
 31 33  0  0  0  0  0  0  0  0999 V2000
    0.1953   -6.7031   29.4486 C   0  0  2  0  0  0  0  0  0  0  0  0
   -0.4329   -7.9916   29.2226 O   0  0  0  0  0  0  0  0  0  0  0  0
   -1.5359  -11.1316   31.9116 C   0  0  2  0  0  0  0  0  0  0  0  0
   -1.4182  -12.1228   32.9359 N   0  0  0  0  0  0  0  0  0  0  0  0
   -1.7265   -9.0590   34.8974 C   0  0  2  0  0  0  0  0  0  0  0  0
   -0.3355   -5.6829   28.4358 C   0  0  2  0  0  0  0  0  0  0  0  0
   -1.7607   -5.6300   28.5459 N   0  0  0  0  0  0  0  0  0  0  0  0
   -0.5538  -11.4686   30.7436 C   0  0  0  0  0  0  0  0  0  0  0  0
   -2.9111   -9.3962   35.8296 C   0  0  2  0  0  0  0  0  0  0  0  0
   -3.1742  -10.7794   35.7522 O   0  0  0  0  0  0  0  0  0  0  0  0
    0.1243   -6.0615   26.9864 C   0  0  0  0  0  0  0  0  0  0  0  0
   -0.6702  -10.3785   29.6161 C   0  0  2  0  0  0  0  0  0  0  0  0
    0.2533  -10.6912   28.5138 N   0  0  0  0  0  0  0  0  0  0  0  0
   -4.1559   -8.5331   35.3686 C   0  0  1  0  0  0  0  0  0  0  0  0
   -5.3695   -8.8354   36.1960 N   0  0  0  0  0  0  0  0  0  0  0  0
    1.6850   -6.0646   26.9603 C   0  0  0  0  0  0  0  0  0  0  0  0
   -0.3528   -8.9575   30.2215 C   0  0  2  0  0  0  0  0  0  0  0  0
   -3.8056   -6.9541   35.4558 C   0  0  1  0  0  0  0  0  0  0  0  0
   -3.5234   -6.5628   36.7835 O   0  0  0  0  0  0  0  0  0  0  0  0
    2.2083   -7.1101   28.0410 C   0  0  2  0  0  0  0  0  0  0  0  0
    1.6758   -6.8411   29.3756 O   0  0  0  0  0  0  0  0  0  0  0  0
   -1.3576   -8.6480   31.3973 C   0  0  2  0  0  0  0  0  0  0  0  0
   -1.0906   -7.3660   31.9565 O   0  0  0  0  0  0  0  0  0  0  0  0
   -2.5355   -6.6653   34.5972 C   0  0  0  0  0  0  0  0  0  0  0  0
   -1.4221   -7.6006   34.9690 O   0  0  0  0  0  0  0  0  0  0  0  0
    3.7128   -7.2274   28.1094 C   0  0  0  0  0  0  0  0  0  0  0  0
    4.2586   -7.8150   26.9141 N   0  0  0  0  0  0  0  0  0  0  0  0
   -1.2284   -9.7462   32.5106 C   0  0  1  0  0  0  0  0  0  0  0  0
   -2.1463   -9.4537   33.5571 O   0  0  0  0  0  0  0  0  0  0  0  0
   -4.9076   -5.9757   35.0270 C   0  0  0  0  0  0  0  0  0  0  0  0
   -6.3828   -9.7232   35.6017 C   0  0  0  0  0  0  0  0  0  0  0  0
  1  2  1  6  0  0  0
  1  6  1  0  0  0  0
  1 21  1  0  0  0  0
  3  4  1  1  0  0  0
  3  8  1  0  0  0  0
  3 28  1  0  0  0  0
  5  9  1  0  0  0  0
  5 25  1  0  0  0  0
  5 29  1  6  0  0  0
  6  7  1  6  0  0  0
  6 11  1  0  0  0  0
  8 12  1  0  0  0  0
  9 10  1  6  0  0  0
  9 14  1  0  0  0  0
 11 16  1  0  0  0  0
 12 13  1  6  0  0  0
 12 17  1  0  0  0  0
 14 15  1  1  0  0  0
 14 18  1  0  0  0  0
 15 31  1  0  0  0  0
 16 20  1  0  0  0  0
 17  2  1  6  0  0  0
 17 22  1  0  0  0  0
 18 19  1  1  0  0  0
 18 24  1  0  0  0  0
 18 30  1  0  0  0  0
 20 21  1  0  0  0  0
 20 26  1  1  0  0  0
 22 23  1  1  0  0  0
 22 28  1  0  0  0  0
 24 25  1  0  0  0  0
 26 27  1  0  0  0  0
 28 29  1  1  0  0  0
M  END
>  <CHROM.1>
-164.07094508,-157.45079046,-101.35829704,-161.87927072,-67.58480941,126.76593258
-1.26693476,-8.28388222,31.84779749,0.28633573,0.92572578,-0.18514854

>  <Name>
2et3_lig

>  <RI>
3.50789e+07

>  <Rbt.Current_Directory>
/home/itssahil/PROJECTS/Mol_Feturizer/New_Systems/rnas/2et3

>  <Rbt.Executable>
rbdock ($Id: //depot/dev/client3/rdock/2013.1/src/exe/rbdock.cxx#4 $)

>  <Rbt.Library>
libRbt.so (2013.1, Build901 2013/11/27)

>  <Rbt.Parameter_File>
/export/apps/rDock/src/rDock_2013.1_src/data/scripts/dock_solv.prm

>  <Rbt.Receptor>
prm/pocket_docking_4.prm

>  <SCORE>
-28.8372

>  <SCORE.INTER>
-22.8081

>  <SCORE.INTER.CONST>
1

>  <SCORE.INTER.POLAR>
-1.7858

>  <SCORE.INTER.ROT>
6

>  <SCORE.INTER.SOLV>
15.4288

>  <SCORE.INTER.VDW>
-21.9957

>  <SCORE.INTER.norm>
-0.735745

>  <SCORE.INTRA>
-6.17805

>  <SCORE.INTRA.DIHEDRAL>
-9.09468

>  <SCORE.INTRA.DIHEDRAL.0>
22.2484

>  <SCORE.INTRA.POLAR>
0

>  <SCORE.INTRA.POLAR.0>
0

>  <SCORE.INTRA.REPUL>
0

>  <SCORE.INTRA.REPUL.0>
0

>  <SCORE.INTRA.SOLV>
-2.47167

>  <SCORE.INTRA.SOLV.lig_0>
-75.7198

>  <SCORE.INTRA.VDW>
-0.394874

>  <SCORE.INTRA.VDW.0>
-3.34171

>  <SCORE.INTRA.norm>
-0.199292

>  <SCORE.RESTR>
0.148994

>  <SCORE.RESTR.CAVITY>
0.148994

>  <SCORE.RESTR.norm>
0.00480625

>  <SCORE.SYSTEM>
0

>  <SCORE.SYSTEM.CONST>
0

>  <SCORE.SYSTEM.DIHEDRAL>
0

>  <SCORE.SYSTEM.SOLV>
0

>  <SCORE.SYSTEM.norm>
0

>  <SCORE.heavy>
31

>  <SCORE.norm>
-0.930231

>  <RMSD>
0.817

$$$$
2et3_lig
 OpenBabel11021811423D
libRbt.so/2013.1/901 2013/11/27
 31 33  0  0  0  0  0  0  0  0999 V2000
    0.3079   -6.8177   29.5524 C   0  0  2  0  0  0  0  0  0  0  0  0
   -0.5832   -7.9588   29.4523 O   0  0  0  0  0  0  0  0  0  0  0  0
   -1.7616  -11.0269   32.1917 C   0  0  2  0  0  0  0  0  0  0  0  0
   -1.6571  -12.0437   33.1921 N   0  0  0  0  0  0  0  0  0  0  0  0
   -1.9908  -10.0173   35.1838 C   0  0  2  0  0  0  0  0  0  0  0  0
   -0.1596   -5.7101   28.6020 C   0  0  2  0  0  0  0  0  0  0  0  0
   -1.5158   -5.3817   28.9164 N   0  0  0  0  0  0  0  0  0  0  0  0
   -0.9170  -11.4354   30.9419 C   0  0  0  0  0  0  0  0  0  0  0  0
   -3.4357  -10.4455   35.5225 C   0  0  2  0  0  0  0  0  0  0  0  0
   -3.9113  -11.2956   34.5029 O   0  0  0  0  0  0  0  0  0  0  0  0
    0.0002   -6.1656   27.1112 C   0  0  0  0  0  0  0  0  0  0  0  0
   -1.0190  -10.3185   29.8396 C   0  0  2  0  0  0  0  0  0  0  0  0
   -0.2247  -10.6984   28.6604 N   0  0  0  0  0  0  0  0  0  0  0  0
   -4.3147   -9.1352   35.6547 C   0  0  1  0  0  0  0  0  0  0  0  0
   -5.7502   -9.4640   35.9380 N   0  0  0  0  0  0  0  0  0  0  0  0
    1.5099   -6.4717   26.8590 C   0  0  0  0  0  0  0  0  0  0  0  0
   -0.5155   -8.9462   30.4309 C   0  0  2  0  0  0  0  0  0  0  0  0
   -3.7245   -8.1804   36.8225 C   0  0  1  0  0  0  0  0  0  0  0  0
   -3.7742   -8.8183   38.0819 O   0  0  0  0  0  0  0  0  0  0  0  0
    1.9752   -7.6029   27.8782 C   0  0  2  0  0  0  0  0  0  0  0  0
    1.7068   -7.2404   29.2688 O   0  0  0  0  0  0  0  0  0  0  0  0
   -1.3847   -8.5630   31.6900 C   0  0  2  0  0  0  0  0  0  0  0  0
   -0.9486   -7.3233   32.2381 O   0  0  0  0  0  0  0  0  0  0  0  0
   -2.2294   -7.8605   36.5127 C   0  0  0  0  0  0  0  0  0  0  0  0
   -1.4610   -9.1236   36.2541 O   0  0  0  0  0  0  0  0  0  0  0  0
    3.4222   -8.0105   27.7306 C   0  0  0  0  0  0  0  0  0  0  0  0
    4.3118   -6.8884   27.8764 N   0  0  0  0  0  0  0  0  0  0  0  0
   -1.2719   -9.6889   32.7771 C   0  0  1  0  0  0  0  0  0  0  0  0
   -2.0673   -9.3287   33.9000 O   0  0  0  0  0  0  0  0  0  0  0  0
   -4.4579   -6.8551   37.0699 C   0  0  0  0  0  0  0  0  0  0  0  0
   -6.6365   -9.6546   34.7778 C   0  0  0  0  0  0  0  0  0  0  0  0
  1  2  1  6  0  0  0
  1  6  1  0  0  0  0
  1 21  1  0  0  0  0
  3  4  1  1  0  0  0
  3  8  1  0  0  0  0
  3 28  1  0  0  0  0
  5  9  1  0  0  0  0
  5 25  1  0  0  0  0
  5 29  1  6  0  0  0
  6  7  1  1  0  0  0
  6 11  1  0  0  0  0
  8 12  1  0  0  0  0
  9 10  1  6  0  0  0
  9 14  1  0  0  0  0
 11 16  1  0  0  0  0
 12 13  1  6  0  0  0
 12 17  1  0  0  0  0
 14 15  1  1  0  0  0
 14 18  1  0  0  0  0
 15 31  1  0  0  0  0
 16 20  1  0  0  0  0
 17  2  1  6  0  0  0
 17 22  1  0  0  0  0
 18 19  1  1  0  0  0
 18 24  1  0  0  0  0
 18 30  1  0  0  0  0
 20 21  1  0  0  0  0
 20 26  1  1  0  0  0
 22 23  1  1  0  0  0
 22 28  1  0  0  0  0
 24 25  1  0  0  0  0
 26 27  1  0  0  0  0
 28 29  1  1  0  0  0
M  END
>  <CHROM.1>
-166.03774145,-126.21770283,-89.62454606,-154.28533152,57.06748205,71.82181155
-1.38873917,-8.65580891,32.15600460,0.11758003,0.99226660,0.10646238

>  <Name>
2et3_lig

>  <RI>
0

>  <Rbt.Current_Directory>
/home/itssahil/PROJECTS/Mol_Feturizer/New_Systems/rnas/2et3

>  <Rbt.Executable>
rbdock ($Id: //depot/dev/client3/rdock/2013.1/src/exe/rbdock.cxx#4 $)

>  <Rbt.Library>
libRbt.so (2013.1, Build901 2013/11/27)

>  <Rbt.Parameter_File>
/export/apps/rDock/src/rDock_2013.1_src/data/scripts/dock_solv.prm

>  <Rbt.Receptor>
prm/pocket_docking_3.prm

>  <SCORE>
-27.6875

>  <SCORE.INTER>
-22.6814

>  <SCORE.INTER.CONST>
1

>  <SCORE.INTER.POLAR>
-0.938083

>  <SCORE.INTER.ROT>
6

>  <SCORE.INTER.SOLV>
20.5622

>  <SCORE.INTER.VDW>
-26.448

>  <SCORE.INTER.norm>
-0.731658

>  <SCORE.INTRA>
-5.00607

>  <SCORE.INTRA.DIHEDRAL>
-10.09

>  <SCORE.INTRA.DIHEDRAL.0>
22.2484

>  <SCORE.INTRA.POLAR>
0

>  <SCORE.INTRA.POLAR.0>
0

>  <SCORE.INTRA.REPUL>
0

>  <SCORE.INTRA.REPUL.0>
0

>  <SCORE.INTRA.SOLV>
-0.0128312

>  <SCORE.INTRA.SOLV.lig_0>
-75.7198

>  <SCORE.INTRA.VDW>
0.0453678

>  <SCORE.INTRA.VDW.0>
-3.34171

>  <SCORE.INTRA.norm>
-0.161486

>  <SCORE.RESTR>
0

>  <SCORE.RESTR.CAVITY>
0

>  <SCORE.RESTR.norm>
0

>  <SCORE.SYSTEM>
0

>  <SCORE.SYSTEM.CONST>
0

>  <SCORE.SYSTEM.DIHEDRAL>
0

>  <SCORE.SYSTEM.SOLV>
0

>  <SCORE.SYSTEM.norm>
0

>  <SCORE.heavy>
31

>  <SCORE.norm>
-0.893144

>  <RMSD>
0.820

$$$$
2et3_lig
 OpenBabel11021811423D
libRbt.so/2013.1/901 2013/11/27
 31 33  0  0  0  0  0  0  0  0999 V2000
    0.2345   -6.7882   29.6661 C   0  0  2  0  0  0  0  0  0  0  0  0
   -0.4278   -8.0520   29.4007 O   0  0  0  0  0  0  0  0  0  0  0  0
   -1.3759  -11.4671   31.7975 C   0  0  2  0  0  0  0  0  0  0  0  0
   -1.2234  -12.5135   32.7605 N   0  0  0  0  0  0  0  0  0  0  0  0
   -2.1806  -10.6524   34.7950 C   0  0  2  0  0  0  0  0  0  0  0  0
   -0.4338   -5.6726   28.8554 C   0  0  2  0  0  0  0  0  0  0  0  0
   -1.8269   -5.6453   29.1792 N   0  0  0  0  0  0  0  0  0  0  0  0
   -0.2953  -11.6247   30.6797 C   0  0  0  0  0  0  0  0  0  0  0  0
   -3.6428  -10.8313   35.2596 C   0  0  2  0  0  0  0  0  0  0  0  0
   -4.3347  -11.6039   34.3042 O   0  0  0  0  0  0  0  0  0  0  0  0
   -0.1951   -5.8926   27.3225 C   0  0  0  0  0  0  0  0  0  0  0  0
   -0.4501  -10.4726   29.6205 C   0  0  2  0  0  0  0  0  0  0  0  0
    0.5659  -10.6163   28.5656 N   0  0  0  0  0  0  0  0  0  0  0  0
   -4.2811   -9.3921   35.4274 C   0  0  1  0  0  0  0  0  0  0  0  0
   -5.7223   -9.4751   35.8335 N   0  0  0  0  0  0  0  0  0  0  0  0
    1.3447   -5.8777   27.0666 C   0  0  0  0  0  0  0  0  0  0  0  0
   -0.3135   -9.0749   30.3376 C   0  0  2  0  0  0  0  0  0  0  0  0
   -3.4470   -8.5333   36.5186 C   0  0  1  0  0  0  0  0  0  0  0  0
   -3.4952   -9.1381   37.7943 O   0  0  0  0  0  0  0  0  0  0  0  0
    2.0155   -7.0257   27.9424 C   0  0  2  0  0  0  0  0  0  0  0  0
    1.6871   -6.9034   29.3617 O   0  0  0  0  0  0  0  0  0  0  0  0
   -1.4144   -8.9474   31.4599 C   0  0  2  0  0  0  0  0  0  0  0  0
   -1.3112   -7.6891   32.1185 O   0  0  0  0  0  0  0  0  0  0  0  0
   -1.9509   -8.4692   36.0815 C   0  0  0  0  0  0  0  0  0  0  0  0
   -1.4241   -9.8452   35.7954 O   0  0  0  0  0  0  0  0  0  0  0  0
    3.5128   -7.1349   27.7758 C   0  0  0  0  0  0  0  0  0  0  0  0
    4.0185   -8.3817   28.2873 N   0  0  0  0  0  0  0  0  0  0  0  0
   -1.2452  -10.1052   32.5053 C   0  0  1  0  0  0  0  0  0  0  0  0
   -2.2502   -9.9770   33.5037 O   0  0  0  0  0  0  0  0  0  0  0  0
   -3.9300   -7.1019   36.7891 C   0  0  0  0  0  0  0  0  0  0  0  0
   -6.7162   -9.6133   34.7559 C   0  0  0  0  0  0  0  0  0  0  0  0
  1  2  1  6  0  0  0
  1  6  1  0  0  0  0
  1 21  1  0  0  0  0
  3  4  1  1  0  0  0
  3  8  1  0  0  0  0
  3 28  1  0  0  0  0
  5  9  1  0  0  0  0
  5 25  1  0  0  0  0
  5 29  1  6  0  0  0
  6  7  1  6  0  0  0
  6 11  1  0  0  0  0
  8 12  1  0  0  0  0
  9 10  1  6  0  0  0
  9 14  1  0  0  0  0
 11 16  1  0  0  0  0
 12 13  1  6  0  0  0
 12 17  1  0  0  0  0
 14 15  1  1  0  0  0
 14 18  1  0  0  0  0
 15 31  1  0  0  0  0
 16 20  1  0  0  0  0
 17  2  1  6  0  0  0
 17 22  1  0  0  0  0
 18 19  1  1  0  0  0
 18 24  1  0  0  0  0
 18 30  1  0  0  0  0
 20 21  1  0  0  0  0
 20 26  1  1  0  0  0
 22 23  1  1  0  0  0
 22 28  1  0  0  0  0
 24 25  1  0  0  0  0
 26 27  1  0  0  0  0
 28 29  1  1  0  0  0
M  END
>  <CHROM.1>
-157.83108712,-153.27624292,-86.02338833,-152.47757994,-164.42282178,76.38443381
-1.32930888,-8.85304251,32.03005041,0.45697652,0.90575864,-0.25102315

>  <Name>
2et3_lig

>  <RI>
0

>  <Rbt.Current_Directory>
/home/itssahil/PROJECTS/Mol_Feturizer/New_Systems/rnas/2et3

>  <Rbt.Executable>
rbdock ($Id: //depot/dev/client3/rdock/2013.1/src/exe/rbdock.cxx#4 $)

>  <Rbt.Library>
libRbt.so (2013.1, Build901 2013/11/27)

>  <Rbt.Parameter_File>
/export/apps/rDock/src/rDock_2013.1_src/data/scripts/dock_solv.prm

>  <Rbt.Receptor>
prm/pocket_docking_2.prm

>  <SCORE>
-30.4728

>  <SCORE.INTER>
-24.1746

>  <SCORE.INTER.CONST>
1

>  <SCORE.INTER.POLAR>
-0.938083

>  <SCORE.INTER.ROT>
6

>  <SCORE.INTER.SOLV>
20.0779

>  <SCORE.INTER.VDW>
-27.2821

>  <SCORE.INTER.norm>
-0.779826

>  <SCORE.INTRA>
-6.29823

>  <SCORE.INTRA.DIHEDRAL>
-11.2821

>  <SCORE.INTRA.DIHEDRAL.0>
22.2484

>  <SCORE.INTRA.POLAR>
0

>  <SCORE.INTRA.POLAR.0>
0

>  <SCORE.INTRA.REPUL>
0

>  <SCORE.INTRA.REPUL.0>
0

>  <SCORE.INTRA.SOLV>
-0.999714

>  <SCORE.INTRA.SOLV.lig_0>
-75.7198

>  <SCORE.INTRA.VDW>
-0.157318

>  <SCORE.INTRA.VDW.0>
-3.34171

>  <SCORE.INTRA.norm>
-0.203169

>  <SCORE.RESTR>
0

>  <SCORE.RESTR.CAVITY>
0

>  <SCORE.RESTR.norm>
0

>  <SCORE.SYSTEM>
0

>  <SCORE.SYSTEM.CONST>
0

>  <SCORE.SYSTEM.DIHEDRAL>
0

>  <SCORE.SYSTEM.SOLV>
0

>  <SCORE.SYSTEM.norm>
0

>  <SCORE.heavy>
31

>  <SCORE.norm>
-0.982995

>  <RMSD>
0.836

$$$$
2et3_lig
 OpenBabel11021811423D
libRbt.so/2013.1/901 2013/11/27
 31 33  0  0  0  0  0  0  0  0999 V2000
    0.2472   -6.7707   29.4995 C   0  0  2  0  0  0  0  0  0  0  0  0
   -0.4090   -8.0441   29.2664 O   0  0  0  0  0  0  0  0  0  0  0  0
   -1.1800  -11.5315   31.6221 C   0  0  2  0  0  0  0  0  0  0  0  0
   -0.9844  -12.5655   32.5907 N   0  0  0  0  0  0  0  0  0  0  0  0
   -2.1624  -10.7767   34.5915 C   0  0  2  0  0  0  0  0  0  0  0  0
   -0.4024   -5.6867   28.6328 C   0  0  2  0  0  0  0  0  0  0  0  0
   -1.8025   -5.6484   28.9235 N   0  0  0  0  0  0  0  0  0  0  0  0
   -0.0449  -11.5989   30.5501 C   0  0  0  0  0  0  0  0  0  0  0  0
   -3.6165  -10.8806   35.1019 C   0  0  2  0  0  0  0  0  0  0  0  0
   -4.3709  -11.6373   34.1817 O   0  0  0  0  0  0  0  0  0  0  0  0
   -0.1288   -5.9634   27.1149 C   0  0  0  0  0  0  0  0  0  0  0  0
   -0.2471  -10.4595   29.4853 C   0  0  2  0  0  0  0  0  0  0  0  0
    0.8198  -10.5184   28.4734 N   0  0  0  0  0  0  0  0  0  0  0  0
   -4.1840   -9.4110   35.2612 C   0  0  1  0  0  0  0  0  0  0  0  0
   -5.6147   -9.4212   35.7106 N   0  0  0  0  0  0  0  0  0  0  0  0
    1.4165   -5.9569   26.8938 C   0  0  0  0  0  0  0  0  0  0  0  0
   -0.2522   -9.0576   30.2073 C   0  0  2  0  0  0  0  0  0  0  0  0
   -3.2797   -8.5724   36.3113 C   0  0  1  0  0  0  0  0  0  0  0  0
   -3.3169   -9.1521   37.5990 O   0  0  0  0  0  0  0  0  0  0  0  0
    2.0670   -7.0709   27.8268 C   0  0  2  0  0  0  0  0  0  0  0  0
    1.7064   -6.8961   29.2328 O   0  0  0  0  0  0  0  0  0  0  0  0
   -1.4053   -9.0218   31.2829 C   0  0  2  0  0  0  0  0  0  0  0  0
   -1.4301   -7.7615   31.9452 O   0  0  0  0  0  0  0  0  0  0  0  0
   -1.7960   -8.5842   35.8297 C   0  0  0  0  0  0  0  0  0  0  0  0
   -1.3406   -9.9875   35.5542 O   0  0  0  0  0  0  0  0  0  0  0  0
    3.5678   -7.1851   27.6986 C   0  0  0  0  0  0  0  0  0  0  0  0
    4.0589   -8.4224   28.2461 N   0  0  0  0  0  0  0  0  0  0  0  0
   -1.1876  -10.1659   32.3346 C   0  0  1  0  0  0  0  0  0  0  0  0
   -2.2401  -10.1214   33.2904 O   0  0  0  0  0  0  0  0  0  0  0  0
   -3.6894   -7.1159   36.5689 C   0  0  0  0  0  0  0  0  0  0  0  0
   -6.6433   -9.5932   34.6712 C   0  0  0  0  0  0  0  0  0  0  0  0
  1  2  1  6  0  0  0
  1  6  1  0  0  0  0
  1 21  1  0  0  0  0
  3  4  1  1  0  0  0
  3  8  1  0  0  0  0
  3 28  1  0  0  0  0
  5  9  1  0  0  0  0
  5 25  1  0  0  0  0
  5 29  1  6  0  0  0
  6  7  1  6  0  0  0
  6 11  1  0  0  0  0
  8 12  1  0  0  0  0
  9 10  1  6  0  0  0
  9 14  1  0  0  0  0
 11 16  1  0  0  0  0
 12 13  1  6  0  0  0
 12 17  1  0  0  0  0
 14 15  1  1  0  0  0
 14 18  1  0  0  0  0
 15 31  1  0  0  0  0
 16 20  1  0  0  0  0
 17  2  1  6  0  0  0
 17 22  1  0  0  0  0
 18 19  1  1  0  0  0
 18 24  1  0  0  0  0
 18 30  1  0  0  0  0
 20 21  1  0  0  0  0
 20 26  1  1  0  0  0
 22 23  1  1  0  0  0
 22 28  1  0  0  0  0
 24 25  1  0  0  0  0
 26 27  1  0  0  0  0
 28 29  1  1  0  0  0
M  END
>  <CHROM.1>
-161.48007132,-162.07734079,-83.35852986,-146.65479495,-163.38523688,77.32333865
-1.24505059,-8.88770256,31.86675231,0.52916410,0.87651154,-0.33822398

>  <Name>
2et3_lig

>  <RI>
0

>  <Rbt.Current_Directory>
/home/itssahil/PROJECTS/Mol_Feturizer/New_Systems/rnas/2et3

>  <Rbt.Executable>
rbdock ($Id: //depot/dev/client3/rdock/2013.1/src/exe/rbdock.cxx#4 $)

>  <Rbt.Library>
libRbt.so (2013.1, Build901 2013/11/27)

>  <Rbt.Parameter_File>
/export/apps/rDock/src/rDock_2013.1_src/data/scripts/dock_solv.prm

>  <Rbt.Receptor>
prm/pocket_docking_2.prm

>  <SCORE>
-30.6321

>  <SCORE.INTER>
-23.9502

>  <SCORE.INTER.CONST>
1

>  <SCORE.INTER.POLAR>
-0.938083

>  <SCORE.INTER.ROT>
6

>  <SCORE.INTER.SOLV>
19.6959

>  <SCORE.INTER.VDW>
-27.0052

>  <SCORE.INTER.norm>
-0.772587

>  <SCORE.INTRA>
-6.68643

>  <SCORE.INTRA.DIHEDRAL>
-12.1376

>  <SCORE.INTRA.DIHEDRAL.0>
22.2484

>  <SCORE.INTRA.POLAR>
0

>  <SCORE.INTRA.POLAR.0>
0

>  <SCORE.INTRA.REPUL>
0

>  <SCORE.INTRA.REPUL.0>
0

>  <SCORE.INTRA.SOLV>
-0.652877

>  <SCORE.INTRA.SOLV.lig_0>
-75.7198

>  <SCORE.INTRA.VDW>
-0.291192

>  <SCORE.INTRA.VDW.0>
-3.34171

>  <SCORE.INTRA.norm>
-0.215691

>  <SCORE.RESTR>
0.00455617

>  <SCORE.RESTR.CAVITY>
0.00455617

>  <SCORE.RESTR.norm>
0.000146973

>  <SCORE.SYSTEM>
0

>  <SCORE.SYSTEM.CONST>
0

>  <SCORE.SYSTEM.DIHEDRAL>
0

>  <SCORE.SYSTEM.SOLV>
0

>  <SCORE.SYSTEM.norm>
0

>  <SCORE.heavy>
31

>  <SCORE.norm>
-0.988131

>  <RMSD>
0.845

$$$$
2et3_lig
 OpenBabel11021811423D
libRbt.so/2013.1/901 2013/11/27
 31 33  0  0  0  0  0  0  0  0999 V2000
    0.1493   -6.8799   29.5890 C   0  0  2  0  0  0  0  0  0  0  0  0
   -0.4847   -8.1609   29.3376 O   0  0  0  0  0  0  0  0  0  0  0  0
   -1.5864  -11.3148   32.0108 C   0  0  2  0  0  0  0  0  0  0  0  0
   -1.4611  -12.3327   33.0077 N   0  0  0  0  0  0  0  0  0  0  0  0
   -1.9655  -10.3275   35.0076 C   0  0  2  0  0  0  0  0  0  0  0  0
   -0.4106   -5.8269   28.6266 C   0  0  2  0  0  0  0  0  0  0  0  0
   -1.8321   -5.7796   28.7790 N   0  0  0  0  0  0  0  0  0  0  0  0
   -0.6743  -11.6638   30.7908 C   0  0  0  0  0  0  0  0  0  0  0  0
   -3.4183  -10.6693   35.4052 C   0  0  2  0  0  0  0  0  0  0  0  0
   -3.9786  -11.5037   34.4162 O   0  0  0  0  0  0  0  0  0  0  0  0
    0.0078   -6.1559   27.1528 C   0  0  0  0  0  0  0  0  0  0  0  0
   -0.7991  -10.5449   29.6928 C   0  0  2  0  0  0  0  0  0  0  0  0
    0.0586  -10.8688   28.5416 N   0  0  0  0  0  0  0  0  0  0  0  0
   -4.2171   -9.3100   35.5507 C   0  0  1  0  0  0  0  0  0  0  0  0
   -5.6571   -9.5537   35.8912 N   0  0  0  0  0  0  0  0  0  0  0  0
    1.5672   -6.1559   27.0821 C   0  0  0  0  0  0  0  0  0  0  0  0
   -0.3969   -9.1514   30.3115 C   0  0  2  0  0  0  0  0  0  0  0  0
   -3.5311   -8.3757   36.6822 C   0  0  1  0  0  0  0  0  0  0  0  0
   -3.5692   -8.9942   37.9516 O   0  0  0  0  0  0  0  0  0  0  0  0
    2.1215   -7.2365   28.1116 C   0  0  2  0  0  0  0  0  0  0  0  0
    1.6271   -7.0133   29.4692 O   0  0  0  0  0  0  0  0  0  0  0  0
   -1.3325   -8.8292   31.5398 C   0  0  2  0  0  0  0  0  0  0  0  0
   -0.9883   -7.5715   32.1120 O   0  0  0  0  0  0  0  0  0  0  0  0
   -2.0331   -8.1445   36.3131 C   0  0  0  0  0  0  0  0  0  0  0  0
   -1.3468   -9.4521   36.0447 O   0  0  0  0  0  0  0  0  0  0  0  0
    3.6273   -7.3540   28.1332 C   0  0  0  0  0  0  0  0  0  0  0  0
    4.1439   -7.8427   26.8817 N   0  0  0  0  0  0  0  0  0  0  0  0
   -1.1958   -9.9563   32.6229 C   0  0  1  0  0  0  0  0  0  0  0  0
   -2.0514   -9.6516   33.7176 O   0  0  0  0  0  0  0  0  0  0  0  0
   -4.1793   -7.0081   36.9372 C   0  0  0  0  0  0  0  0  0  0  0  0
   -6.5965   -9.7027   34.7672 C   0  0  0  0  0  0  0  0  0  0  0  0
  1  2  1  6  0  0  0
  1  6  1  0  0  0  0
  1 21  1  0  0  0  0
  3  4  1  1  0  0  0
  3  8  1  0  0  0  0
  3 28  1  0  0  0  0
  5  9  1  0  0  0  0
  5 25  1  0  0  0  0
  5 29  1  6  0  0  0
  6  7  1  6  0  0  0
  6 11  1  0  0  0  0
  8 12  1  0  0  0  0
  9 10  1  6  0  0  0
  9 14  1  0  0  0  0
 11 16  1  0  0  0  0
 12 13  1  6  0  0  0
 12 17  1  0  0  0  0
 14 15  1  1  0  0  0
 14 18  1  0  0  0  0
 15 31  1  0  0  0  0
 16 20  1  0  0  0  0
 17  2  1  6  0  0  0
 17 22  1  0  0  0  0
 18 19  1  1  0  0  0
 18 24  1  0  0  0  0
 18 30  1  0  0  0  0
 20 21  1  0  0  0  0
 20 26  1  1  0  0  0
 22 23  1  1  0  0  0
 22 28  1  0  0  0  0
 24 25  1  0  0  0  0
 26 27  1  0  0  0  0
 28 29  1  1  0  0  0
M  END
>  <CHROM.1>
-162.88541944,-134.68723889,-89.86863790,-164.88858250,-64.93139434,73.08488223
-1.32245527,-8.81274680,32.06074021,0.25375514,0.97948588,-0.03511632

>  <Name>
2et3_lig

>  <RI>
3.50789e+07

>  <Rbt.Current_Directory>
/home/itssahil/PROJECTS/Mol_Feturizer/New_Systems/rnas/2et3

>  <Rbt.Executable>
rbdock ($Id: //depot/dev/client3/rdock/2013.1/src/exe/rbdock.cxx#4 $)

>  <Rbt.Library>
libRbt.so (2013.1, Build901 2013/11/27)

>  <Rbt.Parameter_File>
/export/apps/rDock/src/rDock_2013.1_src/data/scripts/dock_solv.prm

>  <Rbt.Receptor>
prm/pocket_docking_4.prm

>  <SCORE>
-31.5566

>  <SCORE.INTER>
-25.0863

>  <SCORE.INTER.CONST>
1

>  <SCORE.INTER.POLAR>
-0.938083

>  <SCORE.INTER.ROT>
6

>  <SCORE.INTER.SOLV>
16.4857

>  <SCORE.INTER.VDW>
-26.6925

>  <SCORE.INTER.norm>
-0.809236

>  <SCORE.INTRA>
-6.47028

>  <SCORE.INTRA.DIHEDRAL>
-12.0123

>  <SCORE.INTRA.DIHEDRAL.0>
22.2484

>  <SCORE.INTRA.POLAR>
0

>  <SCORE.INTRA.POLAR.0>
0

>  <SCORE.INTRA.REPUL>
0

>  <SCORE.INTRA.REPUL.0>
0

>  <SCORE.INTRA.SOLV>
-1.4618

>  <SCORE.INTRA.SOLV.lig_0>
-75.7198

>  <SCORE.INTRA.VDW>
0.266791

>  <SCORE.INTRA.VDW.0>
-3.34171

>  <SCORE.INTRA.norm>
-0.208719

>  <SCORE.RESTR>
0

>  <SCORE.RESTR.CAVITY>
0

>  <SCORE.RESTR.norm>
0

>  <SCORE.SYSTEM>
0

>  <SCORE.SYSTEM.CONST>
0

>  <SCORE.SYSTEM.DIHEDRAL>
0

>  <SCORE.SYSTEM.SOLV>
0

>  <SCORE.SYSTEM.norm>
0

>  <SCORE.heavy>
31

>  <SCORE.norm>
-1.01795

>  <RMSD>
0.850

$$$$
2et3_lig
 OpenBabel11021811423D
libRbt.so/2013.1/901 2013/11/27
 31 33  0  0  0  0  0  0  0  0999 V2000
    0.2171   -6.7922   29.6526 C   0  0  2  0  0  0  0  0  0  0  0  0
   -0.4450   -8.0572   29.3925 O   0  0  0  0  0  0  0  0  0  0  0  0
   -1.3356  -11.5209   31.7410 C   0  0  2  0  0  0  0  0  0  0  0  0
   -1.1738  -12.5657   32.7043 N   0  0  0  0  0  0  0  0  0  0  0  0
   -2.2708  -10.7488   34.7159 C   0  0  2  0  0  0  0  0  0  0  0  0
   -0.4413   -5.6829   28.8253 C   0  0  2  0  0  0  0  0  0  0  0  0
   -1.8374   -5.6502   29.1353 N   0  0  0  0  0  0  0  0  0  0  0  0
   -0.2119  -11.6287   30.6603 C   0  0  0  0  0  0  0  0  0  0  0  0
   -3.7315  -10.8442   35.2088 C   0  0  2  0  0  0  0  0  0  0  0  0
   -4.4830  -11.5819   34.2709 O   0  0  0  0  0  0  0  0  0  0  0  0
   -0.1883   -5.9174   27.2968 C   0  0  0  0  0  0  0  0  0  0  0  0
   -0.3768  -10.4779   29.6012 C   0  0  2  0  0  0  0  0  0  0  0  0
    0.6797  -10.5747   28.5813 N   0  0  0  0  0  0  0  0  0  0  0  0
   -4.2860   -9.3710   35.3800 C   0  0  1  0  0  0  0  0  0  0  0  0
   -5.7217   -9.3722   35.8133 N   0  0  0  0  0  0  0  0  0  0  0  0
    1.3540   -5.9077   27.0557 C   0  0  0  0  0  0  0  0  0  0  0  0
   -0.3214   -9.0798   30.3284 C   0  0  2  0  0  0  0  0  0  0  0  0
   -3.3853   -8.5545   36.4504 C   0  0  1  0  0  0  0  0  0  0  0  0
   -3.4427   -9.1496   37.7303 O   0  0  0  0  0  0  0  0  0  0  0  0
    2.0141   -7.0487   27.9484 C   0  0  2  0  0  0  0  0  0  0  0  0
    1.6724   -6.9128   29.3633 O   0  0  0  0  0  0  0  0  0  0  0  0
   -1.4644   -9.0030   31.4127 C   0  0  2  0  0  0  0  0  0  0  0  0
   -1.4348   -7.7453   32.0798 O   0  0  0  0  0  0  0  0  0  0  0  0
   -1.8964   -8.5754   35.9852 C   0  0  0  0  0  0  0  0  0  0  0  0
   -1.4520   -9.9799   35.6974 O   0  0  0  0  0  0  0  0  0  0  0  0
    3.5128   -7.1622   27.7973 C   0  0  0  0  0  0  0  0  0  0  0  0
    3.9899   -8.4702   28.1624 N   0  0  0  0  0  0  0  0  0  0  0  0
   -1.2843  -10.1588   32.4585 C   0  0  1  0  0  0  0  0  0  0  0  0
   -2.3273  -10.0768   33.4223 O   0  0  0  0  0  0  0  0  0  0  0  0
   -3.7832   -7.0972   36.7214 C   0  0  0  0  0  0  0  0  0  0  0  0
   -6.7358   -9.6209   34.7751 C   0  0  0  0  0  0  0  0  0  0  0  0
  1  2  1  6  0  0  0
  1  6  1  0  0  0  0
  1 21  1  0  0  0  0
  3  4  1  1  0  0  0
  3  8  1  0  0  0  0
  3 28  1  0  0  0  0
  5  9  1  0  0  0  0
  5 25  1  0  0  0  0
  5 29  1  6  0  0  0
  6  7  1  6  0  0  0
  6 11  1  0  0  0  0
  8 12  1  0  0  0  0
  9 10  1  6  0  0  0
  9 14  1  0  0  0  0
 11 16  1  0  0  0  0
 12 13  1  6  0  0  0
 12 17  1  0  0  0  0
 14 15  1  1  0  0  0
 14 18  1  0  0  0  0
 15 31  1  0  0  0  0
 16 20  1  0  0  0  0
 17  2  1  6  0  0  0
 17 22  1  0  0  0  0
 18 19  1  1  0  0  0
 18 24  1  0  0  0  0
 18 30  1  0  0  0  0
 20 21  1  0  0  0  0
 20 26  1  1  0  0  0
 22 23  1  1  0  0  0
 22 28  1  0  0  0  0
 24 25  1  0  0  0  0
 26 27  1  0  0  0  0
 28 29  1  1  0  0  0
M  END
>  <CHROM.1>
-158.98056903,-159.79586763,-78.94161895,-149.18987937,-156.84824415,76.80364887
-1.33309544,-8.87958806,31.99146799,0.47671360,0.89318779,-0.27650569

>  <Name>
2et3_lig

>  <RI>
0

>  <Rbt.Current_Directory>
/home/itssahil/PROJECTS/Mol_Feturizer/New_Systems/rnas/2et3

>  <Rbt.Executable>
rbdock ($Id: //depot/dev/client3/rdock/2013.1/src/exe/rbdock.cxx#4 $)

>  <Rbt.Library>
libRbt.so (2013.1, Build901 2013/11/27)

>  <Rbt.Parameter_File>
/export/apps/rDock/src/rDock_2013.1_src/data/scripts/dock_solv.prm

>  <Rbt.Receptor>
prm/pocket_docking_2.prm

>  <SCORE>
-30.5498

>  <SCORE.INTER>
-24.4049

>  <SCORE.INTER.CONST>
1

>  <SCORE.INTER.POLAR>
-0.938083

>  <SCORE.INTER.ROT>
6

>  <SCORE.INTER.SOLV>
19.4054

>  <SCORE.INTER.VDW>
-27.2115

>  <SCORE.INTER.norm>
-0.787254

>  <SCORE.INTRA>
-6.14496

>  <SCORE.INTRA.DIHEDRAL>
-11.3006

>  <SCORE.INTRA.DIHEDRAL.0>
22.2484

>  <SCORE.INTRA.POLAR>
0

>  <SCORE.INTRA.POLAR.0>
0

>  <SCORE.INTRA.REPUL>
0

>  <SCORE.INTRA.REPUL.0>
0

>  <SCORE.INTRA.SOLV>
-0.838279

>  <SCORE.INTRA.SOLV.lig_0>
-75.7198

>  <SCORE.INTRA.VDW>
-0.0755251

>  <SCORE.INTRA.VDW.0>
-3.34171

>  <SCORE.INTRA.norm>
-0.198224

>  <SCORE.RESTR>
0

>  <SCORE.RESTR.CAVITY>
0

>  <SCORE.RESTR.norm>
0

>  <SCORE.SYSTEM>
0

>  <SCORE.SYSTEM.CONST>
0

>  <SCORE.SYSTEM.DIHEDRAL>
0

>  <SCORE.SYSTEM.SOLV>
0

>  <SCORE.SYSTEM.norm>
0

>  <SCORE.heavy>
31

>  <SCORE.norm>
-0.985479

>  <RMSD>
0.851

$$$$
2et3_lig
 OpenBabel11021811423D
libRbt.so/2013.1/901 2013/11/27
 31 33  0  0  0  0  0  0  0  0999 V2000
    0.1984   -6.8601   29.5787 C   0  0  2  0  0  0  0  0  0  0  0  0
   -0.4203   -8.1463   29.3162 O   0  0  0  0  0  0  0  0  0  0  0  0
   -1.3177  -11.5387   31.7642 C   0  0  2  0  0  0  0  0  0  0  0  0
   -1.1477  -12.5713   32.7391 N   0  0  0  0  0  0  0  0  0  0  0  0
   -2.1113  -10.7031   34.7528 C   0  0  2  0  0  0  0  0  0  0  0  0
   -0.4620   -5.7811   28.7139 C   0  0  2  0  0  0  0  0  0  0  0  0
   -1.8679   -5.7824   28.9778 N   0  0  0  0  0  0  0  0  0  0  0  0
   -0.2449  -11.7010   30.6394 C   0  0  0  0  0  0  0  0  0  0  0  0
   -3.5664  -10.8333   35.2539 C   0  0  2  0  0  0  0  0  0  0  0  0
   -4.3049  -11.5906   34.3214 O   0  0  0  0  0  0  0  0  0  0  0  0
   -0.1524   -6.0301   27.1981 C   0  0  0  0  0  0  0  0  0  0  0  0
   -0.4188  -10.5641   29.5670 C   0  0  2  0  0  0  0  0  0  0  0  0
    0.5897  -10.7122   28.5055 N   0  0  0  0  0  0  0  0  0  0  0  0
   -4.1558   -9.3739   35.4261 C   0  0  1  0  0  0  0  0  0  0  0  0
   -5.5885   -9.4094   35.8674 N   0  0  0  0  0  0  0  0  0  0  0  0
    1.3961   -5.9814   27.0072 C   0  0  0  0  0  0  0  0  0  0  0  0
   -0.2890   -9.1561   30.2650 C   0  0  2  0  0  0  0  0  0  0  0  0
   -3.2693   -8.5339   36.4902 C   0  0  1  0  0  0  0  0  0  0  0  0
   -3.3051   -9.1281   37.7712 O   0  0  0  0  0  0  0  0  0  0  0  0
    2.0570   -7.0912   27.9380 C   0  0  2  0  0  0  0  0  0  0  0  0
    1.6652   -6.9448   29.3388 O   0  0  0  0  0  0  0  0  0  0  0  0
   -1.3818   -9.0240   31.3947 C   0  0  2  0  0  0  0  0  0  0  0  0
   -1.2845   -7.7566   32.0364 O   0  0  0  0  0  0  0  0  0  0  0  0
   -1.7830   -8.5192   36.0167 C   0  0  0  0  0  0  0  0  0  0  0  0
   -1.3061   -9.9129   35.7285 O   0  0  0  0  0  0  0  0  0  0  0  0
    3.5624   -7.1656   27.8375 C   0  0  0  0  0  0  0  0  0  0  0  0
    4.0646   -8.4448   28.2656 N   0  0  0  0  0  0  0  0  0  0  0  0
   -1.1935  -10.1668   32.4534 C   0  0  1  0  0  0  0  0  0  0  0  0
   -2.1914  -10.0348   33.4584 O   0  0  0  0  0  0  0  0  0  0  0  0
   -3.7012   -7.0863   36.7613 C   0  0  0  0  0  0  0  0  0  0  0  0
   -6.6047   -9.6504   34.8294 C   0  0  0  0  0  0  0  0  0  0  0  0
  1  2  1  6  0  0  0
  1  6  1  0  0  0  0
  1 21  1  0  0  0  0
  3  4  1  1  0  0  0
  3  8  1  0  0  0  0
  3 28  1  0  0  0  0
  5  9  1  0  0  0  0
  5 25  1  0  0  0  0
  5 29  1  6  0  0  0
  6  7  1  6  0  0  0
  6 11  1  0  0  0  0
  8 12  1  0  0  0  0
  9 10  1  6  0  0  0
  9 14  1  0  0  0  0
 11 16  1  0  0  0  0
 12 13  1  6  0  0  0
 12 17  1  0  0  0  0
 14 15  1  1  0  0  0
 14 18  1  0  0  0  0
 15 31  1  0  0  0  0
 16 20  1  0  0  0  0
 17  2  1  6  0  0  0
 17 22  1  0  0  0  0
 18 19  1  1  0  0  0
 18 24  1  0  0  0  0
 18 30  1  0  0  0  0
 20 21  1  0  0  0  0
 20 26  1  1  0  0  0
 22 23  1  1  0  0  0
 22 28  1  0  0  0  0
 24 25  1  0  0  0  0
 26 27  1  0  0  0  0
 28 29  1  1  0  0  0
M  END
>  <CHROM.1>
-159.60429765,-155.38137263,-80.45258502,-154.33279541,-158.13031334,75.78195372
-1.26524931,-8.90668979,31.98701090,0.45917216,0.91898971,-0.25897124

>  <Name>
2et3_lig

>  <RI>
0

>  <Rbt.Current_Directory>
/home/itssahil/PROJECTS/Mol_Feturizer/New_Systems/rnas/2et3

>  <Rbt.Executable>
rbdock ($Id: //depot/dev/client3/rdock/2013.1/src/exe/rbdock.cxx#4 $)

>  <Rbt.Library>
libRbt.so (2013.1, Build901 2013/11/27)

>  <Rbt.Parameter_File>
/export/apps/rDock/src/rDock_2013.1_src/data/scripts/dock_solv.prm

>  <Rbt.Receptor>
prm/pocket_docking_3.prm

>  <SCORE>
-30.6378

>  <SCORE.INTER>
-24.1436

>  <SCORE.INTER.CONST>
1

>  <SCORE.INTER.POLAR>
-0.938083

>  <SCORE.INTER.ROT>
6

>  <SCORE.INTER.SOLV>
20.0726

>  <SCORE.INTER.VDW>
-27.2597

>  <SCORE.INTER.norm>
-0.778826

>  <SCORE.INTRA>
-6.49422

>  <SCORE.INTRA.DIHEDRAL>
-11.8606

>  <SCORE.INTRA.DIHEDRAL.0>
22.2484

>  <SCORE.INTRA.POLAR>
0

>  <SCORE.INTRA.POLAR.0>
0

>  <SCORE.INTRA.REPUL>
0

>  <SCORE.INTRA.REPUL.0>
0

>  <SCORE.INTRA.SOLV>
-1.29647

>  <SCORE.INTRA.SOLV.lig_0>
-75.7198

>  <SCORE.INTRA.VDW>
0.0843116

>  <SCORE.INTRA.VDW.0>
-3.34171

>  <SCORE.INTRA.norm>
-0.209491

>  <SCORE.RESTR>
0

>  <SCORE.RESTR.CAVITY>
0

>  <SCORE.RESTR.norm>
0

>  <SCORE.SYSTEM>
0

>  <SCORE.SYSTEM.CONST>
0

>  <SCORE.SYSTEM.DIHEDRAL>
0

>  <SCORE.SYSTEM.SOLV>
0

>  <SCORE.SYSTEM.norm>
0

>  <SCORE.heavy>
31

>  <SCORE.norm>
-0.988317

>  <RMSD>
0.852

$$$$
2et3_lig
 OpenBabel11021811423D
libRbt.so/2013.1/901 2013/11/27
 31 33  0  0  0  0  0  0  0  0999 V2000
    0.1962   -6.8248   29.6279 C   0  0  2  0  0  0  0  0  0  0  0  0
   -0.4618   -8.0954   29.3850 O   0  0  0  0  0  0  0  0  0  0  0  0
   -1.3447  -11.5147   31.8006 C   0  0  2  0  0  0  0  0  0  0  0  0
   -1.1752  -12.5480   32.7748 N   0  0  0  0  0  0  0  0  0  0  0  0
   -2.2060  -10.6903   34.7834 C   0  0  2  0  0  0  0  0  0  0  0  0
   -0.3670   -5.7601   28.6806 C   0  0  2  0  0  0  0  0  0  0  0  0
   -1.7843   -5.6921   28.8617 N   0  0  0  0  0  0  0  0  0  0  0  0
   -0.2460  -11.6517   30.6977 C   0  0  0  0  0  0  0  0  0  0  0  0
   -3.6646  -10.8379   35.2697 C   0  0  2  0  0  0  0  0  0  0  0  0
   -4.3813  -11.6145   34.3360 O   0  0  0  0  0  0  0  0  0  0  0  0
    0.0167   -6.0898   27.1975 C   0  0  0  0  0  0  0  0  0  0  0  0
   -0.4193  -10.5137   29.6263 C   0  0  2  0  0  0  0  0  0  0  0  0
    0.6135  -10.6381   28.5854 N   0  0  0  0  0  0  0  0  0  0  0  0
   -4.2775   -9.3860   35.4220 C   0  0  1  0  0  0  0  0  0  0  0  0
   -5.7144   -9.4391   35.8479 N   0  0  0  0  0  0  0  0  0  0  0  0
    1.5742   -6.1129   27.0955 C   0  0  0  0  0  0  0  0  0  0  0  0
   -0.3308   -9.1065   30.3324 C   0  0  2  0  0  0  0  0  0  0  0  0
   -3.4156   -8.5233   36.4881 C   0  0  1  0  0  0  0  0  0  0  0  0
   -3.4568   -9.1066   37.7741 O   0  0  0  0  0  0  0  0  0  0  0  0
    2.1328   -7.2054   28.1099 C   0  0  2  0  0  0  0  0  0  0  0  0
    1.6692   -6.9799   29.4779 O   0  0  0  0  0  0  0  0  0  0  0  0
   -1.4490   -9.0001   31.4397 C   0  0  2  0  0  0  0  0  0  0  0  0
   -1.3893   -7.7338   32.0882 O   0  0  0  0  0  0  0  0  0  0  0  0
   -1.9245   -8.4906   36.0309 C   0  0  0  0  0  0  0  0  0  0  0  0
   -1.4236   -9.8794   35.7607 O   0  0  0  0  0  0  0  0  0  0  0  0
    3.6368   -7.3455   28.1007 C   0  0  0  0  0  0  0  0  0  0  0  0
    4.1171   -7.8773   26.8524 N   0  0  0  0  0  0  0  0  0  0  0  0
   -1.2609  -10.1436   32.4976 C   0  0  1  0  0  0  0  0  0  0  0  0
   -2.2817  -10.0349   33.4822 O   0  0  0  0  0  0  0  0  0  0  0  0
   -3.8720   -7.0800   36.7413 C   0  0  0  0  0  0  0  0  0  0  0  0
   -6.7234   -9.5964   34.7871 C   0  0  0  0  0  0  0  0  0  0  0  0
  1  2  1  6  0  0  0
  1  6  1  0  0  0  0
  1 21  1  0  0  0  0
  3  4  1  1  0  0  0
  3  8  1  0  0  0  0
  3 28  1  0  0  0  0
  5  9  1  0  0  0  0
  5 25  1  0  0  0  0
  5 29  1  6  0  0  0
  6  7  1  6  0  0  0
  6 11  1  0  0  0  0
  8 12  1  0  0  0  0
  9 10  1  6  0  0  0
  9 14  1  0  0  0  0
 11 16  1  0  0  0  0
 12 13  1  6  0  0  0
 12 17  1  0  0  0  0
 14 15  1  1  0  0  0
 14 18  1  0  0  0  0
 15 31  1  0  0  0  0
 16 20  1  0  0  0  0
 17  2  1  6  0  0  0
 17 22  1  0  0  0  0
 18 19  1  1  0  0  0
 18 24  1  0  0  0  0
 18 30  1  0  0  0  0
 20 21  1  0  0  0  0
 20 26  1  1  0  0  0
 22 23  1  1  0  0  0
 22 28  1  0  0  0  0
 24 25  1  0  0  0  0
 26 27  1  0  0  0  0
 28 29  1  1  0  0  0
M  END
>  <CHROM.1>
-165.07885059,-156.41481001,-85.23589373,-150.59495380,-66.77220274,76.76371096
-1.30162720,-8.88470251,31.97903452,0.42277102,0.91487118,-0.22131690

>  <Name>
2et3_lig

>  <RI>
0

>  <Rbt.Current_Directory>
/home/itssahil/PROJECTS/Mol_Feturizer/New_Systems/rnas/2et3

>  <Rbt.Executable>
rbdock ($Id: //depot/dev/client3/rdock/2013.1/src/exe/rbdock.cxx#4 $)

>  <Rbt.Library>
libRbt.so (2013.1, Build901 2013/11/27)

>  <Rbt.Parameter_File>
/export/apps/rDock/src/rDock_2013.1_src/data/scripts/dock_solv.prm

>  <Rbt.Receptor>
prm/pocket_docking_2.prm

>  <SCORE>
-32.7044

>  <SCORE.INTER>
-25.307

>  <SCORE.INTER.CONST>
1

>  <SCORE.INTER.POLAR>
-0.938083

>  <SCORE.INTER.ROT>
6

>  <SCORE.INTER.SOLV>
16.9563

>  <SCORE.INTER.VDW>
-26.9965

>  <SCORE.INTER.norm>
-0.816354

>  <SCORE.INTRA>
-7.39741

>  <SCORE.INTRA.DIHEDRAL>
-13.2612

>  <SCORE.INTRA.DIHEDRAL.0>
22.2484

>  <SCORE.INTRA.POLAR>
0

>  <SCORE.INTRA.POLAR.0>
0

>  <SCORE.INTRA.REPUL>
0

>  <SCORE.INTRA.REPUL.0>
0

>  <SCORE.INTRA.SOLV>
-1.49154

>  <SCORE.INTRA.SOLV.lig_0>
-75.7198

>  <SCORE.INTRA.VDW>
-0.0210547

>  <SCORE.INTRA.VDW.0>
-3.34171

>  <SCORE.INTRA.norm>
-0.238626

>  <SCORE.RESTR>
0

>  <SCORE.RESTR.CAVITY>
0

>  <SCORE.RESTR.norm>
0

>  <SCORE.SYSTEM>
0

>  <SCORE.SYSTEM.CONST>
0

>  <SCORE.SYSTEM.DIHEDRAL>
0

>  <SCORE.SYSTEM.SOLV>
0

>  <SCORE.SYSTEM.norm>
0

>  <SCORE.heavy>
31

>  <SCORE.norm>
-1.05498

>  <RMSD>
0.857

$$$$
2et3_lig
 OpenBabel11021811423D
libRbt.so/2013.1/901 2013/11/27
 31 33  0  0  0  0  0  0  0  0999 V2000
    0.2460   -6.8418   29.6668 C   0  0  2  0  0  0  0  0  0  0  0  0
   -0.4172   -8.1044   29.3982 O   0  0  0  0  0  0  0  0  0  0  0  0
   -1.3179  -11.5615   31.7527 C   0  0  2  0  0  0  0  0  0  0  0  0
   -1.1521  -12.6155   32.7052 N   0  0  0  0  0  0  0  0  0  0  0  0
   -2.1292  -10.7523   34.7741 C   0  0  2  0  0  0  0  0  0  0  0  0
   -0.4319   -5.7209   28.8715 C   0  0  2  0  0  0  0  0  0  0  0  0
   -1.8217   -5.6982   29.2092 N   0  0  0  0  0  0  0  0  0  0  0  0
   -0.2288  -11.6880   30.6392 C   0  0  0  0  0  0  0  0  0  0  0  0
   -3.5771  -10.8715   35.2986 C   0  0  2  0  0  0  0  0  0  0  0  0
   -4.3304  -11.6430   34.3898 O   0  0  0  0  0  0  0  0  0  0  0  0
   -0.2080   -5.9286   27.3346 C   0  0  0  0  0  0  0  0  0  0  0  0
   -0.3981  -10.5274   29.5917 C   0  0  2  0  0  0  0  0  0  0  0  0
    0.6259  -10.6418   28.5409 N   0  0  0  0  0  0  0  0  0  0  0  0
   -4.1616   -9.4083   35.4549 C   0  0  1  0  0  0  0  0  0  0  0  0
   -5.5878   -9.4339   35.9177 N   0  0  0  0  0  0  0  0  0  0  0  0
    1.3292   -5.9095   27.0637 C   0  0  0  0  0  0  0  0  0  0  0  0
   -0.2898   -9.1353   30.3246 C   0  0  2  0  0  0  0  0  0  0  0  0
   -3.2583   -8.5523   36.4917 C   0  0  1  0  0  0  0  0  0  0  0  0
   -3.2762   -9.1250   37.7829 O   0  0  0  0  0  0  0  0  0  0  0  0
    2.0102   -7.0633   27.9239 C   0  0  2  0  0  0  0  0  0  0  0  0
    1.6957   -6.9525   29.3473 O   0  0  0  0  0  0  0  0  0  0  0  0
   -1.3988   -9.0393   31.4421 C   0  0  2  0  0  0  0  0  0  0  0  0
   -1.3212   -7.7867   32.1149 O   0  0  0  0  0  0  0  0  0  0  0  0
   -1.7790   -8.5483   35.9963 C   0  0  0  0  0  0  0  0  0  0  0  0
   -1.3086   -9.9474   35.7246 O   0  0  0  0  0  0  0  0  0  0  0  0
    3.5060   -7.1690   27.7417 C   0  0  0  0  0  0  0  0  0  0  0  0
    4.0115   -8.4389   28.1931 N   0  0  0  0  0  0  0  0  0  0  0  0
   -1.2148  -10.2053   32.4759 C   0  0  1  0  0  0  0  0  0  0  0  0
   -2.2273  -10.1056   33.4700 O   0  0  0  0  0  0  0  0  0  0  0  0
   -3.6839   -7.0996   36.7448 C   0  0  0  0  0  0  0  0  0  0  0  0
   -6.6215   -9.6615   34.8940 C   0  0  0  0  0  0  0  0  0  0  0  0
  1  2  1  6  0  0  0
  1  6  1  0  0  0  0
  1 21  1  0  0  0  0
  3  4  1  1  0  0  0
  3  8  1  0  0  0  0
  3 28  1  0  0  0  0
  5  9  1  0  0  0  0
  5 25  1  0  0  0  0
  5 29  1  6  0  0  0
  6  7  1  6  0  0  0
  6 11  1  0  0  0  0
  8 12  1  0  0  0  0
  9 10  1  6  0  0  0
  9 14  1  0  0  0  0
 11 16  1  0  0  0  0
 12 13  1  6  0  0  0
 12 17  1  0  0  0  0
 14 15  1  1  0  0  0
 14 18  1  0  0  0  0
 15 31  1  0  0  0  0
 16 20  1  0  0  0  0
 17  2  1  6  0  0  0
 17 22  1  0  0  0  0
 18 19  1  1  0  0  0
 18 24  1  0  0  0  0
 18 30  1  0  0  0  0
 20 21  1  0  0  0  0
 20 26  1  1  0  0  0
 22 23  1  1  0  0  0
 22 28  1  0  0  0  0
 24 25  1  0  0  0  0
 26 27  1  0  0  0  0
 28 29  1  1  0  0  0
M  END
>  <CHROM.1>
-157.96293796,-158.41802543,-81.73491269,-151.13587632,-162.27559730,78.79906436
-1.27125178,-8.90669196,32.02125253,0.45113194,0.92094864,-0.24034230

>  <Name>
2et3_lig

>  <RI>
0

>  <Rbt.Current_Directory>
/home/itssahil/PROJECTS/Mol_Feturizer/New_Systems/rnas/2et3

>  <Rbt.Executable>
rbdock ($Id: //depot/dev/client3/rdock/2013.1/src/exe/rbdock.cxx#4 $)

>  <Rbt.Library>
libRbt.so (2013.1, Build901 2013/11/27)

>  <Rbt.Parameter_File>
/export/apps/rDock/src/rDock_2013.1_src/data/scripts/dock_solv.prm

>  <Rbt.Receptor>
prm/pocket_docking_3.prm

>  <SCORE>
-30.6556

>  <SCORE.INTER>
-24.2466

>  <SCORE.INTER.CONST>
1

>  <SCORE.INTER.POLAR>
-0.938083

>  <SCORE.INTER.ROT>
6

>  <SCORE.INTER.SOLV>
19.777

>  <SCORE.INTER.VDW>
-27.2298

>  <SCORE.INTER.norm>
-0.782147

>  <SCORE.INTRA>
-6.42757

>  <SCORE.INTRA.DIHEDRAL>
-11.5192

>  <SCORE.INTRA.DIHEDRAL.0>
22.2484

>  <SCORE.INTRA.POLAR>
0

>  <SCORE.INTRA.POLAR.0>
0

>  <SCORE.INTRA.REPUL>
0

>  <SCORE.INTRA.REPUL.0>
0

>  <SCORE.INTRA.SOLV>
-0.999615

>  <SCORE.INTRA.SOLV.lig_0>
-75.7198

>  <SCORE.INTRA.VDW>
-0.168172

>  <SCORE.INTRA.VDW.0>
-3.34171

>  <SCORE.INTRA.norm>
-0.207341

>  <SCORE.RESTR>
0.0184901

>  <SCORE.RESTR.CAVITY>
0.0184901

>  <SCORE.RESTR.norm>
0.000596455

>  <SCORE.SYSTEM>
0

>  <SCORE.SYSTEM.CONST>
0

>  <SCORE.SYSTEM.DIHEDRAL>
0

>  <SCORE.SYSTEM.SOLV>
0

>  <SCORE.SYSTEM.norm>
0

>  <SCORE.heavy>
31

>  <SCORE.norm>
-0.988891

>  <RMSD>
0.861

$$$$
2et3_lig
 OpenBabel11021811423D
libRbt.so/2013.1/901 2013/11/27
 31 33  0  0  0  0  0  0  0  0999 V2000
    0.3595   -6.8108   29.5217 C   0  0  2  0  0  0  0  0  0  0  0  0
   -0.5388   -7.9474   29.4359 O   0  0  0  0  0  0  0  0  0  0  0  0
   -1.3299  -11.4927   31.6967 C   0  0  2  0  0  0  0  0  0  0  0  0
   -1.1386  -12.5557   32.6343 N   0  0  0  0  0  0  0  0  0  0  0  0
   -2.2865  -10.8131   34.6925 C   0  0  2  0  0  0  0  0  0  0  0  0
   -0.1564   -5.6741   28.6328 C   0  0  2  0  0  0  0  0  0  0  0  0
   -1.4924   -5.3541   29.0313 N   0  0  0  0  0  0  0  0  0  0  0  0
   -0.2022  -11.5407   30.6158 C   0  0  0  0  0  0  0  0  0  0  0  0
   -3.7328  -10.8760   35.2310 C   0  0  2  0  0  0  0  0  0  0  0  0
   -4.5342  -11.5785   34.3075 O   0  0  0  0  0  0  0  0  0  0  0  0
   -0.0801   -6.0837   27.1223 C   0  0  0  0  0  0  0  0  0  0  0  0
   -0.3996  -10.3695   29.5851 C   0  0  2  0  0  0  0  0  0  0  0  0
    0.6604  -10.4100   28.5651 N   0  0  0  0  0  0  0  0  0  0  0  0
   -4.2402   -9.3910   35.4412 C   0  0  1  0  0  0  0  0  0  0  0  0
   -5.6608   -9.3595   35.9208 N   0  0  0  0  0  0  0  0  0  0  0  0
    1.4127   -6.3836   26.7781 C   0  0  0  0  0  0  0  0  0  0  0  0
   -0.3863   -8.9888   30.3466 C   0  0  2  0  0  0  0  0  0  0  0  0
   -3.2833   -8.6159   36.4934 C   0  0  1  0  0  0  0  0  0  0  0  0
   -3.3164   -9.2286   37.7658 O   0  0  0  0  0  0  0  0  0  0  0  0
    1.9302   -7.5460   27.7351 C   0  0  2  0  0  0  0  0  0  0  0  0
    1.7396   -7.2261   29.1488 O   0  0  0  0  0  0  0  0  0  0  0  0
   -1.5323   -8.9723   31.4302 C   0  0  2  0  0  0  0  0  0  0  0  0
   -1.5405   -7.7311   32.1281 O   0  0  0  0  0  0  0  0  0  0  0  0
   -1.8113   -8.6705   35.9800 C   0  0  0  0  0  0  0  0  0  0  0  0
   -1.4156  -10.0820   35.6578 O   0  0  0  0  0  0  0  0  0  0  0  0
    3.3657   -7.9504   27.4956 C   0  0  0  0  0  0  0  0  0  0  0  0
    4.2599   -6.8257   27.5813 N   0  0  0  0  0  0  0  0  0  0  0  0
   -1.3196  -10.1478   32.4476 C   0  0  1  0  0  0  0  0  0  0  0  0
   -2.3656  -10.1203   33.4111 O   0  0  0  0  0  0  0  0  0  0  0  0
   -3.6316   -7.1525   36.7981 C   0  0  0  0  0  0  0  0  0  0  0  0
   -6.7128   -9.5984   34.9186 C   0  0  0  0  0  0  0  0  0  0  0  0
  1  2  1  6  0  0  0
  1  6  1  0  0  0  0
  1 21  1  0  0  0  0
  3  4  1  1  0  0  0
  3  8  1  0  0  0  0
  3 28  1  0  0  0  0
  5  9  1  0  0  0  0
  5 25  1  0  0  0  0
  5 29  1  6  0  0  0
  6  7  1  1  0  0  0
  6 11  1  0  0  0  0
  8 12  1  0  0  0  0
  9 10  1  6  0  0  0
  9 14  1  0  0  0  0
 11 16  1  0  0  0  0
 12 13  1  6  0  0  0
 12 17  1  0  0  0  0
 14 15  1  1  0  0  0
 14 18  1  0  0  0  0
 15 31  1  0  0  0  0
 16 20  1  0  0  0  0
 17  2  1  6  0  0  0
 17 22  1  0  0  0  0
 18 19  1  1  0  0  0
 18 24  1  0  0  0  0
 18 30  1  0  0  0  0
 20 21  1  0  0  0  0
 20 26  1  1  0  0  0
 22 23  1  1  0  0  0
 22 28  1  0  0  0  0
 24 25  1  0  0  0  0
 26 27  1  0  0  0  0
 28 29  1  1  0  0  0
M  END
>  <CHROM.1>
-168.50014632,-163.89094990,-77.43029572,-132.44527121,55.07911774,77.31429027
-1.29507303,-8.88590819,31.93425102,0.42568098,0.92700636,-0.20889281

>  <Name>
2et3_lig

>  <RI>
0

>  <Rbt.Current_Directory>
/home/itssahil/PROJECTS/Mol_Feturizer/New_Systems/rnas/2et3

>  <Rbt.Executable>
rbdock ($Id: //depot/dev/client3/rdock/2013.1/src/exe/rbdock.cxx#4 $)

>  <Rbt.Library>
libRbt.so (2013.1, Build901 2013/11/27)

>  <Rbt.Parameter_File>
/export/apps/rDock/src/rDock_2013.1_src/data/scripts/dock_solv.prm

>  <Rbt.Receptor>
prm/pocket_docking_3.prm

>  <SCORE>
-29.0489

>  <SCORE.INTER>
-23.0894

>  <SCORE.INTER.CONST>
1

>  <SCORE.INTER.POLAR>
-0.938083

>  <SCORE.INTER.ROT>
6

>  <SCORE.INTER.SOLV>
20.8032

>  <SCORE.INTER.VDW>
-26.8004

>  <SCORE.INTER.norm>
-0.744818

>  <SCORE.INTRA>
-5.97392

>  <SCORE.INTRA.DIHEDRAL>
-12.1116

>  <SCORE.INTRA.DIHEDRAL.0>
22.2484

>  <SCORE.INTRA.POLAR>
0

>  <SCORE.INTRA.POLAR.0>
0

>  <SCORE.INTRA.REPUL>
0

>  <SCORE.INTRA.REPUL.0>
0

>  <SCORE.INTRA.SOLV>
0.354587

>  <SCORE.INTRA.SOLV.lig_0>
-75.7198

>  <SCORE.INTRA.VDW>
-0.0954093

>  <SCORE.INTRA.VDW.0>
-3.34171

>  <SCORE.INTRA.norm>
-0.192707

>  <SCORE.RESTR>
0.0144163

>  <SCORE.RESTR.CAVITY>
0.0144163

>  <SCORE.RESTR.norm>
0.000465042

>  <SCORE.SYSTEM>
0

>  <SCORE.SYSTEM.CONST>
0

>  <SCORE.SYSTEM.DIHEDRAL>
0

>  <SCORE.SYSTEM.SOLV>
0

>  <SCORE.SYSTEM.norm>
0

>  <SCORE.heavy>
31

>  <SCORE.norm>
-0.93706

>  <RMSD>
0.867

$$$$
2et3_lig
 OpenBabel11021811423D
libRbt.so/2013.1/901 2013/11/27
 31 33  0  0  0  0  0  0  0  0999 V2000
    0.2930   -6.8379   29.7161 C   0  0  2  0  0  0  0  0  0  0  0  0
   -0.3975   -8.0858   29.4475 O   0  0  0  0  0  0  0  0  0  0  0  0
   -1.3419  -11.5422   31.7858 C   0  0  2  0  0  0  0  0  0  0  0  0
   -1.1889  -12.6037   32.7321 N   0  0  0  0  0  0  0  0  0  0  0  0
   -2.1414  -10.7521   34.8070 C   0  0  2  0  0  0  0  0  0  0  0  0
   -0.3573   -5.7034   28.9171 C   0  0  2  0  0  0  0  0  0  0  0  0
   -1.7473   -5.6491   29.2508 N   0  0  0  0  0  0  0  0  0  0  0  0
   -0.2578  -11.6784   30.6686 C   0  0  0  0  0  0  0  0  0  0  0  0
   -3.5965  -10.9001   35.3034 C   0  0  2  0  0  0  0  0  0  0  0  0
   -4.3233  -11.6644   34.3674 O   0  0  0  0  0  0  0  0  0  0  0  0
   -0.1338   -5.9185   27.3812 C   0  0  0  0  0  0  0  0  0  0  0  0
   -0.4131  -10.5098   29.6278 C   0  0  2  0  0  0  0  0  0  0  0  0
    0.6062  -10.6333   28.5735 N   0  0  0  0  0  0  0  0  0  0  0  0
   -4.2033   -9.4479   35.4762 C   0  0  1  0  0  0  0  0  0  0  0  0
   -5.6369   -9.5007   35.9131 N   0  0  0  0  0  0  0  0  0  0  0  0
    1.4042   -5.9342   27.1147 C   0  0  0  0  0  0  0  0  0  0  0  0
   -0.2826   -9.1235   30.3679 C   0  0  2  0  0  0  0  0  0  0  0  0
   -3.3299   -8.5994   36.5444 C   0  0  1  0  0  0  0  0  0  0  0  0
   -3.3627   -9.1962   37.8244 O   0  0  0  0  0  0  0  0  0  0  0  0
    2.0568   -7.1015   27.9785 C   0  0  2  0  0  0  0  0  0  0  0  0
    1.7408   -6.9815   29.4009 O   0  0  0  0  0  0  0  0  0  0  0  0
   -1.3870   -9.0175   31.4890 C   0  0  2  0  0  0  0  0  0  0  0  0
   -1.2893   -7.7698   32.1683 O   0  0  0  0  0  0  0  0  0  0  0  0
   -1.8424   -8.5667   36.0755 C   0  0  0  0  0  0  0  0  0  0  0  0
   -1.3485   -9.9542   35.7864 O   0  0  0  0  0  0  0  0  0  0  0  0
    3.5503   -7.2410   27.8008 C   0  0  0  0  0  0  0  0  0  0  0  0
    4.0271   -8.5183   28.2624 N   0  0  0  0  0  0  0  0  0  0  0  0
   -1.2172  -10.1916   32.5160 C   0  0  1  0  0  0  0  0  0  0  0  0
   -2.2253  -10.0827   33.5135 O   0  0  0  0  0  0  0  0  0  0  0  0
   -3.7794   -7.1574   36.8165 C   0  0  0  0  0  0  0  0  0  0  0  0
   -6.6538   -9.6618   34.8604 C   0  0  0  0  0  0  0  0  0  0  0  0
  1  2  1  6  0  0  0
  1  6  1  0  0  0  0
  1 21  1  0  0  0  0
  3  4  1  1  0  0  0
  3  8  1  0  0  0  0
  3 28  1  0  0  0  0
  5  9  1  0  0  0  0
  5 25  1  0  0  0  0
  5 29  1  6  0  0  0
  6  7  1  6  0  0  0
  6 11  1  0  0  0  0
  8 12  1  0  0  0  0
  9 10  1  6  0  0  0
  9 14  1  0  0  0  0
 11 16  1  0  0  0  0
 12 13  1  6  0  0  0
 12 17  1  0  0  0  0
 14 15  1  1  0  0  0
 14 18  1  0  0  0  0
 15 31  1  0  0  0  0
 16 20  1  0  0  0  0
 17  2  1  6  0  0  0
 17 22  1  0  0  0  0
 18 19  1  1  0  0  0
 18 24  1  0  0  0  0
 18 30  1  0  0  0  0
 20 21  1  0  0  0  0
 20 26  1  1  0  0  0
 22 23  1  1  0  0  0
 22 28  1  0  0  0  0
 24 25  1  0  0  0  0
 26 27  1  0  0  0  0
 28 29  1  1  0  0  0
M  END
>  <CHROM.1>
-158.73189263,-155.96735601,-84.43015076,-150.67362863,-162.59732662,77.96253850
-1.27346233,-8.91807818,32.06022979,0.44183946,0.91473094,-0.23006828

>  <Name>
2et3_lig

>  <RI>
0

>  <Rbt.Current_Directory>
/home/itssahil/PROJECTS/Mol_Feturizer/New_Systems/rnas/2et3

>  <Rbt.Executable>
rbdock ($Id: //depot/dev/client3/rdock/2013.1/src/exe/rbdock.cxx#4 $)

>  <Rbt.Library>
libRbt.so (2013.1, Build901 2013/11/27)

>  <Rbt.Parameter_File>
/export/apps/rDock/src/rDock_2013.1_src/data/scripts/dock_solv.prm

>  <Rbt.Receptor>
prm/pocket_docking_3.prm

>  <SCORE>
-30.6009

>  <SCORE.INTER>
-24.3363

>  <SCORE.INTER.CONST>
1

>  <SCORE.INTER.POLAR>
-0.938083

>  <SCORE.INTER.ROT>
6

>  <SCORE.INTER.SOLV>
20.3263

>  <SCORE.INTER.VDW>
-27.4727

>  <SCORE.INTER.norm>
-0.785043

>  <SCORE.INTRA>
-6.26454

>  <SCORE.INTRA.DIHEDRAL>
-11.2179

>  <SCORE.INTRA.DIHEDRAL.0>
22.2484

>  <SCORE.INTRA.POLAR>
0

>  <SCORE.INTRA.POLAR.0>
0

>  <SCORE.INTRA.REPUL>
0

>  <SCORE.INTRA.REPUL.0>
0

>  <SCORE.INTRA.SOLV>
-0.905944

>  <SCORE.INTRA.SOLV.lig_0>
-75.7198

>  <SCORE.INTRA.VDW>
-0.202633

>  <SCORE.INTRA.VDW.0>
-3.34171

>  <SCORE.INTRA.norm>
-0.202082

>  <SCORE.RESTR>
0

>  <SCORE.RESTR.CAVITY>
0

>  <SCORE.RESTR.norm>
0

>  <SCORE.SYSTEM>
0

>  <SCORE.SYSTEM.CONST>
0

>  <SCORE.SYSTEM.DIHEDRAL>
0

>  <SCORE.SYSTEM.SOLV>
0

>  <SCORE.SYSTEM.norm>
0

>  <SCORE.heavy>
31

>  <SCORE.norm>
-0.987125

>  <RMSD>
0.868

$$$$
2et3_lig
 OpenBabel11021811423D
libRbt.so/2013.1/901 2013/11/27
 31 33  0  0  0  0  0  0  0  0999 V2000
    0.2449   -6.7539   29.5169 C   0  0  2  0  0  0  0  0  0  0  0  0
   -0.4246   -8.0207   29.2867 O   0  0  0  0  0  0  0  0  0  0  0  0
   -1.1589  -11.5456   31.5981 C   0  0  2  0  0  0  0  0  0  0  0  0
   -0.9548  -12.5866   32.5573 N   0  0  0  0  0  0  0  0  0  0  0  0
   -2.1757  -10.8296   34.5709 C   0  0  2  0  0  0  0  0  0  0  0  0
   -0.3918   -5.6654   28.6461 C   0  0  2  0  0  0  0  0  0  0  0  0
   -1.7917   -5.6112   28.9348 N   0  0  0  0  0  0  0  0  0  0  0  0
   -0.0134  -11.5828   30.5357 C   0  0  0  0  0  0  0  0  0  0  0  0
   -3.6308  -10.9598   35.0724 C   0  0  2  0  0  0  0  0  0  0  0  0
   -4.3668  -11.7259   34.1452 O   0  0  0  0  0  0  0  0  0  0  0  0
   -0.1192   -5.9496   27.1294 C   0  0  0  0  0  0  0  0  0  0  0  0
   -0.2249  -10.4354   29.4813 C   0  0  2  0  0  0  0  0  0  0  0  0
    0.8518  -10.4658   28.4785 N   0  0  0  0  0  0  0  0  0  0  0  0
   -4.2239   -9.5006   35.2334 C   0  0  1  0  0  0  0  0  0  0  0  0
   -5.6568   -9.5366   35.6744 N   0  0  0  0  0  0  0  0  0  0  0  0
    1.4264   -5.9605   26.9104 C   0  0  0  0  0  0  0  0  0  0  0  0
   -0.2595   -9.0417   30.2181 C   0  0  2  0  0  0  0  0  0  0  0  0
   -3.3401   -8.6505   36.2917 C   0  0  1  0  0  0  0  0  0  0  0  0
   -3.3750   -9.2353   37.5771 O   0  0  0  0  0  0  0  0  0  0  0  0
    2.0636   -7.0787   27.8476 C   0  0  2  0  0  0  0  0  0  0  0  0
    1.7031   -6.8958   29.2525 O   0  0  0  0  0  0  0  0  0  0  0  0
   -1.4225   -9.0364   31.2836 C   0  0  2  0  0  0  0  0  0  0  0  0
   -1.4740   -7.7839   31.9590 O   0  0  0  0  0  0  0  0  0  0  0  0
   -1.8536   -8.6355   35.8188 C   0  0  0  0  0  0  0  0  0  0  0  0
   -1.3730  -10.0300   35.5411 O   0  0  0  0  0  0  0  0  0  0  0  0
    3.5632   -7.2095   27.7217 C   0  0  0  0  0  0  0  0  0  0  0  0
    4.0436   -8.4373   28.2991 N   0  0  0  0  0  0  0  0  0  0  0  0
   -1.1954  -10.1880   32.3249 C   0  0  1  0  0  0  0  0  0  0  0  0
   -2.2569  -10.1711   33.2716 O   0  0  0  0  0  0  0  0  0  0  0  0
   -3.7759   -7.2021   36.5518 C   0  0  0  0  0  0  0  0  0  0  0  0
   -6.6816   -9.6165   34.6200 C   0  0  0  0  0  0  0  0  0  0  0  0
  1  2  1  6  0  0  0
  1  6  1  0  0  0  0
  1 21  1  0  0  0  0
  3  4  1  1  0  0  0
  3  8  1  0  0  0  0
  3 28  1  0  0  0  0
  5  9  1  0  0  0  0
  5 25  1  0  0  0  0
  5 29  1  6  0  0  0
  6  7  1  6  0  0  0
  6 11  1  0  0  0  0
  8 12  1  0  0  0  0
  9 10  1  6  0  0  0
  9 14  1  0  0  0  0
 11 16  1  0  0  0  0
 12 13  1  6  0  0  0
 12 17  1  0  0  0  0
 14 15  1  1  0  0  0
 14 18  1  0  0  0  0
 15 31  1  0  0  0  0
 16 20  1  0  0  0  0
 17  2  1  6  0  0  0
 17 22  1  0  0  0  0
 18 19  1  1  0  0  0
 18 24  1  0  0  0  0
 18 30  1  0  0  0  0
 20 21  1  0  0  0  0
 20 26  1  1  0  0  0
 22 23  1  1  0  0  0
 22 28  1  0  0  0  0
 24 25  1  0  0  0  0
 26 27  1  0  0  0  0
 28 29  1  1  0  0  0
M  END
>  <CHROM.1>
-162.68194012,-162.44603006,-88.00494717,-144.61888926,-164.62428762,77.85523399
-1.25848391,-8.91279907,31.86187917,0.54827673,0.86101303,-0.35434417

>  <Name>
2et3_lig

>  <RI>
0

>  <Rbt.Current_Directory>
/home/itssahil/PROJECTS/Mol_Feturizer/New_Systems/rnas/2et3

>  <Rbt.Executable>
rbdock ($Id: //depot/dev/client3/rdock/2013.1/src/exe/rbdock.cxx#4 $)

>  <Rbt.Library>
libRbt.so (2013.1, Build901 2013/11/27)

>  <Rbt.Parameter_File>
/export/apps/rDock/src/rDock_2013.1_src/data/scripts/dock_solv.prm

>  <Rbt.Receptor>
prm/pocket_docking_2.prm

>  <SCORE>
-30.7103

>  <SCORE.INTER>
-24.0685

>  <SCORE.INTER.CONST>
1

>  <SCORE.INTER.POLAR>
-0.938083

>  <SCORE.INTER.ROT>
6

>  <SCORE.INTER.SOLV>
19.9655

>  <SCORE.INTER.VDW>
-27.1739

>  <SCORE.INTER.norm>
-0.776405

>  <SCORE.INTRA>
-6.64173

>  <SCORE.INTRA.DIHEDRAL>
-11.9035

>  <SCORE.INTRA.DIHEDRAL.0>
22.2484

>  <SCORE.INTRA.POLAR>
0

>  <SCORE.INTRA.POLAR.0>
0

>  <SCORE.INTRA.REPUL>
0

>  <SCORE.INTRA.REPUL.0>
0

>  <SCORE.INTRA.SOLV>
-0.477744

>  <SCORE.INTRA.SOLV.lig_0>
-75.7198

>  <SCORE.INTRA.VDW>
-0.451122

>  <SCORE.INTRA.VDW.0>
-3.34171

>  <SCORE.INTRA.norm>
-0.214249

>  <SCORE.RESTR>
0

>  <SCORE.RESTR.CAVITY>
0

>  <SCORE.RESTR.norm>
0

>  <SCORE.SYSTEM>
0

>  <SCORE.SYSTEM.CONST>
0

>  <SCORE.SYSTEM.DIHEDRAL>
0

>  <SCORE.SYSTEM.SOLV>
0

>  <SCORE.SYSTEM.norm>
0

>  <SCORE.heavy>
31

>  <SCORE.norm>
-0.990654

>  <RMSD>
0.872

$$$$
2et3_lig
 OpenBabel11021811423D
libRbt.so/2013.1/901 2013/11/27
 31 33  0  0  0  0  0  0  0  0999 V2000
    0.2779   -6.7827   29.4802 C   0  0  2  0  0  0  0  0  0  0  0  0
   -0.3829   -8.0524   29.2405 O   0  0  0  0  0  0  0  0  0  0  0  0
   -1.1392  -11.5708   31.5546 C   0  0  2  0  0  0  0  0  0  0  0  0
   -0.9416  -12.6125   32.5145 N   0  0  0  0  0  0  0  0  0  0  0  0
   -2.1536  -10.8530   34.5240 C   0  0  2  0  0  0  0  0  0  0  0  0
   -0.3819   -5.6875   28.6356 C   0  0  2  0  0  0  0  0  0  0  0  0
   -1.7778   -5.6512   28.9455 N   0  0  0  0  0  0  0  0  0  0  0  0
    0.0057  -11.6162   30.4919 C   0  0  0  0  0  0  0  0  0  0  0  0
   -3.6095  -10.9654   35.0272 C   0  0  2  0  0  0  0  0  0  0  0  0
   -4.3574  -11.7176   34.0981 O   0  0  0  0  0  0  0  0  0  0  0  0
   -0.1290   -5.9461   27.1109 C   0  0  0  0  0  0  0  0  0  0  0  0
   -0.1987  -10.4682   29.4367 C   0  0  2  0  0  0  0  0  0  0  0  0
    0.8775  -10.5063   28.4337 N   0  0  0  0  0  0  0  0  0  0  0  0
   -4.1825   -9.4990   35.1952 C   0  0  1  0  0  0  0  0  0  0  0  0
   -5.6150   -9.5172   35.6383 N   0  0  0  0  0  0  0  0  0  0  0  0
    1.4131   -5.9386   26.8692 C   0  0  0  0  0  0  0  0  0  0  0  0
   -0.2241   -9.0737   30.1726 C   0  0  2  0  0  0  0  0  0  0  0  0
   -3.2855   -8.6654   36.2555 C   0  0  1  0  0  0  0  0  0  0  0  0
   -3.3263   -9.2549   37.5386 O   0  0  0  0  0  0  0  0  0  0  0  0
    2.0747   -7.0646   27.7797 C   0  0  2  0  0  0  0  0  0  0  0  0
    1.7333   -6.9065   29.1924 O   0  0  0  0  0  0  0  0  0  0  0  0
   -1.3868   -9.0603   31.2384 C   0  0  2  0  0  0  0  0  0  0  0  0
   -1.4300   -7.8069   31.9130 O   0  0  0  0  0  0  0  0  0  0  0  0
   -1.7997   -8.6687   35.7802 C   0  0  0  0  0  0  0  0  0  0  0  0
   -1.3386  -10.0685   35.4961 O   0  0  0  0  0  0  0  0  0  0  0  0
    3.5735   -7.1789   27.6299 C   0  0  0  0  0  0  0  0  0  0  0  0
    4.0732   -8.4134   28.1759 N   0  0  0  0  0  0  0  0  0  0  0  0
   -1.1667  -10.2125   32.2805 C   0  0  1  0  0  0  0  0  0  0  0  0
   -2.2278  -10.1882   33.2275 O   0  0  0  0  0  0  0  0  0  0  0  0
   -3.7010   -7.2122   36.5223 C   0  0  0  0  0  0  0  0  0  0  0  0
   -6.6402   -9.6491   34.5896 C   0  0  0  0  0  0  0  0  0  0  0  0
  1  2  1  6  0  0  0
  1  6  1  0  0  0  0
  1 21  1  0  0  0  0
  3  4  1  1  0  0  0
  3  8  1  0  0  0  0
  3 28  1  0  0  0  0
  5  9  1  0  0  0  0
  5 25  1  0  0  0  0
  5 29  1  6  0  0  0
  6  7  1  6  0  0  0
  6 11  1  0  0  0  0
  8 12  1  0  0  0  0
  9 10  1  6  0  0  0
  9 14  1  0  0  0  0
 11 16  1  0  0  0  0
 12 13  1  6  0  0  0
 12 17  1  0  0  0  0
 14 15  1  1  0  0  0
 14 18  1  0  0  0  0
 15 31  1  0  0  0  0
 16 20  1  0  0  0  0
 17  2  1  6  0  0  0
 17 22  1  0  0  0  0
 18 19  1  1  0  0  0
 18 24  1  0  0  0  0
 18 30  1  0  0  0  0
 20 21  1  0  0  0  0
 20 26  1  1  0  0  0
 22 23  1  1  0  0  0
 22 28  1  0  0  0  0
 24 25  1  0  0  0  0
 26 27  1  0  0  0  0
 28 29  1  1  0  0  0
M  END
>  <CHROM.1>
-160.93791625,-162.62402362,-84.92550381,-145.56994897,-164.35741508,77.47373716
-1.22994043,-8.92790782,31.81786813,0.54017377,0.86839676,-0.34164358

>  <Name>
2et3_lig

>  <RI>
0

>  <Rbt.Current_Directory>
/home/itssahil/PROJECTS/Mol_Feturizer/New_Systems/rnas/2et3

>  <Rbt.Executable>
rbdock ($Id: //depot/dev/client3/rdock/2013.1/src/exe/rbdock.cxx#4 $)

>  <Rbt.Library>
libRbt.so (2013.1, Build901 2013/11/27)

>  <Rbt.Parameter_File>
/export/apps/rDock/src/rDock_2013.1_src/data/scripts/dock_solv.prm

>  <Rbt.Receptor>
prm/pocket_docking_2.prm

>  <SCORE>
-30.8207

>  <SCORE.INTER>
-24.2255

>  <SCORE.INTER.CONST>
1

>  <SCORE.INTER.POLAR>
-0.938083

>  <SCORE.INTER.ROT>
6

>  <SCORE.INTER.SOLV>
19.449

>  <SCORE.INTER.VDW>
-27.1064

>  <SCORE.INTER.norm>
-0.781467

>  <SCORE.INTRA>
-6.60604

>  <SCORE.INTRA.DIHEDRAL>
-11.9642

>  <SCORE.INTRA.DIHEDRAL.0>
22.2484

>  <SCORE.INTRA.POLAR>
0

>  <SCORE.INTRA.POLAR.0>
0

>  <SCORE.INTRA.REPUL>
0

>  <SCORE.INTRA.REPUL.0>
0

>  <SCORE.INTRA.SOLV>
-0.53659

>  <SCORE.INTRA.SOLV.lig_0>
-75.7198

>  <SCORE.INTRA.VDW>
-0.355623

>  <SCORE.INTRA.VDW.0>
-3.34171

>  <SCORE.INTRA.norm>
-0.213098

>  <SCORE.RESTR>
0.0107725

>  <SCORE.RESTR.CAVITY>
0.0107725

>  <SCORE.RESTR.norm>
0.0003475

>  <SCORE.SYSTEM>
0

>  <SCORE.SYSTEM.CONST>
0

>  <SCORE.SYSTEM.DIHEDRAL>
0

>  <SCORE.SYSTEM.SOLV>
0

>  <SCORE.SYSTEM.norm>
0

>  <SCORE.heavy>
31

>  <SCORE.norm>
-0.994218

>  <RMSD>
0.876

$$$$
2et3_lig
 OpenBabel11021811423D
libRbt.so/2013.1/901 2013/11/27
 31 33  0  0  0  0  0  0  0  0999 V2000
    0.2837   -6.7655   29.4954 C   0  0  2  0  0  0  0  0  0  0  0  0
   -0.3692   -8.0366   29.2420 O   0  0  0  0  0  0  0  0  0  0  0  0
   -1.1334  -11.5688   31.5323 C   0  0  2  0  0  0  0  0  0  0  0  0
   -0.9395  -12.6158   32.4872 N   0  0  0  0  0  0  0  0  0  0  0  0
   -2.1568  -10.8550   34.5074 C   0  0  2  0  0  0  0  0  0  0  0  0
   -0.3581   -5.6724   28.6343 C   0  0  2  0  0  0  0  0  0  0  0  0
   -1.7610   -5.6382   28.9117 N   0  0  0  0  0  0  0  0  0  0  0  0
    0.0168  -11.6070   30.4750 C   0  0  0  0  0  0  0  0  0  0  0  0
   -3.6090  -10.9329   35.0278 C   0  0  2  0  0  0  0  0  0  0  0  0
   -4.3835  -11.6745   34.1120 O   0  0  0  0  0  0  0  0  0  0  0  0
   -0.0694   -5.9323   27.1163 C   0  0  0  0  0  0  0  0  0  0  0  0
   -0.1836  -10.4532   29.4254 C   0  0  2  0  0  0  0  0  0  0  0  0
    0.8976  -10.4846   28.4275 N   0  0  0  0  0  0  0  0  0  0  0  0
   -4.1483   -9.4534   35.1928 C   0  0  1  0  0  0  0  0  0  0  0  0
   -5.5758   -9.4380   35.6522 N   0  0  0  0  0  0  0  0  0  0  0  0
    1.4780   -5.9224   26.9106 C   0  0  0  0  0  0  0  0  0  0  0  0
   -0.2140   -9.0630   30.1690 C   0  0  2  0  0  0  0  0  0  0  0  0
   -3.2216   -8.6329   36.2375 C   0  0  1  0  0  0  0  0  0  0  0  0
   -3.2604   -9.2135   37.5247 O   0  0  0  0  0  0  0  0  0  0  0  0
    2.1201   -7.0461   27.8376 C   0  0  2  0  0  0  0  0  0  0  0  0
    1.7456   -6.8869   29.2418 O   0  0  0  0  0  0  0  0  0  0  0  0
   -1.3819   -9.0567   31.2291 C   0  0  2  0  0  0  0  0  0  0  0  0
   -1.4296   -7.8073   31.9106 O   0  0  0  0  0  0  0  0  0  0  0  0
   -1.7417   -8.6712   35.7456 C   0  0  0  0  0  0  0  0  0  0  0  0
   -1.3141  -10.0823   35.4652 O   0  0  0  0  0  0  0  0  0  0  0  0
    3.6221   -7.1580   27.7230 C   0  0  0  0  0  0  0  0  0  0  0  0
    4.1028   -8.4256   28.2067 N   0  0  0  0  0  0  0  0  0  0  0  0
   -1.1658  -10.2147   32.2657 C   0  0  1  0  0  0  0  0  0  0  0  0
   -2.2316  -10.1967   33.2076 O   0  0  0  0  0  0  0  0  0  0  0  0
   -3.6027   -7.1694   36.4997 C   0  0  0  0  0  0  0  0  0  0  0  0
   -6.6152   -9.5702   34.6176 C   0  0  0  0  0  0  0  0  0  0  0  0
  1  2  1  6  0  0  0
  1  6  1  0  0  0  0
  1 21  1  0  0  0  0
  3  4  1  1  0  0  0
  3  8  1  0  0  0  0
  3 28  1  0  0  0  0
  5  9  1  0  0  0  0
  5 25  1  0  0  0  0
  5 29  1  6  0  0  0
  6  7  1  6  0  0  0
  6 11  1  0  0  0  0
  8 12  1  0  0  0  0
  9 10  1  6  0  0  0
  9 14  1  0  0  0  0
 11 16  1  0  0  0  0
 12 13  1  6  0  0  0
 12 17  1  0  0  0  0
 14 15  1  1  0  0  0
 14 18  1  0  0  0  0
 15 31  1  0  0  0  0
 16 20  1  0  0  0  0
 17  2  1  6  0  0  0
 17 22  1  0  0  0  0
 18 19  1  1  0  0  0
 18 24  1  0  0  0  0
 18 30  1  0  0  0  0
 20 21  1  0  0  0  0
 20 26  1  1  0  0  0
 22 23  1  1  0  0  0
 22 28  1  0  0  0  0
 24 25  1  0  0  0  0
 26 27  1  0  0  0  0
 28 29  1  1  0  0  0
M  END
>  <CHROM.1>
-161.88356863,-164.65465148,-84.22196242,-145.87736666,-160.78757261,78.25213546
-1.20528034,-8.90962781,31.81934248,0.52910469,0.87067038,-0.32904615

>  <Name>
2et3_lig

>  <RI>
0

>  <Rbt.Current_Directory>
/home/itssahil/PROJECTS/Mol_Feturizer/New_Systems/rnas/2et3

>  <Rbt.Executable>
rbdock ($Id: //depot/dev/client3/rdock/2013.1/src/exe/rbdock.cxx#4 $)

>  <Rbt.Library>
libRbt.so (2013.1, Build901 2013/11/27)

>  <Rbt.Parameter_File>
/export/apps/rDock/src/rDock_2013.1_src/data/scripts/dock_solv.prm

>  <Rbt.Receptor>
prm/pocket_docking_2.prm

>  <SCORE>
-30.7233

>  <SCORE.INTER>
-24.0883

>  <SCORE.INTER.CONST>
1

>  <SCORE.INTER.POLAR>
-0.938083

>  <SCORE.INTER.ROT>
6

>  <SCORE.INTER.SOLV>
19.5782

>  <SCORE.INTER.VDW>
-27.058

>  <SCORE.INTER.norm>
-0.777043

>  <SCORE.INTRA>
-6.65159

>  <SCORE.INTRA.DIHEDRAL>
-11.9811

>  <SCORE.INTRA.DIHEDRAL.0>
22.2484

>  <SCORE.INTRA.POLAR>
0

>  <SCORE.INTRA.POLAR.0>
0

>  <SCORE.INTRA.REPUL>
0

>  <SCORE.INTRA.REPUL.0>
0

>  <SCORE.INTRA.SOLV>
-0.650583

>  <SCORE.INTRA.SOLV.lig_0>
-75.7198

>  <SCORE.INTRA.VDW>
-0.335771

>  <SCORE.INTRA.VDW.0>
-3.34171

>  <SCORE.INTRA.norm>
-0.214568

>  <SCORE.RESTR>
0.0166767

>  <SCORE.RESTR.CAVITY>
0.0166767

>  <SCORE.RESTR.norm>
0.000537958

>  <SCORE.SYSTEM>
0

>  <SCORE.SYSTEM.CONST>
0

>  <SCORE.SYSTEM.DIHEDRAL>
0

>  <SCORE.SYSTEM.SOLV>
0

>  <SCORE.SYSTEM.norm>
0

>  <SCORE.heavy>
31

>  <SCORE.norm>
-0.991073

>  <RMSD>
0.879

$$$$
2et3_lig
 OpenBabel11021811423D
libRbt.so/2013.1/901 2013/11/27
 31 33  0  0  0  0  0  0  0  0999 V2000
    0.1354   -6.8403   29.6309 C   0  0  2  0  0  0  0  0  0  0  0  0
   -0.4509   -8.1380   29.3507 O   0  0  0  0  0  0  0  0  0  0  0  0
   -1.3222  -11.5608   31.7656 C   0  0  2  0  0  0  0  0  0  0  0  0
   -1.1487  -12.5944   32.7388 N   0  0  0  0  0  0  0  0  0  0  0  0
   -2.1684  -10.7197   34.7600 C   0  0  2  0  0  0  0  0  0  0  0  0
   -0.4854   -5.7820   28.7127 C   0  0  2  0  0  0  0  0  0  0  0  0
   -1.9044   -5.7979   28.8925 N   0  0  0  0  0  0  0  0  0  0  0  0
   -0.2253  -11.6948   30.6606 C   0  0  0  0  0  0  0  0  0  0  0  0
   -3.6223  -10.8756   35.2577 C   0  0  2  0  0  0  0  0  0  0  0  0
   -4.3364  -11.6732   34.3399 O   0  0  0  0  0  0  0  0  0  0  0  0
   -0.0829   -6.0478   27.2218 C   0  0  0  0  0  0  0  0  0  0  0  0
   -0.4030  -10.5564   29.5903 C   0  0  2  0  0  0  0  0  0  0  0  0
    0.6282  -10.6779   28.5475 N   0  0  0  0  0  0  0  0  0  0  0  0
   -4.2497   -9.4282   35.3929 C   0  0  1  0  0  0  0  0  0  0  0  0
   -5.6833   -9.4902   35.8286 N   0  0  0  0  0  0  0  0  0  0  0  0
    1.4736   -5.9816   27.1227 C   0  0  0  0  0  0  0  0  0  0  0  0
   -0.3161   -9.1495   30.2972 C   0  0  2  0  0  0  0  0  0  0  0  0
   -3.3904   -8.5410   36.4409 C   0  0  1  0  0  0  0  0  0  0  0  0
   -3.4174   -9.1059   37.7354 O   0  0  0  0  0  0  0  0  0  0  0  0
    2.0912   -7.0698   28.1072 C   0  0  2  0  0  0  0  0  0  0  0  0
    1.6148   -6.9092   29.4800 O   0  0  0  0  0  0  0  0  0  0  0  0
   -1.4325   -9.0462   31.4067 C   0  0  2  0  0  0  0  0  0  0  0  0
   -1.3741   -7.7801   32.0559 O   0  0  0  0  0  0  0  0  0  0  0  0
   -1.9026   -8.4991   35.9737 C   0  0  0  0  0  0  0  0  0  0  0  0
   -1.3887   -9.8864   35.7205 O   0  0  0  0  0  0  0  0  0  0  0  0
    3.6007   -7.1260   28.0975 C   0  0  0  0  0  0  0  0  0  0  0  0
    4.1105   -7.5978   26.8369 N   0  0  0  0  0  0  0  0  0  0  0  0
   -1.2399  -10.1900   32.4634 C   0  0  1  0  0  0  0  0  0  0  0  0
   -2.2591  -10.0841   33.4500 O   0  0  0  0  0  0  0  0  0  0  0  0
   -3.8606   -7.0991   36.6760 C   0  0  0  0  0  0  0  0  0  0  0  0
   -6.6990   -9.6466   34.7741 C   0  0  0  0  0  0  0  0  0  0  0  0
  1  2  1  6  0  0  0
  1  6  1  0  0  0  0
  1 21  1  0  0  0  0
  3  4  1  1  0  0  0
  3  8  1  0  0  0  0
  3 28  1  0  0  0  0
  5  9  1  0  0  0  0
  5 25  1  0  0  0  0
  5 29  1  6  0  0  0
  6  7  1  6  0  0  0
  6 11  1  0  0  0  0
  8 12  1  0  0  0  0
  9 10  1  6  0  0  0
  9 14  1  0  0  0  0
 11 16  1  0  0  0  0
 12 13  1  6  0  0  0
 12 17  1  0  0  0  0
 14 15  1  1  0  0  0
 14 18  1  0  0  0  0
 15 31  1  0  0  0  0
 16 20  1  0  0  0  0
 17  2  1  6  0  0  0
 17 22  1  0  0  0  0
 18 19  1  1  0  0  0
 18 24  1  0  0  0  0
 18 30  1  0  0  0  0
 20 21  1  0  0  0  0
 20 26  1  1  0  0  0
 22 23  1  1  0  0  0
 22 28  1  0  0  0  0
 24 25  1  0  0  0  0
 26 27  1  0  0  0  0
 28 29  1  1  0  0  0
M  END
>  <CHROM.1>
-162.22533458,-156.78559638,-86.42720555,-154.33736386,-66.91188646,77.94811694
-1.30416568,-8.88730895,31.95868285,0.42420762,0.92149938,-0.20415705

>  <Name>
2et3_lig

>  <RI>
0

>  <Rbt.Current_Directory>
/home/itssahil/PROJECTS/Mol_Feturizer/New_Systems/rnas/2et3

>  <Rbt.Executable>
rbdock ($Id: //depot/dev/client3/rdock/2013.1/src/exe/rbdock.cxx#4 $)

>  <Rbt.Library>
libRbt.so (2013.1, Build901 2013/11/27)

>  <Rbt.Parameter_File>
/export/apps/rDock/src/rDock_2013.1_src/data/scripts/dock_solv.prm

>  <Rbt.Receptor>
prm/pocket_docking_2.prm

>  <SCORE>
-32.672

>  <SCORE.INTER>
-25.1271

>  <SCORE.INTER.CONST>
1

>  <SCORE.INTER.POLAR>
-0.938083

>  <SCORE.INTER.ROT>
6

>  <SCORE.INTER.SOLV>
17.3209

>  <SCORE.INTER.VDW>
-26.9981

>  <SCORE.INTER.norm>
-0.810553

>  <SCORE.INTRA>
-7.54488

>  <SCORE.INTRA.DIHEDRAL>
-13.4043

>  <SCORE.INTRA.DIHEDRAL.0>
22.2484

>  <SCORE.INTRA.POLAR>
0

>  <SCORE.INTRA.POLAR.0>
0

>  <SCORE.INTRA.REPUL>
0

>  <SCORE.INTRA.REPUL.0>
0

>  <SCORE.INTRA.SOLV>
-1.66752

>  <SCORE.INTRA.SOLV.lig_0>
-75.7198

>  <SCORE.INTRA.VDW>
-0.00894342

>  <SCORE.INTRA.VDW.0>
-3.34171

>  <SCORE.INTRA.norm>
-0.243383

>  <SCORE.RESTR>
0

>  <SCORE.RESTR.CAVITY>
0

>  <SCORE.RESTR.norm>
0

>  <SCORE.SYSTEM>
0

>  <SCORE.SYSTEM.CONST>
0

>  <SCORE.SYSTEM.DIHEDRAL>
0

>  <SCORE.SYSTEM.SOLV>
0

>  <SCORE.SYSTEM.norm>
0

>  <SCORE.heavy>
31

>  <SCORE.norm>
-1.05394

>  <RMSD>
0.887

$$$$
2et3_lig
 OpenBabel11021811423D
libRbt.so/2013.1/901 2013/11/27
 31 33  0  0  0  0  0  0  0  0999 V2000
    0.2748   -6.7283   29.4544 C   0  0  2  0  0  0  0  0  0  0  0  0
   -0.3968   -7.9943   29.2253 O   0  0  0  0  0  0  0  0  0  0  0  0
   -1.1165  -11.5313   31.5227 C   0  0  2  0  0  0  0  0  0  0  0  0
   -0.9098  -12.5734   32.4802 N   0  0  0  0  0  0  0  0  0  0  0  0
   -2.1638  -10.8491   34.4829 C   0  0  2  0  0  0  0  0  0  0  0  0
   -0.3520   -5.6423   28.5736 C   0  0  2  0  0  0  0  0  0  0  0  0
   -1.7540   -5.5825   28.8514 N   0  0  0  0  0  0  0  0  0  0  0  0
    0.0353  -11.5565   30.4668 C   0  0  0  0  0  0  0  0  0  0  0  0
   -3.6205  -10.9625   34.9838 C   0  0  2  0  0  0  0  0  0  0  0  0
   -4.3699  -11.7024   34.0461 O   0  0  0  0  0  0  0  0  0  0  0  0
   -0.0688   -5.9346   27.0604 C   0  0  0  0  0  0  0  0  0  0  0  0
   -0.1791  -10.4079   29.4144 C   0  0  2  0  0  0  0  0  0  0  0  0
    0.9036  -10.4270   28.4179 N   0  0  0  0  0  0  0  0  0  0  0  0
   -4.1891   -9.4962   35.1671 C   0  0  1  0  0  0  0  0  0  0  0  0
   -5.6221   -9.5148   35.6088 N   0  0  0  0  0  0  0  0  0  0  0  0
    1.4783   -5.9511   26.8532 C   0  0  0  0  0  0  0  0  0  0  0  0
   -0.2290   -9.0165   30.1548 C   0  0  2  0  0  0  0  0  0  0  0  0
   -3.2905   -8.6767   36.2369 C   0  0  1  0  0  0  0  0  0  0  0  0
   -3.3342   -9.2799   37.5136 O   0  0  0  0  0  0  0  0  0  0  0  0
    2.1051   -7.0666   27.8006 C   0  0  2  0  0  0  0  0  0  0  0  0
    1.7345   -6.8758   29.2019 O   0  0  0  0  0  0  0  0  0  0  0  0
   -1.3981   -9.0234   31.2135 C   0  0  2  0  0  0  0  0  0  0  0  0
   -1.4634   -7.7732   31.8921 O   0  0  0  0  0  0  0  0  0  0  0  0
   -1.8043   -8.6795   35.7628 C   0  0  0  0  0  0  0  0  0  0  0  0
   -1.3472  -10.0775   35.4640 O   0  0  0  0  0  0  0  0  0  0  0  0
    3.6052   -7.2024   27.6868 C   0  0  0  0  0  0  0  0  0  0  0  0
    4.0686   -8.4651   28.1993 N   0  0  0  0  0  0  0  0  0  0  0  0
   -1.1679  -10.1761   32.2530 C   0  0  1  0  0  0  0  0  0  0  0  0
   -2.2350  -10.1702   33.1936 O   0  0  0  0  0  0  0  0  0  0  0  0
   -3.7018   -7.2253   36.5189 C   0  0  0  0  0  0  0  0  0  0  0  0
   -6.6477   -9.6065   34.5563 C   0  0  0  0  0  0  0  0  0  0  0  0
  1  2  1  6  0  0  0
  1  6  1  0  0  0  0
  1 21  1  0  0  0  0
  3  4  1  1  0  0  0
  3  8  1  0  0  0  0
  3 28  1  0  0  0  0
  5  9  1  0  0  0  0
  5 25  1  0  0  0  0
  5 29  1  6  0  0  0
  6  7  1  6  0  0  0
  6 11  1  0  0  0  0
  8 12  1  0  0  0  0
  9 10  1  6  0  0  0
  9 14  1  0  0  0  0
 11 16  1  0  0  0  0
 12 13  1  6  0  0  0
 12 17  1  0  0  0  0
 14 15  1  1  0  0  0
 14 18  1  0  0  0  0
 15 31  1  0  0  0  0
 16 20  1  0  0  0  0
 17  2  1  6  0  0  0
 17 22  1  0  0  0  0
 18 19  1  1  0  0  0
 18 24  1  0  0  0  0
 18 30  1  0  0  0  0
 20 21  1  0  0  0  0
 20 26  1  1  0  0  0
 22 23  1  1  0  0  0
 22 28  1  0  0  0  0
 24 25  1  0  0  0  0
 26 27  1  0  0  0  0
 28 29  1  1  0  0  0
M  END
>  <CHROM.1>
-163.43191195,-163.29677193,-86.05717114,-143.86765600,-161.05258703,76.87248967
-1.22366838,-8.90750379,31.79436051,0.55731632,0.85617326,-0.36308228

>  <Name>
2et3_lig

>  <RI>
0

>  <Rbt.Current_Directory>
/home/itssahil/PROJECTS/Mol_Feturizer/New_Systems/rnas/2et3

>  <Rbt.Executable>
rbdock ($Id: //depot/dev/client3/rdock/2013.1/src/exe/rbdock.cxx#4 $)

>  <Rbt.Library>
libRbt.so (2013.1, Build901 2013/11/27)

>  <Rbt.Parameter_File>
/export/apps/rDock/src/rDock_2013.1_src/data/scripts/dock_solv.prm

>  <Rbt.Receptor>
prm/pocket_docking_2.prm

>  <SCORE>
-30.7871

>  <SCORE.INTER>
-24.2593

>  <SCORE.INTER.CONST>
1

>  <SCORE.INTER.POLAR>
-0.938083

>  <SCORE.INTER.ROT>
6

>  <SCORE.INTER.SOLV>
19.5318

>  <SCORE.INTER.VDW>
-27.1565

>  <SCORE.INTER.norm>
-0.782557

>  <SCORE.INTRA>
-6.52877

>  <SCORE.INTRA.DIHEDRAL>
-11.8347

>  <SCORE.INTRA.DIHEDRAL.0>
22.2484

>  <SCORE.INTRA.POLAR>
0

>  <SCORE.INTRA.POLAR.0>
0

>  <SCORE.INTRA.REPUL>
0

>  <SCORE.INTRA.REPUL.0>
0

>  <SCORE.INTRA.SOLV>
-0.423007

>  <SCORE.INTRA.SOLV.lig_0>
-75.7198

>  <SCORE.INTRA.VDW>
-0.399896

>  <SCORE.INTRA.VDW.0>
-3.34171

>  <SCORE.INTRA.norm>
-0.210606

>  <SCORE.RESTR>
0.000922764

>  <SCORE.RESTR.CAVITY>
0.000922764

>  <SCORE.RESTR.norm>
2.97666e-05

>  <SCORE.SYSTEM>
0

>  <SCORE.SYSTEM.CONST>
0

>  <SCORE.SYSTEM.DIHEDRAL>
0

>  <SCORE.SYSTEM.SOLV>
0

>  <SCORE.SYSTEM.norm>
0

>  <SCORE.heavy>
31

>  <SCORE.norm>
-0.993133

>  <RMSD>
0.888

$$$$
2et3_lig
 OpenBabel11021811423D
libRbt.so/2013.1/901 2013/11/27
 31 33  0  0  0  0  0  0  0  0999 V2000
    0.0791   -6.8260   29.6271 C   0  0  2  0  0  0  0  0  0  0  0  0
   -0.4970   -8.1302   29.3563 O   0  0  0  0  0  0  0  0  0  0  0  0
   -1.3624  -11.5259   31.8111 C   0  0  2  0  0  0  0  0  0  0  0  0
   -1.1860  -12.5498   32.7940 N   0  0  0  0  0  0  0  0  0  0  0  0
   -2.2064  -10.6792   34.7888 C   0  0  2  0  0  0  0  0  0  0  0  0
   -0.5265   -5.7850   28.6794 C   0  0  2  0  0  0  0  0  0  0  0  0
   -1.9488   -5.8033   28.8308 N   0  0  0  0  0  0  0  0  0  0  0  0
   -0.2716  -11.6736   30.7018 C   0  0  0  0  0  0  0  0  0  0  0  0
   -3.6630  -10.8272   35.2807 C   0  0  2  0  0  0  0  0  0  0  0  0
   -4.3814  -11.6095   34.3531 O   0  0  0  0  0  0  0  0  0  0  0  0
   -0.0930   -6.0734   27.2015 C   0  0  0  0  0  0  0  0  0  0  0  0
   -0.4526  -10.5461   29.6207 C   0  0  2  0  0  0  0  0  0  0  0  0
    0.5729  -10.6805   28.5738 N   0  0  0  0  0  0  0  0  0  0  0  0
   -4.2781   -9.3758   35.4284 C   0  0  1  0  0  0  0  0  0  0  0  0
   -5.7135   -9.4295   35.8594 N   0  0  0  0  0  0  0  0  0  0  0  0
    1.4649   -6.0030   27.1328 C   0  0  0  0  0  0  0  0  0  0  0  0
   -0.3593   -9.1321   30.3125 C   0  0  2  0  0  0  0  0  0  0  0  0
   -3.4142   -8.5066   36.4876 C   0  0  1  0  0  0  0  0  0  0  0  0
   -3.4500   -9.0839   37.7764 O   0  0  0  0  0  0  0  0  0  0  0  0
    2.0661   -7.0728   28.1471 C   0  0  2  0  0  0  0  0  0  0  0  0
    1.5615   -6.8917   29.5072 O   0  0  0  0  0  0  0  0  0  0  0  0
   -1.4696   -9.0150   31.4266 C   0  0  2  0  0  0  0  0  0  0  0  0
   -1.4054   -7.7424   32.0624 O   0  0  0  0  0  0  0  0  0  0  0  0
   -1.9247   -8.4732   36.0252 C   0  0  0  0  0  0  0  0  0  0  0  0
   -1.4222   -9.8623   35.7597 O   0  0  0  0  0  0  0  0  0  0  0  0
    3.5757   -7.1235   28.1688 C   0  0  0  0  0  0  0  0  0  0  0  0
    4.1128   -7.6063   26.9237 N   0  0  0  0  0  0  0  0  0  0  0  0
   -1.2738  -10.1482   32.4941 C   0  0  1  0  0  0  0  0  0  0  0  0
   -2.2876  -10.0300   33.4849 O   0  0  0  0  0  0  0  0  0  0  0  0
   -3.8725   -7.0630   36.7356 C   0  0  0  0  0  0  0  0  0  0  0  0
   -6.7238   -9.6215   34.8056 C   0  0  0  0  0  0  0  0  0  0  0  0
  1  2  1  6  0  0  0
  1  6  1  0  0  0  0
  1 21  1  0  0  0  0
  3  4  1  1  0  0  0
  3  8  1  0  0  0  0
  3 28  1  0  0  0  0
  5  9  1  0  0  0  0
  5 25  1  0  0  0  0
  5 29  1  6  0  0  0
  6  7  1  6  0  0  0
  6 11  1  0  0  0  0
  8 12  1  0  0  0  0
  9 10  1  6  0  0  0
  9 14  1  0  0  0  0
 11 16  1  0  0  0  0
 12 13  1  6  0  0  0
 12 17  1  0  0  0  0
 14 15  1  1  0  0  0
 14 18  1  0  0  0  0
 15 31  1  0  0  0  0
 16 20  1  0  0  0  0
 17  2  1  6  0  0  0
 17 22  1  0  0  0  0
 18 19  1  1  0  0  0
 18 24  1  0  0  0  0
 18 30  1  0  0  0  0
 20 21  1  0  0  0  0
 20 26  1  1  0  0  0
 22 23  1  1  0  0  0
 22 28  1  0  0  0  0
 24 25  1  0  0  0  0
 26 27  1  0  0  0  0
 28 29  1  1  0  0  0
M  END
>  <CHROM.1>
-163.24510208,-156.00722128,-84.01228957,-155.08795110,-66.56786105,76.38820642
-1.33774610,-8.86454004,31.98545656,0.42411171,0.92272883,-0.20954131

>  <Name>
2et3_lig

>  <RI>
0

>  <Rbt.Current_Directory>
/home/itssahil/PROJECTS/Mol_Feturizer/New_Systems/rnas/2et3

>  <Rbt.Executable>
rbdock ($Id: //depot/dev/client3/rdock/2013.1/src/exe/rbdock.cxx#4 $)

>  <Rbt.Library>
libRbt.so (2013.1, Build901 2013/11/27)

>  <Rbt.Parameter_File>
/export/apps/rDock/src/rDock_2013.1_src/data/scripts/dock_solv.prm

>  <Rbt.Receptor>
prm/pocket_docking_2.prm

>  <SCORE>
-32.6342

>  <SCORE.INTER>
-24.9606

>  <SCORE.INTER.CONST>
1

>  <SCORE.INTER.POLAR>
-0.938083

>  <SCORE.INTER.ROT>
6

>  <SCORE.INTER.SOLV>
17.3818

>  <SCORE.INTER.VDW>
-26.9074

>  <SCORE.INTER.norm>
-0.805181

>  <SCORE.INTRA>
-7.6736

>  <SCORE.INTRA.DIHEDRAL>
-13.8701

>  <SCORE.INTRA.DIHEDRAL.0>
22.2484

>  <SCORE.INTRA.POLAR>
0

>  <SCORE.INTRA.POLAR.0>
0

>  <SCORE.INTRA.REPUL>
0

>  <SCORE.INTRA.REPUL.0>
0

>  <SCORE.INTRA.SOLV>
-1.69591

>  <SCORE.INTRA.SOLV.lig_0>
-75.7198

>  <SCORE.INTRA.VDW>
0.109394

>  <SCORE.INTRA.VDW.0>
-3.34171

>  <SCORE.INTRA.norm>
-0.247536

>  <SCORE.RESTR>
0

>  <SCORE.RESTR.CAVITY>
0

>  <SCORE.RESTR.norm>
0

>  <SCORE.SYSTEM>
0

>  <SCORE.SYSTEM.CONST>
0

>  <SCORE.SYSTEM.DIHEDRAL>
0

>  <SCORE.SYSTEM.SOLV>
0

>  <SCORE.SYSTEM.norm>
0

>  <SCORE.heavy>
31

>  <SCORE.norm>
-1.05272

>  <RMSD>
0.889

$$$$
2et3_lig
 OpenBabel11021811423D
libRbt.so/2013.1/901 2013/11/27
 31 33  0  0  0  0  0  0  0  0999 V2000
    0.2942   -6.7866   29.4574 C   0  0  2  0  0  0  0  0  0  0  0  0
   -0.3716   -8.0520   29.2088 O   0  0  0  0  0  0  0  0  0  0  0  0
   -1.1767  -11.5691   31.5084 C   0  0  2  0  0  0  0  0  0  0  0  0
   -0.9976  -12.6124   32.4702 N   0  0  0  0  0  0  0  0  0  0  0  0
   -2.2467  -10.8820   34.4465 C   0  0  2  0  0  0  0  0  0  0  0  0
   -0.3450   -5.6878   28.6016 C   0  0  2  0  0  0  0  0  0  0  0  0
   -1.7453   -5.6417   28.8901 N   0  0  0  0  0  0  0  0  0  0  0  0
   -0.0166  -11.6185   30.4625 C   0  0  0  0  0  0  0  0  0  0  0  0
   -3.7077  -10.9322   34.9450 C   0  0  2  0  0  0  0  0  0  0  0  0
   -4.4906  -11.6226   33.9969 O   0  0  0  0  0  0  0  0  0  0  0  0
   -0.0706   -5.9497   27.0813 C   0  0  0  0  0  0  0  0  0  0  0  0
   -0.2007  -10.4687   29.4055 C   0  0  2  0  0  0  0  0  0  0  0  0
    0.8899  -10.5106   28.4183 N   0  0  0  0  0  0  0  0  0  0  0  0
   -4.2057   -9.4430   35.1478 C   0  0  1  0  0  0  0  0  0  0  0  0
   -5.6384   -9.3989   35.5885 N   0  0  0  0  0  0  0  0  0  0  0  0
    1.4752   -5.9530   26.8633 C   0  0  0  0  0  0  0  0  0  0  0  0
   -0.2308   -9.0748   30.1422 C   0  0  2  0  0  0  0  0  0  0  0  0
   -3.2701   -8.6820   36.2292 C   0  0  1  0  0  0  0  0  0  0  0  0
   -3.3441   -9.2996   37.4975 O   0  0  0  0  0  0  0  0  0  0  0  0
    2.1149   -7.0826   27.7850 C   0  0  2  0  0  0  0  0  0  0  0  0
    1.7529   -6.9206   29.1921 O   0  0  0  0  0  0  0  0  0  0  0  0
   -1.4088   -9.0572   31.1909 C   0  0  2  0  0  0  0  0  0  0  0  0
   -1.4565   -7.8042   31.8658 O   0  0  0  0  0  0  0  0  0  0  0  0
   -1.7852   -8.7496   35.7559 C   0  0  0  0  0  0  0  0  0  0  0  0
   -1.3952  -10.1638   35.4384 O   0  0  0  0  0  0  0  0  0  0  0  0
    3.6150   -7.2072   27.6584 C   0  0  0  0  0  0  0  0  0  0  0  0
    4.0963   -8.4503   28.2015 N   0  0  0  0  0  0  0  0  0  0  0  0
   -1.2090  -10.2113   32.2350 C   0  0  1  0  0  0  0  0  0  0  0  0
   -2.2837  -10.1831   33.1665 O   0  0  0  0  0  0  0  0  0  0  0  0
   -3.6118   -7.2165   36.5306 C   0  0  0  0  0  0  0  0  0  0  0  0
   -6.6662   -9.5683   34.5478 C   0  0  0  0  0  0  0  0  0  0  0  0
  1  2  1  6  0  0  0
  1  6  1  0  0  0  0
  1 21  1  0  0  0  0
  3  4  1  1  0  0  0
  3  8  1  0  0  0  0
  3 28  1  0  0  0  0
  5  9  1  0  0  0  0
  5 25  1  0  0  0  0
  5 29  1  6  0  0  0
  6  7  1  6  0  0  0
  6 11  1  0  0  0  0
  8 12  1  0  0  0  0
  9 10  1  6  0  0  0
  9 14  1  0  0  0  0
 11 16  1  0  0  0  0
 12 13  1  6  0  0  0
 12 17  1  0  0  0  0
 14 15  1  1  0  0  0
 14 18  1  0  0  0  0
 15 31  1  0  0  0  0
 16 20  1  0  0  0  0
 17  2  1  6  0  0  0
 17 22  1  0  0  0  0
 18 19  1  1  0  0  0
 18 24  1  0  0  0  0
 18 30  1  0  0  0  0
 20 21  1  0  0  0  0
 20 26  1  1  0  0  0
 22 23  1  1  0  0  0
 22 28  1  0  0  0  0
 24 25  1  0  0  0  0
 26 27  1  0  0  0  0
 28 29  1  1  0  0  0
M  END
>  <CHROM.1>
-161.13042243,-164.25393501,-79.85370991,-145.40245368,-163.79449361,75.60579688
-1.23913573,-8.92770116,31.78346804,0.53034039,0.86299449,-0.33452303

>  <Name>
2et3_lig

>  <RI>
0

>  <Rbt.Current_Directory>
/home/itssahil/PROJECTS/Mol_Feturizer/New_Systems/rnas/2et3

>  <Rbt.Executable>
rbdock ($Id: //depot/dev/client3/rdock/2013.1/src/exe/rbdock.cxx#4 $)

>  <Rbt.Library>
libRbt.so (2013.1, Build901 2013/11/27)

>  <Rbt.Parameter_File>
/export/apps/rDock/src/rDock_2013.1_src/data/scripts/dock_solv.prm

>  <Rbt.Receptor>
prm/pocket_docking_2.prm

>  <SCORE>
-30.712

>  <SCORE.INTER>
-24.003

>  <SCORE.INTER.CONST>
1

>  <SCORE.INTER.POLAR>
-0.938083

>  <SCORE.INTER.ROT>
6

>  <SCORE.INTER.SOLV>
19.2444

>  <SCORE.INTER.VDW>
-26.8899

>  <SCORE.INTER.norm>
-0.774292

>  <SCORE.INTRA>
-6.70893

>  <SCORE.INTRA.DIHEDRAL>
-12.5555

>  <SCORE.INTRA.DIHEDRAL.0>
22.2484

>  <SCORE.INTRA.POLAR>
0

>  <SCORE.INTRA.POLAR.0>
0

>  <SCORE.INTRA.REPUL>
0

>  <SCORE.INTRA.REPUL.0>
0

>  <SCORE.INTRA.SOLV>
-0.517282

>  <SCORE.INTRA.SOLV.lig_0>
-75.7198

>  <SCORE.INTRA.VDW>
-0.172523

>  <SCORE.INTRA.VDW.0>
-3.34171

>  <SCORE.INTRA.norm>
-0.216417

>  <SCORE.RESTR>
0

>  <SCORE.RESTR.CAVITY>
0

>  <SCORE.RESTR.norm>
0

>  <SCORE.SYSTEM>
0

>  <SCORE.SYSTEM.CONST>
0

>  <SCORE.SYSTEM.DIHEDRAL>
0

>  <SCORE.SYSTEM.SOLV>
0

>  <SCORE.SYSTEM.norm>
0

>  <SCORE.heavy>
31

>  <SCORE.norm>
-0.990709

>  <RMSD>
0.889

$$$$
2et3_lig
 OpenBabel11021811423D
libRbt.so/2013.1/901 2013/11/27
 31 33  0  0  0  0  0  0  0  0999 V2000
    0.1227   -6.8471   29.6138 C   0  0  2  0  0  0  0  0  0  0  0  0
   -0.4793   -8.1396   29.3434 O   0  0  0  0  0  0  0  0  0  0  0  0
   -1.3743  -11.5563   31.7582 C   0  0  2  0  0  0  0  0  0  0  0  0
   -1.2127  -12.5843   32.7394 N   0  0  0  0  0  0  0  0  0  0  0  0
   -2.3059  -10.7524   34.7105 C   0  0  2  0  0  0  0  0  0  0  0  0
   -0.4598   -5.7951   28.6638 C   0  0  2  0  0  0  0  0  0  0  0  0
   -1.8825   -5.7843   28.8125 N   0  0  0  0  0  0  0  0  0  0  0  0
   -0.2564  -11.6888   30.6743 C   0  0  0  0  0  0  0  0  0  0  0  0
   -3.7662  -10.8099   35.2105 C   0  0  2  0  0  0  0  0  0  0  0  0
   -4.5415  -11.5263   34.2756 O   0  0  0  0  0  0  0  0  0  0  0  0
   -0.0295   -6.0940   27.1870 C   0  0  0  0  0  0  0  0  0  0  0  0
   -0.4212  -10.5565   29.5954 C   0  0  2  0  0  0  0  0  0  0  0  0
    0.6298  -10.6766   28.5723 N   0  0  0  0  0  0  0  0  0  0  0  0
   -4.2807   -9.3229   35.3863 C   0  0  1  0  0  0  0  0  0  0  0  0
   -5.7138   -9.2868   35.8268 N   0  0  0  0  0  0  0  0  0  0  0  0
    1.5296   -6.0554   27.1212 C   0  0  0  0  0  0  0  0  0  0  0  0
   -0.3559   -9.1458   30.2970 C   0  0  2  0  0  0  0  0  0  0  0  0
   -3.3535   -8.5319   36.4531 C   0  0  1  0  0  0  0  0  0  0  0  0
   -3.4202   -9.1269   37.7325 O   0  0  0  0  0  0  0  0  0  0  0  0
    2.1071   -7.1360   28.1378 C   0  0  2  0  0  0  0  0  0  0  0  0
    1.6037   -6.9431   29.4968 O   0  0  0  0  0  0  0  0  0  0  0  0
   -1.4931   -9.0441   31.3852 C   0  0  2  0  0  0  0  0  0  0  0  0
   -1.4544   -7.7747   32.0293 O   0  0  0  0  0  0  0  0  0  0  0  0
   -1.8680   -8.5914   35.9804 C   0  0  0  0  0  0  0  0  0  0  0  0
   -1.4623  -10.0067   35.6887 O   0  0  0  0  0  0  0  0  0  0  0  0
    3.6153   -7.2174   28.1625 C   0  0  0  0  0  0  0  0  0  0  0  0
    4.1426   -7.7481   26.9329 N   0  0  0  0  0  0  0  0  0  0  0  0
   -1.3133  -10.1818   32.4508 C   0  0  1  0  0  0  0  0  0  0  0  0
   -2.3512  -10.0775   33.4179 O   0  0  0  0  0  0  0  0  0  0  0  0
   -3.7115   -7.0649   36.7279 C   0  0  0  0  0  0  0  0  0  0  0  0
   -6.7351   -9.6047   34.8149 C   0  0  0  0  0  0  0  0  0  0  0  0
  1  2  1  6  0  0  0
  1  6  1  0  0  0  0
  1 21  1  0  0  0  0
  3  4  1  1  0  0  0
  3  8  1  0  0  0  0
  3 28  1  0  0  0  0
  5  9  1  0  0  0  0
  5 25  1  0  0  0  0
  5 29  1  6  0  0  0
  6  7  1  6  0  0  0
  6 11  1  0  0  0  0
  8 12  1  0  0  0  0
  9 10  1  6  0  0  0
  9 14  1  0  0  0  0
 11 16  1  0  0  0  0
 12 13  1  6  0  0  0
 12 17  1  0  0  0  0
 14 15  1  1  0  0  0
 14 18  1  0  0  0  0
 15 31  1  0  0  0  0
 16 20  1  0  0  0  0
 17  2  1  6  0  0  0
 17 22  1  0  0  0  0
 18 19  1  1  0  0  0
 18 24  1  0  0  0  0
 18 30  1  0  0  0  0
 20 21  1  0  0  0  0
 20 26  1  1  0  0  0
 22 23  1  1  0  0  0
 22 28  1  0  0  0  0
 24 25  1  0  0  0  0
 26 27  1  0  0  0  0
 28 29  1  1  0  0  0
M  END
>  <CHROM.1>
-163.67774924,-160.03457384,-74.57350122,-152.82307859,-68.21297585,75.28307185
-1.33016834,-8.89005293,31.95440413,0.41418812,0.91688148,-0.20410528

>  <Name>
2et3_lig

>  <RI>
0

>  <Rbt.Current_Directory>
/home/itssahil/PROJECTS/Mol_Feturizer/New_Systems/rnas/2et3

>  <Rbt.Executable>
rbdock ($Id: //depot/dev/client3/rdock/2013.1/src/exe/rbdock.cxx#4 $)

>  <Rbt.Library>
libRbt.so (2013.1, Build901 2013/11/27)

>  <Rbt.Parameter_File>
/export/apps/rDock/src/rDock_2013.1_src/data/scripts/dock_solv.prm

>  <Rbt.Receptor>
prm/pocket_docking_2.prm

>  <SCORE>
-32.5563

>  <SCORE.INTER>
-24.8826

>  <SCORE.INTER.CONST>
1

>  <SCORE.INTER.POLAR>
-0.938083

>  <SCORE.INTER.ROT>
6

>  <SCORE.INTER.SOLV>
16.8494

>  <SCORE.INTER.VDW>
-26.6779

>  <SCORE.INTER.norm>
-0.802664

>  <SCORE.INTRA>
-7.67521

>  <SCORE.INTRA.DIHEDRAL>
-14.5286

>  <SCORE.INTRA.DIHEDRAL.0>
22.2484

>  <SCORE.INTRA.POLAR>
0

>  <SCORE.INTRA.POLAR.0>
0

>  <SCORE.INTRA.REPUL>
0

>  <SCORE.INTRA.REPUL.0>
0

>  <SCORE.INTRA.SOLV>
-1.63926

>  <SCORE.INTRA.SOLV.lig_0>
-75.7198

>  <SCORE.INTRA.VDW>
0.408713

>  <SCORE.INTRA.VDW.0>
-3.34171

>  <SCORE.INTRA.norm>
-0.247587

>  <SCORE.RESTR>
0.0014505

>  <SCORE.RESTR.CAVITY>
0.0014505

>  <SCORE.RESTR.norm>
4.67904e-05

>  <SCORE.SYSTEM>
0

>  <SCORE.SYSTEM.CONST>
0

>  <SCORE.SYSTEM.DIHEDRAL>
0

>  <SCORE.SYSTEM.SOLV>
0

>  <SCORE.SYSTEM.norm>
0

>  <SCORE.heavy>
31

>  <SCORE.norm>
-1.0502

>  <RMSD>
0.891

$$$$
2et3_lig
 OpenBabel11021811423D
libRbt.so/2013.1/901 2013/11/27
 31 33  0  0  0  0  0  0  0  0999 V2000
    0.1927   -6.7338   29.4621 C   0  0  2  0  0  0  0  0  0  0  0  0
   -0.4102   -8.0307   29.2160 O   0  0  0  0  0  0  0  0  0  0  0  0
   -1.1292  -11.5167   31.5904 C   0  0  2  0  0  0  0  0  0  0  0  0
   -0.9181  -12.5426   32.5644 N   0  0  0  0  0  0  0  0  0  0  0  0
   -2.1386  -10.7957   34.5391 C   0  0  2  0  0  0  0  0  0  0  0  0
   -0.4833   -5.6734   28.5864 C   0  0  2  0  0  0  0  0  0  0  0  0
   -1.8885   -5.6894   28.8536 N   0  0  0  0  0  0  0  0  0  0  0  0
    0.0066  -11.5730   30.5184 C   0  0  0  0  0  0  0  0  0  0  0  0
   -3.5991  -10.9582   35.0145 C   0  0  2  0  0  0  0  0  0  0  0  0
   -4.3083  -11.7175   34.0612 O   0  0  0  0  0  0  0  0  0  0  0  0
   -0.1740   -5.9361   27.0729 C   0  0  0  0  0  0  0  0  0  0  0  0
   -0.2126  -10.4423   29.4476 C   0  0  2  0  0  0  0  0  0  0  0  0
    0.8549  -10.4908   28.4358 N   0  0  0  0  0  0  0  0  0  0  0  0
   -4.2178   -9.5118   35.1939 C   0  0  1  0  0  0  0  0  0  0  0  0
   -5.6567   -9.5784   35.6110 N   0  0  0  0  0  0  0  0  0  0  0  0
    1.3733   -5.8700   26.8778 C   0  0  0  0  0  0  0  0  0  0  0  0
   -0.2383   -9.0369   30.1622 C   0  0  2  0  0  0  0  0  0  0  0  0
   -3.3643   -8.6686   36.2822 C   0  0  1  0  0  0  0  0  0  0  0  0
   -3.4102   -9.2786   37.5555 O   0  0  0  0  0  0  0  0  0  0  0  0
    2.0504   -6.9604   27.8198 C   0  0  2  0  0  0  0  0  0  0  0  0
    1.6599   -6.8026   29.2198 O   0  0  0  0  0  0  0  0  0  0  0  0
   -1.3916   -9.0125   31.2379 C   0  0  2  0  0  0  0  0  0  0  0  0
   -1.4349   -7.7491   31.8935 O   0  0  0  0  0  0  0  0  0  0  0  0
   -1.8710   -8.6214   35.8336 C   0  0  0  0  0  0  0  0  0  0  0  0
   -1.3640  -10.0027   35.5371 O   0  0  0  0  0  0  0  0  0  0  0  0
    3.5564   -7.0168   27.7166 C   0  0  0  0  0  0  0  0  0  0  0  0
    4.0826   -8.2503   28.2393 N   0  0  0  0  0  0  0  0  0  0  0  0
   -1.1569  -10.1476   32.2956 C   0  0  1  0  0  0  0  0  0  0  0  0
   -2.2097  -10.1136   33.2514 O   0  0  0  0  0  0  0  0  0  0  0  0
   -3.8270   -7.2324   36.5629 C   0  0  0  0  0  0  0  0  0  0  0  0
   -6.6673   -9.5621   34.5402 C   0  0  0  0  0  0  0  0  0  0  0  0
  1  2  1  6  0  0  0
  1  6  1  0  0  0  0
  1 21  1  0  0  0  0
  3  4  1  1  0  0  0
  3  8  1  0  0  0  0
  3 28  1  0  0  0  0
  5  9  1  0  0  0  0
  5 25  1  0  0  0  0
  5 29  1  6  0  0  0
  6  7  1  6  0  0  0
  6 11  1  0  0  0  0
  8 12  1  0  0  0  0
  9 10  1  6  0  0  0
  9 14  1  0  0  0  0
 11 16  1  0  0  0  0
 12 13  1  6  0  0  0
 12 17  1  0  0  0  0
 14 15  1  1  0  0  0
 14 18  1  0  0  0  0
 15 31  1  0  0  0  0
 16 20  1  0  0  0  0
 17  2  1  6  0  0  0
 17 22  1  0  0  0  0
 18 19  1  1  0  0  0
 18 24  1  0  0  0  0
 18 30  1  0  0  0  0
 20 21  1  0  0  0  0
 20 26  1  1  0  0  0
 22 23  1  1  0  0  0
 22 28  1  0  0  0  0
 24 25  1  0  0  0  0
 26 27  1  0  0  0  0
 28 29  1  1  0  0  0
M  END
>  <CHROM.1>
-161.03961703,-159.43263873,-92.02252655,-148.53362856,-161.90951936,75.34740370
-1.25979819,-8.88597498,31.82434534,0.57470734,0.85352819,-0.37887489

>  <Name>
2et3_lig

>  <RI>
0

>  <Rbt.Current_Directory>
/home/itssahil/PROJECTS/Mol_Feturizer/New_Systems/rnas/2et3

>  <Rbt.Executable>
rbdock ($Id: //depot/dev/client3/rdock/2013.1/src/exe/rbdock.cxx#4 $)

>  <Rbt.Library>
libRbt.so (2013.1, Build901 2013/11/27)

>  <Rbt.Parameter_File>
/export/apps/rDock/src/rDock_2013.1_src/data/scripts/dock_solv.prm

>  <Rbt.Receptor>
prm/pocket_docking_2.prm

>  <SCORE>
-30.6728

>  <SCORE.INTER>
-23.9581

>  <SCORE.INTER.CONST>
1

>  <SCORE.INTER.POLAR>
-0.938083

>  <SCORE.INTER.ROT>
6

>  <SCORE.INTER.SOLV>
19.8742

>  <SCORE.INTER.VDW>
-27.0699

>  <SCORE.INTER.norm>
-0.772841

>  <SCORE.INTRA>
-6.71473

>  <SCORE.INTRA.DIHEDRAL>
-11.8578

>  <SCORE.INTRA.DIHEDRAL.0>
22.2484

>  <SCORE.INTRA.POLAR>
0

>  <SCORE.INTRA.POLAR.0>
0

>  <SCORE.INTRA.REPUL>
0

>  <SCORE.INTRA.REPUL.0>
0

>  <SCORE.INTRA.SOLV>
-0.791401

>  <SCORE.INTRA.SOLV.lig_0>
-75.7198

>  <SCORE.INTRA.VDW>
-0.390142

>  <SCORE.INTRA.VDW.0>
-3.34171

>  <SCORE.INTRA.norm>
-0.216604

>  <SCORE.RESTR>
0

>  <SCORE.RESTR.CAVITY>
0

>  <SCORE.RESTR.norm>
0

>  <SCORE.SYSTEM>
0

>  <SCORE.SYSTEM.CONST>
0

>  <SCORE.SYSTEM.DIHEDRAL>
0

>  <SCORE.SYSTEM.SOLV>
0

>  <SCORE.SYSTEM.norm>
0

>  <SCORE.heavy>
31

>  <SCORE.norm>
-0.989446

>  <RMSD>
0.893

$$$$
2et3_lig
 OpenBabel11021811423D
libRbt.so/2013.1/901 2013/11/27
 31 33  0  0  0  0  0  0  0  0999 V2000
    0.1688   -6.7889   29.6419 C   0  0  2  0  0  0  0  0  0  0  0  0
   -0.4904   -8.0558   29.3839 O   0  0  0  0  0  0  0  0  0  0  0  0
   -1.3197  -11.5384   31.7270 C   0  0  2  0  0  0  0  0  0  0  0  0
   -1.1335  -12.5901   32.6783 N   0  0  0  0  0  0  0  0  0  0  0  0
   -2.1822  -10.7848   34.7315 C   0  0  2  0  0  0  0  0  0  0  0  0
   -0.5258   -5.6733   28.8537 C   0  0  2  0  0  0  0  0  0  0  0  0
   -1.9112   -5.6580   29.2095 N   0  0  0  0  0  0  0  0  0  0  0  0
   -0.2218  -11.6362   30.6191 C   0  0  0  0  0  0  0  0  0  0  0  0
   -3.6303  -10.8913   35.2581 C   0  0  2  0  0  0  0  0  0  0  0  0
   -4.3989  -11.6304   34.3354 O   0  0  0  0  0  0  0  0  0  0  0  0
   -0.3208   -5.8822   27.3143 C   0  0  0  0  0  0  0  0  0  0  0  0
   -0.4136  -10.4779   29.5729 C   0  0  2  0  0  0  0  0  0  0  0  0
    0.6185  -10.5653   28.5275 N   0  0  0  0  0  0  0  0  0  0  0  0
   -4.1900   -9.4224   35.4478 C   0  0  1  0  0  0  0  0  0  0  0  0
   -5.6150   -9.4343   35.9147 N   0  0  0  0  0  0  0  0  0  0  0  0
    1.2126   -5.8547   27.0234 C   0  0  0  0  0  0  0  0  0  0  0  0
   -0.3431   -9.0852   30.3090 C   0  0  2  0  0  0  0  0  0  0  0  0
   -3.2695   -8.6040   36.4998 C   0  0  1  0  0  0  0  0  0  0  0  0
   -3.2932   -9.2040   37.7785 O   0  0  0  0  0  0  0  0  0  0  0  0
    1.9114   -7.0030   27.8763 C   0  0  2  0  0  0  0  0  0  0  0  0
    1.6149   -6.8917   29.3036 O   0  0  0  0  0  0  0  0  0  0  0  0
   -1.4601   -9.0184   31.4206 C   0  0  2  0  0  0  0  0  0  0  0  0
   -1.4165   -7.7656   32.0962 O   0  0  0  0  0  0  0  0  0  0  0  0
   -1.7919   -8.6137   35.9998 C   0  0  0  0  0  0  0  0  0  0  0  0
   -1.3455  -10.0142   35.6964 O   0  0  0  0  0  0  0  0  0  0  0  0
    3.4053   -7.1004   27.6748 C   0  0  0  0  0  0  0  0  0  0  0  0
    3.9334   -8.3409   28.1789 N   0  0  0  0  0  0  0  0  0  0  0  0
   -1.2534  -10.1817   32.4532 C   0  0  1  0  0  0  0  0  0  0  0  0
   -2.2733  -10.1086   33.4420 O   0  0  0  0  0  0  0  0  0  0  0  0
   -3.6702   -7.1503   36.7856 C   0  0  0  0  0  0  0  0  0  0  0  0
   -6.6555   -9.6203   34.8895 C   0  0  0  0  0  0  0  0  0  0  0  0
  1  2  1  6  0  0  0
  1  6  1  0  0  0  0
  1 21  1  0  0  0  0
  3  4  1  1  0  0  0
  3  8  1  0  0  0  0
  3 28  1  0  0  0  0
  5  9  1  0  0  0  0
  5 25  1  0  0  0  0
  5 29  1  6  0  0  0
  6  7  1  6  0  0  0
  6 11  1  0  0  0  0
  8 12  1  0  0  0  0
  9 10  1  6  0  0  0
  9 14  1  0  0  0  0
 11 16  1  0  0  0  0
 12 13  1  6  0  0  0
 12 17  1  0  0  0  0
 14 15  1  1  0  0  0
 14 18  1  0  0  0  0
 15 31  1  0  0  0  0
 16 20  1  0  0  0  0
 17  2  1  6  0  0  0
 17 22  1  0  0  0  0
 18 19  1  1  0  0  0
 18 24  1  0  0  0  0
 18 30  1  0  0  0  0
 20 21  1  0  0  0  0
 20 26  1  1  0  0  0
 22 23  1  1  0  0  0
 22 28  1  0  0  0  0
 24 25  1  0  0  0  0
 26 27  1  0  0  0  0
 28 29  1  1  0  0  0
M  END
>  <CHROM.1>
-158.07331163,-159.72456272,-81.84278718,-149.57462049,-165.00141292,77.10972990
-1.32130550,-8.88817400,32.00078857,0.49514632,0.91371163,-0.28257971

>  <Name>
2et3_lig

>  <RI>
0

>  <Rbt.Current_Directory>
/home/itssahil/PROJECTS/Mol_Feturizer/New_Systems/rnas/2et3

>  <Rbt.Executable>
rbdock ($Id: //depot/dev/client3/rdock/2013.1/src/exe/rbdock.cxx#4 $)

>  <Rbt.Library>
libRbt.so (2013.1, Build901 2013/11/27)

>  <Rbt.Parameter_File>
/export/apps/rDock/src/rDock_2013.1_src/data/scripts/dock_solv.prm

>  <Rbt.Receptor>
prm/pocket_docking_3.prm

>  <SCORE>
-30.6304

>  <SCORE.INTER>
-24.0727

>  <SCORE.INTER.CONST>
1

>  <SCORE.INTER.POLAR>
-0.938083

>  <SCORE.INTER.ROT>
6

>  <SCORE.INTER.SOLV>
19.4643

>  <SCORE.INTER.VDW>
-27.0096

>  <SCORE.INTER.norm>
-0.776539

>  <SCORE.INTRA>
-6.57056

>  <SCORE.INTRA.DIHEDRAL>
-11.9931

>  <SCORE.INTRA.DIHEDRAL.0>
22.2484

>  <SCORE.INTRA.POLAR>
0

>  <SCORE.INTRA.POLAR.0>
0

>  <SCORE.INTRA.REPUL>
0

>  <SCORE.INTRA.REPUL.0>
0

>  <SCORE.INTRA.SOLV>
-0.836998

>  <SCORE.INTRA.SOLV.lig_0>
-75.7198

>  <SCORE.INTRA.VDW>
-0.155502

>  <SCORE.INTRA.VDW.0>
-3.34171

>  <SCORE.INTRA.norm>
-0.211954

>  <SCORE.RESTR>
0.0128377

>  <SCORE.RESTR.CAVITY>
0.0128377

>  <SCORE.RESTR.norm>
0.000414118

>  <SCORE.SYSTEM>
0

>  <SCORE.SYSTEM.CONST>
0

>  <SCORE.SYSTEM.DIHEDRAL>
0

>  <SCORE.SYSTEM.SOLV>
0

>  <SCORE.SYSTEM.norm>
0

>  <SCORE.heavy>
31

>  <SCORE.norm>
-0.988079

>  <RMSD>
0.901

$$$$
2et3_lig
 OpenBabel11021811423D
libRbt.so/2013.1/901 2013/11/27
 31 33  0  0  0  0  0  0  0  0999 V2000
    0.1441   -6.8679   29.5882 C   0  0  2  0  0  0  0  0  0  0  0  0
   -0.4793   -8.1537   29.3343 O   0  0  0  0  0  0  0  0  0  0  0  0
   -1.3275  -11.5766   31.7573 C   0  0  2  0  0  0  0  0  0  0  0  0
   -1.1463  -12.6078   32.7316 N   0  0  0  0  0  0  0  0  0  0  0  0
   -2.1909  -10.7746   34.7343 C   0  0  2  0  0  0  0  0  0  0  0  0
   -0.4304   -5.8159   28.6334 C   0  0  2  0  0  0  0  0  0  0  0  0
   -1.8515   -5.7825   28.7932 N   0  0  0  0  0  0  0  0  0  0  0  0
   -0.2332  -11.7073   30.6493 C   0  0  0  0  0  0  0  0  0  0  0  0
   -3.6431  -10.8612   35.2530 C   0  0  2  0  0  0  0  0  0  0  0  0
   -4.4158  -11.5937   34.3284 O   0  0  0  0  0  0  0  0  0  0  0  0
   -0.0165   -6.1344   27.1561 C   0  0  0  0  0  0  0  0  0  0  0  0
   -0.4194  -10.5715   29.5777 C   0  0  2  0  0  0  0  0  0  0  0  0
    0.6092  -10.6899   28.5319 N   0  0  0  0  0  0  0  0  0  0  0  0
   -4.1853   -9.3848   35.4348 C   0  0  1  0  0  0  0  0  0  0  0  0
   -5.6130   -9.3773   35.8936 N   0  0  0  0  0  0  0  0  0  0  0  0
    1.5425   -6.1197   27.0776 C   0  0  0  0  0  0  0  0  0  0  0  0
   -0.3370   -9.1630   30.2820 C   0  0  2  0  0  0  0  0  0  0  0  0
   -3.2606   -8.5745   36.4893 C   0  0  1  0  0  0  0  0  0  0  0  0
   -3.2990   -9.1699   37.7697 O   0  0  0  0  0  0  0  0  0  0  0  0
    2.1119   -7.1997   28.0993 C   0  0  2  0  0  0  0  0  0  0  0  0
    1.6224   -6.9872   29.4604 O   0  0  0  0  0  0  0  0  0  0  0  0
   -1.4505   -9.0631   31.3946 C   0  0  2  0  0  0  0  0  0  0  0  0
   -1.3961   -7.7957   32.0417 O   0  0  0  0  0  0  0  0  0  0  0  0
   -1.7805   -8.6043   35.9977 C   0  0  0  0  0  0  0  0  0  0  0  0
   -1.3500  -10.0113   35.7013 O   0  0  0  0  0  0  0  0  0  0  0  0
    3.6189   -7.3034   28.1128 C   0  0  0  0  0  0  0  0  0  0  0  0
    4.1302   -7.8284   26.8739 N   0  0  0  0  0  0  0  0  0  0  0  0
   -1.2495  -10.2043   32.4526 C   0  0  1  0  0  0  0  0  0  0  0  0
   -2.2662  -10.1015   33.4421 O   0  0  0  0  0  0  0  0  0  0  0  0
   -3.6447   -7.1149   36.7681 C   0  0  0  0  0  0  0  0  0  0  0  0
   -6.6487   -9.5849   34.8677 C   0  0  0  0  0  0  0  0  0  0  0  0
  1  2  1  6  0  0  0
  1  6  1  0  0  0  0
  1 21  1  0  0  0  0
  3  4  1  1  0  0  0
  3  8  1  0  0  0  0
  3 28  1  0  0  0  0
  5  9  1  0  0  0  0
  5 25  1  0  0  0  0
  5 29  1  6  0  0  0
  6  7  1  6  0  0  0
  6 11  1  0  0  0  0
  8 12  1  0  0  0  0
  9 10  1  6  0  0  0
  9 14  1  0  0  0  0
 11 16  1  0  0  0  0
 12 13  1  6  0  0  0
 12 17  1  0  0  0  0
 14 15  1  1  0  0  0
 14 18  1  0  0  0  0
 15 31  1  0  0  0  0
 16 20  1  0  0  0  0
 17  2  1  6  0  0  0
 17 22  1  0  0  0  0
 18 19  1  1  0  0  0
 18 24  1  0  0  0  0
 18 30  1  0  0  0  0
 20 21  1  0  0  0  0
 20 26  1  1  0  0  0
 22 23  1  1  0  0  0
 22 28  1  0  0  0  0
 24 25  1  0  0  0  0
 26 27  1  0  0  0  0
 28 29  1  1  0  0  0
M  END
>  <CHROM.1>
-165.15038140,-158.90690301,-80.46077076,-152.08227299,-67.07239517,75.63314075
-1.27675157,-8.92389849,31.95582220,0.42546948,0.92833350,-0.21775423

>  <Name>
2et3_lig

>  <RI>
0

>  <Rbt.Current_Directory>
/home/itssahil/PROJECTS/Mol_Feturizer/New_Systems/rnas/2et3

>  <Rbt.Executable>
rbdock ($Id: //depot/dev/client3/rdock/2013.1/src/exe/rbdock.cxx#4 $)

>  <Rbt.Library>
libRbt.so (2013.1, Build901 2013/11/27)

>  <Rbt.Parameter_File>
/export/apps/rDock/src/rDock_2013.1_src/data/scripts/dock_solv.prm

>  <Rbt.Receptor>
prm/pocket_docking_3.prm

>  <SCORE>
-32.9391

>  <SCORE.INTER>
-25.148

>  <SCORE.INTER.CONST>
1

>  <SCORE.INTER.POLAR>
-0.938083

>  <SCORE.INTER.ROT>
6

>  <SCORE.INTER.SOLV>
16.9272

>  <SCORE.INTER.VDW>
-26.8808

>  <SCORE.INTER.norm>
-0.811225

>  <SCORE.INTRA>
-7.796

>  <SCORE.INTRA.DIHEDRAL>
-14.2665

>  <SCORE.INTRA.DIHEDRAL.0>
22.2484

>  <SCORE.INTRA.POLAR>
0

>  <SCORE.INTRA.POLAR.0>
0

>  <SCORE.INTRA.REPUL>
0

>  <SCORE.INTRA.REPUL.0>
0

>  <SCORE.INTRA.SOLV>
-1.61691

>  <SCORE.INTRA.SOLV.lig_0>
-75.7198

>  <SCORE.INTRA.VDW>
0.145708

>  <SCORE.INTRA.VDW.0>
-3.34171

>  <SCORE.INTRA.norm>
-0.251484

>  <SCORE.RESTR>
0.00490476

>  <SCORE.RESTR.CAVITY>
0.00490476

>  <SCORE.RESTR.norm>
0.000158218

>  <SCORE.SYSTEM>
0

>  <SCORE.SYSTEM.CONST>
0

>  <SCORE.SYSTEM.DIHEDRAL>
0

>  <SCORE.SYSTEM.SOLV>
0

>  <SCORE.SYSTEM.norm>
0

>  <SCORE.heavy>
31

>  <SCORE.norm>
-1.06255

>  <RMSD>
0.906

$$$$
2et3_lig
 OpenBabel11021811423D
libRbt.so/2013.1/901 2013/11/27
 31 33  0  0  0  0  0  0  0  0999 V2000
    0.2722   -6.7343   29.4393 C   0  0  2  0  0  0  0  0  0  0  0  0
   -0.4037   -7.9984   29.2124 O   0  0  0  0  0  0  0  0  0  0  0  0
   -1.1123  -11.5420   31.5030 C   0  0  2  0  0  0  0  0  0  0  0  0
   -0.9018  -12.5861   32.4576 N   0  0  0  0  0  0  0  0  0  0  0  0
   -2.1586  -10.8783   34.4623 C   0  0  2  0  0  0  0  0  0  0  0  0
   -0.3638   -5.6435   28.5710 C   0  0  2  0  0  0  0  0  0  0  0  0
   -1.7622   -5.5833   28.8658 N   0  0  0  0  0  0  0  0  0  0  0  0
    0.0372  -11.5628   30.4446 C   0  0  0  0  0  0  0  0  0  0  0  0
   -3.6170  -11.0128   34.9530 C   0  0  2  0  0  0  0  0  0  0  0  0
   -4.3526  -11.7510   34.0031 O   0  0  0  0  0  0  0  0  0  0  0  0
   -0.0991   -5.9292   27.0532 C   0  0  0  0  0  0  0  0  0  0  0  0
   -0.1815  -10.4120   29.3953 C   0  0  2  0  0  0  0  0  0  0  0  0
    0.8990  -10.4270   28.3964 N   0  0  0  0  0  0  0  0  0  0  0  0
   -4.2027   -9.5547   35.1479 C   0  0  1  0  0  0  0  0  0  0  0  0
   -5.6380   -9.5935   35.5806 N   0  0  0  0  0  0  0  0  0  0  0  0
    1.4454   -5.9466   26.8275 C   0  0  0  0  0  0  0  0  0  0  0  0
   -0.2321   -9.0225   30.1392 C   0  0  2  0  0  0  0  0  0  0  0  0
   -3.3196   -8.7367   36.2317 C   0  0  1  0  0  0  0  0  0  0  0  0
   -3.3643   -9.3535   37.5017 O   0  0  0  0  0  0  0  0  0  0  0  0
    2.0821   -7.0671   27.7622 C   0  0  2  0  0  0  0  0  0  0  0  0
    1.7285   -6.8823   29.1686 O   0  0  0  0  0  0  0  0  0  0  0  0
   -1.3989   -9.0339   31.2004 C   0  0  2  0  0  0  0  0  0  0  0  0
   -1.4648   -7.7854   31.8821 O   0  0  0  0  0  0  0  0  0  0  0  0
   -1.8306   -8.7183   35.7667 C   0  0  0  0  0  0  0  0  0  0  0  0
   -1.3564  -10.1081   35.4563 O   0  0  0  0  0  0  0  0  0  0  0  0
    3.5806   -7.2042   27.6298 C   0  0  0  0  0  0  0  0  0  0  0  0
    4.0560   -8.4428   28.1881 N   0  0  0  0  0  0  0  0  0  0  0  0
   -1.1645  -10.1887   32.2367 C   0  0  1  0  0  0  0  0  0  0  0  0
   -2.2295  -10.1868   33.1796 O   0  0  0  0  0  0  0  0  0  0  0  0
   -3.7485   -7.2928   36.5261 C   0  0  0  0  0  0  0  0  0  0  0  0
   -6.6598   -9.5435   34.5216 C   0  0  0  0  0  0  0  0  0  0  0  0
  1  2  1  6  0  0  0
  1  6  1  0  0  0  0
  1 21  1  0  0  0  0
  3  4  1  1  0  0  0
  3  8  1  0  0  0  0
  3 28  1  0  0  0  0
  5  9  1  0  0  0  0
  5 25  1  0  0  0  0
  5 29  1  6  0  0  0
  6  7  1  6  0  0  0
  6 11  1  0  0  0  0
  8 12  1  0  0  0  0
  9 10  1  6  0  0  0
  9 14  1  0  0  0  0
 11 16  1  0  0  0  0
 12 13  1  6  0  0  0
 12 17  1  0  0  0  0
 14 15  1  1  0  0  0
 14 18  1  0  0  0  0
 15 31  1  0  0  0  0
 16 20  1  0  0  0  0
 17  2  1  6  0  0  0
 17 22  1  0  0  0  0
 18 19  1  1  0  0  0
 18 24  1  0  0  0  0
 18 30  1  0  0  0  0
 20 21  1  0  0  0  0
 20 26  1  1  0  0  0
 22 23  1  1  0  0  0
 22 28  1  0  0  0  0
 24 25  1  0  0  0  0
 26 27  1  0  0  0  0
 28 29  1  1  0  0  0
M  END
>  <CHROM.1>
-163.07380854,-162.28792682,-92.26555099,-143.53201047,-163.78016307,76.32693642
-1.23349682,-8.92541438,31.77646661,0.57173198,0.85038018,-0.37681903

>  <Name>
2et3_lig

>  <RI>
0

>  <Rbt.Current_Directory>
/home/itssahil/PROJECTS/Mol_Feturizer/New_Systems/rnas/2et3

>  <Rbt.Executable>
rbdock ($Id: //depot/dev/client3/rdock/2013.1/src/exe/rbdock.cxx#4 $)

>  <Rbt.Library>
libRbt.so (2013.1, Build901 2013/11/27)

>  <Rbt.Parameter_File>
/export/apps/rDock/src/rDock_2013.1_src/data/scripts/dock_solv.prm

>  <Rbt.Receptor>
prm/pocket_docking_2.prm

>  <SCORE>
-30.8361

>  <SCORE.INTER>
-24.259

>  <SCORE.INTER.CONST>
1

>  <SCORE.INTER.POLAR>
-0.938083

>  <SCORE.INTER.ROT>
6

>  <SCORE.INTER.SOLV>
19.5043

>  <SCORE.INTER.VDW>
-27.1471

>  <SCORE.INTER.norm>
-0.782548

>  <SCORE.INTRA>
-6.57709

>  <SCORE.INTRA.DIHEDRAL>
-11.7506

>  <SCORE.INTRA.DIHEDRAL.0>
22.2484

>  <SCORE.INTRA.POLAR>
0

>  <SCORE.INTRA.POLAR.0>
0

>  <SCORE.INTRA.REPUL>
0

>  <SCORE.INTRA.REPUL.0>
0

>  <SCORE.INTRA.SOLV>
-0.357671

>  <SCORE.INTRA.SOLV.lig_0>
-75.7198

>  <SCORE.INTRA.VDW>
-0.522956

>  <SCORE.INTRA.VDW.0>
-3.34171

>  <SCORE.INTRA.norm>
-0.212164

>  <SCORE.RESTR>
0

>  <SCORE.RESTR.CAVITY>
0

>  <SCORE.RESTR.norm>
0

>  <SCORE.SYSTEM>
0

>  <SCORE.SYSTEM.CONST>
0

>  <SCORE.SYSTEM.DIHEDRAL>
0

>  <SCORE.SYSTEM.SOLV>
0

>  <SCORE.SYSTEM.norm>
0

>  <SCORE.heavy>
31

>  <SCORE.norm>
-0.994712

>  <RMSD>
0.909

$$$$
2et3_lig
 OpenBabel11021811423D
libRbt.so/2013.1/901 2013/11/27
 31 33  0  0  0  0  0  0  0  0999 V2000
    0.2012   -6.7409   29.4447 C   0  0  2  0  0  0  0  0  0  0  0  0
   -0.4150   -8.0323   29.2020 O   0  0  0  0  0  0  0  0  0  0  0  0
   -1.1147  -11.5464   31.5403 C   0  0  2  0  0  0  0  0  0  0  0  0
   -0.9030  -12.5752   32.5111 N   0  0  0  0  0  0  0  0  0  0  0  0
   -2.1892  -10.8649   34.4744 C   0  0  2  0  0  0  0  0  0  0  0  0
   -0.4708   -5.6741   28.5737 C   0  0  2  0  0  0  0  0  0  0  0  0
   -1.8744   -5.6776   28.8498 N   0  0  0  0  0  0  0  0  0  0  0  0
    0.0406  -11.5756   30.4883 C   0  0  0  0  0  0  0  0  0  0  0  0
   -3.6484  -10.9646   34.9709 C   0  0  2  0  0  0  0  0  0  0  0  0
   -4.4047  -11.6867   34.0249 O   0  0  0  0  0  0  0  0  0  0  0  0
   -0.1735   -5.9389   27.0581 C   0  0  0  0  0  0  0  0  0  0  0  0
   -0.1794  -10.4416   29.4212 C   0  0  2  0  0  0  0  0  0  0  0  0
    0.9065  -10.4645   28.4283 N   0  0  0  0  0  0  0  0  0  0  0  0
   -4.1992   -9.4930   35.1659 C   0  0  1  0  0  0  0  0  0  0  0  0
   -5.6334   -9.4976   35.6041 N   0  0  0  0  0  0  0  0  0  0  0  0
    1.3732   -5.8867   26.8533 C   0  0  0  0  0  0  0  0  0  0  0  0
   -0.2423   -9.0418   30.1445 C   0  0  2  0  0  0  0  0  0  0  0  0
   -3.2930   -8.6943   36.2451 C   0  0  1  0  0  0  0  0  0  0  0  0
   -3.3473   -9.3081   37.5162 O   0  0  0  0  0  0  0  0  0  0  0  0
    2.0463   -6.9835   27.7906 C   0  0  2  0  0  0  0  0  0  0  0  0
    1.6661   -6.8228   29.1931 O   0  0  0  0  0  0  0  0  0  0  0  0
   -1.4146   -9.0448   31.1997 C   0  0  2  0  0  0  0  0  0  0  0  0
   -1.4916   -7.7869   31.8627 O   0  0  0  0  0  0  0  0  0  0  0  0
   -1.8058   -8.7114   35.7744 C   0  0  0  0  0  0  0  0  0  0  0  0
   -1.3655  -10.1123   35.4643 O   0  0  0  0  0  0  0  0  0  0  0  0
    3.5510   -7.0535   27.6779 C   0  0  0  0  0  0  0  0  0  0  0  0
    4.0700   -8.2895   28.2021 N   0  0  0  0  0  0  0  0  0  0  0  0
   -1.1788  -10.1828   32.2538 C   0  0  1  0  0  0  0  0  0  0  0  0
   -2.2488  -10.1737   33.1910 O   0  0  0  0  0  0  0  0  0  0  0  0
   -3.6869   -7.2403   36.5390 C   0  0  0  0  0  0  0  0  0  0  0  0
   -6.6577   -9.5545   34.5479 C   0  0  0  0  0  0  0  0  0  0  0  0
  1  2  1  6  0  0  0
  1  6  1  0  0  0  0
  1 21  1  0  0  0  0
  3  4  1  1  0  0  0
  3  8  1  0  0  0  0
  3 28  1  0  0  0  0
  5  9  1  0  0  0  0
  5 25  1  0  0  0  0
  5 29  1  6  0  0  0
  6  7  1  6  0  0  0
  6 11  1  0  0  0  0
  8 12  1  0  0  0  0
  9 10  1  6  0  0  0
  9 14  1  0  0  0  0
 11 16  1  0  0  0  0
 12 13  1  6  0  0  0
 12 17  1  0  0  0  0
 14 15  1  1  0  0  0
 14 18  1  0  0  0  0
 15 31  1  0  0  0  0
 16 20  1  0  0  0  0
 17  2  1  6  0  0  0
 17 22  1  0  0  0  0
 18 19  1  1  0  0  0
 18 24  1  0  0  0  0
 18 30  1  0  0  0  0
 20 21  1  0  0  0  0
 20 26  1  1  0  0  0
 22 23  1  1  0  0  0
 22 28  1  0  0  0  0
 24 25  1  0  0  0  0
 26 27  1  0  0  0  0
 28 29  1  1  0  0  0
M  END
>  <CHROM.1>
-161.26210962,-163.39846750,-86.61111212,-146.35689525,-162.16344501,75.25770132
-1.25343211,-8.90392060,31.79266023,0.57992828,0.85059319,-0.38444052

>  <Name>
2et3_lig

>  <RI>
0

>  <Rbt.Current_Directory>
/home/itssahil/PROJECTS/Mol_Feturizer/New_Systems/rnas/2et3

>  <Rbt.Executable>
rbdock ($Id: //depot/dev/client3/rdock/2013.1/src/exe/rbdock.cxx#4 $)

>  <Rbt.Library>
libRbt.so (2013.1, Build901 2013/11/27)

>  <Rbt.Parameter_File>
/export/apps/rDock/src/rDock_2013.1_src/data/scripts/dock_solv.prm

>  <Rbt.Receptor>
prm/pocket_docking_2.prm

>  <SCORE>
-30.8228

>  <SCORE.INTER>
-24.016

>  <SCORE.INTER.CONST>
1

>  <SCORE.INTER.POLAR>
-0.938083

>  <SCORE.INTER.ROT>
6

>  <SCORE.INTER.SOLV>
19.5063

>  <SCORE.INTER.VDW>
-26.9858

>  <SCORE.INTER.norm>
-0.774711

>  <SCORE.INTRA>
-6.81095

>  <SCORE.INTRA.DIHEDRAL>
-12.3113

>  <SCORE.INTRA.DIHEDRAL.0>
22.2484

>  <SCORE.INTRA.POLAR>
0

>  <SCORE.INTRA.POLAR.0>
0

>  <SCORE.INTRA.REPUL>
0

>  <SCORE.INTRA.REPUL.0>
0

>  <SCORE.INTRA.SOLV>
-0.626874

>  <SCORE.INTRA.SOLV.lig_0>
-75.7198

>  <SCORE.INTRA.VDW>
-0.341854

>  <SCORE.INTRA.VDW.0>
-3.34171

>  <SCORE.INTRA.norm>
-0.219708

>  <SCORE.RESTR>
0.0041765

>  <SCORE.RESTR.CAVITY>
0.0041765

>  <SCORE.RESTR.norm>
0.000134726

>  <SCORE.SYSTEM>
0

>  <SCORE.SYSTEM.CONST>
0

>  <SCORE.SYSTEM.DIHEDRAL>
0

>  <SCORE.SYSTEM.SOLV>
0

>  <SCORE.SYSTEM.norm>
0

>  <SCORE.heavy>
31

>  <SCORE.norm>
-0.994284

>  <RMSD>
0.914

$$$$
2et3_lig
 OpenBabel11021811423D
libRbt.so/2013.1/901 2013/11/27
 31 33  0  0  0  0  0  0  0  0999 V2000
    0.2036   -6.8498   29.5145 C   0  0  2  0  0  0  0  0  0  0  0  0
   -0.3873   -8.1460   29.2376 O   0  0  0  0  0  0  0  0  0  0  0  0
   -1.1697  -11.6475   31.5687 C   0  0  2  0  0  0  0  0  0  0  0  0
   -0.9815  -12.6837   32.5363 N   0  0  0  0  0  0  0  0  0  0  0  0
   -2.2053  -10.9181   34.5220 C   0  0  2  0  0  0  0  0  0  0  0  0
   -0.4842   -5.7747   28.6662 C   0  0  2  0  0  0  0  0  0  0  0  0
   -1.8886   -5.8108   28.9353 N   0  0  0  0  0  0  0  0  0  0  0  0
   -0.0182  -11.7031   30.5136 C   0  0  0  0  0  0  0  0  0  0  0  0
   -3.6642  -11.0040   35.0220 C   0  0  2  0  0  0  0  0  0  0  0  0
   -4.4239  -11.7413   34.0905 O   0  0  0  0  0  0  0  0  0  0  0  0
   -0.1752   -5.9971   27.1462 C   0  0  0  0  0  0  0  0  0  0  0  0
   -0.2122  -10.5611   29.4500 C   0  0  2  0  0  0  0  0  0  0  0  0
    0.8702  -10.6089   28.4541 N   0  0  0  0  0  0  0  0  0  0  0  0
   -4.2102   -9.5273   35.1901 C   0  0  1  0  0  0  0  0  0  0  0  0
   -5.6438   -9.5193   35.6302 N   0  0  0  0  0  0  0  0  0  0  0  0
    1.3711   -5.9113   26.9503 C   0  0  0  0  0  0  0  0  0  0  0  0
   -0.2378   -9.1620   30.1770 C   0  0  2  0  0  0  0  0  0  0  0  0
   -3.3002   -8.7115   36.2531 C   0  0  1  0  0  0  0  0  0  0  0  0
   -3.3547   -9.3013   37.5355 O   0  0  0  0  0  0  0  0  0  0  0  0
    2.0603   -7.0180   27.8640 C   0  0  2  0  0  0  0  0  0  0  0  0
    1.6710   -6.8985   29.2681 O   0  0  0  0  0  0  0  0  0  0  0  0
   -1.4071   -9.1381   31.2353 C   0  0  2  0  0  0  0  0  0  0  0  0
   -1.4505   -7.8804   31.9017 O   0  0  0  0  0  0  0  0  0  0  0  0
   -1.8136   -8.7419   35.7810 C   0  0  0  0  0  0  0  0  0  0  0  0
   -1.3780  -10.1498   35.4966 O   0  0  0  0  0  0  0  0  0  0  0  0
    3.5665   -7.0574   27.7570 C   0  0  0  0  0  0  0  0  0  0  0  0
    4.1032   -8.3107   28.2185 N   0  0  0  0  0  0  0  0  0  0  0  0
   -1.1974  -10.2846   32.2859 C   0  0  1  0  0  0  0  0  0  0  0  0
   -2.2644  -10.2509   33.2260 O   0  0  0  0  0  0  0  0  0  0  0  0
   -3.6893   -7.2511   36.5204 C   0  0  0  0  0  0  0  0  0  0  0  0
   -6.6678   -9.6764   34.5838 C   0  0  0  0  0  0  0  0  0  0  0  0
  1  2  1  6  0  0  0
  1  6  1  0  0  0  0
  1 21  1  0  0  0  0
  3  4  1  1  0  0  0
  3  8  1  0  0  0  0
  3 28  1  0  0  0  0
  5  9  1  0  0  0  0
  5 25  1  0  0  0  0
  5 29  1  6  0  0  0
  6  7  1  6  0  0  0
  6 11  1  0  0  0  0
  8 12  1  0  0  0  0
  9 10  1  6  0  0  0
  9 14  1  0  0  0  0
 11 16  1  0  0  0  0
 12 13  1  6  0  0  0
 12 17  1  0  0  0  0
 14 15  1  1  0  0  0
 14 18  1  0  0  0  0
 15 31  1  0  0  0  0
 16 20  1  0  0  0  0
 17  2  1  6  0  0  0
 17 22  1  0  0  0  0
 18 19  1  1  0  0  0
 18 24  1  0  0  0  0
 18 30  1  0  0  0  0
 20 21  1  0  0  0  0
 20 26  1  1  0  0  0
 22 23  1  1  0  0  0
 22 28  1  0  0  0  0
 24 25  1  0  0  0  0
 26 27  1  0  0  0  0
 28 29  1  1  0  0  0
M  END
>  <CHROM.1>
-159.15505027,-163.17703008,-82.93865576,-149.51316366,-160.52197372,76.89009144
-1.26250825,-8.97381867,31.83510210,0.53474846,0.86729834,-0.32858790

>  <Name>
2et3_lig

>  <RI>
0

>  <Rbt.Current_Directory>
/home/itssahil/PROJECTS/Mol_Feturizer/New_Systems/rnas/2et3

>  <Rbt.Executable>
rbdock ($Id: //depot/dev/client3/rdock/2013.1/src/exe/rbdock.cxx#4 $)

>  <Rbt.Library>
libRbt.so (2013.1, Build901 2013/11/27)

>  <Rbt.Parameter_File>
/export/apps/rDock/src/rDock_2013.1_src/data/scripts/dock_solv.prm

>  <Rbt.Receptor>
prm/pocket_docking_2.prm

>  <SCORE>
-30.6995

>  <SCORE.INTER>
-23.8887

>  <SCORE.INTER.CONST>
1

>  <SCORE.INTER.POLAR>
-0.938083

>  <SCORE.INTER.ROT>
6

>  <SCORE.INTER.SOLV>
19.6544

>  <SCORE.INTER.VDW>
-26.9503

>  <SCORE.INTER.norm>
-0.770603

>  <SCORE.INTRA>
-6.82022

>  <SCORE.INTRA.DIHEDRAL>
-12.2305

>  <SCORE.INTRA.DIHEDRAL.0>
22.2484

>  <SCORE.INTRA.POLAR>
0

>  <SCORE.INTRA.POLAR.0>
0

>  <SCORE.INTRA.REPUL>
0

>  <SCORE.INTRA.REPUL.0>
0

>  <SCORE.INTRA.SOLV>
-0.940106

>  <SCORE.INTRA.SOLV.lig_0>
-75.7198

>  <SCORE.INTRA.VDW>
-0.23492

>  <SCORE.INTRA.VDW.0>
-3.34171

>  <SCORE.INTRA.norm>
-0.220007

>  <SCORE.RESTR>
0.00942444

>  <SCORE.RESTR.CAVITY>
0.00942444

>  <SCORE.RESTR.norm>
0.000304014

>  <SCORE.SYSTEM>
0

>  <SCORE.SYSTEM.CONST>
0

>  <SCORE.SYSTEM.DIHEDRAL>
0

>  <SCORE.SYSTEM.SOLV>
0

>  <SCORE.SYSTEM.norm>
0

>  <SCORE.heavy>
31

>  <SCORE.norm>
-0.990306

>  <RMSD>
0.916

$$$$
2et3_lig
 OpenBabel11021811423D
libRbt.so/2013.1/901 2013/11/27
 31 33  0  0  0  0  0  0  0  0999 V2000
    0.2154   -6.8027   29.5401 C   0  0  2  0  0  0  0  0  0  0  0  0
   -0.4853   -8.0517   29.3046 O   0  0  0  0  0  0  0  0  0  0  0  0
   -1.2478  -11.6086   31.5570 C   0  0  2  0  0  0  0  0  0  0  0  0
   -1.0544  -12.6644   32.5022 N   0  0  0  0  0  0  0  0  0  0  0  0
   -2.2780  -10.9133   34.5420 C   0  0  2  0  0  0  0  0  0  0  0  0
   -0.3028   -5.7284   28.5780 C   0  0  2  0  0  0  0  0  0  0  0  0
   -1.7181   -5.6087   28.7475 N   0  0  0  0  0  0  0  0  0  0  0  0
   -0.0937  -11.6331   30.5035 C   0  0  0  0  0  0  0  0  0  0  0  0
   -3.7280  -10.9840   35.0693 C   0  0  2  0  0  0  0  0  0  0  0  0
   -4.5102  -11.7231   34.1581 O   0  0  0  0  0  0  0  0  0  0  0  0
    0.0800   -6.0864   27.1012 C   0  0  0  0  0  0  0  0  0  0  0  0
   -0.2935  -10.4695   29.4647 C   0  0  2  0  0  0  0  0  0  0  0  0
    0.7913  -10.4880   28.4705 N   0  0  0  0  0  0  0  0  0  0  0  0
   -4.2599   -9.5019   35.2352 C   0  0  1  0  0  0  0  0  0  0  0  0
   -5.6850   -9.4794   35.7012 N   0  0  0  0  0  0  0  0  0  0  0  0
    1.6364   -6.1655   27.0115 C   0  0  0  0  0  0  0  0  0  0  0  0
   -0.3305   -9.0869   30.2220 C   0  0  2  0  0  0  0  0  0  0  0  0
   -3.3245   -8.6843   36.2745 C   0  0  1  0  0  0  0  0  0  0  0  0
   -3.3599   -9.2632   37.5626 O   0  0  0  0  0  0  0  0  0  0  0  0
    2.1485   -7.2667   28.0409 C   0  0  2  0  0  0  0  0  0  0  0  0
    1.6830   -7.0112   29.4030 O   0  0  0  0  0  0  0  0  0  0  0  0
   -1.5022   -9.0943   31.2779 C   0  0  2  0  0  0  0  0  0  0  0  0
   -1.5559   -7.8518   31.9714 O   0  0  0  0  0  0  0  0  0  0  0  0
   -1.8471   -8.7299   35.7756 C   0  0  0  0  0  0  0  0  0  0  0  0
   -1.4272  -10.1433   35.4950 O   0  0  0  0  0  0  0  0  0  0  0  0
    3.6466   -7.4598   28.0448 C   0  0  0  0  0  0  0  0  0  0  0  0
    4.1182   -8.0120   26.8020 N   0  0  0  0  0  0  0  0  0  0  0  0
   -1.2867  -10.2619   32.3037 C   0  0  1  0  0  0  0  0  0  0  0  0
   -2.3559  -10.2562   33.2418 O   0  0  0  0  0  0  0  0  0  0  0  0
   -3.6977   -7.2188   36.5367 C   0  0  0  0  0  0  0  0  0  0  0  0
   -6.7302   -9.5879   34.6697 C   0  0  0  0  0  0  0  0  0  0  0  0
  1  2  1  6  0  0  0
  1  6  1  0  0  0  0
  1 21  1  0  0  0  0
  3  4  1  1  0  0  0
  3  8  1  0  0  0  0
  3 28  1  0  0  0  0
  5  9  1  0  0  0  0
  5 25  1  0  0  0  0
  5 29  1  6  0  0  0
  6  7  1  6  0  0  0
  6 11  1  0  0  0  0
  8 12  1  0  0  0  0
  9 10  1  6  0  0  0
  9 14  1  0  0  0  0
 11 16  1  0  0  0  0
 12 13  1  6  0  0  0
 12 17  1  0  0  0  0
 14 15  1  1  0  0  0
 14 18  1  0  0  0  0
 15 31  1  0  0  0  0
 16 20  1  0  0  0  0
 17  2  1  6  0  0  0
 17 22  1  0  0  0  0
 18 19  1  1  0  0  0
 18 24  1  0  0  0  0
 18 30  1  0  0  0  0
 20 21  1  0  0  0  0
 20 26  1  1  0  0  0
 22 23  1  1  0  0  0
 22 28  1  0  0  0  0
 24 25  1  0  0  0  0
 26 27  1  0  0  0  0
 28 29  1  1  0  0  0
M  END
>  <CHROM.1>
-169.00243825,-165.70037730,-85.10736486,-142.93508585,-66.36223259,79.02710159
-1.27575004,-8.96095050,31.82268570,0.47281477,0.88738952,-0.26882614

>  <Name>
2et3_lig

>  <RI>
0

>  <Rbt.Current_Directory>
/home/itssahil/PROJECTS/Mol_Feturizer/New_Systems/rnas/2et3

>  <Rbt.Executable>
rbdock ($Id: //depot/dev/client3/rdock/2013.1/src/exe/rbdock.cxx#4 $)

>  <Rbt.Library>
libRbt.so (2013.1, Build901 2013/11/27)

>  <Rbt.Parameter_File>
/export/apps/rDock/src/rDock_2013.1_src/data/scripts/dock_solv.prm

>  <Rbt.Receptor>
prm/pocket_docking_2.prm

>  <SCORE>
-32.8025

>  <SCORE.INTER>
-25.1708

>  <SCORE.INTER.CONST>
1

>  <SCORE.INTER.POLAR>
-0.938083

>  <SCORE.INTER.ROT>
6

>  <SCORE.INTER.SOLV>
16.3408

>  <SCORE.INTER.VDW>
-26.7005

>  <SCORE.INTER.norm>
-0.811961

>  <SCORE.INTRA>
-7.64128

>  <SCORE.INTRA.DIHEDRAL>
-13.4364

>  <SCORE.INTRA.DIHEDRAL.0>
22.2484

>  <SCORE.INTRA.POLAR>
0

>  <SCORE.INTRA.POLAR.0>
0

>  <SCORE.INTRA.REPUL>
0

>  <SCORE.INTRA.REPUL.0>
0

>  <SCORE.INTRA.SOLV>
-1.29488

>  <SCORE.INTRA.SOLV.lig_0>
-75.7198

>  <SCORE.INTRA.VDW>
-0.275651

>  <SCORE.INTRA.VDW.0>
-3.34171

>  <SCORE.INTRA.norm>
-0.246493

>  <SCORE.RESTR>
0.00959639

>  <SCORE.RESTR.CAVITY>
0.00959639

>  <SCORE.RESTR.norm>
0.000309561

>  <SCORE.SYSTEM>
0

>  <SCORE.SYSTEM.CONST>
0

>  <SCORE.SYSTEM.DIHEDRAL>
0

>  <SCORE.SYSTEM.SOLV>
0

>  <SCORE.SYSTEM.norm>
0

>  <SCORE.heavy>
31

>  <SCORE.norm>
-1.05814

>  <RMSD>
0.921

$$$$
2et3_lig
 OpenBabel11021811423D
libRbt.so/2013.1/901 2013/11/27
 31 33  0  0  0  0  0  0  0  0999 V2000
    0.1810   -6.8681   29.6601 C   0  0  2  0  0  0  0  0  0  0  0  0
   -0.4336   -8.1500   29.3685 O   0  0  0  0  0  0  0  0  0  0  0  0
   -1.3653  -11.5682   31.7674 C   0  0  2  0  0  0  0  0  0  0  0  0
   -1.2049  -12.6179   32.7255 N   0  0  0  0  0  0  0  0  0  0  0  0
   -2.1332  -10.7643   34.7741 C   0  0  2  0  0  0  0  0  0  0  0  0
   -0.4023   -5.7920   28.7380 C   0  0  2  0  0  0  0  0  0  0  0  0
   -1.8233   -5.7734   28.9007 N   0  0  0  0  0  0  0  0  0  0  0  0
   -0.2992  -11.7268   30.6358 C   0  0  0  0  0  0  0  0  0  0  0  0
   -3.5893  -10.9079   35.2691 C   0  0  2  0  0  0  0  0  0  0  0  0
   -4.3214  -11.6565   34.3246 O   0  0  0  0  0  0  0  0  0  0  0  0
    0.0116   -6.0631   27.2512 C   0  0  0  0  0  0  0  0  0  0  0  0
   -0.4625  -10.5712   29.5818 C   0  0  2  0  0  0  0  0  0  0  0  0
    0.5398  -10.7158   28.5141 N   0  0  0  0  0  0  0  0  0  0  0  0
   -4.1860   -9.4536   35.4585 C   0  0  1  0  0  0  0  0  0  0  0  0
   -5.6199   -9.5016   35.8950 N   0  0  0  0  0  0  0  0  0  0  0  0
    1.5703   -6.0350   27.1712 C   0  0  0  0  0  0  0  0  0  0  0  0
   -0.3117   -9.1760   30.3011 C   0  0  2  0  0  0  0  0  0  0  0  0
   -3.3067   -8.6233   36.5361 C   0  0  1  0  0  0  0  0  0  0  0  0
   -3.3435   -9.2343   37.8092 O   0  0  0  0  0  0  0  0  0  0  0  0
    2.1489   -7.1411   28.1593 C   0  0  2  0  0  0  0  0  0  0  0  0
    1.6600   -6.9729   29.5268 O   0  0  0  0  0  0  0  0  0  0  0  0
   -1.3982   -9.0474   31.4372 C   0  0  2  0  0  0  0  0  0  0  0  0
   -1.2820   -7.7914   32.0980 O   0  0  0  0  0  0  0  0  0  0  0  0
   -1.8191   -8.5955   36.0673 C   0  0  0  0  0  0  0  0  0  0  0  0
   -1.3347   -9.9830   35.7624 O   0  0  0  0  0  0  0  0  0  0  0  0
    3.6566   -7.2344   28.1677 C   0  0  0  0  0  0  0  0  0  0  0  0
    4.1655   -7.7842   26.9386 N   0  0  0  0  0  0  0  0  0  0  0  0
   -1.2205  -10.2088   32.4772 C   0  0  1  0  0  0  0  0  0  0  0  0
   -2.2127  -10.0796   33.4883 O   0  0  0  0  0  0  0  0  0  0  0  0
   -3.7463   -7.1814   36.8246 C   0  0  0  0  0  0  0  0  0  0  0  0
   -6.6376   -9.6502   34.8412 C   0  0  0  0  0  0  0  0  0  0  0  0
  1  2  1  6  0  0  0
  1  6  1  0  0  0  0
  1 21  1  0  0  0  0
  3  4  1  1  0  0  0
  3  8  1  0  0  0  0
  3 28  1  0  0  0  0
  5  9  1  0  0  0  0
  5 25  1  0  0  0  0
  5 29  1  6  0  0  0
  6  7  1  6  0  0  0
  6 11  1  0  0  0  0
  8 12  1  0  0  0  0
  9 10  1  6  0  0  0
  9 14  1  0  0  0  0
 11 16  1  0  0  0  0
 12 13  1  6  0  0  0
 12 17  1  0  0  0  0
 14 15  1  1  0  0  0
 14 18  1  0  0  0  0
 15 31  1  0  0  0  0
 16 20  1  0  0  0  0
 17  2  1  6  0  0  0
 17 22  1  0  0  0  0
 18 19  1  1  0  0  0
 18 24  1  0  0  0  0
 18 30  1  0  0  0  0
 20 21  1  0  0  0  0
 20 26  1  1  0  0  0
 22 23  1  1  0  0  0
 22 28  1  0  0  0  0
 24 25  1  0  0  0  0
 26 27  1  0  0  0  0
 28 29  1  1  0  0  0
M  END
>  <CHROM.1>
-163.53212275,-154.45879665,-84.14501826,-155.50330717,-70.10979814,76.05992415
-1.26509699,-8.92880778,31.99591439,0.38387595,0.93826133,-0.15540108

>  <Name>
2et3_lig

>  <RI>
0

>  <Rbt.Current_Directory>
/home/itssahil/PROJECTS/Mol_Feturizer/New_Systems/rnas/2et3

>  <Rbt.Executable>
rbdock ($Id: //depot/dev/client3/rdock/2013.1/src/exe/rbdock.cxx#4 $)

>  <Rbt.Library>
libRbt.so (2013.1, Build901 2013/11/27)

>  <Rbt.Parameter_File>
/export/apps/rDock/src/rDock_2013.1_src/data/scripts/dock_solv.prm

>  <Rbt.Receptor>
prm/pocket_docking_3.prm

>  <SCORE>
-32.652

>  <SCORE.INTER>
-25.1075

>  <SCORE.INTER.CONST>
1

>  <SCORE.INTER.POLAR>
-0.938083

>  <SCORE.INTER.ROT>
6

>  <SCORE.INTER.SOLV>
17.386

>  <SCORE.INTER.VDW>
-27.0067

>  <SCORE.INTER.norm>
-0.80992

>  <SCORE.INTRA>
-7.54444

>  <SCORE.INTRA.DIHEDRAL>
-13.5574

>  <SCORE.INTRA.DIHEDRAL.0>
22.2484

>  <SCORE.INTRA.POLAR>
0

>  <SCORE.INTRA.POLAR.0>
0

>  <SCORE.INTRA.REPUL>
0

>  <SCORE.INTRA.REPUL.0>
0

>  <SCORE.INTRA.SOLV>
-1.72924

>  <SCORE.INTRA.SOLV.lig_0>
-75.7198

>  <SCORE.INTRA.VDW>
0.0988522

>  <SCORE.INTRA.VDW.0>
-3.34171

>  <SCORE.INTRA.norm>
-0.243369

>  <SCORE.RESTR>
0

>  <SCORE.RESTR.CAVITY>
0

>  <SCORE.RESTR.norm>
0

>  <SCORE.SYSTEM>
0

>  <SCORE.SYSTEM.CONST>
0

>  <SCORE.SYSTEM.DIHEDRAL>
0

>  <SCORE.SYSTEM.SOLV>
0

>  <SCORE.SYSTEM.norm>
0

>  <SCORE.heavy>
31

>  <SCORE.norm>
-1.05329

>  <RMSD>
0.921

$$$$
2et3_lig
 OpenBabel11021811423D
libRbt.so/2013.1/901 2013/11/27
 31 33  0  0  0  0  0  0  0  0999 V2000
    0.3945   -6.8989   29.5025 C   0  0  2  0  0  0  0  0  0  0  0  0
   -0.2184   -8.1805   29.2055 O   0  0  0  0  0  0  0  0  0  0  0  0
   -1.1762  -11.5694   31.6354 C   0  0  2  0  0  0  0  0  0  0  0  0
   -1.0177  -12.6227   32.5898 N   0  0  0  0  0  0  0  0  0  0  0  0
   -1.8248  -10.7318   34.6674 C   0  0  2  0  0  0  0  0  0  0  0  0
   -0.1533   -5.8296   28.5513 C   0  0  2  0  0  0  0  0  0  0  0  0
   -1.5785   -5.8013   28.6692 N   0  0  0  0  0  0  0  0  0  0  0  0
   -0.1489  -11.7590   30.4732 C   0  0  0  0  0  0  0  0  0  0  0  0
   -3.2731  -11.0531   35.0972 C   0  0  2  0  0  0  0  0  0  0  0  0
   -3.8663  -11.8810   34.1219 O   0  0  0  0  0  0  0  0  0  0  0  0
    0.3052   -6.1191   27.0811 C   0  0  0  0  0  0  0  0  0  0  0  0
   -0.3101  -10.5997   29.4229 C   0  0  2  0  0  0  0  0  0  0  0  0
    0.6557  -10.7735   28.3262 N   0  0  0  0  0  0  0  0  0  0  0  0
   -4.0498   -9.6828   35.2581 C   0  0  1  0  0  0  0  0  0  0  0  0
   -5.4852   -9.9063   35.6304 N   0  0  0  0  0  0  0  0  0  0  0  0
    1.8658   -6.1007   27.0495 C   0  0  0  0  0  0  0  0  0  0  0  0
   -0.0983   -9.2091   30.1355 C   0  0  2  0  0  0  0  0  0  0  0  0
   -3.3265   -8.7566   36.3728 C   0  0  1  0  0  0  0  0  0  0  0  0
   -3.3452   -9.3730   37.6438 O   0  0  0  0  0  0  0  0  0  0  0  0
    2.4067   -7.1993   28.0670 C   0  0  2  0  0  0  0  0  0  0  0  0
    1.8763   -7.0136   29.4167 O   0  0  0  0  0  0  0  0  0  0  0  0
   -1.1468   -9.0489   31.3029 C   0  0  2  0  0  0  0  0  0  0  0  0
   -0.9753   -7.7964   31.9583 O   0  0  0  0  0  0  0  0  0  0  0  0
   -1.8340   -8.5465   35.9708 C   0  0  0  0  0  0  0  0  0  0  0  0
   -1.1716   -9.8636   35.6894 O   0  0  0  0  0  0  0  0  0  0  0  0
    3.9127   -7.3011   28.1235 C   0  0  0  0  0  0  0  0  0  0  0  0
    4.4414   -8.0389   27.0065 N   0  0  0  0  0  0  0  0  0  0  0  0
   -0.9718  -10.2144   32.3388 C   0  0  1  0  0  0  0  0  0  0  0  0
   -1.9297  -10.0563   33.3785 O   0  0  0  0  0  0  0  0  0  0  0  0
   -3.9503   -7.3800   36.6399 C   0  0  0  0  0  0  0  0  0  0  0  0
   -6.4833   -9.7928   34.5537 C   0  0  0  0  0  0  0  0  0  0  0  0
  1  2  1  6  0  0  0
  1  6  1  0  0  0  0
  1 21  1  0  0  0  0
  3  4  1  1  0  0  0
  3  8  1  0  0  0  0
  3 28  1  0  0  0  0
  5  9  1  0  0  0  0
  5 25  1  0  0  0  0
  5 29  1  6  0  0  0
  6  7  1  6  0  0  0
  6 11  1  0  0  0  0
  8 12  1  0  0  0  0
  9 10  1  6  0  0  0
  9 14  1  0  0  0  0
 11 16  1  0  0  0  0
 12 13  1  6  0  0  0
 12 17  1  0  0  0  0
 14 15  1  1  0  0  0
 14 18  1  0  0  0  0
 15 31  1  0  0  0  0
 16 20  1  0  0  0  0
 17  2  1  6  0  0  0
 17 22  1  0  0  0  0
 18 19  1  1  0  0  0
 18 24  1  0  0  0  0
 18 30  1  0  0  0  0
 20 21  1  0  0  0  0
 20 26  1  1  0  0  0
 22 23  1  1  0  0  0
 22 28  1  0  0  0  0
 24 25  1  0  0  0  0
 26 27  1  0  0  0  0
 28 29  1  1  0  0  0
M  END
>  <CHROM.1>
-165.37434417,-145.22116893,-101.01059705,-158.01252599,-78.45536339,76.70202235
-1.06985401,-9.00057291,31.84784052,0.39736955,0.92200624,-0.16737583

>  <Name>
2et3_lig

>  <RI>
0

>  <Rbt.Current_Directory>
/home/itssahil/PROJECTS/Mol_Feturizer/New_Systems/rnas/2et3

>  <Rbt.Executable>
rbdock ($Id: //depot/dev/client3/rdock/2013.1/src/exe/rbdock.cxx#4 $)

>  <Rbt.Library>
libRbt.so (2013.1, Build901 2013/11/27)

>  <Rbt.Parameter_File>
/export/apps/rDock/src/rDock_2013.1_src/data/scripts/dock_solv.prm

>  <Rbt.Receptor>
prm/blind_docking_100.prm

>  <SCORE>
-29.6438

>  <SCORE.INTER>
-23.8016

>  <SCORE.INTER.CONST>
1

>  <SCORE.INTER.POLAR>
-0.938083

>  <SCORE.INTER.ROT>
6

>  <SCORE.INTER.SOLV>
18.2399

>  <SCORE.INTER.VDW>
-26.4208

>  <SCORE.INTER.norm>
-0.767794

>  <SCORE.INTRA>
-6.71145

>  <SCORE.INTRA.DIHEDRAL>
-11.1986

>  <SCORE.INTRA.DIHEDRAL.0>
22.2484

>  <SCORE.INTRA.POLAR>
0

>  <SCORE.INTRA.POLAR.0>
0

>  <SCORE.INTRA.REPUL>
0

>  <SCORE.INTRA.REPUL.0>
0

>  <SCORE.INTRA.SOLV>
-1.79397

>  <SCORE.INTRA.SOLV.lig_0>
-75.7198

>  <SCORE.INTRA.VDW>
-0.215194

>  <SCORE.INTRA.VDW.0>
-3.34171

>  <SCORE.INTRA.norm>
-0.216498

>  <SCORE.RESTR>
0.869324

>  <SCORE.RESTR.CAVITY>
0.869324

>  <SCORE.RESTR.norm>
0.0280427

>  <SCORE.SYSTEM>
0

>  <SCORE.SYSTEM.CONST>
0

>  <SCORE.SYSTEM.DIHEDRAL>
0

>  <SCORE.SYSTEM.SOLV>
0

>  <SCORE.SYSTEM.norm>
0

>  <SCORE.heavy>
31

>  <SCORE.norm>
-0.95625

>  <RMSD>
0.926

$$$$
2et3_lig
 OpenBabel11021811423D
libRbt.so/2013.1/901 2013/11/27
 31 33  0  0  0  0  0  0  0  0999 V2000
    0.2074   -6.7708   29.4398 C   0  0  2  0  0  0  0  0  0  0  0  0
   -0.4515   -8.0438   29.2131 O   0  0  0  0  0  0  0  0  0  0  0  0
   -1.1174  -11.5966   31.5024 C   0  0  2  0  0  0  0  0  0  0  0  0
   -0.8961  -12.6362   32.4593 N   0  0  0  0  0  0  0  0  0  0  0  0
   -2.1849  -10.9279   34.4641 C   0  0  2  0  0  0  0  0  0  0  0  0
   -0.4273   -5.6937   28.5537 C   0  0  2  0  0  0  0  0  0  0  0  0
   -1.8305   -5.6463   28.8274 N   0  0  0  0  0  0  0  0  0  0  0  0
    0.0391  -11.5996   30.4514 C   0  0  0  0  0  0  0  0  0  0  0  0
   -3.6386  -11.0500   34.9717 C   0  0  2  0  0  0  0  0  0  0  0  0
   -4.3856  -11.8023   34.0420 O   0  0  0  0  0  0  0  0  0  0  0  0
   -0.1370   -5.9883   27.0423 C   0  0  0  0  0  0  0  0  0  0  0  0
   -0.1915  -10.4534   29.3997 C   0  0  2  0  0  0  0  0  0  0  0  0
    0.8955  -10.4517   28.4076 N   0  0  0  0  0  0  0  0  0  0  0  0
   -4.2186   -9.5872   35.1476 C   0  0  1  0  0  0  0  0  0  0  0  0
   -5.6495   -9.6147   35.5954 N   0  0  0  0  0  0  0  0  0  0  0  0
    1.4107   -5.9907   26.8394 C   0  0  0  0  0  0  0  0  0  0  0  0
   -0.2693   -9.0643   30.1419 C   0  0  2  0  0  0  0  0  0  0  0  0
   -3.3224   -8.7532   36.2083 C   0  0  1  0  0  0  0  0  0  0  0  0
   -3.3559   -9.3482   37.4891 O   0  0  0  0  0  0  0  0  0  0  0  0
    2.0454   -7.0971   27.7922 C   0  0  2  0  0  0  0  0  0  0  0  0
    1.6691   -6.9052   29.1918 O   0  0  0  0  0  0  0  0  0  0  0  0
   -1.4426   -9.0936   31.1957 C   0  0  2  0  0  0  0  0  0  0  0  0
   -1.5330   -7.8458   31.8757 O   0  0  0  0  0  0  0  0  0  0  0  0
   -1.8382   -8.7469   35.7281 C   0  0  0  0  0  0  0  0  0  0  0  0
   -1.3707  -10.1431   35.4367 O   0  0  0  0  0  0  0  0  0  0  0  0
    3.5471   -7.2190   27.6830 C   0  0  0  0  0  0  0  0  0  0  0  0
    4.0278   -8.4460   28.2619 N   0  0  0  0  0  0  0  0  0  0  0  0
   -1.1961  -10.2436   32.2345 C   0  0  1  0  0  0  0  0  0  0  0  0
   -2.2670  -10.2582   33.1706 O   0  0  0  0  0  0  0  0  0  0  0  0
   -3.7446   -7.3034   36.4824 C   0  0  0  0  0  0  0  0  0  0  0  0
   -6.6814   -9.6224   34.5450 C   0  0  0  0  0  0  0  0  0  0  0  0
  1  2  1  6  0  0  0
  1  6  1  0  0  0  0
  1 21  1  0  0  0  0
  3  4  1  1  0  0  0
  3  8  1  0  0  0  0
  3 28  1  0  0  0  0
  5  9  1  0  0  0  0
  5 25  1  0  0  0  0
  5 29  1  6  0  0  0
  6  7  1  6  0  0  0
  6 11  1  0  0  0  0
  8 12  1  0  0  0  0
  9 10  1  6  0  0  0
  9 14  1  0  0  0  0
 11 16  1  0  0  0  0
 12 13  1  6  0  0  0
 12 17  1  0  0  0  0
 14 15  1  1  0  0  0
 14 18  1  0  0  0  0
 15 31  1  0  0  0  0
 16 20  1  0  0  0  0
 17  2  1  6  0  0  0
 17 22  1  0  0  0  0
 18 19  1  1  0  0  0
 18 24  1  0  0  0  0
 18 30  1  0  0  0  0
 20 21  1  0  0  0  0
 20 26  1  1  0  0  0
 22 23  1  1  0  0  0
 22 28  1  0  0  0  0
 24 25  1  0  0  0  0
 26 27  1  0  0  0  0
 28 29  1  1  0  0  0
M  END
>  <CHROM.1>
-163.86006308,-164.32477160,-90.41167885,-143.24949764,-163.97057371,77.41819332
-1.26097340,-8.96481947,31.77939742,0.58004681,0.84704161,-0.38551988

>  <Name>
2et3_lig

>  <RI>
0

>  <Rbt.Current_Directory>
/home/itssahil/PROJECTS/Mol_Feturizer/New_Systems/rnas/2et3

>  <Rbt.Executable>
rbdock ($Id: //depot/dev/client3/rdock/2013.1/src/exe/rbdock.cxx#4 $)

>  <Rbt.Library>
libRbt.so (2013.1, Build901 2013/11/27)

>  <Rbt.Parameter_File>
/export/apps/rDock/src/rDock_2013.1_src/data/scripts/dock_solv.prm

>  <Rbt.Receptor>
prm/pocket_docking_2.prm

>  <SCORE>
-30.7914

>  <SCORE.INTER>
-24.037

>  <SCORE.INTER.CONST>
1

>  <SCORE.INTER.POLAR>
-0.938083

>  <SCORE.INTER.ROT>
6

>  <SCORE.INTER.SOLV>
19.6074

>  <SCORE.INTER.VDW>
-27.0335

>  <SCORE.INTER.norm>
-0.775387

>  <SCORE.INTRA>
-6.75445

>  <SCORE.INTRA.DIHEDRAL>
-12.0243

>  <SCORE.INTRA.DIHEDRAL.0>
22.2484

>  <SCORE.INTRA.POLAR>
0

>  <SCORE.INTRA.POLAR.0>
0

>  <SCORE.INTRA.REPUL>
0

>  <SCORE.INTRA.REPUL.0>
0

>  <SCORE.INTRA.SOLV>
-0.395596

>  <SCORE.INTRA.SOLV.lig_0>
-75.7198

>  <SCORE.INTRA.VDW>
-0.544503

>  <SCORE.INTRA.VDW.0>
-3.34171

>  <SCORE.INTRA.norm>
-0.217885

>  <SCORE.RESTR>
0

>  <SCORE.RESTR.CAVITY>
0

>  <SCORE.RESTR.norm>
0

>  <SCORE.SYSTEM>
0

>  <SCORE.SYSTEM.CONST>
0

>  <SCORE.SYSTEM.DIHEDRAL>
0

>  <SCORE.SYSTEM.SOLV>
0

>  <SCORE.SYSTEM.norm>
0

>  <SCORE.heavy>
31

>  <SCORE.norm>
-0.993272

>  <RMSD>
0.928

$$$$
2et3_lig
 OpenBabel11021811423D
libRbt.so/2013.1/901 2013/11/27
 31 33  0  0  0  0  0  0  0  0999 V2000
    0.0693   -6.8028   29.5953 C   0  0  2  0  0  0  0  0  0  0  0  0
   -0.5640   -8.0851   29.3481 O   0  0  0  0  0  0  0  0  0  0  0  0
   -1.3601  -11.5461   31.7343 C   0  0  2  0  0  0  0  0  0  0  0  0
   -1.1665  -12.5804   32.7028 N   0  0  0  0  0  0  0  0  0  0  0  0
   -2.2810  -10.7930   34.7040 C   0  0  2  0  0  0  0  0  0  0  0  0
   -0.4797   -5.7569   28.6190 C   0  0  2  0  0  0  0  0  0  0  0  0
   -1.9026   -5.7066   28.7573 N   0  0  0  0  0  0  0  0  0  0  0  0
   -0.2498  -11.6421   30.6388 C   0  0  0  0  0  0  0  0  0  0  0  0
   -3.7343  -10.8855   35.2188 C   0  0  2  0  0  0  0  0  0  0  0  0
   -4.5047  -11.6089   34.2852 O   0  0  0  0  0  0  0  0  0  0  0  0
   -0.0476   -6.0983   27.1520 C   0  0  0  0  0  0  0  0  0  0  0  0
   -0.4498  -10.5026   29.5737 C   0  0  2  0  0  0  0  0  0  0  0  0
    0.5940  -10.5884   28.5398 N   0  0  0  0  0  0  0  0  0  0  0  0
   -4.2775   -9.4112   35.4144 C   0  0  1  0  0  0  0  0  0  0  0  0
   -5.7061   -9.4089   35.8704 N   0  0  0  0  0  0  0  0  0  0  0  0
    1.5124   -6.1010   27.0965 C   0  0  0  0  0  0  0  0  0  0  0  0
   -0.4093   -9.0982   30.2897 C   0  0  2  0  0  0  0  0  0  0  0  0
   -3.3553   -8.6112   36.4790 C   0  0  1  0  0  0  0  0  0  0  0  0
   -3.3960   -9.2196   37.7532 O   0  0  0  0  0  0  0  0  0  0  0  0
    2.0552   -7.1740   28.1400 C   0  0  2  0  0  0  0  0  0  0  0  0
    1.5480   -6.9392   29.4909 O   0  0  0  0  0  0  0  0  0  0  0  0
   -1.5383   -9.0334   31.3893 C   0  0  2  0  0  0  0  0  0  0  0  0
   -1.5218   -7.7703   32.0466 O   0  0  0  0  0  0  0  0  0  0  0  0
   -1.8741   -8.6355   35.9901 C   0  0  0  0  0  0  0  0  0  0  0  0
   -1.4424  -10.0393   35.6804 O   0  0  0  0  0  0  0  0  0  0  0  0
    3.5606   -7.2933   28.1771 C   0  0  0  0  0  0  0  0  0  0  0  0
    4.0864   -7.8169   26.9437 N   0  0  0  0  0  0  0  0  0  0  0  0
   -1.3232  -10.1779   32.4409 C   0  0  1  0  0  0  0  0  0  0  0  0
   -2.3540  -10.1070   33.4185 O   0  0  0  0  0  0  0  0  0  0  0  0
   -3.7405   -7.1547   36.7717 C   0  0  0  0  0  0  0  0  0  0  0  0
   -6.7402   -9.5924   34.8383 C   0  0  0  0  0  0  0  0  0  0  0  0
  1  2  1  6  0  0  0
  1  6  1  0  0  0  0
  1 21  1  0  0  0  0
  3  4  1  1  0  0  0
  3  8  1  0  0  0  0
  3 28  1  0  0  0  0
  5  9  1  0  0  0  0
  5 25  1  0  0  0  0
  5 29  1  6  0  0  0
  6  7  1  6  0  0  0
  6 11  1  0  0  0  0
  8 12  1  0  0  0  0
  9 10  1  6  0  0  0
  9 14  1  0  0  0  0
 11 16  1  0  0  0  0
 12 13  1  6  0  0  0
 12 17  1  0  0  0  0
 14 15  1  1  0  0  0
 14 18  1  0  0  0  0
 15 31  1  0  0  0  0
 16 20  1  0  0  0  0
 17  2  1  6  0  0  0
 17 22  1  0  0  0  0
 18 19  1  1  0  0  0
 18 24  1  0  0  0  0
 18 30  1  0  0  0  0
 20 21  1  0  0  0  0
 20 26  1  1  0  0  0
 22 23  1  1  0  0  0
 22 28  1  0  0  0  0
 24 25  1  0  0  0  0
 26 27  1  0  0  0  0
 28 29  1  1  0  0  0
M  END
>  <CHROM.1>
-167.25085039,-160.19740889,-81.08542872,-149.72516978,-66.04180906,75.35548535
-1.34646264,-8.90690487,31.95166480,0.45674317,0.91195713,-0.24899682

>  <Name>
2et3_lig

>  <RI>
0

>  <Rbt.Current_Directory>
/home/itssahil/PROJECTS/Mol_Feturizer/New_Systems/rnas/2et3

>  <Rbt.Executable>
rbdock ($Id: //depot/dev/client3/rdock/2013.1/src/exe/rbdock.cxx#4 $)

>  <Rbt.Library>
libRbt.so (2013.1, Build901 2013/11/27)

>  <Rbt.Parameter_File>
/export/apps/rDock/src/rDock_2013.1_src/data/scripts/dock_solv.prm

>  <Rbt.Receptor>
prm/pocket_docking_3.prm

>  <SCORE>
-32.8369

>  <SCORE.INTER>
-24.9855

>  <SCORE.INTER.CONST>
1

>  <SCORE.INTER.POLAR>
-0.938083

>  <SCORE.INTER.ROT>
6

>  <SCORE.INTER.SOLV>
16.8625

>  <SCORE.INTER.VDW>
-26.7509

>  <SCORE.INTER.norm>
-0.805985

>  <SCORE.INTRA>
-7.85132

>  <SCORE.INTRA.DIHEDRAL>
-14.3602

>  <SCORE.INTRA.DIHEDRAL.0>
22.2484

>  <SCORE.INTRA.POLAR>
0

>  <SCORE.INTRA.POLAR.0>
0

>  <SCORE.INTRA.REPUL>
0

>  <SCORE.INTRA.REPUL.0>
0

>  <SCORE.INTRA.SOLV>
-1.54368

>  <SCORE.INTRA.SOLV.lig_0>
-75.7198

>  <SCORE.INTRA.VDW>
0.100625

>  <SCORE.INTRA.VDW.0>
-3.34171

>  <SCORE.INTRA.norm>
-0.253268

>  <SCORE.RESTR>
0

>  <SCORE.RESTR.CAVITY>
0

>  <SCORE.RESTR.norm>
0

>  <SCORE.SYSTEM>
0

>  <SCORE.SYSTEM.CONST>
0

>  <SCORE.SYSTEM.DIHEDRAL>
0

>  <SCORE.SYSTEM.SOLV>
0

>  <SCORE.SYSTEM.norm>
0

>  <SCORE.heavy>
31

>  <SCORE.norm>
-1.05925

>  <RMSD>
0.929

$$$$
2et3_lig
 OpenBabel11021811423D
libRbt.so/2013.1/901 2013/11/27
 31 33  0  0  0  0  0  0  0  0999 V2000
    0.2092   -6.7514   29.4478 C   0  0  2  0  0  0  0  0  0  0  0  0
   -0.4172   -8.0382   29.2068 O   0  0  0  0  0  0  0  0  0  0  0  0
   -1.1350  -11.5480   31.5460 C   0  0  2  0  0  0  0  0  0  0  0  0
   -0.9279  -12.5784   32.5160 N   0  0  0  0  0  0  0  0  0  0  0  0
   -2.1953  -10.8565   34.4850 C   0  0  2  0  0  0  0  0  0  0  0  0
   -0.3317   -5.7175   28.4544 C   0  0  2  0  0  0  0  0  0  0  0  0
   -1.7562   -5.6703   28.5755 N   0  0  0  0  0  0  0  0  0  0  0  0
    0.0172  -11.5850   30.4909 C   0  0  0  0  0  0  0  0  0  0  0  0
   -3.6544  -10.9554   34.9817 C   0  0  2  0  0  0  0  0  0  0  0  0
   -4.4106  -11.6797   34.0372 O   0  0  0  0  0  0  0  0  0  0  0  0
    0.1186   -6.0728   26.9962 C   0  0  0  0  0  0  0  0  0  0  0  0
   -0.1978  -10.4491   29.4248 C   0  0  2  0  0  0  0  0  0  0  0  0
    0.8852  -10.4794   28.4289 N   0  0  0  0  0  0  0  0  0  0  0  0
   -4.2055   -9.4836   35.1738 C   0  0  1  0  0  0  0  0  0  0  0  0
   -5.6396   -9.4876   35.6121 N   0  0  0  0  0  0  0  0  0  0  0  0
    1.6792   -6.0711   26.9588 C   0  0  0  0  0  0  0  0  0  0  0  0
   -0.2490   -9.0491   30.1485 C   0  0  2  0  0  0  0  0  0  0  0  0
   -3.2995   -8.6825   36.2513 C   0  0  1  0  0  0  0  0  0  0  0  0
   -3.3535   -9.2938   37.5237 O   0  0  0  0  0  0  0  0  0  0  0  0
    2.2131   -7.1314   28.0197 C   0  0  2  0  0  0  0  0  0  0  0  0
    1.6894   -6.8841   29.3621 O   0  0  0  0  0  0  0  0  0  0  0  0
   -1.4185   -9.0442   31.2069 C   0  0  2  0  0  0  0  0  0  0  0  0
   -1.4849   -7.7860   31.8704 O   0  0  0  0  0  0  0  0  0  0  0  0
   -1.8123   -8.7002   35.7806 C   0  0  0  0  0  0  0  0  0  0  0  0
   -1.3716  -10.1017   35.4733 O   0  0  0  0  0  0  0  0  0  0  0  0
    3.7183   -7.2455   28.0756 C   0  0  0  0  0  0  0  0  0  0  0  0
    4.2548   -7.8374   26.8782 N   0  0  0  0  0  0  0  0  0  0  0  0
   -1.1877  -10.1842   32.2601 C   0  0  1  0  0  0  0  0  0  0  0  0
   -2.2551  -10.1679   33.2002 O   0  0  0  0  0  0  0  0  0  0  0  0
   -3.6937   -7.2281   36.5424 C   0  0  0  0  0  0  0  0  0  0  0  0
   -6.6606   -9.6646   34.5660 C   0  0  0  0  0  0  0  0  0  0  0  0
  1  2  1  6  0  0  0
  1  6  1  0  0  0  0
  1 21  1  0  0  0  0
  3  4  1  1  0  0  0
  3  8  1  0  0  0  0
  3 28  1  0  0  0  0
  5  9  1  0  0  0  0
  5 25  1  0  0  0  0
  5 29  1  6  0  0  0
  6  7  1  6  0  0  0
  6 11  1  0  0  0  0
  8 12  1  0  0  0  0
  9 10  1  6  0  0  0
  9 14  1  0  0  0  0
 11 16  1  0  0  0  0
 12 13  1  6  0  0  0
 12 17  1  0  0  0  0
 14 15  1  1  0  0  0
 14 18  1  0  0  0  0
 15 31  1  0  0  0  0
 16 20  1  0  0  0  0
 17  2  1  6  0  0  0
 17 22  1  0  0  0  0
 18 19  1  1  0  0  0
 18 24  1  0  0  0  0
 18 30  1  0  0  0  0
 20 21  1  0  0  0  0
 20 26  1  1  0  0  0
 22 23  1  1  0  0  0
 22 28  1  0  0  0  0
 24 25  1  0  0  0  0
 26 27  1  0  0  0  0
 28 29  1  1  0  0  0
M  END
>  <CHROM.1>
-168.46918413,-163.07419450,-81.44153409,-146.32444689,-68.71355464,75.44900215
-1.21515448,-8.91558973,31.77032051,0.51098656,0.87350623,-0.30720159

>  <Name>
2et3_lig

>  <RI>
0

>  <Rbt.Current_Directory>
/home/itssahil/PROJECTS/Mol_Feturizer/New_Systems/rnas/2et3

>  <Rbt.Executable>
rbdock ($Id: //depot/dev/client3/rdock/2013.1/src/exe/rbdock.cxx#4 $)

>  <Rbt.Library>
libRbt.so (2013.1, Build901 2013/11/27)

>  <Rbt.Parameter_File>
/export/apps/rDock/src/rDock_2013.1_src/data/scripts/dock_solv.prm

>  <Rbt.Receptor>
prm/pocket_docking_2.prm

>  <SCORE>
-32.8129

>  <SCORE.INTER>
-24.9509

>  <SCORE.INTER.CONST>
1

>  <SCORE.INTER.POLAR>
-0.938083

>  <SCORE.INTER.ROT>
6

>  <SCORE.INTER.SOLV>
16.9292

>  <SCORE.INTER.VDW>
-26.7501

>  <SCORE.INTER.norm>
-0.804869

>  <SCORE.INTRA>
-7.86243

>  <SCORE.INTRA.DIHEDRAL>
-14.1536

>  <SCORE.INTRA.DIHEDRAL.0>
22.2484

>  <SCORE.INTRA.POLAR>
0

>  <SCORE.INTRA.POLAR.0>
0

>  <SCORE.INTRA.REPUL>
0

>  <SCORE.INTRA.REPUL.0>
0

>  <SCORE.INTRA.SOLV>
-1.45857

>  <SCORE.INTRA.SOLV.lig_0>
-75.7198

>  <SCORE.INTRA.VDW>
-0.0563608

>  <SCORE.INTRA.VDW.0>
-3.34171

>  <SCORE.INTRA.norm>
-0.253627

>  <SCORE.RESTR>
0.000446542

>  <SCORE.RESTR.CAVITY>
0.000446542

>  <SCORE.RESTR.norm>
1.44046e-05

>  <SCORE.SYSTEM>
0

>  <SCORE.SYSTEM.CONST>
0

>  <SCORE.SYSTEM.DIHEDRAL>
0

>  <SCORE.SYSTEM.SOLV>
0

>  <SCORE.SYSTEM.norm>
0

>  <SCORE.heavy>
31

>  <SCORE.norm>
-1.05848

>  <RMSD>
0.930

$$$$
2et3_lig
 OpenBabel11021811423D
libRbt.so/2013.1/901 2013/11/27
 31 33  0  0  0  0  0  0  0  0999 V2000
    0.0534   -6.8092   29.6037 C   0  0  2  0  0  0  0  0  0  0  0  0
   -0.5440   -8.1055   29.3411 O   0  0  0  0  0  0  0  0  0  0  0  0
   -1.3482  -11.5504   31.7478 C   0  0  2  0  0  0  0  0  0  0  0  0
   -1.1559  -12.5810   32.7206 N   0  0  0  0  0  0  0  0  0  0  0  0
   -2.2524  -10.7783   34.7175 C   0  0  2  0  0  0  0  0  0  0  0  0
   -0.5179   -5.7693   28.6339 C   0  0  2  0  0  0  0  0  0  0  0  0
   -1.9423   -5.7581   28.7642 N   0  0  0  0  0  0  0  0  0  0  0  0
   -0.2432  -11.6578   30.6480 C   0  0  0  0  0  0  0  0  0  0  0  0
   -3.7066  -10.8821   35.2276 C   0  0  2  0  0  0  0  0  0  0  0  0
   -4.4671  -11.6160   34.2940 O   0  0  0  0  0  0  0  0  0  0  0  0
   -0.0685   -6.0854   27.1664 C   0  0  0  0  0  0  0  0  0  0  0  0
   -0.4417  -10.5224   29.5782 C   0  0  2  0  0  0  0  0  0  0  0  0
    0.5971  -10.6189   28.5402 N   0  0  0  0  0  0  0  0  0  0  0  0
   -4.2639   -9.4121   35.4157 C   0  0  1  0  0  0  0  0  0  0  0  0
   -5.6941   -9.4211   35.8666 N   0  0  0  0  0  0  0  0  0  0  0  0
    1.4913   -6.0460   27.1200 C   0  0  0  0  0  0  0  0  0  0  0  0
   -0.3906   -9.1148   30.2871 C   0  0  2  0  0  0  0  0  0  0  0  0
   -3.3528   -8.5998   36.4805 C   0  0  1  0  0  0  0  0  0  0  0  0
   -3.3924   -9.2037   37.7568 O   0  0  0  0  0  0  0  0  0  0  0  0
    2.0567   -7.1137   28.1568 C   0  0  2  0  0  0  0  0  0  0  0  0
    1.5358   -6.9051   29.5067 O   0  0  0  0  0  0  0  0  0  0  0  0
   -1.5145   -9.0385   31.3911 C   0  0  2  0  0  0  0  0  0  0  0  0
   -1.4884   -7.7723   32.0421 O   0  0  0  0  0  0  0  0  0  0  0  0
   -1.8697   -8.6124   35.9969 C   0  0  0  0  0  0  0  0  0  0  0  0
   -1.4242  -10.0133   35.6940 O   0  0  0  0  0  0  0  0  0  0  0  0
    3.5645   -7.1933   28.2016 C   0  0  0  0  0  0  0  0  0  0  0  0
    4.1088   -7.7251   26.9798 N   0  0  0  0  0  0  0  0  0  0  0  0
   -1.3009  -10.1790   32.4475 C   0  0  1  0  0  0  0  0  0  0  0  0
   -2.3271  -10.0978   33.4292 O   0  0  0  0  0  0  0  0  0  0  0  0
   -3.7522   -7.1457   36.7663 C   0  0  0  0  0  0  0  0  0  0  0  0
   -6.7235   -9.6036   34.8297 C   0  0  0  0  0  0  0  0  0  0  0  0
  1  2  1  6  0  0  0
  1  6  1  0  0  0  0
  1 21  1  0  0  0  0
  3  4  1  1  0  0  0
  3  8  1  0  0  0  0
  3 28  1  0  0  0  0
  5  9  1  0  0  0  0
  5 25  1  0  0  0  0
  5 29  1  6  0  0  0
  6  7  1  6  0  0  0
  6 11  1  0  0  0  0
  8 12  1  0  0  0  0
  9 10  1  6  0  0  0
  9 14  1  0  0  0  0
 11 16  1  0  0  0  0
 12 13  1  6  0  0  0
 12 17  1  0  0  0  0
 14 15  1  1  0  0  0
 14 18  1  0  0  0  0
 15 31  1  0  0  0  0
 16 20  1  0  0  0  0
 17  2  1  6  0  0  0
 17 22  1  0  0  0  0
 18 19  1  1  0  0  0
 18 24  1  0  0  0  0
 18 30  1  0  0  0  0
 20 21  1  0  0  0  0
 20 26  1  1  0  0  0
 22 23  1  1  0  0  0
 22 28  1  0  0  0  0
 24 25  1  0  0  0  0
 26 27  1  0  0  0  0
 28 29  1  1  0  0  0
M  END
>  <CHROM.1>
-165.96198589,-159.23895910,-81.71504611,-152.09626883,-67.60413511,75.33066995
-1.33913561,-8.89874223,31.95967583,0.45286777,0.91499839,-0.23957088

>  <Name>
2et3_lig

>  <RI>
0

>  <Rbt.Current_Directory>
/home/itssahil/PROJECTS/Mol_Feturizer/New_Systems/rnas/2et3

>  <Rbt.Executable>
rbdock ($Id: //depot/dev/client3/rdock/2013.1/src/exe/rbdock.cxx#4 $)

>  <Rbt.Library>
libRbt.so (2013.1, Build901 2013/11/27)

>  <Rbt.Parameter_File>
/export/apps/rDock/src/rDock_2013.1_src/data/scripts/dock_solv.prm

>  <Rbt.Receptor>
prm/pocket_docking_3.prm

>  <SCORE>
-32.8825

>  <SCORE.INTER>
-24.9634

>  <SCORE.INTER.CONST>
1

>  <SCORE.INTER.POLAR>
-0.938083

>  <SCORE.INTER.ROT>
6

>  <SCORE.INTER.SOLV>
17.1615

>  <SCORE.INTER.VDW>
-26.8358

>  <SCORE.INTER.norm>
-0.805272

>  <SCORE.INTRA>
-7.91905

>  <SCORE.INTRA.DIHEDRAL>
-14.4097

>  <SCORE.INTRA.DIHEDRAL.0>
22.2484

>  <SCORE.INTRA.POLAR>
0

>  <SCORE.INTRA.POLAR.0>
0

>  <SCORE.INTRA.REPUL>
0

>  <SCORE.INTRA.REPUL.0>
0

>  <SCORE.INTRA.SOLV>
-1.65258

>  <SCORE.INTRA.SOLV.lig_0>
-75.7198

>  <SCORE.INTRA.VDW>
0.112071

>  <SCORE.INTRA.VDW.0>
-3.34171

>  <SCORE.INTRA.norm>
-0.255453

>  <SCORE.RESTR>
0

>  <SCORE.RESTR.CAVITY>
0

>  <SCORE.RESTR.norm>
0

>  <SCORE.SYSTEM>
0

>  <SCORE.SYSTEM.CONST>
0

>  <SCORE.SYSTEM.DIHEDRAL>
0

>  <SCORE.SYSTEM.SOLV>
0

>  <SCORE.SYSTEM.norm>
0

>  <SCORE.heavy>
31

>  <SCORE.norm>
-1.06072

>  <RMSD>
0.931

$$$$
2et3_lig
 OpenBabel11021811423D
libRbt.so/2013.1/901 2013/11/27
 31 33  0  0  0  0  0  0  0  0999 V2000
    0.0806   -6.8806   29.5927 C   0  0  2  0  0  0  0  0  0  0  0  0
   -0.5357   -8.1700   29.3405 O   0  0  0  0  0  0  0  0  0  0  0  0
   -1.3539  -11.6061   31.7550 C   0  0  2  0  0  0  0  0  0  0  0  0
   -1.1657  -12.6354   32.7301 N   0  0  0  0  0  0  0  0  0  0  0  0
   -2.2517  -10.8200   34.7250 C   0  0  2  0  0  0  0  0  0  0  0  0
   -0.4882   -5.8363   28.6261 C   0  0  2  0  0  0  0  0  0  0  0  0
   -1.9109   -5.8070   28.7720 N   0  0  0  0  0  0  0  0  0  0  0  0
   -0.2497  -11.7207   30.6551 C   0  0  0  0  0  0  0  0  0  0  0  0
   -3.6971  -10.8564   35.2685 C   0  0  2  0  0  0  0  0  0  0  0  0
   -4.5101  -11.5623   34.3579 O   0  0  0  0  0  0  0  0  0  0  0  0
   -0.0589   -6.1621   27.1547 C   0  0  0  0  0  0  0  0  0  0  0  0
   -0.4438  -10.5869   29.5828 C   0  0  2  0  0  0  0  0  0  0  0  0
    0.5942  -10.6902   28.5448 N   0  0  0  0  0  0  0  0  0  0  0  0
   -4.1850   -9.3620   35.4578 C   0  0  1  0  0  0  0  0  0  0  0  0
   -5.6035   -9.3052   35.9408 N   0  0  0  0  0  0  0  0  0  0  0  0
    1.5007   -6.1423   27.0913 C   0  0  0  0  0  0  0  0  0  0  0  0
   -0.3863   -9.1779   30.2886 C   0  0  2  0  0  0  0  0  0  0  0  0
   -3.2151   -8.5835   36.4956 C   0  0  1  0  0  0  0  0  0  0  0  0
   -3.2521   -9.1766   37.7771 O   0  0  0  0  0  0  0  0  0  0  0  0
    2.0640   -7.2142   28.1249 C   0  0  2  0  0  0  0  0  0  0  0  0
    1.5606   -6.9953   29.4799 O   0  0  0  0  0  0  0  0  0  0  0  0
   -1.5094   -9.0943   31.3929 C   0  0  2  0  0  0  0  0  0  0  0  0
   -1.4777   -7.8268   32.0411 O   0  0  0  0  0  0  0  0  0  0  0  0
   -1.7454   -8.6645   35.9789 C   0  0  0  0  0  0  0  0  0  0  0  0
   -1.3687  -10.0857   35.6768 O   0  0  0  0  0  0  0  0  0  0  0  0
    3.5711   -7.3124   28.1536 C   0  0  0  0  0  0  0  0  0  0  0  0
    4.0948   -7.8622   26.9308 N   0  0  0  0  0  0  0  0  0  0  0  0
   -1.3004  -10.2333   32.4517 C   0  0  1  0  0  0  0  0  0  0  0  0
   -2.3259  -10.1455   33.4336 O   0  0  0  0  0  0  0  0  0  0  0  0
   -3.5439   -7.1114   36.7792 C   0  0  0  0  0  0  0  0  0  0  0  0
   -6.6613   -9.5526   34.9468 C   0  0  0  0  0  0  0  0  0  0  0  0
  1  2  1  6  0  0  0
  1  6  1  0  0  0  0
  1 21  1  0  0  0  0
  3  4  1  1  0  0  0
  3  8  1  0  0  0  0
  3 28  1  0  0  0  0
  5  9  1  0  0  0  0
  5 25  1  0  0  0  0
  5 29  1  6  0  0  0
  6  7  1  6  0  0  0
  6 11  1  0  0  0  0
  8 12  1  0  0  0  0
  9 10  1  6  0  0  0
  9 14  1  0  0  0  0
 11 16  1  0  0  0  0
 12 13  1  6  0  0  0
 12 17  1  0  0  0  0
 14 15  1  1  0  0  0
 14 18  1  0  0  0  0
 15 31  1  0  0  0  0
 16 20  1  0  0  0  0
 17  2  1  6  0  0  0
 17 22  1  0  0  0  0
 18 19  1  1  0  0  0
 18 24  1  0  0  0  0
 18 30  1  0  0  0  0
 20 21  1  0  0  0  0
 20 26  1  1  0  0  0
 22 23  1  1  0  0  0
 22 28  1  0  0  0  0
 24 25  1  0  0  0  0
 26 27  1  0  0  0  0
 28 29  1  1  0  0  0
M  END
>  <CHROM.1>
-165.86258652,-161.96126577,-77.11917635,-151.38454347,-67.96809952,75.53120541
-1.30654611,-8.93861084,31.96620954,0.43343590,0.92981893,-0.22788638

>  <Name>
2et3_lig

>  <RI>
0

>  <Rbt.Current_Directory>
/home/itssahil/PROJECTS/Mol_Feturizer/New_Systems/rnas/2et3

>  <Rbt.Executable>
rbdock ($Id: //depot/dev/client3/rdock/2013.1/src/exe/rbdock.cxx#4 $)

>  <Rbt.Library>
libRbt.so (2013.1, Build901 2013/11/27)

>  <Rbt.Parameter_File>
/export/apps/rDock/src/rDock_2013.1_src/data/scripts/dock_solv.prm

>  <Rbt.Receptor>
prm/pocket_docking_3.prm

>  <SCORE>
-32.9223

>  <SCORE.INTER>
-24.9527

>  <SCORE.INTER.CONST>
1

>  <SCORE.INTER.POLAR>
-0.938083

>  <SCORE.INTER.ROT>
6

>  <SCORE.INTER.SOLV>
16.7557

>  <SCORE.INTER.VDW>
-26.6934

>  <SCORE.INTER.norm>
-0.804925

>  <SCORE.INTRA>
-7.96965

>  <SCORE.INTRA.DIHEDRAL>
-14.7757

>  <SCORE.INTRA.DIHEDRAL.0>
22.2484

>  <SCORE.INTRA.POLAR>
0

>  <SCORE.INTRA.POLAR.0>
0

>  <SCORE.INTRA.REPUL>
0

>  <SCORE.INTRA.REPUL.0>
0

>  <SCORE.INTRA.SOLV>
-1.65793

>  <SCORE.INTRA.SOLV.lig_0>
-75.7198

>  <SCORE.INTRA.VDW>
0.247138

>  <SCORE.INTRA.VDW.0>
-3.34171

>  <SCORE.INTRA.norm>
-0.257086

>  <SCORE.RESTR>
0

>  <SCORE.RESTR.CAVITY>
0

>  <SCORE.RESTR.norm>
0

>  <SCORE.SYSTEM>
0

>  <SCORE.SYSTEM.CONST>
0

>  <SCORE.SYSTEM.DIHEDRAL>
0

>  <SCORE.SYSTEM.SOLV>
0

>  <SCORE.SYSTEM.norm>
0

>  <SCORE.heavy>
31

>  <SCORE.norm>
-1.06201

>  <RMSD>
0.935

$$$$
2et3_lig
 OpenBabel11021811423D
libRbt.so/2013.1/901 2013/11/27
 31 33  0  0  0  0  0  0  0  0999 V2000
    0.0531   -6.8226   29.5525 C   0  0  2  0  0  0  0  0  0  0  0  0
   -0.5217   -8.1272   29.2808 O   0  0  0  0  0  0  0  0  0  0  0  0
   -1.2880  -11.6089   31.6466 C   0  0  2  0  0  0  0  0  0  0  0  0
   -1.0930  -12.6373   32.6213 N   0  0  0  0  0  0  0  0  0  0  0  0
   -2.3026  -10.8585   34.5997 C   0  0  2  0  0  0  0  0  0  0  0  0
   -0.5341   -5.7865   28.5882 C   0  0  2  0  0  0  0  0  0  0  0  0
   -1.9588   -5.8004   28.7161 N   0  0  0  0  0  0  0  0  0  0  0  0
   -0.1446  -11.6739   30.5833 C   0  0  0  0  0  0  0  0  0  0  0  0
   -3.7560  -10.9221   35.1186 C   0  0  2  0  0  0  0  0  0  0  0  0
   -4.5371  -11.6548   34.2013 O   0  0  0  0  0  0  0  0  0  0  0  0
   -0.0770   -6.0857   27.1196 C   0  0  0  0  0  0  0  0  0  0  0  0
   -0.3461  -10.5406   29.5118 C   0  0  2  0  0  0  0  0  0  0  0  0
    0.7287  -10.5972   28.5082 N   0  0  0  0  0  0  0  0  0  0  0  0
   -4.2803   -9.4374   35.2849 C   0  0  1  0  0  0  0  0  0  0  0  0
   -5.7079   -9.4079   35.7429 N   0  0  0  0  0  0  0  0  0  0  0  0
    1.4820   -6.0195   27.0762 C   0  0  0  0  0  0  0  0  0  0  0  0
   -0.3655   -9.1355   30.2274 C   0  0  2  0  0  0  0  0  0  0  0  0
   -3.3462   -8.6275   36.3313 C   0  0  1  0  0  0  0  0  0  0  0  0
   -3.3921   -9.2091   37.6178 O   0  0  0  0  0  0  0  0  0  0  0  0
    2.0638   -7.0840   28.1073 C   0  0  2  0  0  0  0  0  0  0  0  0
    1.5371   -6.8928   29.4577 O   0  0  0  0  0  0  0  0  0  0  0  0
   -1.5267   -9.1023   31.2943 C   0  0  2  0  0  0  0  0  0  0  0  0
   -1.5644   -7.8391   31.9506 O   0  0  0  0  0  0  0  0  0  0  0  0
   -1.8663   -8.6804   35.8407 C   0  0  0  0  0  0  0  0  0  0  0  0
   -1.4529  -10.0955   35.5591 O   0  0  0  0  0  0  0  0  0  0  0  0
    3.5726   -7.1382   28.1544 C   0  0  0  0  0  0  0  0  0  0  0  0
    4.1246   -7.7221   26.9601 N   0  0  0  0  0  0  0  0  0  0  0  0
   -1.3096  -10.2401   32.3528 C   0  0  1  0  0  0  0  0  0  0  0  0
   -2.3694  -10.1981   33.3006 O   0  0  0  0  0  0  0  0  0  0  0  0
   -3.7125   -7.1606   36.5948 C   0  0  0  0  0  0  0  0  0  0  0  0
   -6.7468   -9.5765   34.7131 C   0  0  0  0  0  0  0  0  0  0  0  0
  1  2  1  6  0  0  0
  1  6  1  0  0  0  0
  1 21  1  0  0  0  0
  3  4  1  1  0  0  0
  3  8  1  0  0  0  0
  3 28  1  0  0  0  0
  5  9  1  0  0  0  0
  5 25  1  0  0  0  0
  5 29  1  6  0  0  0
  6  7  1  6  0  0  0
  6 11  1  0  0  0  0
  8 12  1  0  0  0  0
  9 10  1  6  0  0  0
  9 14  1  0  0  0  0
 11 16  1  0  0  0  0
 12 13  1  6  0  0  0
 12 17  1  0  0  0  0
 14 15  1  1  0  0  0
 14 18  1  0  0  0  0
 15 31  1  0  0  0  0
 16 20  1  0  0  0  0
 17  2  1  6  0  0  0
 17 22  1  0  0  0  0
 18 19  1  1  0  0  0
 18 24  1  0  0  0  0
 18 30  1  0  0  0  0
 20 21  1  0  0  0  0
 20 26  1  1  0  0  0
 22 23  1  1  0  0  0
 22 28  1  0  0  0  0
 24 25  1  0  0  0  0
 26 27  1  0  0  0  0
 28 29  1  1  0  0  0
M  END
>  <CHROM.1>
-165.25807856,-163.83168996,-82.10069126,-150.51694034,-70.83602453,76.67290522
-1.33569173,-8.92317159,31.87092403,0.48115970,0.89398422,-0.27027060

>  <Name>
2et3_lig

>  <RI>
0

>  <Rbt.Current_Directory>
/home/itssahil/PROJECTS/Mol_Feturizer/New_Systems/rnas/2et3

>  <Rbt.Executable>
rbdock ($Id: //depot/dev/client3/rdock/2013.1/src/exe/rbdock.cxx#4 $)

>  <Rbt.Library>
libRbt.so (2013.1, Build901 2013/11/27)

>  <Rbt.Parameter_File>
/export/apps/rDock/src/rDock_2013.1_src/data/scripts/dock_solv.prm

>  <Rbt.Receptor>
prm/pocket_docking_2.prm

>  <SCORE>
-32.9299

>  <SCORE.INTER>
-24.9

>  <SCORE.INTER.CONST>
1

>  <SCORE.INTER.POLAR>
-0.938083

>  <SCORE.INTER.ROT>
6

>  <SCORE.INTER.SOLV>
16.8587

>  <SCORE.INTER.VDW>
-26.6926

>  <SCORE.INTER.norm>
-0.803225

>  <SCORE.INTRA>
-8.03286

>  <SCORE.INTRA.DIHEDRAL>
-14.3438

>  <SCORE.INTRA.DIHEDRAL.0>
22.2484

>  <SCORE.INTRA.POLAR>
0

>  <SCORE.INTRA.POLAR.0>
0

>  <SCORE.INTRA.REPUL>
0

>  <SCORE.INTRA.REPUL.0>
0

>  <SCORE.INTRA.SOLV>
-1.68785

>  <SCORE.INTRA.SOLV.lig_0>
-75.7198

>  <SCORE.INTRA.VDW>
-0.0170534

>  <SCORE.INTRA.VDW.0>
-3.34171

>  <SCORE.INTRA.norm>
-0.259124

>  <SCORE.RESTR>
0.00295876

>  <SCORE.RESTR.CAVITY>
0.00295876

>  <SCORE.RESTR.norm>
9.54439e-05

>  <SCORE.SYSTEM>
0

>  <SCORE.SYSTEM.CONST>
0

>  <SCORE.SYSTEM.DIHEDRAL>
0

>  <SCORE.SYSTEM.SOLV>
0

>  <SCORE.SYSTEM.norm>
0

>  <SCORE.heavy>
31

>  <SCORE.norm>
-1.06225

>  <RMSD>
0.937

$$$$
2et3_lig
 OpenBabel11021811423D
libRbt.so/2013.1/901 2013/11/27
 31 33  0  0  0  0  0  0  0  0999 V2000
    0.3877   -6.7178   29.5316 C   0  0  2  0  0  0  0  0  0  0  0  0
   -0.5340   -7.8371   29.4695 O   0  0  0  0  0  0  0  0  0  0  0  0
   -1.1779  -11.5164   31.5562 C   0  0  2  0  0  0  0  0  0  0  0  0
   -0.9549  -12.6018   32.4605 N   0  0  0  0  0  0  0  0  0  0  0  0
   -2.2879  -10.9785   34.5541 C   0  0  2  0  0  0  0  0  0  0  0  0
   -0.0768   -5.6105   28.5795 C   0  0  2  0  0  0  0  0  0  0  0  0
   -1.4156   -5.2439   28.9249 N   0  0  0  0  0  0  0  0  0  0  0  0
   -0.0044  -11.4454   30.5265 C   0  0  0  0  0  0  0  0  0  0  0  0
   -3.7296  -11.0380   35.1051 C   0  0  2  0  0  0  0  0  0  0  0  0
   -4.5402  -11.7400   34.1893 O   0  0  0  0  0  0  0  0  0  0  0  0
    0.0321   -6.0881   27.0911 C   0  0  0  0  0  0  0  0  0  0  0  0
   -0.2369  -10.2487   29.5330 C   0  0  2  0  0  0  0  0  0  0  0  0
    0.8660  -10.1772   28.5613 N   0  0  0  0  0  0  0  0  0  0  0  0
   -4.2325   -9.5519   35.3181 C   0  0  1  0  0  0  0  0  0  0  0  0
   -5.6488   -9.5172   35.8098 N   0  0  0  0  0  0  0  0  0  0  0  0
    1.5265   -6.4355   26.8036 C   0  0  0  0  0  0  0  0  0  0  0  0
   -0.3500   -8.9024   30.3461 C   0  0  2  0  0  0  0  0  0  0  0  0
   -3.2651   -8.7774   36.3612 C   0  0  1  0  0  0  0  0  0  0  0  0
   -3.2883   -9.3887   37.6345 O   0  0  0  0  0  0  0  0  0  0  0  0
    1.9901   -7.5655   27.8248 C   0  0  2  0  0  0  0  0  0  0  0  0
    1.7677   -7.1793   29.2171 O   0  0  0  0  0  0  0  0  0  0  0  0
   -1.5397   -9.0062   31.3765 C   0  0  2  0  0  0  0  0  0  0  0  0
   -1.6620   -7.7978   32.1199 O   0  0  0  0  0  0  0  0  0  0  0  0
   -1.7976   -8.8353   35.8351 C   0  0  0  0  0  0  0  0  0  0  0  0
   -1.4074  -10.2479   35.5111 O   0  0  0  0  0  0  0  0  0  0  0  0
    3.4220   -8.0115   27.6447 C   0  0  0  0  0  0  0  0  0  0  0  0
    4.3392   -6.9039   27.7068 N   0  0  0  0  0  0  0  0  0  0  0  0
   -1.2911  -10.2056   32.3572 C   0  0  1  0  0  0  0  0  0  0  0  0
   -2.3767  -10.2868   33.2727 O   0  0  0  0  0  0  0  0  0  0  0  0
   -3.6081   -7.3131   36.6672 C   0  0  0  0  0  0  0  0  0  0  0  0
   -6.7124   -9.6789   34.8044 C   0  0  0  0  0  0  0  0  0  0  0  0
  1  2  1  6  0  0  0
  1  6  1  0  0  0  0
  1 21  1  0  0  0  0
  3  4  1  1  0  0  0
  3  8  1  0  0  0  0
  3 28  1  0  0  0  0
  5  9  1  0  0  0  0
  5 25  1  0  0  0  0
  5 29  1  6  0  0  0
  6  7  1  1  0  0  0
  6 11  1  0  0  0  0
  8 12  1  0  0  0  0
  9 10  1  6  0  0  0
  9 14  1  0  0  0  0
 11 16  1  0  0  0  0
 12 13  1  6  0  0  0
 12 17  1  0  0  0  0
 14 15  1  1  0  0  0
 14 18  1  0  0  0  0
 15 31  1  0  0  0  0
 16 20  1  0  0  0  0
 17  2  1  6  0  0  0
 17 22  1  0  0  0  0
 18 19  1  1  0  0  0
 18 24  1  0  0  0  0
 18 30  1  0  0  0  0
 20 21  1  0  0  0  0
 20 26  1  1  0  0  0
 22 23  1  1  0  0  0
 22 28  1  0  0  0  0
 24 25  1  0  0  0  0
 26 27  1  0  0  0  0
 28 29  1  1  0  0  0
M  END
>  <CHROM.1>
-174.66805555,-170.34985674,-80.81732244,-124.92633906,55.06820606,79.91020531
-1.24625582,-8.93100230,31.87433214,0.49970445,0.88385048,-0.27979035

>  <Name>
2et3_lig

>  <RI>
0

>  <Rbt.Current_Directory>
/home/itssahil/PROJECTS/Mol_Feturizer/New_Systems/rnas/2et3

>  <Rbt.Executable>
rbdock ($Id: //depot/dev/client3/rdock/2013.1/src/exe/rbdock.cxx#4 $)

>  <Rbt.Library>
libRbt.so (2013.1, Build901 2013/11/27)

>  <Rbt.Parameter_File>
/export/apps/rDock/src/rDock_2013.1_src/data/scripts/dock_solv.prm

>  <Rbt.Receptor>
prm/pocket_docking_3.prm

>  <SCORE>
-29.096

>  <SCORE.INTER>
-23.1051

>  <SCORE.INTER.CONST>
1

>  <SCORE.INTER.POLAR>
-0.938083

>  <SCORE.INTER.ROT>
6

>  <SCORE.INTER.SOLV>
21.1473

>  <SCORE.INTER.VDW>
-26.9256

>  <SCORE.INTER.norm>
-0.745327

>  <SCORE.INTRA>
-6.00471

>  <SCORE.INTRA.DIHEDRAL>
-12.2449

>  <SCORE.INTRA.DIHEDRAL.0>
22.2484

>  <SCORE.INTRA.POLAR>
0

>  <SCORE.INTRA.POLAR.0>
0

>  <SCORE.INTRA.REPUL>
0

>  <SCORE.INTRA.REPUL.0>
0

>  <SCORE.INTRA.SOLV>
0.758649

>  <SCORE.INTRA.SOLV.lig_0>
-75.7198

>  <SCORE.INTRA.VDW>
-0.26157

>  <SCORE.INTRA.VDW.0>
-3.34171

>  <SCORE.INTRA.norm>
-0.1937

>  <SCORE.RESTR>
0.0138053

>  <SCORE.RESTR.CAVITY>
0.0138053

>  <SCORE.RESTR.norm>
0.000445333

>  <SCORE.SYSTEM>
0

>  <SCORE.SYSTEM.CONST>
0

>  <SCORE.SYSTEM.DIHEDRAL>
0

>  <SCORE.SYSTEM.SOLV>
0

>  <SCORE.SYSTEM.norm>
0

>  <SCORE.heavy>
31

>  <SCORE.norm>
-0.938581

>  <RMSD>
0.940

$$$$
2et3_lig
 OpenBabel11021811423D
libRbt.so/2013.1/901 2013/11/27
 31 33  0  0  0  0  0  0  0  0999 V2000
    0.3219   -6.7849   29.5246 C   0  0  2  0  0  0  0  0  0  0  0  0
   -0.5815   -7.9182   29.4480 O   0  0  0  0  0  0  0  0  0  0  0  0
   -1.1987  -11.6108   31.5191 C   0  0  2  0  0  0  0  0  0  0  0  0
   -0.9752  -12.6915   32.4290 N   0  0  0  0  0  0  0  0  0  0  0  0
   -2.3827  -11.0613   34.5065 C   0  0  2  0  0  0  0  0  0  0  0  0
   -0.1556   -5.6768   28.5800 C   0  0  2  0  0  0  0  0  0  0  0  0
   -1.5018   -5.3347   28.9218 N   0  0  0  0  0  0  0  0  0  0  0  0
   -0.0019  -11.5147   30.5188 C   0  0  0  0  0  0  0  0  0  0  0  0
   -3.8281  -11.1120   35.0487 C   0  0  2  0  0  0  0  0  0  0  0  0
   -4.6287  -11.8441   34.1479 O   0  0  0  0  0  0  0  0  0  0  0  0
   -0.0318   -6.1393   27.0880 C   0  0  0  0  0  0  0  0  0  0  0  0
   -0.2350  -10.3230   29.5195 C   0  0  2  0  0  0  0  0  0  0  0  0
    0.8899  -10.2279   28.5754 N   0  0  0  0  0  0  0  0  0  0  0  0
   -4.3395   -9.6228   35.2150 C   0  0  1  0  0  0  0  0  0  0  0  0
   -5.7595   -9.5809   35.6955 N   0  0  0  0  0  0  0  0  0  0  0  0
    1.4695   -6.4602   26.8050 C   0  0  0  0  0  0  0  0  0  0  0  0
   -0.3967   -8.9796   30.3292 C   0  0  2  0  0  0  0  0  0  0  0  0
   -3.3834   -8.8138   36.2422 C   0  0  1  0  0  0  0  0  0  0  0  0
   -3.4130   -9.3882   37.5324 O   0  0  0  0  0  0  0  0  0  0  0  0
    1.9460   -7.5917   27.8185 C   0  0  2  0  0  0  0  0  0  0  0  0
    1.7106   -7.2216   29.2131 O   0  0  0  0  0  0  0  0  0  0  0  0
   -1.6091   -9.1088   31.3298 C   0  0  2  0  0  0  0  0  0  0  0  0
   -1.7754   -7.9035   32.0695 O   0  0  0  0  0  0  0  0  0  0  0  0
   -1.9119   -8.8796   35.7285 C   0  0  0  0  0  0  0  0  0  0  0  0
   -1.5127  -10.2990   35.4482 O   0  0  0  0  0  0  0  0  0  0  0  0
    3.3858   -8.0132   27.6418 C   0  0  0  0  0  0  0  0  0  0  0  0
    4.2974   -6.9369   27.9288 N   0  0  0  0  0  0  0  0  0  0  0  0
   -1.3595  -10.3029   32.3167 C   0  0  1  0  0  0  0  0  0  0  0  0
   -2.4655  -10.4074   33.2050 O   0  0  0  0  0  0  0  0  0  0  0  0
   -3.7355   -7.3430   36.5033 C   0  0  0  0  0  0  0  0  0  0  0  0
   -6.8153   -9.5742   34.6691 C   0  0  0  0  0  0  0  0  0  0  0  0
  1  2  1  6  0  0  0
  1  6  1  0  0  0  0
  1 21  1  0  0  0  0
  3  4  1  1  0  0  0
  3  8  1  0  0  0  0
  3 28  1  0  0  0  0
  5  9  1  0  0  0  0
  5 25  1  0  0  0  0
  5 29  1  6  0  0  0
  6  7  1  1  0  0  0
  6 11  1  0  0  0  0
  8 12  1  0  0  0  0
  9 10  1  6  0  0  0
  9 14  1  0  0  0  0
 11 16  1  0  0  0  0
 12 13  1  6  0  0  0
 12 17  1  0  0  0  0
 14 15  1  1  0  0  0
 14 18  1  0  0  0  0
 15 31  1  0  0  0  0
 16 20  1  0  0  0  0
 17  2  1  6  0  0  0
 17 22  1  0  0  0  0
 18 19  1  1  0  0  0
 18 24  1  0  0  0  0
 18 30  1  0  0  0  0
 20 21  1  0  0  0  0
 20 26  1  1  0  0  0
 22 23  1  1  0  0  0
 22 28  1  0  0  0  0
 24 25  1  0  0  0  0
 26 27  1  0  0  0  0
 28 29  1  1  0  0  0
M  END
>  <CHROM.1>
-173.74253082,-172.81253994,-89.72146799,-124.38252266,64.32739310,81.86819900
-1.31704260,-8.98930252,31.83581640,0.51868258,0.85924213,-0.30595912

>  <Name>
2et3_lig

>  <RI>
0

>  <Rbt.Current_Directory>
/home/itssahil/PROJECTS/Mol_Feturizer/New_Systems/rnas/2et3

>  <Rbt.Executable>
rbdock ($Id: //depot/dev/client3/rdock/2013.1/src/exe/rbdock.cxx#4 $)

>  <Rbt.Library>
libRbt.so (2013.1, Build901 2013/11/27)

>  <Rbt.Parameter_File>
/export/apps/rDock/src/rDock_2013.1_src/data/scripts/dock_solv.prm

>  <Rbt.Receptor>
prm/pocket_docking_2.prm

>  <SCORE>
-28.9633

>  <SCORE.INTER>
-22.8001

>  <SCORE.INTER.CONST>
1

>  <SCORE.INTER.POLAR>
-0.938083

>  <SCORE.INTER.ROT>
6

>  <SCORE.INTER.SOLV>
21.0908

>  <SCORE.INTER.VDW>
-26.7034

>  <SCORE.INTER.norm>
-0.735489

>  <SCORE.INTRA>
-6.16319

>  <SCORE.INTRA.DIHEDRAL>
-11.7705

>  <SCORE.INTRA.DIHEDRAL.0>
22.2484

>  <SCORE.INTRA.POLAR>
0

>  <SCORE.INTRA.POLAR.0>
0

>  <SCORE.INTRA.REPUL>
0

>  <SCORE.INTRA.REPUL.0>
0

>  <SCORE.INTRA.SOLV>
0.705386

>  <SCORE.INTRA.SOLV.lig_0>
-75.7198

>  <SCORE.INTRA.VDW>
-0.630634

>  <SCORE.INTRA.VDW.0>
-3.34171

>  <SCORE.INTRA.norm>
-0.198812

>  <SCORE.RESTR>
0

>  <SCORE.RESTR.CAVITY>
0

>  <SCORE.RESTR.norm>
0

>  <SCORE.SYSTEM>
0

>  <SCORE.SYSTEM.CONST>
0

>  <SCORE.SYSTEM.DIHEDRAL>
0

>  <SCORE.SYSTEM.SOLV>
0

>  <SCORE.SYSTEM.norm>
0

>  <SCORE.heavy>
31

>  <SCORE.norm>
-0.934301

>  <RMSD>
0.950

$$$$
2et3_lig
 OpenBabel11021811423D
libRbt.so/2013.1/901 2013/11/27
 31 33  0  0  0  0  0  0  0  0999 V2000
    0.1878   -6.7271   29.4743 C   0  0  2  0  0  0  0  0  0  0  0  0
   -0.4569   -8.0049   29.2339 O   0  0  0  0  0  0  0  0  0  0  0  0
   -1.1006  -11.5823   31.4909 C   0  0  2  0  0  0  0  0  0  0  0  0
   -0.8751  -12.6267   32.4416 N   0  0  0  0  0  0  0  0  0  0  0  0
   -2.1969  -10.9440   34.4512 C   0  0  2  0  0  0  0  0  0  0  0  0
   -0.4301   -5.6563   28.5688 C   0  0  2  0  0  0  0  0  0  0  0  0
   -1.8403   -5.6172   28.8055 N   0  0  0  0  0  0  0  0  0  0  0  0
    0.0639  -11.5643   30.4490 C   0  0  0  0  0  0  0  0  0  0  0  0
   -3.6492  -11.0514   34.9660 C   0  0  2  0  0  0  0  0  0  0  0  0
   -4.4093  -11.7927   34.0381 O   0  0  0  0  0  0  0  0  0  0  0  0
   -0.0986   -5.9532   27.0663 C   0  0  0  0  0  0  0  0  0  0  0  0
   -0.1713  -10.4127   29.4042 C   0  0  2  0  0  0  0  0  0  0  0  0
    0.9233  -10.3913   28.4208 N   0  0  0  0  0  0  0  0  0  0  0  0
   -4.2120   -9.5829   35.1490 C   0  0  1  0  0  0  0  0  0  0  0  0
   -5.6409   -9.5958   35.6041 N   0  0  0  0  0  0  0  0  0  0  0  0
    1.4540   -5.9463   26.9041 C   0  0  0  0  0  0  0  0  0  0  0  0
   -0.2705   -9.0303   30.1563 C   0  0  2  0  0  0  0  0  0  0  0  0
   -3.3013   -8.7619   36.2074 C   0  0  1  0  0  0  0  0  0  0  0  0
   -3.3348   -9.3601   37.4866 O   0  0  0  0  0  0  0  0  0  0  0  0
    2.0704   -7.0461   27.8763 C   0  0  2  0  0  0  0  0  0  0  0  0
    1.6563   -6.8529   29.2650 O   0  0  0  0  0  0  0  0  0  0  0  0
   -1.4515   -9.0809   31.2006 C   0  0  2  0  0  0  0  0  0  0  0  0
   -1.5612   -7.8394   31.8894 O   0  0  0  0  0  0  0  0  0  0  0  0
   -1.8195   -8.7706   35.7195 C   0  0  0  0  0  0  0  0  0  0  0  0
   -1.3691  -10.1710   35.4218 O   0  0  0  0  0  0  0  0  0  0  0  0
    3.5752   -7.1588   27.8067 C   0  0  0  0  0  0  0  0  0  0  0  0
    4.0398   -8.4298   28.2970 N   0  0  0  0  0  0  0  0  0  0  0  0
   -1.2002  -10.2359   32.2326 C   0  0  1  0  0  0  0  0  0  0  0  0
   -2.2782  -10.2697   33.1601 O   0  0  0  0  0  0  0  0  0  0  0  0
   -3.7060   -7.3082   36.4877 C   0  0  0  0  0  0  0  0  0  0  0  0
   -6.6782   -9.5705   34.5593 C   0  0  0  0  0  0  0  0  0  0  0  0
  1  2  1  6  0  0  0
  1  6  1  0  0  0  0
  1 21  1  0  0  0  0
  3  4  1  1  0  0  0
  3  8  1  0  0  0  0
  3 28  1  0  0  0  0
  5  9  1  0  0  0  0
  5 25  1  0  0  0  0
  5 29  1  6  0  0  0
  6  7  1  6  0  0  0
  6 11  1  0  0  0  0
  8 12  1  0  0  0  0
  9 10  1  6  0  0  0
  9 14  1  0  0  0  0
 11 16  1  0  0  0  0
 12 13  1  6  0  0  0
 12 17  1  0  0  0  0
 14 15  1  1  0  0  0
 14 18  1  0  0  0  0
 15 31  1  0  0  0  0
 16 20  1  0  0  0  0
 17  2  1  6  0  0  0
 17 22  1  0  0  0  0
 18 19  1  1  0  0  0
 18 24  1  0  0  0  0
 18 30  1  0  0  0  0
 20 21  1  0  0  0  0
 20 26  1  1  0  0  0
 22 23  1  1  0  0  0
 22 28  1  0  0  0  0
 24 25  1  0  0  0  0
 26 27  1  0  0  0  0
 28 29  1  1  0  0  0
M  END
>  <CHROM.1>
-165.14987208,-165.94700224,-91.21987046,-143.13836138,-159.01230142,77.66180131
-1.25399524,-8.94547040,31.79361946,0.58594416,0.84022990,-0.38721158

>  <Name>
2et3_lig

>  <RI>
0

>  <Rbt.Current_Directory>
/home/itssahil/PROJECTS/Mol_Feturizer/New_Systems/rnas/2et3

>  <Rbt.Executable>
rbdock ($Id: //depot/dev/client3/rdock/2013.1/src/exe/rbdock.cxx#4 $)

>  <Rbt.Library>
libRbt.so (2013.1, Build901 2013/11/27)

>  <Rbt.Parameter_File>
/export/apps/rDock/src/rDock_2013.1_src/data/scripts/dock_solv.prm

>  <Rbt.Receptor>
prm/pocket_docking_2.prm

>  <SCORE>
-30.8007

>  <SCORE.INTER>
-24.1368

>  <SCORE.INTER.CONST>
1

>  <SCORE.INTER.POLAR>
-0.938083

>  <SCORE.INTER.ROT>
6

>  <SCORE.INTER.SOLV>
19.8458

>  <SCORE.INTER.VDW>
-27.1795

>  <SCORE.INTER.norm>
-0.778606

>  <SCORE.INTRA>
-6.67977

>  <SCORE.INTRA.DIHEDRAL>
-11.7872

>  <SCORE.INTRA.DIHEDRAL.0>
22.2484

>  <SCORE.INTRA.POLAR>
0

>  <SCORE.INTRA.POLAR.0>
0

>  <SCORE.INTRA.REPUL>
0

>  <SCORE.INTRA.REPUL.0>
0

>  <SCORE.INTRA.SOLV>
-0.465863

>  <SCORE.INTRA.SOLV.lig_0>
-75.7198

>  <SCORE.INTRA.VDW>
-0.553243

>  <SCORE.INTRA.VDW.0>
-3.34171

>  <SCORE.INTRA.norm>
-0.215477

>  <SCORE.RESTR>
0.0158329

>  <SCORE.RESTR.CAVITY>
0.0158329

>  <SCORE.RESTR.norm>
0.000510739

>  <SCORE.SYSTEM>
0

>  <SCORE.SYSTEM.CONST>
0

>  <SCORE.SYSTEM.DIHEDRAL>
0

>  <SCORE.SYSTEM.SOLV>
0

>  <SCORE.SYSTEM.norm>
0

>  <SCORE.heavy>
31

>  <SCORE.norm>
-0.993572

>  <RMSD>
0.950

$$$$
2et3_lig
 OpenBabel11021811423D
libRbt.so/2013.1/901 2013/11/27
 31 33  0  0  0  0  0  0  0  0999 V2000
    0.0914   -6.7805   29.5166 C   0  0  2  0  0  0  0  0  0  0  0  0
   -0.5047   -8.0781   29.2575 O   0  0  0  0  0  0  0  0  0  0  0  0
   -1.1954  -11.6057   31.5781 C   0  0  2  0  0  0  0  0  0  0  0  0
   -0.9808  -12.6391   32.5433 N   0  0  0  0  0  0  0  0  0  0  0  0
   -2.2494  -10.8978   34.5385 C   0  0  2  0  0  0  0  0  0  0  0  0
   -0.4599   -5.7498   28.5256 C   0  0  2  0  0  0  0  0  0  0  0  0
   -1.8864   -5.7338   28.6305 N   0  0  0  0  0  0  0  0  0  0  0  0
   -0.0410  -11.6272   30.5250 C   0  0  0  0  0  0  0  0  0  0  0  0
   -3.7002  -10.9842   35.0614 C   0  0  2  0  0  0  0  0  0  0  0  0
   -4.4710  -11.7338   34.1491 O   0  0  0  0  0  0  0  0  0  0  0  0
    0.0146   -6.0829   27.0698 C   0  0  0  0  0  0  0  0  0  0  0  0
   -0.2641  -10.4881   29.4640 C   0  0  2  0  0  0  0  0  0  0  0  0
    0.8209  -10.5037   28.4700 N   0  0  0  0  0  0  0  0  0  0  0  0
   -4.2495   -9.5080   35.2230 C   0  0  1  0  0  0  0  0  0  0  0  0
   -5.6763   -9.5010   35.6846 N   0  0  0  0  0  0  0  0  0  0  0  0
    1.5751   -6.0478   27.0507 C   0  0  0  0  0  0  0  0  0  0  0  0
   -0.3291   -9.0921   30.1946 C   0  0  2  0  0  0  0  0  0  0  0  0
   -3.3267   -8.6780   36.2638 C   0  0  1  0  0  0  0  0  0  0  0  0
   -3.3596   -9.2550   37.5528 O   0  0  0  0  0  0  0  0  0  0  0  0
    2.1192   -7.1056   28.1089 C   0  0  2  0  0  0  0  0  0  0  0  0
    1.5750   -6.8810   29.4471 O   0  0  0  0  0  0  0  0  0  0  0  0
   -1.5005   -9.1029   31.2507 C   0  0  2  0  0  0  0  0  0  0  0  0
   -1.5794   -7.8487   31.9203 O   0  0  0  0  0  0  0  0  0  0  0  0
   -1.8474   -8.7075   35.7696 C   0  0  0  0  0  0  0  0  0  0  0  0
   -1.4105  -10.1165   35.4927 O   0  0  0  0  0  0  0  0  0  0  0  0
    3.6258   -7.1882   28.1814 C   0  0  0  0  0  0  0  0  0  0  0  0
    4.1960   -7.6572   26.9458 N   0  0  0  0  0  0  0  0  0  0  0  0
   -1.2615  -10.2460   32.2988 C   0  0  1  0  0  0  0  0  0  0  0  0
   -2.3307  -10.2439   33.2369 O   0  0  0  0  0  0  0  0  0  0  0  0
   -3.7176   -7.2164   36.5223 C   0  0  0  0  0  0  0  0  0  0  0  0
   -6.7145   -9.6941   34.6585 C   0  0  0  0  0  0  0  0  0  0  0  0
  1  2  1  6  0  0  0
  1  6  1  0  0  0  0
  1 21  1  0  0  0  0
  3  4  1  1  0  0  0
  3  8  1  0  0  0  0
  3 28  1  0  0  0  0
  5  9  1  0  0  0  0
  5 25  1  0  0  0  0
  5 29  1  6  0  0  0
  6  7  1  6  0  0  0
  6 11  1  0  0  0  0
  8 12  1  0  0  0  0
  9 10  1  6  0  0  0
  9 14  1  0  0  0  0
 11 16  1  0  0  0  0
 12 13  1  6  0  0  0
 12 17  1  0  0  0  0
 14 15  1  1  0  0  0
 14 18  1  0  0  0  0
 15 31  1  0  0  0  0
 16 20  1  0  0  0  0
 17  2  1  6  0  0  0
 17 22  1  0  0  0  0
 18 19  1  1  0  0  0
 18 24  1  0  0  0  0
 18 30  1  0  0  0  0
 20 21  1  0  0  0  0
 20 26  1  1  0  0  0
 22 23  1  1  0  0  0
 22 28  1  0  0  0  0
 24 25  1  0  0  0  0
 26 27  1  0  0  0  0
 28 29  1  1  0  0  0
M  END
>  <CHROM.1>
-168.28093962,-165.29746694,-81.98783255,-147.32330339,-64.04568294,77.72247003
-1.28482715,-8.93393974,31.82323208,0.50389928,0.88031418,-0.28929903

>  <Name>
2et3_lig

>  <RI>
0

>  <Rbt.Current_Directory>
/home/itssahil/PROJECTS/Mol_Feturizer/New_Systems/rnas/2et3

>  <Rbt.Executable>
rbdock ($Id: //depot/dev/client3/rdock/2013.1/src/exe/rbdock.cxx#4 $)

>  <Rbt.Library>
libRbt.so (2013.1, Build901 2013/11/27)

>  <Rbt.Parameter_File>
/export/apps/rDock/src/rDock_2013.1_src/data/scripts/dock_solv.prm

>  <Rbt.Receptor>
prm/pocket_docking_2.prm

>  <SCORE>
-32.8452

>  <SCORE.INTER>
-24.7891

>  <SCORE.INTER.CONST>
1

>  <SCORE.INTER.POLAR>
-0.938083

>  <SCORE.INTER.ROT>
6

>  <SCORE.INTER.SOLV>
17.1659

>  <SCORE.INTER.VDW>
-26.7211

>  <SCORE.INTER.norm>
-0.799648

>  <SCORE.INTRA>
-8.05751

>  <SCORE.INTRA.DIHEDRAL>
-14.4768

>  <SCORE.INTRA.DIHEDRAL.0>
22.2484

>  <SCORE.INTRA.POLAR>
0

>  <SCORE.INTRA.POLAR.0>
0

>  <SCORE.INTRA.REPUL>
0

>  <SCORE.INTRA.REPUL.0>
0

>  <SCORE.INTRA.SOLV>
-1.53962

>  <SCORE.INTRA.SOLV.lig_0>
-75.7198

>  <SCORE.INTRA.VDW>
-0.0493099

>  <SCORE.INTRA.VDW.0>
-3.34171

>  <SCORE.INTRA.norm>
-0.25992

>  <SCORE.RESTR>
0.00139906

>  <SCORE.RESTR.CAVITY>
0.00139906

>  <SCORE.RESTR.norm>
4.5131e-05

>  <SCORE.SYSTEM>
0

>  <SCORE.SYSTEM.CONST>
0

>  <SCORE.SYSTEM.DIHEDRAL>
0

>  <SCORE.SYSTEM.SOLV>
0

>  <SCORE.SYSTEM.norm>
0

>  <SCORE.heavy>
31

>  <SCORE.norm>
-1.05952

>  <RMSD>
0.952

$$$$
2et3_lig
 OpenBabel11021811423D
libRbt.so/2013.1/901 2013/11/27
 31 33  0  0  0  0  0  0  0  0999 V2000
    0.2158   -6.7957   29.5444 C   0  0  2  0  0  0  0  0  0  0  0  0
   -0.4262   -8.0708   29.2834 O   0  0  0  0  0  0  0  0  0  0  0  0
   -1.1455  -11.6398   31.5308 C   0  0  2  0  0  0  0  0  0  0  0  0
   -0.9435  -12.6899   32.4805 N   0  0  0  0  0  0  0  0  0  0  0  0
   -2.2366  -10.9702   34.4956 C   0  0  2  0  0  0  0  0  0  0  0  0
   -0.3276   -5.7350   28.5810 C   0  0  2  0  0  0  0  0  0  0  0  0
   -1.7499   -5.6769   28.7218 N   0  0  0  0  0  0  0  0  0  0  0  0
    0.0240  -11.6413   30.4942 C   0  0  0  0  0  0  0  0  0  0  0  0
   -3.6908  -11.0499   35.0100 C   0  0  2  0  0  0  0  0  0  0  0  0
   -4.4613  -11.7897   34.0894 O   0  0  0  0  0  0  0  0  0  0  0  0
    0.1005   -6.0624   27.1096 C   0  0  0  0  0  0  0  0  0  0  0  0
   -0.1854  -10.4838   29.4505 C   0  0  2  0  0  0  0  0  0  0  0  0
    0.9138  -10.4806   28.4721 N   0  0  0  0  0  0  0  0  0  0  0  0
   -4.2314   -9.5711   35.1763 C   0  0  1  0  0  0  0  0  0  0  0  0
   -5.6607   -9.5573   35.6300 N   0  0  0  0  0  0  0  0  0  0  0  0
    1.6603   -6.0747   27.0519 C   0  0  0  0  0  0  0  0  0  0  0  0
   -0.2628   -9.1011   30.2048 C   0  0  2  0  0  0  0  0  0  0  0  0
   -3.3092   -8.7525   36.2266 C   0  0  1  0  0  0  0  0  0  0  0  0
   -3.3529   -9.3361   37.5123 O   0  0  0  0  0  0  0  0  0  0  0  0
    2.1974   -7.1632   28.0823 C   0  0  2  0  0  0  0  0  0  0  0  0
    1.6935   -6.9406   29.4365 O   0  0  0  0  0  0  0  0  0  0  0  0
   -1.4493   -9.1319   31.2436 C   0  0  2  0  0  0  0  0  0  0  0  0
   -1.5394   -7.8899   31.9342 O   0  0  0  0  0  0  0  0  0  0  0  0
   -1.8274   -8.7890   35.7405 C   0  0  0  0  0  0  0  0  0  0  0  0
   -1.3980  -10.1993   35.4586 O   0  0  0  0  0  0  0  0  0  0  0  0
    3.7020   -7.2928   28.1160 C   0  0  0  0  0  0  0  0  0  0  0  0
    4.2196   -7.8387   26.8888 N   0  0  0  0  0  0  0  0  0  0  0  0
   -1.2239  -10.2932   32.2745 C   0  0  1  0  0  0  0  0  0  0  0  0
   -2.3064  -10.3089   33.1970 O   0  0  0  0  0  0  0  0  0  0  0  0
   -3.6920   -7.2898   36.4906 C   0  0  0  0  0  0  0  0  0  0  0  0
   -6.6970   -9.6055   34.5850 C   0  0  0  0  0  0  0  0  0  0  0  0
  1  2  1  6  0  0  0
  1  6  1  0  0  0  0
  1 21  1  0  0  0  0
  3  4  1  1  0  0  0
  3  8  1  0  0  0  0
  3 28  1  0  0  0  0
  5  9  1  0  0  0  0
  5 25  1  0  0  0  0
  5 29  1  6  0  0  0
  6  7  1  6  0  0  0
  6 11  1  0  0  0  0
  8 12  1  0  0  0  0
  9 10  1  6  0  0  0
  9 14  1  0  0  0  0
 11 16  1  0  0  0  0
 12 13  1  6  0  0  0
 12 17  1  0  0  0  0
 14 15  1  1  0  0  0
 14 18  1  0  0  0  0
 15 31  1  0  0  0  0
 16 20  1  0  0  0  0
 17  2  1  6  0  0  0
 17 22  1  0  0  0  0
 18 19  1  1  0  0  0
 18 24  1  0  0  0  0
 18 30  1  0  0  0  0
 20 21  1  0  0  0  0
 20 26  1  1  0  0  0
 22 23  1  1  0  0  0
 22 28  1  0  0  0  0
 24 25  1  0  0  0  0
 26 27  1  0  0  0  0
 28 29  1  1  0  0  0
M  END
>  <CHROM.1>
-168.06596003,-166.42940060,-87.81905455,-144.52253164,-67.56764360,78.59265775
-1.23219200,-8.97374097,31.80303583,0.50398354,0.86898558,-0.29163621

>  <Name>
2et3_lig

>  <RI>
0

>  <Rbt.Current_Directory>
/home/itssahil/PROJECTS/Mol_Feturizer/New_Systems/rnas/2et3

>  <Rbt.Executable>
rbdock ($Id: //depot/dev/client3/rdock/2013.1/src/exe/rbdock.cxx#4 $)

>  <Rbt.Library>
libRbt.so (2013.1, Build901 2013/11/27)

>  <Rbt.Parameter_File>
/export/apps/rDock/src/rDock_2013.1_src/data/scripts/dock_solv.prm

>  <Rbt.Receptor>
prm/pocket_docking_2.prm

>  <SCORE>
-33.0198

>  <SCORE.INTER>
-25.1568

>  <SCORE.INTER.CONST>
1

>  <SCORE.INTER.POLAR>
-0.938083

>  <SCORE.INTER.ROT>
6

>  <SCORE.INTER.SOLV>
16.9838

>  <SCORE.INTER.VDW>
-26.9055

>  <SCORE.INTER.norm>
-0.81151

>  <SCORE.INTRA>
-7.86986

>  <SCORE.INTRA.DIHEDRAL>
-13.6428

>  <SCORE.INTRA.DIHEDRAL.0>
22.2484

>  <SCORE.INTRA.POLAR>
0

>  <SCORE.INTRA.POLAR.0>
0

>  <SCORE.INTRA.REPUL>
0

>  <SCORE.INTRA.REPUL.0>
0

>  <SCORE.INTRA.SOLV>
-1.44312

>  <SCORE.INTRA.SOLV.lig_0>
-75.7198

>  <SCORE.INTRA.VDW>
-0.326895

>  <SCORE.INTRA.VDW.0>
-3.34171

>  <SCORE.INTRA.norm>
-0.253867

>  <SCORE.RESTR>
0.00686765

>  <SCORE.RESTR.CAVITY>
0.00686765

>  <SCORE.RESTR.norm>
0.000221537

>  <SCORE.SYSTEM>
0

>  <SCORE.SYSTEM.CONST>
0

>  <SCORE.SYSTEM.DIHEDRAL>
0

>  <SCORE.SYSTEM.SOLV>
0

>  <SCORE.SYSTEM.norm>
0

>  <SCORE.heavy>
31

>  <SCORE.norm>
-1.06515

>  <RMSD>
0.959

$$$$
2et3_lig
 OpenBabel11021811423D
libRbt.so/2013.1/901 2013/11/27
 31 33  0  0  0  0  0  0  0  0999 V2000
    0.2595   -6.5655   29.6111 C   0  0  2  0  0  0  0  0  0  0  0  0
   -0.5246   -7.7754   29.4455 O   0  0  0  0  0  0  0  0  0  0  0  0
   -1.0913  -11.4504   31.5621 C   0  0  2  0  0  0  0  0  0  0  0  0
   -0.8432  -12.5258   32.4717 N   0  0  0  0  0  0  0  0  0  0  0  0
   -2.1854  -10.9115   34.5649 C   0  0  2  0  0  0  0  0  0  0  0  0
   -0.3604   -5.4298   28.7899 C   0  0  2  0  0  0  0  0  0  0  0  0
   -1.7226   -5.2654   29.1944 N   0  0  0  0  0  0  0  0  0  0  0  0
    0.0723  -11.3674   30.5221 C   0  0  0  0  0  0  0  0  0  0  0  0
   -3.6237  -11.0067   35.1197 C   0  0  2  0  0  0  0  0  0  0  0  0
   -4.4174  -11.7345   34.2093 O   0  0  0  0  0  0  0  0  0  0  0  0
   -0.2391   -5.7339   27.2575 C   0  0  0  0  0  0  0  0  0  0  0  0
   -0.1879  -10.1815   29.5226 C   0  0  2  0  0  0  0  0  0  0  0  0
    0.9056  -10.0987   28.5412 N   0  0  0  0  0  0  0  0  0  0  0  0
   -4.1655   -9.5335   35.3267 C   0  0  1  0  0  0  0  0  0  0  0  0
   -5.5811   -9.5341   35.8218 N   0  0  0  0  0  0  0  0  0  0  0  0
    1.2769   -5.8666   26.9101 C   0  0  0  0  0  0  0  0  0  0  0  0
   -0.3161   -8.8316   30.3276 C   0  0  2  0  0  0  0  0  0  0  0  0
   -3.2167   -8.7284   36.3637 C   0  0  1  0  0  0  0  0  0  0  0  0
   -3.2206   -9.3338   37.6400 O   0  0  0  0  0  0  0  0  0  0  0  0
    1.9005   -7.0320   27.7976 C   0  0  2  0  0  0  0  0  0  0  0  0
    1.6746   -6.8218   29.2266 O   0  0  0  0  0  0  0  0  0  0  0  0
   -1.4953   -8.9477   31.3687 C   0  0  2  0  0  0  0  0  0  0  0  0
   -1.6311   -7.7364   32.1050 O   0  0  0  0  0  0  0  0  0  0  0  0
   -1.7494   -8.7497   35.8343 C   0  0  0  0  0  0  0  0  0  0  0  0
   -1.3225  -10.1530   35.5161 O   0  0  0  0  0  0  0  0  0  0  0  0
    3.3694   -7.2807   27.5475 C   0  0  0  0  0  0  0  0  0  0  0  0
    3.8190   -8.4992   28.1679 N   0  0  0  0  0  0  0  0  0  0  0  0
   -1.2191  -10.1362   32.3552 C   0  0  1  0  0  0  0  0  0  0  0  0
   -2.2957  -10.2287   33.2803 O   0  0  0  0  0  0  0  0  0  0  0  0
   -3.5979   -7.2723   36.6635 C   0  0  0  0  0  0  0  0  0  0  0  0
   -6.6454   -9.6527   34.8111 C   0  0  0  0  0  0  0  0  0  0  0  0
  1  2  1  6  0  0  0
  1  6  1  0  0  0  0
  1 21  1  0  0  0  0
  3  4  1  1  0  0  0
  3  8  1  0  0  0  0
  3 28  1  0  0  0  0
  5  9  1  0  0  0  0
  5 25  1  0  0  0  0
  5 29  1  6  0  0  0
  6  7  1  1  0  0  0
  6 11  1  0  0  0  0
  8 12  1  0  0  0  0
  9 10  1  6  0  0  0
  9 14  1  0  0  0  0
 11 16  1  0  0  0  0
 12 13  1  6  0  0  0
 12 17  1  0  0  0  0
 14 15  1  1  0  0  0
 14 18  1  0  0  0  0
 15 31  1  0  0  0  0
 16 20  1  0  0  0  0
 17  2  1  6  0  0  0
 17 22  1  0  0  0  0
 18 19  1  1  0  0  0
 18 24  1  0  0  0  0
 18 30  1  0  0  0  0
 20 21  1  0  0  0  0
 20 26  1  1  0  0  0
 22 23  1  1  0  0  0
 22 28  1  0  0  0  0
 24 25  1  0  0  0  0
 26 27  1  0  0  0  0
 28 29  1  1  0  0  0
M  END
>  <CHROM.1>
-165.75476900,-169.61491736,-84.17763069,-133.24524213,-168.54432202,79.83471744
-1.26323615,-8.85192171,31.91164326,0.59249740,0.86346329,-0.38074366

>  <Name>
2et3_lig

>  <RI>
3.50789e+07

>  <Rbt.Current_Directory>
/home/itssahil/PROJECTS/Mol_Feturizer/New_Systems/rnas/2et3

>  <Rbt.Executable>
rbdock ($Id: //depot/dev/client3/rdock/2013.1/src/exe/rbdock.cxx#4 $)

>  <Rbt.Library>
libRbt.so (2013.1, Build901 2013/11/27)

>  <Rbt.Parameter_File>
/export/apps/rDock/src/rDock_2013.1_src/data/scripts/dock_solv.prm

>  <Rbt.Receptor>
prm/pocket_docking_4.prm

>  <SCORE>
-30.6052

>  <SCORE.INTER>
-24.4634

>  <SCORE.INTER.CONST>
1

>  <SCORE.INTER.POLAR>
-0.938083

>  <SCORE.INTER.ROT>
6

>  <SCORE.INTER.SOLV>
19.3562

>  <SCORE.INTER.VDW>
-27.2341

>  <SCORE.INTER.norm>
-0.789141

>  <SCORE.INTRA>
-6.14186

>  <SCORE.INTRA.DIHEDRAL>
-11.6034

>  <SCORE.INTRA.DIHEDRAL.0>
22.2484

>  <SCORE.INTRA.POLAR>
0

>  <SCORE.INTRA.POLAR.0>
0

>  <SCORE.INTRA.REPUL>
0

>  <SCORE.INTRA.REPUL.0>
0

>  <SCORE.INTRA.SOLV>
0.645342

>  <SCORE.INTRA.SOLV.lig_0>
-75.7198

>  <SCORE.INTRA.VDW>
-0.662813

>  <SCORE.INTRA.VDW.0>
-3.34171

>  <SCORE.INTRA.norm>
-0.198125

>  <SCORE.RESTR>
0

>  <SCORE.RESTR.CAVITY>
0

>  <SCORE.RESTR.norm>
0

>  <SCORE.SYSTEM>
0

>  <SCORE.SYSTEM.CONST>
0

>  <SCORE.SYSTEM.DIHEDRAL>
0

>  <SCORE.SYSTEM.SOLV>
0

>  <SCORE.SYSTEM.norm>
0

>  <SCORE.heavy>
31

>  <SCORE.norm>
-0.987266

>  <RMSD>
0.960

$$$$
2et3_lig
 OpenBabel11021811423D
libRbt.so/2013.1/901 2013/11/27
 31 33  0  0  0  0  0  0  0  0999 V2000
    0.1471   -6.7589   29.5189 C   0  0  2  0  0  0  0  0  0  0  0  0
   -0.4778   -8.0426   29.2585 O   0  0  0  0  0  0  0  0  0  0  0  0
   -1.1603  -11.6134   31.5146 C   0  0  2  0  0  0  0  0  0  0  0  0
   -0.9473  -12.6592   32.4666 N   0  0  0  0  0  0  0  0  0  0  0  0
   -2.2584  -10.9543   34.4754 C   0  0  2  0  0  0  0  0  0  0  0  0
   -0.3948   -5.7108   28.5410 C   0  0  2  0  0  0  0  0  0  0  0  0
   -1.8194   -5.6670   28.6626 N   0  0  0  0  0  0  0  0  0  0  0  0
    0.0083  -11.6058   30.4771 C   0  0  0  0  0  0  0  0  0  0  0  0
   -3.7095  -11.0265   34.9995 C   0  0  2  0  0  0  0  0  0  0  0  0
   -4.4906  -11.7598   34.0827 O   0  0  0  0  0  0  0  0  0  0  0  0
    0.0561   -6.0437   27.0776 C   0  0  0  0  0  0  0  0  0  0  0  0
   -0.2132  -10.4527   29.4309 C   0  0  2  0  0  0  0  0  0  0  0  0
    0.8852  -10.4410   28.4517 N   0  0  0  0  0  0  0  0  0  0  0  0
   -4.2402   -9.5448   35.1723 C   0  0  1  0  0  0  0  0  0  0  0  0
   -5.6663   -9.5234   35.6357 N   0  0  0  0  0  0  0  0  0  0  0  0
    1.6166   -6.0397   27.0406 C   0  0  0  0  0  0  0  0  0  0  0  0
   -0.3036   -9.0691   30.1820 C   0  0  2  0  0  0  0  0  0  0  0  0
   -3.3061   -8.7338   36.2180 C   0  0  1  0  0  0  0  0  0  0  0  0
   -3.3446   -9.3197   37.5028 O   0  0  0  0  0  0  0  0  0  0  0  0
    2.1516   -7.1152   28.0855 C   0  0  2  0  0  0  0  0  0  0  0  0
    1.6275   -6.8886   29.4314 O   0  0  0  0  0  0  0  0  0  0  0  0
   -1.4890   -9.1093   31.2218 C   0  0  2  0  0  0  0  0  0  0  0  0
   -1.5908   -7.8665   31.9096 O   0  0  0  0  0  0  0  0  0  0  0  0
   -1.8278   -8.7781   35.7217 C   0  0  0  0  0  0  0  0  0  0  0  0
   -1.4087  -10.1904   35.4342 O   0  0  0  0  0  0  0  0  0  0  0  0
    3.6569   -7.2284   28.1399 C   0  0  0  0  0  0  0  0  0  0  0  0
    4.1961   -7.7816   26.9254 N   0  0  0  0  0  0  0  0  0  0  0  0
   -1.2514  -10.2659   32.2552 C   0  0  1  0  0  0  0  0  0  0  0  0
   -2.3330  -10.2901   33.1787 O   0  0  0  0  0  0  0  0  0  0  0  0
   -3.6784   -7.2694   36.4874 C   0  0  0  0  0  0  0  0  0  0  0  0
   -6.7098   -9.5865   34.5988 C   0  0  0  0  0  0  0  0  0  0  0  0
  1  2  1  6  0  0  0
  1  6  1  0  0  0  0
  1 21  1  0  0  0  0
  3  4  1  1  0  0  0
  3  8  1  0  0  0  0
  3 28  1  0  0  0  0
  5  9  1  0  0  0  0
  5 25  1  0  0  0  0
  5 29  1  6  0  0  0
  6  7  1  6  0  0  0
  6 11  1  0  0  0  0
  8 12  1  0  0  0  0
  9 10  1  6  0  0  0
  9 14  1  0  0  0  0
 11 16  1  0  0  0  0
 12 13  1  6  0  0  0
 12 17  1  0  0  0  0
 14 15  1  1  0  0  0
 14 18  1  0  0  0  0
 15 31  1  0  0  0  0
 16 20  1  0  0  0  0
 17  2  1  6  0  0  0
 17 22  1  0  0  0  0
 18 19  1  1  0  0  0
 18 24  1  0  0  0  0
 18 30  1  0  0  0  0
 20 21  1  0  0  0  0
 20 26  1  1  0  0  0
 22 23  1  1  0  0  0
 22 28  1  0  0  0  0
 24 25  1  0  0  0  0
 26 27  1  0  0  0  0
 28 29  1  1  0  0  0
M  END
>  <CHROM.1>
-168.75228584,-167.17530100,-86.80510250,-144.78457023,-67.77468908,78.22176758
-1.26073189,-8.94527831,31.78975279,0.51716380,0.86812045,-0.30408474

>  <Name>
2et3_lig

>  <RI>
0

>  <Rbt.Current_Directory>
/home/itssahil/PROJECTS/Mol_Feturizer/New_Systems/rnas/2et3

>  <Rbt.Executable>
rbdock ($Id: //depot/dev/client3/rdock/2013.1/src/exe/rbdock.cxx#4 $)

>  <Rbt.Library>
libRbt.so (2013.1, Build901 2013/11/27)

>  <Rbt.Parameter_File>
/export/apps/rDock/src/rDock_2013.1_src/data/scripts/dock_solv.prm

>  <Rbt.Receptor>
prm/pocket_docking_2.prm

>  <SCORE>
-33.0193

>  <SCORE.INTER>
-25.0257

>  <SCORE.INTER.CONST>
1

>  <SCORE.INTER.POLAR>
-0.938083

>  <SCORE.INTER.ROT>
6

>  <SCORE.INTER.SOLV>
16.907

>  <SCORE.INTER.VDW>
-26.7925

>  <SCORE.INTER.norm>
-0.80728

>  <SCORE.INTRA>
-7.99473

>  <SCORE.INTRA.DIHEDRAL>
-13.9312

>  <SCORE.INTRA.DIHEDRAL.0>
22.2484

>  <SCORE.INTRA.POLAR>
0

>  <SCORE.INTRA.POLAR.0>
0

>  <SCORE.INTRA.REPUL>
0

>  <SCORE.INTRA.REPUL.0>
0

>  <SCORE.INTRA.SOLV>
-1.47223

>  <SCORE.INTRA.SOLV.lig_0>
-75.7198

>  <SCORE.INTRA.VDW>
-0.293004

>  <SCORE.INTRA.VDW.0>
-3.34171

>  <SCORE.INTRA.norm>
-0.257895

>  <SCORE.RESTR>
0.00114541

>  <SCORE.RESTR.CAVITY>
0.00114541

>  <SCORE.RESTR.norm>
3.69488e-05

>  <SCORE.SYSTEM>
0

>  <SCORE.SYSTEM.CONST>
0

>  <SCORE.SYSTEM.DIHEDRAL>
0

>  <SCORE.SYSTEM.SOLV>
0

>  <SCORE.SYSTEM.norm>
0

>  <SCORE.heavy>
31

>  <SCORE.norm>
-1.06514

>  <RMSD>
0.969

$$$$
2et3_lig
 OpenBabel11021811423D
libRbt.so/2013.1/901 2013/11/27
 31 33  0  0  0  0  0  0  0  0999 V2000
    0.1368   -7.1085   29.4063 C   0  0  2  0  0  0  0  0  0  0  0  0
   -0.5213   -8.3871   29.2107 O   0  0  0  0  0  0  0  0  0  0  0  0
   -1.6024  -11.3386   32.1135 C   0  0  2  0  0  0  0  0  0  0  0  0
   -1.4605  -12.3328   33.1319 N   0  0  0  0  0  0  0  0  0  0  0  0
   -1.6471  -10.3004   35.0616 C   0  0  2  0  0  0  0  0  0  0  0  0
   -0.4775   -6.0611   28.4715 C   0  0  2  0  0  0  0  0  0  0  0  0
   -1.8856   -6.0012   28.7161 N   0  0  0  0  0  0  0  0  0  0  0  0
   -0.8669  -11.8099   30.8177 C   0  0  0  0  0  0  0  0  0  0  0  0
   -3.0820  -10.7890   35.3587 C   0  0  2  0  0  0  0  0  0  0  0  0
   -3.5033  -11.6337   34.3111 O   0  0  0  0  0  0  0  0  0  0  0  0
   -0.1590   -6.4083   26.9770 C   0  0  0  0  0  0  0  0  0  0  0  0
   -1.0103  -10.7184   29.6947 C   0  0  2  0  0  0  0  0  0  0  0  0
   -0.3187  -11.1574   28.4722 N   0  0  0  0  0  0  0  0  0  0  0  0
   -4.0121   -9.5154   35.4988 C   0  0  1  0  0  0  0  0  0  0  0  0
   -5.4400   -9.9031   35.7428 N   0  0  0  0  0  0  0  0  0  0  0  0
    1.3924   -6.4212   26.8044 C   0  0  0  0  0  0  0  0  0  0  0  0
   -0.4166   -9.3511   30.2092 C   0  0  2  0  0  0  0  0  0  0  0  0
   -3.4834   -8.5651   36.6993 C   0  0  1  0  0  0  0  0  0  0  0  0
   -3.5364   -9.2318   37.9436 O   0  0  0  0  0  0  0  0  0  0  0  0
    2.0053   -7.4955   27.8068 C   0  0  2  0  0  0  0  0  0  0  0  0
    1.6026   -7.2546   29.1914 O   0  0  0  0  0  0  0  0  0  0  0  0
   -1.1769   -8.9040   31.5168 C   0  0  2  0  0  0  0  0  0  0  0  0
   -0.6582   -7.6677   31.9968 O   0  0  0  0  0  0  0  0  0  0  0  0
   -1.9950   -8.1835   36.4299 C   0  0  0  0  0  0  0  0  0  0  0  0
   -1.1745   -9.4114   36.1620 O   0  0  0  0  0  0  0  0  0  0  0  0
    3.5085   -7.6245   27.7310 C   0  0  0  0  0  0  0  0  0  0  0  0
    4.1691   -6.3921   28.0725 N   0  0  0  0  0  0  0  0  0  0  0  0
   -1.0241  -10.0053   32.6240 C   0  0  1  0  0  0  0  0  0  0  0  0
   -1.7216   -9.5873   33.7911 O   0  0  0  0  0  0  0  0  0  0  0  0
   -4.2710   -7.2735   36.9580 C   0  0  0  0  0  0  0  0  0  0  0  0
   -6.3832   -9.7279   34.6258 C   0  0  0  0  0  0  0  0  0  0  0  0
  1  2  1  6  0  0  0
  1  6  1  0  0  0  0
  1 21  1  0  0  0  0
  3  4  1  1  0  0  0
  3  8  1  0  0  0  0
  3 28  1  0  0  0  0
  5  9  1  0  0  0  0
  5 25  1  0  0  0  0
  5 29  1  6  0  0  0
  6  7  1  6  0  0  0
  6 11  1  0  0  0  0
  8 12  1  0  0  0  0
  9 10  1  6  0  0  0
  9 14  1  0  0  0  0
 11 16  1  0  0  0  0
 12 13  1  6  0  0  0
 12 17  1  0  0  0  0
 14 15  1  1  0  0  0
 14 18  1  0  0  0  0
 15 31  1  0  0  0  0
 16 20  1  0  0  0  0
 17  2  1  6  0  0  0
 17 22  1  0  0  0  0
 18 19  1  1  0  0  0
 18 24  1  0  0  0  0
 18 30  1  0  0  0  0
 20 21  1  0  0  0  0
 20 26  1  1  0  0  0
 22 23  1  1  0  0  0
 22 28  1  0  0  0  0
 24 25  1  0  0  0  0
 26 27  1  0  0  0  0
 28 29  1  1  0  0  0
M  END
>  <CHROM.1>
-160.61230122,-117.37371759,-106.70933335,-171.34469077,61.53606415,67.43499728
-1.27374650,-8.91628496,32.03014775,0.03736427,1.03352945,0.24182916

>  <Name>
2et3_lig

>  <RI>
0

>  <Rbt.Current_Directory>
/home/itssahil/PROJECTS/Mol_Feturizer/New_Systems/rnas/2et3

>  <Rbt.Executable>
rbdock ($Id: //depot/dev/client3/rdock/2013.1/src/exe/rbdock.cxx#4 $)

>  <Rbt.Library>
libRbt.so (2013.1, Build901 2013/11/27)

>  <Rbt.Parameter_File>
/export/apps/rDock/src/rDock_2013.1_src/data/scripts/dock_solv.prm

>  <Rbt.Receptor>
prm/blind_docking_100.prm

>  <SCORE>
-24.4891

>  <SCORE.INTER>
-20.5455

>  <SCORE.INTER.CONST>
1

>  <SCORE.INTER.POLAR>
-0.938083

>  <SCORE.INTER.ROT>
6

>  <SCORE.INTER.SOLV>
22.2231

>  <SCORE.INTER.VDW>
-25.5777

>  <SCORE.INTER.norm>
-0.662757

>  <SCORE.INTRA>
-4.37607

>  <SCORE.INTRA.DIHEDRAL>
-11.5346

>  <SCORE.INTRA.DIHEDRAL.0>
22.2484

>  <SCORE.INTRA.POLAR>
0

>  <SCORE.INTRA.POLAR.0>
0

>  <SCORE.INTRA.REPUL>
0

>  <SCORE.INTRA.REPUL.0>
0

>  <SCORE.INTRA.SOLV>
-0.0957168

>  <SCORE.INTRA.SOLV.lig_0>
-75.7198

>  <SCORE.INTRA.VDW>
1.43908

>  <SCORE.INTRA.VDW.0>
-3.34171

>  <SCORE.INTRA.norm>
-0.141164

>  <SCORE.RESTR>
0.432415

>  <SCORE.RESTR.CAVITY>
0.432415

>  <SCORE.RESTR.norm>
0.0139489

>  <SCORE.SYSTEM>
0

>  <SCORE.SYSTEM.CONST>
0

>  <SCORE.SYSTEM.DIHEDRAL>
0

>  <SCORE.SYSTEM.SOLV>
0

>  <SCORE.SYSTEM.norm>
0

>  <SCORE.heavy>
31

>  <SCORE.norm>
-0.789971

>  <RMSD>
0.970

$$$$
2et3_lig
 OpenBabel11021811423D
libRbt.so/2013.1/901 2013/11/27
 31 33  0  0  0  0  0  0  0  0999 V2000
    0.2615   -6.7581   29.5255 C   0  0  2  0  0  0  0  0  0  0  0  0
   -0.3881   -8.0329   29.2822 O   0  0  0  0  0  0  0  0  0  0  0  0
   -1.0877  -11.5755   31.5772 C   0  0  2  0  0  0  0  0  0  0  0  0
   -0.8709  -12.6219   32.5277 N   0  0  0  0  0  0  0  0  0  0  0  0
   -2.0978  -10.9214   34.5443 C   0  0  2  0  0  0  0  0  0  0  0  0
   -0.2765   -5.7075   28.5483 C   0  0  2  0  0  0  0  0  0  0  0  0
   -1.6984   -5.6392   28.6893 N   0  0  0  0  0  0  0  0  0  0  0  0
    0.0481  -11.6014   30.5041 C   0  0  0  0  0  0  0  0  0  0  0  0
   -3.5447  -10.9893   35.0806 C   0  0  2  0  0  0  0  0  0  0  0  0
   -4.3451  -11.6827   34.1495 O   0  0  0  0  0  0  0  0  0  0  0  0
    0.1484   -6.0571   27.0811 C   0  0  0  0  0  0  0  0  0  0  0  0
   -0.1774  -10.4480   29.4592 C   0  0  2  0  0  0  0  0  0  0  0  0
    0.8901  -10.4678   28.4464 N   0  0  0  0  0  0  0  0  0  0  0  0
   -4.0523   -9.5064   35.3047 C   0  0  1  0  0  0  0  0  0  0  0  0
   -5.4733   -9.4794   35.7829 N   0  0  0  0  0  0  0  0  0  0  0  0
    1.7081   -6.0792   27.0224 C   0  0  0  0  0  0  0  0  0  0  0  0
   -0.2105   -9.0592   30.2054 C   0  0  2  0  0  0  0  0  0  0  0  0
   -3.0964   -8.7416   36.3654 C   0  0  1  0  0  0  0  0  0  0  0  0
   -3.1309   -9.3666   37.6318 O   0  0  0  0  0  0  0  0  0  0  0  0
    2.2397   -7.1567   28.0669 C   0  0  2  0  0  0  0  0  0  0  0  0
    1.7382   -6.9130   29.4184 O   0  0  0  0  0  0  0  0  0  0  0  0
   -1.3637   -9.0654   31.2814 C   0  0  2  0  0  0  0  0  0  0  0  0
   -1.4137   -7.8174   31.9654 O   0  0  0  0  0  0  0  0  0  0  0  0
   -1.6238   -8.7913   35.8531 C   0  0  0  0  0  0  0  0  0  0  0  0
   -1.2280  -10.1997   35.5177 O   0  0  0  0  0  0  0  0  0  0  0  0
    3.7436   -7.2946   28.1013 C   0  0  0  0  0  0  0  0  0  0  0  0
    4.2516   -7.9139   26.9053 N   0  0  0  0  0  0  0  0  0  0  0  0
   -1.1227  -10.2228   32.3131 C   0  0  1  0  0  0  0  0  0  0  0  0
   -2.1755  -10.2161   33.2696 O   0  0  0  0  0  0  0  0  0  0  0  0
   -3.4450   -7.2812   36.6838 C   0  0  0  0  0  0  0  0  0  0  0  0
   -6.5277   -9.5771   34.7598 C   0  0  0  0  0  0  0  0  0  0  0  0
  1  2  1  6  0  0  0
  1  6  1  0  0  0  0
  1 21  1  0  0  0  0
  3  4  1  1  0  0  0
  3  8  1  0  0  0  0
  3 28  1  0  0  0  0
  5  9  1  0  0  0  0
  5 25  1  0  0  0  0
  5 29  1  6  0  0  0
  6  7  1  6  0  0  0
  6 11  1  0  0  0  0
  8 12  1  0  0  0  0
  9 10  1  6  0  0  0
  9 14  1  0  0  0  0
 11 16  1  0  0  0  0
 12 13  1  6  0  0  0
 12 17  1  0  0  0  0
 14 15  1  1  0  0  0
 14 18  1  0  0  0  0
 15 31  1  0  0  0  0
 16 20  1  0  0  0  0
 17  2  1  6  0  0  0
 17 22  1  0  0  0  0
 18 19  1  1  0  0  0
 18 24  1  0  0  0  0
 18 30  1  0  0  0  0
 20 21  1  0  0  0  0
 20 26  1  1  0  0  0
 22 23  1  1  0  0  0
 22 28  1  0  0  0  0
 24 25  1  0  0  0  0
 26 27  1  0  0  0  0
 28 29  1  1  0  0  0
M  END
>  <CHROM.1>
-169.18523631,-164.57859746,-83.23106354,-145.59284090,-70.11558543,75.65603354
-1.13207604,-8.94027585,31.84729078,0.50947154,0.89282748,-0.29839828

>  <Name>
2et3_lig

>  <RI>
0

>  <Rbt.Current_Directory>
/home/itssahil/PROJECTS/Mol_Feturizer/New_Systems/rnas/2et3

>  <Rbt.Executable>
rbdock ($Id: //depot/dev/client3/rdock/2013.1/src/exe/rbdock.cxx#4 $)

>  <Rbt.Library>
libRbt.so (2013.1, Build901 2013/11/27)

>  <Rbt.Parameter_File>
/export/apps/rDock/src/rDock_2013.1_src/data/scripts/dock_solv.prm

>  <Rbt.Receptor>
prm/pocket_docking_6.prm

>  <SCORE>
-33.1484

>  <SCORE.INTER>
-25.2092

>  <SCORE.INTER.CONST>
1

>  <SCORE.INTER.POLAR>
-0.938083

>  <SCORE.INTER.ROT>
6

>  <SCORE.INTER.SOLV>
17.5037

>  <SCORE.INTER.VDW>
-27.1138

>  <SCORE.INTER.norm>
-0.8132

>  <SCORE.INTRA>
-7.93922

>  <SCORE.INTRA.DIHEDRAL>
-14.1404

>  <SCORE.INTRA.DIHEDRAL.0>
22.2484

>  <SCORE.INTRA.POLAR>
0

>  <SCORE.INTRA.POLAR.0>
0

>  <SCORE.INTRA.REPUL>
0

>  <SCORE.INTRA.REPUL.0>
0

>  <SCORE.INTRA.SOLV>
-1.46529

>  <SCORE.INTRA.SOLV.lig_0>
-75.7198

>  <SCORE.INTRA.VDW>
-0.136394

>  <SCORE.INTRA.VDW.0>
-3.34171

>  <SCORE.INTRA.norm>
-0.256104

>  <SCORE.RESTR>
0

>  <SCORE.RESTR.CAVITY>
0

>  <SCORE.RESTR.norm>
0

>  <SCORE.SYSTEM>
0

>  <SCORE.SYSTEM.CONST>
0

>  <SCORE.SYSTEM.DIHEDRAL>
0

>  <SCORE.SYSTEM.SOLV>
0

>  <SCORE.SYSTEM.norm>
0

>  <SCORE.heavy>
31

>  <SCORE.norm>
-1.0693

>  <RMSD>
0.977

$$$$
2et3_lig
 OpenBabel11021811423D
libRbt.so/2013.1/901 2013/11/27
 31 33  0  0  0  0  0  0  0  0999 V2000
    0.3175   -6.6110   29.6550 C   0  0  2  0  0  0  0  0  0  0  0  0
   -0.4956   -7.7976   29.4626 O   0  0  0  0  0  0  0  0  0  0  0  0
   -1.1617  -11.4994   31.5021 C   0  0  2  0  0  0  0  0  0  0  0  0
   -0.9451  -12.5979   32.3921 N   0  0  0  0  0  0  0  0  0  0  0  0
   -2.2658  -10.9942   34.5073 C   0  0  2  0  0  0  0  0  0  0  0  0
   -0.2701   -5.4446   28.8535 C   0  0  2  0  0  0  0  0  0  0  0  0
   -1.6297   -5.2542   29.2554 N   0  0  0  0  0  0  0  0  0  0  0  0
    0.0112  -11.4227   30.4723 C   0  0  0  0  0  0  0  0  0  0  0  0
   -3.7102  -11.0680   35.0496 C   0  0  2  0  0  0  0  0  0  0  0  0
   -4.5129  -11.7599   34.1193 O   0  0  0  0  0  0  0  0  0  0  0  0
   -0.1493   -5.7219   27.3160 C   0  0  0  0  0  0  0  0  0  0  0  0
   -0.2143  -10.2118   29.4946 C   0  0  2  0  0  0  0  0  0  0  0  0
    0.8881  -10.1349   28.5228 N   0  0  0  0  0  0  0  0  0  0  0  0
   -4.2206   -9.5873   35.2815 C   0  0  1  0  0  0  0  0  0  0  0  0
   -5.6396   -9.5658   35.7661 N   0  0  0  0  0  0  0  0  0  0  0  0
    1.3646   -5.8856   26.9724 C   0  0  0  0  0  0  0  0  0  0  0  0
   -0.3179   -8.8754   30.3252 C   0  0  2  0  0  0  0  0  0  0  0  0
   -3.2621   -8.8240   36.3410 C   0  0  1  0  0  0  0  0  0  0  0  0
   -3.2894   -9.4539   37.6051 O   0  0  0  0  0  0  0  0  0  0  0  0
    1.9549   -7.0831   27.8396 C   0  0  2  0  0  0  0  0  0  0  0  0
    1.7276   -6.8951   29.2715 O   0  0  0  0  0  0  0  0  0  0  0  0
   -1.5072   -8.9848   31.3554 C   0  0  2  0  0  0  0  0  0  0  0  0
   -1.6209   -7.7853   32.1144 O   0  0  0  0  0  0  0  0  0  0  0  0
   -1.7917   -8.8680   35.8220 C   0  0  0  0  0  0  0  0  0  0  0  0
   -1.3936  -10.2740   35.4795 O   0  0  0  0  0  0  0  0  0  0  0  0
    3.4183   -7.3634   27.5909 C   0  0  0  0  0  0  0  0  0  0  0  0
    3.8189   -8.6355   28.1323 N   0  0  0  0  0  0  0  0  0  0  0  0
   -1.2656  -10.1984   32.3202 C   0  0  1  0  0  0  0  0  0  0  0  0
   -2.3509  -10.2843   33.2356 O   0  0  0  0  0  0  0  0  0  0  0  0
   -3.6131   -7.3658   36.6665 C   0  0  0  0  0  0  0  0  0  0  0  0
   -6.6981   -9.6729   34.7481 C   0  0  0  0  0  0  0  0  0  0  0  0
  1  2  1  6  0  0  0
  1  6  1  0  0  0  0
  1 21  1  0  0  0  0
  3  4  1  1  0  0  0
  3  8  1  0  0  0  0
  3 28  1  0  0  0  0
  5  9  1  0  0  0  0
  5 25  1  0  0  0  0
  5 29  1  6  0  0  0
  6  7  1  1  0  0  0
  6 11  1  0  0  0  0
  8 12  1  0  0  0  0
  9 10  1  6  0  0  0
  9 14  1  0  0  0  0
 11 16  1  0  0  0  0
 12 13  1  6  0  0  0
 12 17  1  0  0  0  0
 14 15  1  1  0  0  0
 14 18  1  0  0  0  0
 15 31  1  0  0  0  0
 16 20  1  0  0  0  0
 17  2  1  6  0  0  0
 17 22  1  0  0  0  0
 18 19  1  1  0  0  0
 18 24  1  0  0  0  0
 18 30  1  0  0  0  0
 20 21  1  0  0  0  0
 20 26  1  1  0  0  0
 22 23  1  1  0  0  0
 22 28  1  0  0  0  0
 24 25  1  0  0  0  0
 26 27  1  0  0  0  0
 28 29  1  1  0  0  0
M  END
>  <CHROM.1>
-165.73179035,-169.59223013,-82.76845642,-133.05385857,-165.68243030,79.84570774
-1.27812753,-8.90827692,31.89836911,0.55294587,0.86672925,-0.33028230

>  <Name>
2et3_lig

>  <RI>
2.5794e+07

>  <Rbt.Current_Directory>
/home/itssahil/PROJECTS/Mol_Feturizer/New_Systems/rnas/2et3

>  <Rbt.Executable>
rbdock ($Id: //depot/dev/client3/rdock/2013.1/src/exe/rbdock.cxx#4 $)

>  <Rbt.Library>
libRbt.so (2013.1, Build901 2013/11/27)

>  <Rbt.Parameter_File>
/export/apps/rDock/src/rDock_2013.1_src/data/scripts/dock_solv.prm

>  <Rbt.Receptor>
prm/pocket_docking_5.prm

>  <SCORE>
-30.6714

>  <SCORE.INTER>
-24.6938

>  <SCORE.INTER.CONST>
1

>  <SCORE.INTER.POLAR>
-0.938083

>  <SCORE.INTER.ROT>
6

>  <SCORE.INTER.SOLV>
19.1603

>  <SCORE.INTER.VDW>
-27.3224

>  <SCORE.INTER.norm>
-0.796574

>  <SCORE.INTRA>
-5.98233

>  <SCORE.INTRA.DIHEDRAL>
-11.3742

>  <SCORE.INTRA.DIHEDRAL.0>
22.2484

>  <SCORE.INTRA.POLAR>
0

>  <SCORE.INTRA.POLAR.0>
0

>  <SCORE.INTRA.REPUL>
0

>  <SCORE.INTRA.REPUL.0>
0

>  <SCORE.INTRA.SOLV>
0.673645

>  <SCORE.INTRA.SOLV.lig_0>
-75.7198

>  <SCORE.INTRA.VDW>
-0.632058

>  <SCORE.INTRA.VDW.0>
-3.34171

>  <SCORE.INTRA.norm>
-0.192979

>  <SCORE.RESTR>
0.00474907

>  <SCORE.RESTR.CAVITY>
0.00474907

>  <SCORE.RESTR.norm>
0.000153196

>  <SCORE.SYSTEM>
0

>  <SCORE.SYSTEM.CONST>
0

>  <SCORE.SYSTEM.DIHEDRAL>
0

>  <SCORE.SYSTEM.SOLV>
0

>  <SCORE.SYSTEM.norm>
0

>  <SCORE.heavy>
31

>  <SCORE.norm>
-0.989399

>  <RMSD>
0.983

$$$$
2et3_lig
 OpenBabel11021811423D
libRbt.so/2013.1/901 2013/11/27
 31 33  0  0  0  0  0  0  0  0999 V2000
    0.0859   -6.7733   29.5241 C   0  0  2  0  0  0  0  0  0  0  0  0
   -0.5041   -8.0729   29.2612 O   0  0  0  0  0  0  0  0  0  0  0  0
   -1.1462  -11.6340   31.5443 C   0  0  2  0  0  0  0  0  0  0  0  0
   -0.9207  -12.6708   32.5035 N   0  0  0  0  0  0  0  0  0  0  0  0
   -2.2444  -10.9620   34.5037 C   0  0  2  0  0  0  0  0  0  0  0  0
   -0.4685   -5.7427   28.5347 C   0  0  2  0  0  0  0  0  0  0  0  0
   -1.8951   -5.7331   28.6377 N   0  0  0  0  0  0  0  0  0  0  0  0
    0.0205  -11.6220   30.5046 C   0  0  0  0  0  0  0  0  0  0  0  0
   -3.6949  -11.0570   35.0260 C   0  0  2  0  0  0  0  0  0  0  0  0
   -4.4603  -11.8131   34.1144 O   0  0  0  0  0  0  0  0  0  0  0  0
    0.0094   -6.0704   27.0788 C   0  0  0  0  0  0  0  0  0  0  0  0
   -0.2147  -10.4789   29.4506 C   0  0  2  0  0  0  0  0  0  0  0  0
    0.8818  -10.4631   28.4692 N   0  0  0  0  0  0  0  0  0  0  0  0
   -4.2539   -9.5841   35.1848 C   0  0  1  0  0  0  0  0  0  0  0  0
   -5.6809   -9.5857   35.6456 N   0  0  0  0  0  0  0  0  0  0  0  0
    1.5698   -6.0286   27.0619 C   0  0  0  0  0  0  0  0  0  0  0  0
   -0.3178   -9.0909   30.1919 C   0  0  2  0  0  0  0  0  0  0  0  0
   -3.3372   -8.7464   36.2248 C   0  0  1  0  0  0  0  0  0  0  0  0
   -3.3669   -9.3215   37.5147 O   0  0  0  0  0  0  0  0  0  0  0  0
    2.1170   -7.0864   28.1184 C   0  0  2  0  0  0  0  0  0  0  0  0
    1.5701   -6.8673   29.4564 O   0  0  0  0  0  0  0  0  0  0  0  0
   -1.5008   -9.1355   31.2342 C   0  0  2  0  0  0  0  0  0  0  0  0
   -1.6140   -7.8890   31.9132 O   0  0  0  0  0  0  0  0  0  0  0  0
   -1.8574   -8.7671   35.7315 C   0  0  0  0  0  0  0  0  0  0  0  0
   -1.4111  -10.1736   35.4571 O   0  0  0  0  0  0  0  0  0  0  0  0
    3.6238   -7.1628   28.1928 C   0  0  0  0  0  0  0  0  0  0  0  0
    4.1972   -7.6340   26.9595 N   0  0  0  0  0  0  0  0  0  0  0  0
   -1.2496  -10.2822   32.2754 C   0  0  1  0  0  0  0  0  0  0  0  0
   -2.3293  -10.3107   33.2010 O   0  0  0  0  0  0  0  0  0  0  0  0
   -3.7376   -7.2870   36.4807 C   0  0  0  0  0  0  0  0  0  0  0  0
   -6.7222   -9.6148   34.6049 C   0  0  0  0  0  0  0  0  0  0  0  0
  1  2  1  6  0  0  0
  1  6  1  0  0  0  0
  1 21  1  0  0  0  0
  3  4  1  1  0  0  0
  3  8  1  0  0  0  0
  3 28  1  0  0  0  0
  5  9  1  0  0  0  0
  5 25  1  0  0  0  0
  5 29  1  6  0  0  0
  6  7  1  6  0  0  0
  6 11  1  0  0  0  0
  8 12  1  0  0  0  0
  9 10  1  6  0  0  0
  9 14  1  0  0  0  0
 11 16  1  0  0  0  0
 12 13  1  6  0  0  0
 12 17  1  0  0  0  0
 14 15  1  1  0  0  0
 14 18  1  0  0  0  0
 15 31  1  0  0  0  0
 16 20  1  0  0  0  0
 17  2  1  6  0  0  0
 17 22  1  0  0  0  0
 18 19  1  1  0  0  0
 18 24  1  0  0  0  0
 18 30  1  0  0  0  0
 20 21  1  0  0  0  0
 20 26  1  1  0  0  0
 22 23  1  1  0  0  0
 22 28  1  0  0  0  0
 24 25  1  0  0  0  0
 26 27  1  0  0  0  0
 28 29  1  1  0  0  0
M  END
>  <CHROM.1>
-168.71207848,-166.72424625,-89.55897897,-145.99120379,-64.38659982,78.37605359
-1.27928760,-8.95566833,31.80596224,0.53324051,0.86388121,-0.31811718

>  <Name>
2et3_lig

>  <RI>
0

>  <Rbt.Current_Directory>
/home/itssahil/PROJECTS/Mol_Feturizer/New_Systems/rnas/2et3

>  <Rbt.Executable>
rbdock ($Id: //depot/dev/client3/rdock/2013.1/src/exe/rbdock.cxx#4 $)

>  <Rbt.Library>
libRbt.so (2013.1, Build901 2013/11/27)

>  <Rbt.Parameter_File>
/export/apps/rDock/src/rDock_2013.1_src/data/scripts/dock_solv.prm

>  <Rbt.Receptor>
prm/pocket_docking_2.prm

>  <SCORE>
-33.0003

>  <SCORE.INTER>
-24.8733

>  <SCORE.INTER.CONST>
1

>  <SCORE.INTER.POLAR>
-0.938083

>  <SCORE.INTER.ROT>
6

>  <SCORE.INTER.SOLV>
17.3517

>  <SCORE.INTER.VDW>
-26.8391

>  <SCORE.INTER.norm>
-0.802363

>  <SCORE.INTRA>
-8.12704

>  <SCORE.INTRA.DIHEDRAL>
-14.1172

>  <SCORE.INTRA.DIHEDRAL.0>
22.2484

>  <SCORE.INTRA.POLAR>
0

>  <SCORE.INTRA.POLAR.0>
0

>  <SCORE.INTRA.REPUL>
0

>  <SCORE.INTRA.REPUL.0>
0

>  <SCORE.INTRA.SOLV>
-1.52279

>  <SCORE.INTRA.SOLV.lig_0>
-75.7198

>  <SCORE.INTRA.VDW>
-0.307043

>  <SCORE.INTRA.VDW.0>
-3.34171

>  <SCORE.INTRA.norm>
-0.262162

>  <SCORE.RESTR>
0

>  <SCORE.RESTR.CAVITY>
0

>  <SCORE.RESTR.norm>
0

>  <SCORE.SYSTEM>
0

>  <SCORE.SYSTEM.CONST>
0

>  <SCORE.SYSTEM.DIHEDRAL>
0

>  <SCORE.SYSTEM.SOLV>
0

>  <SCORE.SYSTEM.norm>
0

>  <SCORE.heavy>
31

>  <SCORE.norm>
-1.06453

>  <RMSD>
0.985

$$$$
2et3_lig
 OpenBabel11021811423D
libRbt.so/2013.1/901 2013/11/27
 31 33  0  0  0  0  0  0  0  0999 V2000
    0.1053   -6.7913   29.5207 C   0  0  2  0  0  0  0  0  0  0  0  0
   -0.4997   -8.0840   29.2581 O   0  0  0  0  0  0  0  0  0  0  0  0
   -1.1671  -11.6479   31.5295 C   0  0  2  0  0  0  0  0  0  0  0  0
   -0.9503  -12.6880   32.4870 N   0  0  0  0  0  0  0  0  0  0  0  0
   -2.2787  -10.9869   34.4816 C   0  0  2  0  0  0  0  0  0  0  0  0
   -0.4477   -5.7514   28.5403 C   0  0  2  0  0  0  0  0  0  0  0  0
   -1.8733   -5.7284   28.6559 N   0  0  0  0  0  0  0  0  0  0  0  0
    0.0042  -11.6384   30.4950 C   0  0  0  0  0  0  0  0  0  0  0  0
   -3.7298  -11.0533   35.0065 C   0  0  2  0  0  0  0  0  0  0  0  0
   -4.5141  -11.7848   34.0909 O   0  0  0  0  0  0  0  0  0  0  0  0
    0.0141   -6.0780   27.0790 C   0  0  0  0  0  0  0  0  0  0  0  0
   -0.2214  -10.4917   29.4427 C   0  0  2  0  0  0  0  0  0  0  0  0
    0.8795  -10.4781   28.4663 N   0  0  0  0  0  0  0  0  0  0  0  0
   -4.2551   -9.5696   35.1783 C   0  0  1  0  0  0  0  0  0  0  0  0
   -5.6809   -9.5427   35.6425 N   0  0  0  0  0  0  0  0  0  0  0  0
    1.5746   -6.0512   27.0484 C   0  0  0  0  0  0  0  0  0  0  0  0
   -0.3219   -9.1051   30.1870 C   0  0  2  0  0  0  0  0  0  0  0  0
   -3.3175   -8.7609   36.2226 C   0  0  1  0  0  0  0  0  0  0  0  0
   -3.3574   -9.3455   37.5080 O   0  0  0  0  0  0  0  0  0  0  0  0
    2.1208   -7.1185   28.0959 C   0  0  2  0  0  0  0  0  0  0  0  0
    1.5878   -6.8994   29.4395 O   0  0  0  0  0  0  0  0  0  0  0  0
   -1.5096   -9.1472   31.2240 C   0  0  2  0  0  0  0  0  0  0  0  0
   -1.6205   -7.9018   31.9055 O   0  0  0  0  0  0  0  0  0  0  0  0
   -1.8396   -8.8111   35.7256 C   0  0  0  0  0  0  0  0  0  0  0  0
   -1.4258  -10.2251   35.4392 O   0  0  0  0  0  0  0  0  0  0  0  0
    3.6274   -7.2098   28.1566 C   0  0  0  0  0  0  0  0  0  0  0  0
    4.1776   -7.7814   26.9557 N   0  0  0  0  0  0  0  0  0  0  0  0
   -1.2679  -10.2975   32.2635 C   0  0  1  0  0  0  0  0  0  0  0  0
   -2.3518  -10.3236   33.1843 O   0  0  0  0  0  0  0  0  0  0  0  0
   -3.6844   -7.2950   36.4909 C   0  0  0  0  0  0  0  0  0  0  0  0
   -6.7251   -9.6392   34.6088 C   0  0  0  0  0  0  0  0  0  0  0  0
  1  2  1  6  0  0  0
  1  6  1  0  0  0  0
  1 21  1  0  0  0  0
  3  4  1  1  0  0  0
  3  8  1  0  0  0  0
  3 28  1  0  0  0  0
  5  9  1  0  0  0  0
  5 25  1  0  0  0  0
  5 29  1  6  0  0  0
  6  7  1  6  0  0  0
  6 11  1  0  0  0  0
  8 12  1  0  0  0  0
  9 10  1  6  0  0  0
  9 14  1  0  0  0  0
 11 16  1  0  0  0  0
 12 13  1  6  0  0  0
 12 17  1  0  0  0  0
 14 15  1  1  0  0  0
 14 18  1  0  0  0  0
 15 31  1  0  0  0  0
 16 20  1  0  0  0  0
 17  2  1  6  0  0  0
 17 22  1  0  0  0  0
 18 19  1  1  0  0  0
 18 24  1  0  0  0  0
 18 30  1  0  0  0  0
 20 21  1  0  0  0  0
 20 26  1  1  0  0  0
 22 23  1  1  0  0  0
 22 28  1  0  0  0  0
 24 25  1  0  0  0  0
 26 27  1  0  0  0  0
 28 29  1  1  0  0  0
M  END
>  <CHROM.1>
-168.33050916,-167.55643278,-85.22017407,-145.42165603,-68.99412696,77.90910436
-1.28245712,-8.97403169,31.79713944,0.52498278,0.86624140,-0.31175874

>  <Name>
2et3_lig

>  <RI>
0

>  <Rbt.Current_Directory>
/home/itssahil/PROJECTS/Mol_Feturizer/New_Systems/rnas/2et3

>  <Rbt.Executable>
rbdock ($Id: //depot/dev/client3/rdock/2013.1/src/exe/rbdock.cxx#4 $)

>  <Rbt.Library>
libRbt.so (2013.1, Build901 2013/11/27)

>  <Rbt.Parameter_File>
/export/apps/rDock/src/rDock_2013.1_src/data/scripts/dock_solv.prm

>  <Rbt.Receptor>
prm/pocket_docking_2.prm

>  <SCORE>
-33.0152

>  <SCORE.INTER>
-24.9686

>  <SCORE.INTER.CONST>
1

>  <SCORE.INTER.POLAR>
-0.938083

>  <SCORE.INTER.ROT>
6

>  <SCORE.INTER.SOLV>
16.8984

>  <SCORE.INTER.VDW>
-26.7516

>  <SCORE.INTER.norm>
-0.805439

>  <SCORE.INTRA>
-8.05048

>  <SCORE.INTRA.DIHEDRAL>
-14.0771

>  <SCORE.INTRA.DIHEDRAL.0>
22.2484

>  <SCORE.INTRA.POLAR>
0

>  <SCORE.INTRA.POLAR.0>
0

>  <SCORE.INTRA.REPUL>
0

>  <SCORE.INTRA.REPUL.0>
0

>  <SCORE.INTRA.SOLV>
-1.53288

>  <SCORE.INTRA.SOLV.lig_0>
-75.7198

>  <SCORE.INTRA.VDW>
-0.245475

>  <SCORE.INTRA.VDW.0>
-3.34171

>  <SCORE.INTRA.norm>
-0.259693

>  <SCORE.RESTR>
0.00386763

>  <SCORE.RESTR.CAVITY>
0.00386763

>  <SCORE.RESTR.norm>
0.000124762

>  <SCORE.SYSTEM>
0

>  <SCORE.SYSTEM.CONST>
0

>  <SCORE.SYSTEM.DIHEDRAL>
0

>  <SCORE.SYSTEM.SOLV>
0

>  <SCORE.SYSTEM.norm>
0

>  <SCORE.heavy>
31

>  <SCORE.norm>
-1.06501

>  <RMSD>
0.986

$$$$
2et3_lig
 OpenBabel11021811423D
libRbt.so/2013.1/901 2013/11/27
 31 33  0  0  0  0  0  0  0  0999 V2000
    0.2475   -6.9476   29.4856 C   0  0  2  0  0  0  0  0  0  0  0  0
   -0.4685   -8.1932   29.2806 O   0  0  0  0  0  0  0  0  0  0  0  0
   -1.2317  -11.6804   31.6392 C   0  0  2  0  0  0  0  0  0  0  0  0
   -1.0215  -12.7299   32.5880 N   0  0  0  0  0  0  0  0  0  0  0  0
   -2.0517  -10.9344   34.6558 C   0  0  2  0  0  0  0  0  0  0  0  0
   -0.4167   -5.8287   28.6761 C   0  0  2  0  0  0  0  0  0  0  0  0
   -1.7927   -5.7447   29.0578 N   0  0  0  0  0  0  0  0  0  0  0  0
   -0.1516  -11.7705   30.5134 C   0  0  0  0  0  0  0  0  0  0  0  0
   -3.4981  -11.1634   35.1468 C   0  0  2  0  0  0  0  0  0  0  0  0
   -4.1820  -11.9547   34.2010 O   0  0  0  0  0  0  0  0  0  0  0  0
   -0.2521   -6.0934   27.1404 C   0  0  0  0  0  0  0  0  0  0  0  0
   -0.3697  -10.6145   29.4697 C   0  0  2  0  0  0  0  0  0  0  0  0
    0.6454  -10.6947   28.4074 N   0  0  0  0  0  0  0  0  0  0  0  0
   -4.1803   -9.7467   35.3330 C   0  0  1  0  0  0  0  0  0  0  0  0
   -5.6101   -9.8790   35.7655 N   0  0  0  0  0  0  0  0  0  0  0  0
    1.2749   -6.1389   26.8193 C   0  0  0  0  0  0  0  0  0  0  0  0
   -0.2979   -9.2207   30.2037 C   0  0  2  0  0  0  0  0  0  0  0  0
   -3.3547   -8.8650   36.4122 C   0  0  1  0  0  0  0  0  0  0  0  0
   -3.3590   -9.4760   37.6858 O   0  0  0  0  0  0  0  0  0  0  0  0
    1.9432   -7.2887   27.6946 C   0  0  2  0  0  0  0  0  0  0  0  0
    1.6808   -7.1212   29.1230 O   0  0  0  0  0  0  0  0  0  0  0  0
   -1.3967   -9.1617   31.3337 C   0  0  2  0  0  0  0  0  0  0  0  0
   -1.3517   -7.9082   32.0077 O   0  0  0  0  0  0  0  0  0  0  0  0
   -1.8700   -8.7497   35.9476 C   0  0  0  0  0  0  0  0  0  0  0  0
   -1.3036  -10.1064   35.6455 O   0  0  0  0  0  0  0  0  0  0  0  0
    3.4273   -7.4546   27.4676 C   0  0  0  0  0  0  0  0  0  0  0  0
    4.1750   -6.3352   27.9774 N   0  0  0  0  0  0  0  0  0  0  0  0
   -1.1639  -10.3226   32.3634 C   0  0  1  0  0  0  0  0  0  0  0  0
   -2.1678  -10.2567   33.3690 O   0  0  0  0  0  0  0  0  0  0  0  0
   -3.8796   -7.4514   36.6980 C   0  0  0  0  0  0  0  0  0  0  0  0
   -6.6434   -9.6951   34.7327 C   0  0  0  0  0  0  0  0  0  0  0  0
  1  2  1  6  0  0  0
  1  6  1  0  0  0  0
  1 21  1  0  0  0  0
  3  4  1  1  0  0  0
  3  8  1  0  0  0  0
  3 28  1  0  0  0  0
  5  9  1  0  0  0  0
  5 25  1  0  0  0  0
  5 29  1  6  0  0  0
  6  7  1  6  0  0  0
  6 11  1  0  0  0  0
  8 12  1  0  0  0  0
  9 10  1  6  0  0  0
  9 14  1  0  0  0  0
 11 16  1  0  0  0  0
 12 13  1  6  0  0  0
 12 17  1  0  0  0  0
 14 15  1  1  0  0  0
 14 18  1  0  0  0  0
 15 31  1  0  0  0  0
 16 20  1  0  0  0  0
 17  2  1  6  0  0  0
 17 22  1  0  0  0  0
 18 19  1  1  0  0  0
 18 24  1  0  0  0  0
 18 30  1  0  0  0  0
 20 21  1  0  0  0  0
 20 26  1  1  0  0  0
 22 23  1  1  0  0  0
 22 28  1  0  0  0  0
 24 25  1  0  0  0  0
 26 27  1  0  0  0  0
 28 29  1  1  0  0  0
M  END
>  <CHROM.1>
-160.90460677,-154.77336121,-101.48417928,-146.00514739,69.19165384,76.92805429
-1.26867534,-9.01565364,31.87847300,0.45425892,0.93240819,-0.19413893

>  <Name>
2et3_lig

>  <RI>
0

>  <Rbt.Current_Directory>
/home/itssahil/PROJECTS/Mol_Feturizer/New_Systems/rnas/2et3

>  <Rbt.Executable>
rbdock ($Id: //depot/dev/client3/rdock/2013.1/src/exe/rbdock.cxx#4 $)

>  <Rbt.Library>
libRbt.so (2013.1, Build901 2013/11/27)

>  <Rbt.Parameter_File>
/export/apps/rDock/src/rDock_2013.1_src/data/scripts/dock_solv.prm

>  <Rbt.Receptor>
prm/blind_docking_100.prm

>  <SCORE>
-25.5235

>  <SCORE.INTER>
-20.3573

>  <SCORE.INTER.CONST>
1

>  <SCORE.INTER.POLAR>
-0.938083

>  <SCORE.INTER.ROT>
6

>  <SCORE.INTER.SOLV>
23.4355

>  <SCORE.INTER.VDW>
-25.8564

>  <SCORE.INTER.norm>
-0.656686

>  <SCORE.INTRA>
-5.96899

>  <SCORE.INTRA.DIHEDRAL>
-10.8308

>  <SCORE.INTRA.DIHEDRAL.0>
22.2484

>  <SCORE.INTRA.POLAR>
0

>  <SCORE.INTRA.POLAR.0>
0

>  <SCORE.INTRA.REPUL>
0

>  <SCORE.INTRA.REPUL.0>
0

>  <SCORE.INTRA.SOLV>
-0.293242

>  <SCORE.INTRA.SOLV.lig_0>
-75.7198

>  <SCORE.INTRA.VDW>
-0.406959

>  <SCORE.INTRA.VDW.0>
-3.34171

>  <SCORE.INTRA.norm>
-0.192548

>  <SCORE.RESTR>
0.802775

>  <SCORE.RESTR.CAVITY>
0.802775

>  <SCORE.RESTR.norm>
0.025896

>  <SCORE.SYSTEM>
0

>  <SCORE.SYSTEM.CONST>
0

>  <SCORE.SYSTEM.DIHEDRAL>
0

>  <SCORE.SYSTEM.SOLV>
0

>  <SCORE.SYSTEM.norm>
0

>  <SCORE.heavy>
31

>  <SCORE.norm>
-0.823338

>  <RMSD>
0.987

$$$$
2et3_lig
 OpenBabel11021811423D
libRbt.so/2013.1/901 2013/11/27
 31 33  0  0  0  0  0  0  0  0999 V2000
    0.2383   -6.5864   29.6526 C   0  0  2  0  0  0  0  0  0  0  0  0
   -0.5090   -7.8118   29.4382 O   0  0  0  0  0  0  0  0  0  0  0  0
   -1.1181  -11.4935   31.5311 C   0  0  2  0  0  0  0  0  0  0  0  0
   -0.8845  -12.5756   32.4367 N   0  0  0  0  0  0  0  0  0  0  0  0
   -2.2313  -10.9695   34.5254 C   0  0  2  0  0  0  0  0  0  0  0  0
   -0.3795   -5.4516   28.8286 C   0  0  2  0  0  0  0  0  0  0  0  0
   -1.7591   -5.3275   29.1857 N   0  0  0  0  0  0  0  0  0  0  0  0
    0.0531  -11.4139   30.4996 C   0  0  0  0  0  0  0  0  0  0  0  0
   -3.6746  -11.0556   35.0687 C   0  0  2  0  0  0  0  0  0  0  0  0
   -4.4692  -11.7651   34.1448 O   0  0  0  0  0  0  0  0  0  0  0  0
   -0.1955   -5.7255   27.2968 C   0  0  0  0  0  0  0  0  0  0  0  0
   -0.1911  -10.2208   29.5047 C   0  0  2  0  0  0  0  0  0  0  0  0
    0.9097  -10.1412   28.5313 N   0  0  0  0  0  0  0  0  0  0  0  0
   -4.2026   -9.5790   35.2878 C   0  0  1  0  0  0  0  0  0  0  0  0
   -5.6217   -9.5701   35.7725 N   0  0  0  0  0  0  0  0  0  0  0  0
    1.3350   -5.8153   27.0028 C   0  0  0  0  0  0  0  0  0  0  0  0
   -0.3146   -8.8742   30.3160 C   0  0  2  0  0  0  0  0  0  0  0  0
   -3.2531   -8.7952   36.3403 C   0  0  1  0  0  0  0  0  0  0  0  0
   -3.2728   -9.4143   37.6099 O   0  0  0  0  0  0  0  0  0  0  0  0
    1.9549   -6.9808   27.8927 C   0  0  2  0  0  0  0  0  0  0  0  0
    1.6723   -6.8015   29.3159 O   0  0  0  0  0  0  0  0  0  0  0  0
   -1.5018   -8.9868   31.3484 C   0  0  2  0  0  0  0  0  0  0  0  0
   -1.6334   -7.7784   32.0902 O   0  0  0  0  0  0  0  0  0  0  0  0
   -1.7822   -8.8263   35.8214 C   0  0  0  0  0  0  0  0  0  0  0  0
   -1.3676  -10.2305   35.4912 O   0  0  0  0  0  0  0  0  0  0  0  0
    3.4375   -7.1893   27.6924 C   0  0  0  0  0  0  0  0  0  0  0  0
    3.8809   -8.4426   28.2442 N   0  0  0  0  0  0  0  0  0  0  0  0
   -1.2414  -10.1826   32.3304 C   0  0  1  0  0  0  0  0  0  0  0  0
   -2.3250  -10.2718   33.2476 O   0  0  0  0  0  0  0  0  0  0  0  0
   -3.6212   -7.3385   36.6532 C   0  0  0  0  0  0  0  0  0  0  0  0
   -6.6801   -9.6413   34.7513 C   0  0  0  0  0  0  0  0  0  0  0  0
  1  2  1  6  0  0  0
  1  6  1  0  0  0  0
  1 21  1  0  0  0  0
  3  4  1  1  0  0  0
  3  8  1  0  0  0  0
  3 28  1  0  0  0  0
  5  9  1  0  0  0  0
  5 25  1  0  0  0  0
  5 29  1  6  0  0  0
  6  7  1  6  0  0  0
  6 11  1  0  0  0  0
  8 12  1  0  0  0  0
  9 10  1  6  0  0  0
  9 14  1  0  0  0  0
 11 16  1  0  0  0  0
 12 13  1  6  0  0  0
 12 17  1  0  0  0  0
 14 15  1  1  0  0  0
 14 18  1  0  0  0  0
 15 31  1  0  0  0  0
 16 20  1  0  0  0  0
 17  2  1  6  0  0  0
 17 22  1  0  0  0  0
 18 19  1  1  0  0  0
 18 24  1  0  0  0  0
 18 30  1  0  0  0  0
 20 21  1  0  0  0  0
 20 26  1  1  0  0  0
 22 23  1  1  0  0  0
 22 28  1  0  0  0  0
 24 25  1  0  0  0  0
 26 27  1  0  0  0  0
 28 29  1  1  0  0  0
M  END
>  <CHROM.1>
-165.22406181,-169.50236774,-85.28423143,-136.05046017,-165.35818599,79.42975258
-1.27553073,-8.88016606,31.91059725,0.58258076,0.85531805,-0.36059861

>  <Name>
2et3_lig

>  <RI>
0

>  <Rbt.Current_Directory>
/home/itssahil/PROJECTS/Mol_Feturizer/New_Systems/rnas/2et3

>  <Rbt.Executable>
rbdock ($Id: //depot/dev/client3/rdock/2013.1/src/exe/rbdock.cxx#4 $)

>  <Rbt.Library>
libRbt.so (2013.1, Build901 2013/11/27)

>  <Rbt.Parameter_File>
/export/apps/rDock/src/rDock_2013.1_src/data/scripts/dock_solv.prm

>  <Rbt.Receptor>
prm/pocket_docking_3.prm

>  <SCORE>
-30.7114

>  <SCORE.INTER>
-24.3966

>  <SCORE.INTER.CONST>
1

>  <SCORE.INTER.POLAR>
-0.938083

>  <SCORE.INTER.ROT>
6

>  <SCORE.INTER.SOLV>
19.6602

>  <SCORE.INTER.VDW>
-27.2908

>  <SCORE.INTER.norm>
-0.786986

>  <SCORE.INTRA>
-6.32332

>  <SCORE.INTRA.DIHEDRAL>
-11.6515

>  <SCORE.INTRA.DIHEDRAL.0>
22.2484

>  <SCORE.INTRA.POLAR>
0

>  <SCORE.INTRA.POLAR.0>
0

>  <SCORE.INTRA.REPUL>
0

>  <SCORE.INTRA.REPUL.0>
0

>  <SCORE.INTRA.SOLV>
0.29689

>  <SCORE.INTRA.SOLV.lig_0>
-75.7198

>  <SCORE.INTRA.VDW>
-0.646028

>  <SCORE.INTRA.VDW.0>
-3.34171

>  <SCORE.INTRA.norm>
-0.203978

>  <SCORE.RESTR>
0.00843551

>  <SCORE.RESTR.CAVITY>
0.00843551

>  <SCORE.RESTR.norm>
0.000272113

>  <SCORE.SYSTEM>
0

>  <SCORE.SYSTEM.CONST>
0

>  <SCORE.SYSTEM.DIHEDRAL>
0

>  <SCORE.SYSTEM.SOLV>
0

>  <SCORE.SYSTEM.norm>
0

>  <SCORE.heavy>
31

>  <SCORE.norm>
-0.990691

>  <RMSD>
0.988

$$$$
2et3_lig
 OpenBabel11021811423D
libRbt.so/2013.1/901 2013/11/27
 31 33  0  0  0  0  0  0  0  0999 V2000
    0.6211   -6.6848   29.2290 C   0  0  2  0  0  0  0  0  0  0  0  0
   -0.0658   -7.9378   28.9753 O   0  0  0  0  0  0  0  0  0  0  0  0
   -1.1954  -11.3061   31.3597 C   0  0  2  0  0  0  0  0  0  0  0  0
   -1.1305  -12.3149   32.3715 N   0  0  0  0  0  0  0  0  0  0  0  0
   -2.5319  -10.6494   34.0532 C   0  0  2  0  0  0  0  0  0  0  0  0
    0.1831   -5.6363   28.2008 C   0  0  2  0  0  0  0  0  0  0  0  0
   -1.2404   -5.5079   28.2583 N   0  0  0  0  0  0  0  0  0  0  0  0
    0.0203  -11.4605   30.3899 C   0  0  0  0  0  0  0  0  0  0  0  0
   -4.0138  -10.4699   34.4499 C   0  0  2  0  0  0  0  0  0  0  0  0
   -4.8274  -10.8570   33.3652 O   0  0  0  0  0  0  0  0  0  0  0  0
    0.6757   -6.0365   26.7681 C   0  0  0  0  0  0  0  0  0  0  0  0
   -0.0381  -10.3494   29.2785 C   0  0  2  0  0  0  0  0  0  0  0  0
    1.1052  -10.4902   28.3627 N   0  0  0  0  0  0  0  0  0  0  0  0
   -4.2343   -8.9510   34.8389 C   0  0  1  0  0  0  0  0  0  0  0  0
   -5.6654   -8.6779   35.1941 N   0  0  0  0  0  0  0  0  0  0  0  0
    2.2340   -6.1225   26.7998 C   0  0  0  0  0  0  0  0  0  0  0  0
   -0.0363   -8.9253   29.9557 C   0  0  2  0  0  0  0  0  0  0  0  0
   -3.2697   -8.5437   36.0747 C   0  0  1  0  0  0  0  0  0  0  0  0
   -3.5717   -9.2958   37.2318 O   0  0  0  0  0  0  0  0  0  0  0  0
    2.6606   -7.1959   27.8954 C   0  0  2  0  0  0  0  0  0  0  0  0
    2.0938   -6.9011   29.2104 O   0  0  0  0  0  0  0  0  0  0  0  0
   -1.2717   -8.8016   30.9284 C   0  0  2  0  0  0  0  0  0  0  0  0
   -1.2912   -7.5199   31.5486 O   0  0  0  0  0  0  0  0  0  0  0  0
   -1.7891   -8.8458   35.6871 C   0  0  0  0  0  0  0  0  0  0  0  0
   -1.6498  -10.2549   35.1894 O   0  0  0  0  0  0  0  0  0  0  0  0
    4.1531   -7.3931   28.0191 C   0  0  0  0  0  0  0  0  0  0  0  0
    4.6947   -8.1018   26.8894 N   0  0  0  0  0  0  0  0  0  0  0  0
   -1.1970   -9.9184   32.0281 C   0  0  1  0  0  0  0  0  0  0  0  0
   -2.3219   -9.7945   32.8898 O   0  0  0  0  0  0  0  0  0  0  0  0
   -3.3506   -7.0923   36.5671 C   0  0  0  0  0  0  0  0  0  0  0  0
   -6.4441   -9.7969   35.7505 C   0  0  0  0  0  0  0  0  0  0  0  0
  1  2  1  6  0  0  0
  1  6  1  0  0  0  0
  1 21  1  0  0  0  0
  3  4  1  1  0  0  0
  3  8  1  0  0  0  0
  3 28  1  0  0  0  0
  5  9  1  0  0  0  0
  5 25  1  0  0  0  0
  5 29  1  6  0  0  0
  6  7  1  6  0  0  0
  6 11  1  0  0  0  0
  8 12  1  0  0  0  0
  9 10  1  6  0  0  0
  9 14  1  0  0  0  0
 11 16  1  0  0  0  0
 12 13  1  6  0  0  0
 12 17  1  0  0  0  0
 14 15  1  1  0  0  0
 14 18  1  0  0  0  0
 15 31  1  0  0  0  0
 16 20  1  0  0  0  0
 17  2  1  6  0  0  0
 17 22  1  0  0  0  0
 18 19  1  1  0  0  0
 18 24  1  0  0  0  0
 18 30  1  0  0  0  0
 20 21  1  0  0  0  0
 20 26  1  1  0  0  0
 22 23  1  1  0  0  0
 22 28  1  0  0  0  0
 24 25  1  0  0  0  0
 26 27  1  0  0  0  0
 28 29  1  1  0  0  0
M  END
>  <CHROM.1>
-166.18449267,-164.02023644,28.32057102,-147.07285412,-72.16856710,62.09143127
-1.08274115,-8.76801484,31.58664085,0.39087042,0.86266118,-0.20839974

>  <Name>
2et3_lig

>  <RI>
0

>  <Rbt.Current_Directory>
/home/itssahil/PROJECTS/Mol_Feturizer/New_Systems/rnas/2et3

>  <Rbt.Executable>
rbdock ($Id: //depot/dev/client3/rdock/2013.1/src/exe/rbdock.cxx#4 $)

>  <Rbt.Library>
libRbt.so (2013.1, Build901 2013/11/27)

>  <Rbt.Parameter_File>
/export/apps/rDock/src/rDock_2013.1_src/data/scripts/dock_solv.prm

>  <Rbt.Receptor>
prm/pocket_docking_2.prm

>  <SCORE>
-25.9438

>  <SCORE.INTER>
-20.6829

>  <SCORE.INTER.CONST>
1

>  <SCORE.INTER.POLAR>
-0.938083

>  <SCORE.INTER.ROT>
6

>  <SCORE.INTER.SOLV>
16.4105

>  <SCORE.INTER.VDW>
-23.7318

>  <SCORE.INTER.norm>
-0.667189

>  <SCORE.INTRA>
-5.2787

>  <SCORE.INTRA.DIHEDRAL>
-14.7177

>  <SCORE.INTRA.DIHEDRAL.0>
22.2484

>  <SCORE.INTRA.POLAR>
0

>  <SCORE.INTRA.POLAR.0>
0

>  <SCORE.INTRA.REPUL>
0

>  <SCORE.INTRA.REPUL.0>
0

>  <SCORE.INTRA.SOLV>
-1.19717

>  <SCORE.INTRA.SOLV.lig_0>
-75.7198

>  <SCORE.INTRA.VDW>
2.67872

>  <SCORE.INTRA.VDW.0>
-3.34171

>  <SCORE.INTRA.norm>
-0.170281

>  <SCORE.RESTR>
0.0177926

>  <SCORE.RESTR.CAVITY>
0.0177926

>  <SCORE.RESTR.norm>
0.000573955

>  <SCORE.SYSTEM>
0

>  <SCORE.SYSTEM.CONST>
0

>  <SCORE.SYSTEM.DIHEDRAL>
0

>  <SCORE.SYSTEM.SOLV>
0

>  <SCORE.SYSTEM.norm>
0

>  <SCORE.heavy>
31

>  <SCORE.norm>
-0.836896

>  <RMSD>
0.990

$$$$
2et3_lig
 OpenBabel11021811423D
libRbt.so/2013.1/901 2013/11/27
 31 33  0  0  0  0  0  0  0  0999 V2000
    0.2488   -6.5459   29.6221 C   0  0  2  0  0  0  0  0  0  0  0  0
   -0.5013   -7.7733   29.4289 O   0  0  0  0  0  0  0  0  0  0  0  0
   -1.0723  -11.4457   31.5487 C   0  0  2  0  0  0  0  0  0  0  0  0
   -0.8276  -12.5187   32.4621 N   0  0  0  0  0  0  0  0  0  0  0  0
   -2.2027  -10.9439   34.5220 C   0  0  2  0  0  0  0  0  0  0  0  0
   -0.3634   -5.4256   28.7744 C   0  0  2  0  0  0  0  0  0  0  0  0
   -1.7437   -5.2909   29.1248 N   0  0  0  0  0  0  0  0  0  0  0  0
    0.0981  -11.3615   30.5165 C   0  0  0  0  0  0  0  0  0  0  0  0
   -3.6498  -11.0530   35.0510 C   0  0  2  0  0  0  0  0  0  0  0  0
   -4.4298  -11.7529   34.1074 O   0  0  0  0  0  0  0  0  0  0  0  0
   -0.1755   -5.7294   27.2487 C   0  0  0  0  0  0  0  0  0  0  0  0
   -0.1584  -10.1782   29.5130 C   0  0  2  0  0  0  0  0  0  0  0  0
    0.9415  -10.0944   28.5390 N   0  0  0  0  0  0  0  0  0  0  0  0
   -4.1933   -9.5856   35.2920 C   0  0  1  0  0  0  0  0  0  0  0  0
   -5.6165   -9.5984   35.7644 N   0  0  0  0  0  0  0  0  0  0  0  0
    1.3556   -5.8289   26.9613 C   0  0  0  0  0  0  0  0  0  0  0  0
   -0.2959   -8.8272   30.3145 C   0  0  2  0  0  0  0  0  0  0  0  0
   -3.2601   -8.8123   36.3668 C   0  0  1  0  0  0  0  0  0  0  0  0
   -3.2850   -9.4545   37.6248 O   0  0  0  0  0  0  0  0  0  0  0  0
    1.9696   -6.9788   27.8754 C   0  0  2  0  0  0  0  0  0  0  0  0
    1.6832   -6.7714   29.2939 O   0  0  0  0  0  0  0  0  0  0  0  0
   -1.4819   -8.9445   31.3476 C   0  0  2  0  0  0  0  0  0  0  0  0
   -1.6261   -7.7321   32.0806 O   0  0  0  0  0  0  0  0  0  0  0  0
   -1.7847   -8.8206   35.8604 C   0  0  0  0  0  0  0  0  0  0  0  0
   -1.3542  -10.2147   35.5084 O   0  0  0  0  0  0  0  0  0  0  0  0
    3.4523   -7.1951   27.6837 C   0  0  0  0  0  0  0  0  0  0  0  0
    3.8862   -8.4497   28.2400 N   0  0  0  0  0  0  0  0  0  0  0  0
   -1.2092  -10.1303   32.3384 C   0  0  1  0  0  0  0  0  0  0  0  0
   -2.2919  -10.2240   33.2562 O   0  0  0  0  0  0  0  0  0  0  0  0
   -3.6445   -7.3649   36.7027 C   0  0  0  0  0  0  0  0  0  0  0  0
   -6.6653   -9.6627   34.7329 C   0  0  0  0  0  0  0  0  0  0  0  0
  1  2  1  6  0  0  0
  1  6  1  0  0  0  0
  1 21  1  0  0  0  0
  3  4  1  1  0  0  0
  3  8  1  0  0  0  0
  3 28  1  0  0  0  0
  5  9  1  0  0  0  0
  5 25  1  0  0  0  0
  5 29  1  6  0  0  0
  6  7  1  6  0  0  0
  6 11  1  0  0  0  0
  8 12  1  0  0  0  0
  9 10  1  6  0  0  0
  9 14  1  0  0  0  0
 11 16  1  0  0  0  0
 12 13  1  6  0  0  0
 12 17  1  0  0  0  0
 14 15  1  1  0  0  0
 14 18  1  0  0  0  0
 15 31  1  0  0  0  0
 16 20  1  0  0  0  0
 17  2  1  6  0  0  0
 17 22  1  0  0  0  0
 18 19  1  1  0  0  0
 18 24  1  0  0  0  0
 18 30  1  0  0  0  0
 20 21  1  0  0  0  0
 20 26  1  1  0  0  0
 22 23  1  1  0  0  0
 22 28  1  0  0  0  0
 24 25  1  0  0  0  0
 26 27  1  0  0  0  0
 28 29  1  1  0  0  0
M  END
>  <CHROM.1>
-166.28586021,-168.24172778,-85.19551088,-135.10199669,-164.32712489,77.62184955
-1.25802795,-8.86272126,31.90577196,0.60677022,0.84462071,-0.39064006

>  <Name>
2et3_lig

>  <RI>
3.50789e+07

>  <Rbt.Current_Directory>
/home/itssahil/PROJECTS/Mol_Feturizer/New_Systems/rnas/2et3

>  <Rbt.Executable>
rbdock ($Id: //depot/dev/client3/rdock/2013.1/src/exe/rbdock.cxx#4 $)

>  <Rbt.Library>
libRbt.so (2013.1, Build901 2013/11/27)

>  <Rbt.Parameter_File>
/export/apps/rDock/src/rDock_2013.1_src/data/scripts/dock_solv.prm

>  <Rbt.Receptor>
prm/pocket_docking_4.prm

>  <SCORE>
-30.6712

>  <SCORE.INTER>
-24.446

>  <SCORE.INTER.CONST>
1

>  <SCORE.INTER.POLAR>
-0.938083

>  <SCORE.INTER.ROT>
6

>  <SCORE.INTER.SOLV>
19.8702

>  <SCORE.INTER.VDW>
-27.3938

>  <SCORE.INTER.norm>
-0.78858

>  <SCORE.INTRA>
-6.22522

>  <SCORE.INTRA.DIHEDRAL>
-11.7101

>  <SCORE.INTRA.DIHEDRAL.0>
22.2484

>  <SCORE.INTRA.POLAR>
0

>  <SCORE.INTRA.POLAR.0>
0

>  <SCORE.INTRA.REPUL>
0

>  <SCORE.INTRA.REPUL.0>
0

>  <SCORE.INTRA.SOLV>
0.458151

>  <SCORE.INTRA.SOLV.lig_0>
-75.7198

>  <SCORE.INTRA.VDW>
-0.599269

>  <SCORE.INTRA.VDW.0>
-3.34171

>  <SCORE.INTRA.norm>
-0.200814

>  <SCORE.RESTR>
0

>  <SCORE.RESTR.CAVITY>
0

>  <SCORE.RESTR.norm>
0

>  <SCORE.SYSTEM>
0

>  <SCORE.SYSTEM.CONST>
0

>  <SCORE.SYSTEM.DIHEDRAL>
0

>  <SCORE.SYSTEM.SOLV>
0

>  <SCORE.SYSTEM.norm>
0

>  <SCORE.heavy>
31

>  <SCORE.norm>
-0.989394

>  <RMSD>
0.995

$$$$
2et3_lig
 OpenBabel11021811423D
libRbt.so/2013.1/901 2013/11/27
 31 33  0  0  0  0  0  0  0  0999 V2000
    0.3532   -6.5745   29.5637 C   0  0  2  0  0  0  0  0  0  0  0  0
   -0.5759   -7.6885   29.5181 O   0  0  0  0  0  0  0  0  0  0  0  0
   -1.1038  -11.4484   31.4906 C   0  0  2  0  0  0  0  0  0  0  0  0
   -0.8512  -12.5497   32.3674 N   0  0  0  0  0  0  0  0  0  0  0  0
   -2.2652  -11.0008   34.5058 C   0  0  2  0  0  0  0  0  0  0  0  0
   -0.1785   -5.4208   28.7066 C   0  0  2  0  0  0  0  0  0  0  0  0
   -1.4847   -5.0707   29.1727 N   0  0  0  0  0  0  0  0  0  0  0  0
    0.0805  -11.3021   30.4815 C   0  0  0  0  0  0  0  0  0  0  0  0
   -3.7014  -11.0793   35.0688 C   0  0  2  0  0  0  0  0  0  0  0  0
   -4.5088  -11.7972   34.1627 O   0  0  0  0  0  0  0  0  0  0  0  0
   -0.1877   -5.8239   27.1924 C   0  0  0  0  0  0  0  0  0  0  0  0
   -0.1848  -10.0875   29.5185 C   0  0  2  0  0  0  0  0  0  0  0  0
    0.9282   -9.9452   28.5663 N   0  0  0  0  0  0  0  0  0  0  0  0
   -4.2245   -9.5999   35.2795 C   0  0  1  0  0  0  0  0  0  0  0  0
   -5.6372   -9.5840   35.7826 N   0  0  0  0  0  0  0  0  0  0  0  0
    1.2783   -6.1580   26.7728 C   0  0  0  0  0  0  0  0  0  0  0  0
   -0.3626   -8.7705   30.3672 C   0  0  2  0  0  0  0  0  0  0  0  0
   -3.2604   -8.8066   36.3114 C   0  0  1  0  0  0  0  0  0  0  0  0
   -3.2642   -9.4125   37.5874 O   0  0  0  0  0  0  0  0  0  0  0  0
    1.8142   -7.3378   27.6977 C   0  0  2  0  0  0  0  0  0  0  0  0
    1.7023   -7.0211   29.1205 O   0  0  0  0  0  0  0  0  0  0  0  0
   -1.5618   -8.9501   31.3759 C   0  0  2  0  0  0  0  0  0  0  0  0
   -1.7423   -7.7692   32.1509 O   0  0  0  0  0  0  0  0  0  0  0  0
   -1.7965   -8.8450   35.7737 C   0  0  0  0  0  0  0  0  0  0  0  0
   -1.3880  -10.2531   35.4525 O   0  0  0  0  0  0  0  0  0  0  0  0
    3.2258   -7.7756   27.3851 C   0  0  0  0  0  0  0  0  0  0  0  0
    4.1646   -6.6932   27.5228 N   0  0  0  0  0  0  0  0  0  0  0  0
   -1.2801  -10.1665   32.3262 C   0  0  1  0  0  0  0  0  0  0  0  0
   -2.3747  -10.3162   33.2222 O   0  0  0  0  0  0  0  0  0  0  0  0
   -3.6225   -7.3461   36.6140 C   0  0  0  0  0  0  0  0  0  0  0  0
   -6.7089   -9.5684   34.7730 C   0  0  0  0  0  0  0  0  0  0  0  0
  1  2  1  6  0  0  0
  1  6  1  0  0  0  0
  1 21  1  0  0  0  0
  3  4  1  1  0  0  0
  3  8  1  0  0  0  0
  3 28  1  0  0  0  0
  5  9  1  0  0  0  0
  5 25  1  0  0  0  0
  5 29  1  6  0  0  0
  6  7  1  1  0  0  0
  6 11  1  0  0  0  0
  8 12  1  0  0  0  0
  9 10  1  6  0  0  0
  9 14  1  0  0  0  0
 11 16  1  0  0  0  0
 12 13  1  6  0  0  0
 12 17  1  0  0  0  0
 14 15  1  1  0  0  0
 14 18  1  0  0  0  0
 15 31  1  0  0  0  0
 16 20  1  0  0  0  0
 17  2  1  6  0  0  0
 17 22  1  0  0  0  0
 18 19  1  1  0  0  0
 18 24  1  0  0  0  0
 18 30  1  0  0  0  0
 20 21  1  0  0  0  0
 20 26  1  6  0  0  0
 22 23  1  1  0  0  0
 22 28  1  0  0  0  0
 24 25  1  0  0  0  0
 26 27  1  0  0  0  0
 28 29  1  1  0  0  0
M  END
>  <CHROM.1>
-171.84413787,-173.51021944,-89.47728480,-120.86590578,59.16737596,82.07309096
-1.27570515,-8.84568581,31.84622587,0.55427432,0.87656711,-0.31595989

>  <Name>
2et3_lig

>  <RI>
2.5794e+07

>  <Rbt.Current_Directory>
/home/itssahil/PROJECTS/Mol_Feturizer/New_Systems/rnas/2et3

>  <Rbt.Executable>
rbdock ($Id: //depot/dev/client3/rdock/2013.1/src/exe/rbdock.cxx#4 $)

>  <Rbt.Library>
libRbt.so (2013.1, Build901 2013/11/27)

>  <Rbt.Parameter_File>
/export/apps/rDock/src/rDock_2013.1_src/data/scripts/dock_solv.prm

>  <Rbt.Receptor>
prm/pocket_docking_5.prm

>  <SCORE>
-29.1148

>  <SCORE.INTER>
-23.2024

>  <SCORE.INTER.CONST>
1

>  <SCORE.INTER.POLAR>
-0.938083

>  <SCORE.INTER.ROT>
6

>  <SCORE.INTER.SOLV>
20.9634

>  <SCORE.INTER.VDW>
-26.9291

>  <SCORE.INTER.norm>
-0.748464

>  <SCORE.INTRA>
-5.91239

>  <SCORE.INTRA.DIHEDRAL>
-11.6417

>  <SCORE.INTRA.DIHEDRAL.0>
22.2484

>  <SCORE.INTRA.POLAR>
0

>  <SCORE.INTRA.POLAR.0>
0

>  <SCORE.INTRA.REPUL>
0

>  <SCORE.INTRA.REPUL.0>
0

>  <SCORE.INTRA.SOLV>
0.884059

>  <SCORE.INTRA.SOLV.lig_0>
-75.7198

>  <SCORE.INTRA.VDW>
-0.533581

>  <SCORE.INTRA.VDW.0>
-3.34171

>  <SCORE.INTRA.norm>
-0.190722

>  <SCORE.RESTR>
0

>  <SCORE.RESTR.CAVITY>
0

>  <SCORE.RESTR.norm>
0

>  <SCORE.SYSTEM>
0

>  <SCORE.SYSTEM.CONST>
0

>  <SCORE.SYSTEM.DIHEDRAL>
0

>  <SCORE.SYSTEM.SOLV>
0

>  <SCORE.SYSTEM.norm>
0

>  <SCORE.heavy>
31

>  <SCORE.norm>
-0.939186

>  <RMSD>
0.996

$$$$
2et3_lig
 OpenBabel11021811423D
libRbt.so/2013.1/901 2013/11/27
 31 33  0  0  0  0  0  0  0  0999 V2000
    0.1136   -6.8383   29.5290 C   0  0  2  0  0  0  0  0  0  0  0  0
   -0.4918   -8.1295   29.2598 O   0  0  0  0  0  0  0  0  0  0  0  0
   -1.1597  -11.7082   31.5076 C   0  0  2  0  0  0  0  0  0  0  0  0
   -0.9451  -12.7524   32.4612 N   0  0  0  0  0  0  0  0  0  0  0  0
   -2.2842  -11.0386   34.4693 C   0  0  2  0  0  0  0  0  0  0  0  0
   -0.4492   -5.7905   28.5627 C   0  0  2  0  0  0  0  0  0  0  0  0
   -1.8738   -5.7705   28.6906 N   0  0  0  0  0  0  0  0  0  0  0  0
    0.0188  -11.6882   30.4815 C   0  0  0  0  0  0  0  0  0  0  0  0
   -3.7325  -11.0893   35.0035 C   0  0  2  0  0  0  0  0  0  0  0  0
   -4.5252  -11.8332   34.1053 O   0  0  0  0  0  0  0  0  0  0  0  0
    0.0007   -6.1032   27.0946 C   0  0  0  0  0  0  0  0  0  0  0  0
   -0.2044  -10.5369   29.4337 C   0  0  2  0  0  0  0  0  0  0  0  0
    0.9033  -10.5134   28.4651 N   0  0  0  0  0  0  0  0  0  0  0  0
   -4.2504   -9.6004   35.1521 C   0  0  1  0  0  0  0  0  0  0  0  0
   -5.6733   -9.5590   35.6238 N   0  0  0  0  0  0  0  0  0  0  0  0
    1.5608   -6.0738   27.0511 C   0  0  0  0  0  0  0  0  0  0  0  0
   -0.3161   -9.1547   30.1845 C   0  0  2  0  0  0  0  0  0  0  0  0
   -3.3032   -8.7778   36.1767 C   0  0  1  0  0  0  0  0  0  0  0  0
   -3.3383   -9.3395   37.4724 O   0  0  0  0  0  0  0  0  0  0  0  0
    2.1173   -7.1497   28.0842 C   0  0  2  0  0  0  0  0  0  0  0  0
    1.5955   -6.9435   29.4342 O   0  0  0  0  0  0  0  0  0  0  0  0
   -1.5109   -9.2074   31.2128 C   0  0  2  0  0  0  0  0  0  0  0  0
   -1.6321   -7.9662   31.9001 O   0  0  0  0  0  0  0  0  0  0  0  0
   -1.8285   -8.8432   35.6723 C   0  0  0  0  0  0  0  0  0  0  0  0
   -1.4225  -10.2639   35.4084 O   0  0  0  0  0  0  0  0  0  0  0  0
    3.6245   -7.2393   28.1314 C   0  0  0  0  0  0  0  0  0  0  0  0
    4.1723   -7.7019   26.8833 N   0  0  0  0  0  0  0  0  0  0  0  0
   -1.2715  -10.3621   32.2480 C   0  0  1  0  0  0  0  0  0  0  0  0
   -2.3618  -10.3979   33.1609 O   0  0  0  0  0  0  0  0  0  0  0  0
   -3.6622   -7.3057   36.4213 C   0  0  0  0  0  0  0  0  0  0  0  0
   -6.7237   -9.6096   34.5931 C   0  0  0  0  0  0  0  0  0  0  0  0
  1  2  1  6  0  0  0
  1  6  1  0  0  0  0
  1 21  1  0  0  0  0
  3  4  1  1  0  0  0
  3  8  1  0  0  0  0
  3 28  1  0  0  0  0
  5  9  1  0  0  0  0
  5 25  1  0  0  0  0
  5 29  1  6  0  0  0
  6  7  1  6  0  0  0
  6 11  1  0  0  0  0
  8 12  1  0  0  0  0
  9 10  1  6  0  0  0
  9 14  1  0  0  0  0
 11 16  1  0  0  0  0
 12 13  1  6  0  0  0
 12 17  1  0  0  0  0
 14 15  1  1  0  0  0
 14 18  1  0  0  0  0
 15 31  1  0  0  0  0
 16 20  1  0  0  0  0
 17  2  1  6  0  0  0
 17 22  1  0  0  0  0
 18 19  1  1  0  0  0
 18 24  1  0  0  0  0
 18 30  1  0  0  0  0
 20 21  1  0  0  0  0
 20 26  1  1  0  0  0
 22 23  1  1  0  0  0
 22 28  1  0  0  0  0
 24 25  1  0  0  0  0
 26 27  1  0  0  0  0
 28 29  1  1  0  0  0
M  END
>  <CHROM.1>
-167.68322257,-169.27007813,-87.82667708,-144.99345925,-64.51484334,79.50571268
-1.27945750,-9.00813644,31.78237266,0.51953075,0.86693297,-0.30360473

>  <Name>
2et3_lig

>  <RI>
0

>  <Rbt.Current_Directory>
/home/itssahil/PROJECTS/Mol_Feturizer/New_Systems/rnas/2et3

>  <Rbt.Executable>
rbdock ($Id: //depot/dev/client3/rdock/2013.1/src/exe/rbdock.cxx#4 $)

>  <Rbt.Library>
libRbt.so (2013.1, Build901 2013/11/27)

>  <Rbt.Parameter_File>
/export/apps/rDock/src/rDock_2013.1_src/data/scripts/dock_solv.prm

>  <Rbt.Receptor>
prm/pocket_docking_2.prm

>  <SCORE>
-32.9198

>  <SCORE.INTER>
-24.8478

>  <SCORE.INTER.CONST>
1

>  <SCORE.INTER.POLAR>
-0.938083

>  <SCORE.INTER.ROT>
6

>  <SCORE.INTER.SOLV>
16.8162

>  <SCORE.INTER.VDW>
-26.6437

>  <SCORE.INTER.norm>
-0.801541

>  <SCORE.INTRA>
-8.07575

>  <SCORE.INTRA.DIHEDRAL>
-13.9776

>  <SCORE.INTRA.DIHEDRAL.0>
22.2484

>  <SCORE.INTRA.POLAR>
0

>  <SCORE.INTRA.POLAR.0>
0

>  <SCORE.INTRA.REPUL>
0

>  <SCORE.INTRA.REPUL.0>
0

>  <SCORE.INTRA.SOLV>
-1.49683

>  <SCORE.INTRA.SOLV.lig_0>
-75.7198

>  <SCORE.INTRA.VDW>
-0.338511

>  <SCORE.INTRA.VDW.0>
-3.34171

>  <SCORE.INTRA.norm>
-0.260508

>  <SCORE.RESTR>
0.00373968

>  <SCORE.RESTR.CAVITY>
0.00373968

>  <SCORE.RESTR.norm>
0.000120635

>  <SCORE.SYSTEM>
0

>  <SCORE.SYSTEM.CONST>
0

>  <SCORE.SYSTEM.DIHEDRAL>
0

>  <SCORE.SYSTEM.SOLV>
0

>  <SCORE.SYSTEM.norm>
0

>  <SCORE.heavy>
31

>  <SCORE.norm>
-1.06193

>  <RMSD>
0.997

$$$$
2et3_lig
 OpenBabel11021811423D
libRbt.so/2013.1/901 2013/11/27
 31 33  0  0  0  0  0  0  0  0999 V2000
    0.2373   -6.9252   29.4931 C   0  0  2  0  0  0  0  0  0  0  0  0
   -0.4860   -8.1669   29.2901 O   0  0  0  0  0  0  0  0  0  0  0  0
   -1.2382  -11.6652   31.6357 C   0  0  2  0  0  0  0  0  0  0  0  0
   -1.0238  -12.7190   32.5786 N   0  0  0  0  0  0  0  0  0  0  0  0
   -2.0492  -10.9409   34.6557 C   0  0  2  0  0  0  0  0  0  0  0  0
   -0.4235   -5.8026   28.6861 C   0  0  2  0  0  0  0  0  0  0  0  0
   -1.7978   -5.7113   29.0723 N   0  0  0  0  0  0  0  0  0  0  0  0
   -0.1631  -11.7499   30.5047 C   0  0  0  0  0  0  0  0  0  0  0  0
   -3.4947  -11.1643   35.1519 C   0  0  2  0  0  0  0  0  0  0  0  0
   -4.1891  -11.9414   34.2019 O   0  0  0  0  0  0  0  0  0  0  0  0
   -0.2653   -6.0676   27.1498 C   0  0  0  0  0  0  0  0  0  0  0  0
   -0.3860  -10.5891   29.4675 C   0  0  2  0  0  0  0  0  0  0  0  0
    0.6245  -10.6641   28.4003 N   0  0  0  0  0  0  0  0  0  0  0  0
   -4.1657   -9.7447   35.3555 C   0  0  1  0  0  0  0  0  0  0  0  0
   -5.5942   -9.8710   35.7940 N   0  0  0  0  0  0  0  0  0  0  0  0
    1.2604   -6.1212   26.8237 C   0  0  0  0  0  0  0  0  0  0  0  0
   -0.3111   -9.1987   30.2077 C   0  0  2  0  0  0  0  0  0  0  0  0
   -3.3283   -8.8797   36.4390 C   0  0  1  0  0  0  0  0  0  0  0  0
   -3.3305   -9.5032   37.7066 O   0  0  0  0  0  0  0  0  0  0  0  0
    1.9254   -7.2747   27.6965 C   0  0  2  0  0  0  0  0  0  0  0  0
    1.6686   -7.1063   29.1259 O   0  0  0  0  0  0  0  0  0  0  0  0
   -1.4049   -9.1452   31.3427 C   0  0  2  0  0  0  0  0  0  0  0  0
   -1.3571   -7.8947   32.0224 O   0  0  0  0  0  0  0  0  0  0  0  0
   -1.8451   -8.7705   35.9679 C   0  0  0  0  0  0  0  0  0  0  0  0
   -1.2901  -10.1282   35.6496 O   0  0  0  0  0  0  0  0  0  0  0  0
    3.4079   -7.4485   27.4646 C   0  0  0  0  0  0  0  0  0  0  0  0
    4.1656   -6.3470   27.9979 N   0  0  0  0  0  0  0  0  0  0  0  0
   -1.1675  -10.3108   32.3660 C   0  0  1  0  0  0  0  0  0  0  0  0
   -2.1669  -10.2498   33.3763 O   0  0  0  0  0  0  0  0  0  0  0  0
   -3.8414   -7.4652   36.7415 C   0  0  0  0  0  0  0  0  0  0  0  0
   -6.6313   -9.6731   34.7676 C   0  0  0  0  0  0  0  0  0  0  0  0
  1  2  1  6  0  0  0
  1  6  1  0  0  0  0
  1 21  1  0  0  0  0
  3  4  1  1  0  0  0
  3  8  1  0  0  0  0
  3 28  1  0  0  0  0
  5  9  1  0  0  0  0
  5 25  1  0  0  0  0
  5 29  1  6  0  0  0
  6  7  1  6  0  0  0
  6 11  1  0  0  0  0
  8 12  1  0  0  0  0
  9 10  1  6  0  0  0
  9 14  1  0  0  0  0
 11 16  1  0  0  0  0
 12 13  1  6  0  0  0
 12 17  1  0  0  0  0
 14 15  1  1  0  0  0
 14 18  1  0  0  0  0
 15 31  1  0  0  0  0
 16 20  1  0  0  0  0
 17  2  1  6  0  0  0
 17 22  1  0  0  0  0
 18 19  1  1  0  0  0
 18 24  1  0  0  0  0
 18 30  1  0  0  0  0
 20 21  1  0  0  0  0
 20 26  1  1  0  0  0
 22 23  1  1  0  0  0
 22 28  1  0  0  0  0
 24 25  1  0  0  0  0
 26 27  1  0  0  0  0
 28 29  1  1  0  0  0
M  END
>  <CHROM.1>
-161.31469299,-154.90188961,-101.32156718,-145.61866589,70.44167728,76.49235096
-1.26983398,-9.00654825,31.88801221,0.45738164,0.93607653,-0.19487189

>  <Name>
2et3_lig

>  <RI>
0

>  <Rbt.Current_Directory>
/home/itssahil/PROJECTS/Mol_Feturizer/New_Systems/rnas/2et3

>  <Rbt.Executable>
rbdock ($Id: //depot/dev/client3/rdock/2013.1/src/exe/rbdock.cxx#4 $)

>  <Rbt.Library>
libRbt.so (2013.1, Build901 2013/11/27)

>  <Rbt.Parameter_File>
/export/apps/rDock/src/rDock_2013.1_src/data/scripts/dock_solv.prm

>  <Rbt.Receptor>
prm/blind_docking_100.prm

>  <SCORE>
-25.4995

>  <SCORE.INTER>
-20.3378

>  <SCORE.INTER.CONST>
1

>  <SCORE.INTER.POLAR>
-0.938083

>  <SCORE.INTER.ROT>
6

>  <SCORE.INTER.SOLV>
23.4828

>  <SCORE.INTER.VDW>
-25.8592

>  <SCORE.INTER.norm>
-0.656059

>  <SCORE.INTRA>
-5.95651

>  <SCORE.INTRA.DIHEDRAL>
-10.8308

>  <SCORE.INTRA.DIHEDRAL.0>
22.2484

>  <SCORE.INTRA.POLAR>
0

>  <SCORE.INTRA.POLAR.0>
0

>  <SCORE.INTRA.REPUL>
0

>  <SCORE.INTRA.REPUL.0>
0

>  <SCORE.INTRA.SOLV>
-0.278744

>  <SCORE.INTRA.SOLV.lig_0>
-75.7198

>  <SCORE.INTRA.VDW>
-0.401754

>  <SCORE.INTRA.VDW.0>
-3.34171

>  <SCORE.INTRA.norm>
-0.192146

>  <SCORE.RESTR>
0.794863

>  <SCORE.RESTR.CAVITY>
0.794863

>  <SCORE.RESTR.norm>
0.0256407

>  <SCORE.SYSTEM>
0

>  <SCORE.SYSTEM.CONST>
0

>  <SCORE.SYSTEM.DIHEDRAL>
0

>  <SCORE.SYSTEM.SOLV>
0

>  <SCORE.SYSTEM.norm>
0

>  <SCORE.heavy>
31

>  <SCORE.norm>
-0.822564

>  <RMSD>
0.999

$$$$
2et3_lig
 OpenBabel11021811423D
libRbt.so/2013.1/901 2013/11/27
 31 33  0  0  0  0  0  0  0  0999 V2000
    0.2565   -6.5531   29.6179 C   0  0  2  0  0  0  0  0  0  0  0  0
   -0.4891   -7.7814   29.4137 O   0  0  0  0  0  0  0  0  0  0  0  0
   -1.0686  -11.4606   31.5194 C   0  0  2  0  0  0  0  0  0  0  0  0
   -0.8257  -12.5383   32.4278 N   0  0  0  0  0  0  0  0  0  0  0  0
   -2.1881  -10.9601   34.5011 C   0  0  2  0  0  0  0  0  0  0  0  0
   -0.3664   -5.4249   28.7887 C   0  0  2  0  0  0  0  0  0  0  0  0
   -1.7450   -5.3012   29.1496 N   0  0  0  0  0  0  0  0  0  0  0  0
    0.0999  -11.3762   30.4851 C   0  0  0  0  0  0  0  0  0  0  0  0
   -3.6306  -11.0443   35.0470 C   0  0  2  0  0  0  0  0  0  0  0  0
   -4.4327  -11.7336   34.1143 O   0  0  0  0  0  0  0  0  0  0  0  0
   -0.1869   -5.7082   27.2581 C   0  0  0  0  0  0  0  0  0  0  0  0
   -0.1546  -10.1879   29.4870 C   0  0  2  0  0  0  0  0  0  0  0  0
    0.9436  -10.1038   28.5110 N   0  0  0  0  0  0  0  0  0  0  0  0
   -4.1472   -9.5676   35.2906 C   0  0  1  0  0  0  0  0  0  0  0  0
   -5.5650   -9.5561   35.7793 N   0  0  0  0  0  0  0  0  0  0  0  0
    1.3428   -5.7967   26.9596 C   0  0  0  0  0  0  0  0  0  0  0  0
   -0.2856   -8.8397   30.2945 C   0  0  2  0  0  0  0  0  0  0  0  0
   -3.1893   -8.8072   36.3526 C   0  0  1  0  0  0  0  0  0  0  0  0
   -3.2101   -9.4459   37.6124 O   0  0  0  0  0  0  0  0  0  0  0  0
    1.9680   -6.9553   27.8548 C   0  0  2  0  0  0  0  0  0  0  0  0
    1.6898   -6.7675   29.2777 O   0  0  0  0  0  0  0  0  0  0  0  0
   -1.4698   -8.9571   31.3297 C   0  0  2  0  0  0  0  0  0  0  0  0
   -1.6080   -7.7474   32.0680 O   0  0  0  0  0  0  0  0  0  0  0  0
   -1.7201   -8.8407   35.8292 C   0  0  0  0  0  0  0  0  0  0  0  0
   -1.3165  -10.2425   35.4759 O   0  0  0  0  0  0  0  0  0  0  0  0
    3.4504   -7.1621   27.6509 C   0  0  0  0  0  0  0  0  0  0  0  0
    3.8840   -8.4445   28.1402 N   0  0  0  0  0  0  0  0  0  0  0  0
   -1.1992  -10.1481   32.3149 C   0  0  1  0  0  0  0  0  0  0  0  0
   -2.2802  -10.2418   33.2346 O   0  0  0  0  0  0  0  0  0  0  0  0
   -3.5461   -7.3529   36.6892 C   0  0  0  0  0  0  0  0  0  0  0  0
   -6.6266   -9.5927   34.7596 C   0  0  0  0  0  0  0  0  0  0  0  0
  1  2  1  6  0  0  0
  1  6  1  0  0  0  0
  1 21  1  0  0  0  0
  3  4  1  1  0  0  0
  3  8  1  0  0  0  0
  3 28  1  0  0  0  0
  5  9  1  0  0  0  0
  5 25  1  0  0  0  0
  5 29  1  6  0  0  0
  6  7  1  6  0  0  0
  6 11  1  0  0  0  0
  8 12  1  0  0  0  0
  9 10  1  6  0  0  0
  9 14  1  0  0  0  0
 11 16  1  0  0  0  0
 12 13  1  6  0  0  0
 12 17  1  0  0  0  0
 14 15  1  1  0  0  0
 14 18  1  0  0  0  0
 15 31  1  0  0  0  0
 16 20  1  0  0  0  0
 17  2  1  6  0  0  0
 17 22  1  0  0  0  0
 18 19  1  1  0  0  0
 18 24  1  0  0  0  0
 18 30  1  0  0  0  0
 20 21  1  0  0  0  0
 20 26  1  1  0  0  0
 22 23  1  1  0  0  0
 22 28  1  0  0  0  0
 24 25  1  0  0  0  0
 26 27  1  0  0  0  0
 28 29  1  1  0  0  0
M  END
>  <CHROM.1>
-165.48392065,-169.38664324,-85.76652750,-135.67251480,-162.01200990,78.02788823
-1.23897066,-8.86038931,31.89074415,0.60050185,0.85420986,-0.38053046

>  <Name>
2et3_lig

>  <RI>
0

>  <Rbt.Current_Directory>
/home/itssahil/PROJECTS/Mol_Feturizer/New_Systems/rnas/2et3

>  <Rbt.Executable>
rbdock ($Id: //depot/dev/client3/rdock/2013.1/src/exe/rbdock.cxx#4 $)

>  <Rbt.Library>
libRbt.so (2013.1, Build901 2013/11/27)

>  <Rbt.Parameter_File>
/export/apps/rDock/src/rDock_2013.1_src/data/scripts/dock_solv.prm

>  <Rbt.Receptor>
prm/pocket_docking_3.prm

>  <SCORE>
-30.6374

>  <SCORE.INTER>
-24.4303

>  <SCORE.INTER.CONST>
1

>  <SCORE.INTER.POLAR>
-0.938083

>  <SCORE.INTER.ROT>
6

>  <SCORE.INTER.SOLV>
19.4411

>  <SCORE.INTER.VDW>
-27.2403

>  <SCORE.INTER.norm>
-0.788075

>  <SCORE.INTRA>
-6.20705

>  <SCORE.INTRA.DIHEDRAL>
-11.4882

>  <SCORE.INTRA.DIHEDRAL.0>
22.2484

>  <SCORE.INTRA.POLAR>
0

>  <SCORE.INTRA.POLAR.0>
0

>  <SCORE.INTRA.REPUL>
0

>  <SCORE.INTRA.REPUL.0>
0

>  <SCORE.INTRA.SOLV>
0.344941

>  <SCORE.INTRA.SOLV.lig_0>
-75.7198

>  <SCORE.INTRA.VDW>
-0.635432

>  <SCORE.INTRA.VDW.0>
-3.34171

>  <SCORE.INTRA.norm>
-0.200227

>  <SCORE.RESTR>
0

>  <SCORE.RESTR.CAVITY>
0

>  <SCORE.RESTR.norm>
0

>  <SCORE.SYSTEM>
0

>  <SCORE.SYSTEM.CONST>
0

>  <SCORE.SYSTEM.DIHEDRAL>
0

>  <SCORE.SYSTEM.SOLV>
0

>  <SCORE.SYSTEM.norm>
0

>  <SCORE.heavy>
31

>  <SCORE.norm>
-0.988302

>  <RMSD>
1.001

$$$$
2et3_lig
 OpenBabel11021811423D
libRbt.so/2013.1/901 2013/11/27
 31 33  0  0  0  0  0  0  0  0999 V2000
    0.3373   -6.6506   29.5903 C   0  0  2  0  0  0  0  0  0  0  0  0
   -0.5794   -7.7731   29.5144 O   0  0  0  0  0  0  0  0  0  0  0  0
   -1.1653  -11.5147   31.5053 C   0  0  2  0  0  0  0  0  0  0  0  0
   -0.9288  -12.6162   32.3863 N   0  0  0  0  0  0  0  0  0  0  0  0
   -2.3132  -11.0443   34.5165 C   0  0  2  0  0  0  0  0  0  0  0  0
   -0.2025   -5.4833   28.7571 C   0  0  2  0  0  0  0  0  0  0  0  0
   -1.5147   -5.1578   29.2244 N   0  0  0  0  0  0  0  0  0  0  0  0
    0.0183  -11.3930   30.4921 C   0  0  0  0  0  0  0  0  0  0  0  0
   -3.7483  -11.0896   35.0857 C   0  0  2  0  0  0  0  0  0  0  0  0
   -4.5771  -11.7848   34.1812 O   0  0  0  0  0  0  0  0  0  0  0  0
   -0.2000   -5.8516   27.2340 C   0  0  0  0  0  0  0  0  0  0  0  0
   -0.2291  -10.1784   29.5245 C   0  0  2  0  0  0  0  0  0  0  0  0
    0.8833  -10.0592   28.5684 N   0  0  0  0  0  0  0  0  0  0  0  0
   -4.2343   -9.5984   35.3031 C   0  0  1  0  0  0  0  0  0  0  0  0
   -5.6439   -9.5497   35.8126 N   0  0  0  0  0  0  0  0  0  0  0  0
    1.2715   -6.1603   26.8144 C   0  0  0  0  0  0  0  0  0  0  0  0
   -0.3820   -8.8547   30.3678 C   0  0  2  0  0  0  0  0  0  0  0  0
   -3.2465   -8.8320   36.3329 C   0  0  1  0  0  0  0  0  0  0  0  0
   -3.2595   -9.4415   37.6072 O   0  0  0  0  0  0  0  0  0  0  0  0
    1.8157   -7.3552   27.7148 C   0  0  2  0  0  0  0  0  0  0  0  0
    1.6934   -7.0725   29.1439 O   0  0  0  0  0  0  0  0  0  0  0  0
   -1.5812   -9.0095   31.3806 C   0  0  2  0  0  0  0  0  0  0  0  0
   -1.7394   -7.8223   32.1508 O   0  0  0  0  0  0  0  0  0  0  0  0
   -1.7864   -8.9044   35.7885 C   0  0  0  0  0  0  0  0  0  0  0  0
   -1.4138  -10.3211   35.4614 O   0  0  0  0  0  0  0  0  0  0  0  0
    3.2333   -7.7706   27.3995 C   0  0  0  0  0  0  0  0  0  0  0  0
    4.1592   -6.6809   27.5634 N   0  0  0  0  0  0  0  0  0  0  0  0
   -1.3174  -10.2263   32.3356 C   0  0  1  0  0  0  0  0  0  0  0  0
   -2.4117  -10.3534   33.2354 O   0  0  0  0  0  0  0  0  0  0  0  0
   -3.5717   -7.3641   36.6414 C   0  0  0  0  0  0  0  0  0  0  0  0
   -6.7220   -9.6326   34.8132 C   0  0  0  0  0  0  0  0  0  0  0  0
  1  2  1  6  0  0  0
  1  6  1  0  0  0  0
  1 21  1  0  0  0  0
  3  4  1  1  0  0  0
  3  8  1  0  0  0  0
  3 28  1  0  0  0  0
  5  9  1  0  0  0  0
  5 25  1  0  0  0  0
  5 29  1  6  0  0  0
  6  7  1  1  0  0  0
  6 11  1  0  0  0  0
  8 12  1  0  0  0  0
  9 10  1  6  0  0  0
  9 14  1  0  0  0  0
 11 16  1  0  0  0  0
 12 13  1  6  0  0  0
 12 17  1  0  0  0  0
 14 15  1  1  0  0  0
 14 18  1  0  0  0  0
 15 31  1  0  0  0  0
 16 20  1  0  0  0  0
 17  2  1  6  0  0  0
 17 22  1  0  0  0  0
 18 19  1  1  0  0  0
 18 24  1  0  0  0  0
 18 30  1  0  0  0  0
 20 21  1  0  0  0  0
 20 26  1  6  0  0  0
 22 23  1  1  0  0  0
 22 28  1  0  0  0  0
 24 25  1  0  0  0  0
 26 27  1  0  0  0  0
 28 29  1  1  0  0  0
M  END
>  <CHROM.1>
-169.94742140,-173.58892414,-83.88923263,-123.32984658,59.01433417,81.51257820
-1.29597581,-8.89020763,31.86598223,0.52695790,0.88846684,-0.28183371

>  <Name>
2et3_lig

>  <RI>
0

>  <Rbt.Current_Directory>
/home/itssahil/PROJECTS/Mol_Feturizer/New_Systems/rnas/2et3

>  <Rbt.Executable>
rbdock ($Id: //depot/dev/client3/rdock/2013.1/src/exe/rbdock.cxx#4 $)

>  <Rbt.Library>
libRbt.so (2013.1, Build901 2013/11/27)

>  <Rbt.Parameter_File>
/export/apps/rDock/src/rDock_2013.1_src/data/scripts/dock_solv.prm

>  <Rbt.Receptor>
prm/pocket_docking_3.prm

>  <SCORE>
-29.1669

>  <SCORE.INTER>
-23.1602

>  <SCORE.INTER.CONST>
1

>  <SCORE.INTER.POLAR>
-0.938083

>  <SCORE.INTER.ROT>
6

>  <SCORE.INTER.SOLV>
20.9686

>  <SCORE.INTER.VDW>
-26.9027

>  <SCORE.INTER.norm>
-0.747103

>  <SCORE.INTRA>
-6.00669

>  <SCORE.INTRA.DIHEDRAL>
-11.8019

>  <SCORE.INTRA.DIHEDRAL.0>
22.2484

>  <SCORE.INTRA.POLAR>
0

>  <SCORE.INTRA.POLAR.0>
0

>  <SCORE.INTRA.REPUL>
0

>  <SCORE.INTRA.REPUL.0>
0

>  <SCORE.INTRA.SOLV>
0.729276

>  <SCORE.INTRA.SOLV.lig_0>
-75.7198

>  <SCORE.INTRA.VDW>
-0.470356

>  <SCORE.INTRA.VDW.0>
-3.34171

>  <SCORE.INTRA.norm>
-0.193764

>  <SCORE.RESTR>
0

>  <SCORE.RESTR.CAVITY>
0

>  <SCORE.RESTR.norm>
0

>  <SCORE.SYSTEM>
0

>  <SCORE.SYSTEM.CONST>
0

>  <SCORE.SYSTEM.DIHEDRAL>
0

>  <SCORE.SYSTEM.SOLV>
0

>  <SCORE.SYSTEM.norm>
0

>  <SCORE.heavy>
31

>  <SCORE.norm>
-0.940867

>  <RMSD>
1.001

$$$$
2et3_lig
 OpenBabel11021811423D
libRbt.so/2013.1/901 2013/11/27
 31 33  0  0  0  0  0  0  0  0999 V2000
    0.0643   -6.7669   29.5302 C   0  0  2  0  0  0  0  0  0  0  0  0
   -0.5384   -8.0611   29.2699 O   0  0  0  0  0  0  0  0  0  0  0  0
   -1.1583  -11.6490   31.5170 C   0  0  2  0  0  0  0  0  0  0  0  0
   -0.9306  -12.6896   32.4714 N   0  0  0  0  0  0  0  0  0  0  0  0
   -2.3064  -11.0121   34.4676 C   0  0  2  0  0  0  0  0  0  0  0  0
   -0.5111   -5.7239   28.5661 C   0  0  2  0  0  0  0  0  0  0  0  0
   -1.9345   -5.7091   28.7067 N   0  0  0  0  0  0  0  0  0  0  0  0
    0.0224  -11.6114   30.4940 C   0  0  0  0  0  0  0  0  0  0  0  0
   -3.7541  -11.0656   35.0033 C   0  0  2  0  0  0  0  0  0  0  0  0
   -4.5498  -11.7974   34.0979 O   0  0  0  0  0  0  0  0  0  0  0  0
   -0.0731   -6.0389   27.0950 C   0  0  0  0  0  0  0  0  0  0  0  0
   -0.2153  -10.4639   29.4453 C   0  0  2  0  0  0  0  0  0  0  0  0
    0.8945  -10.4240   28.4797 N   0  0  0  0  0  0  0  0  0  0  0  0
   -4.2683   -9.5773   35.1696 C   0  0  1  0  0  0  0  0  0  0  0  0
   -5.6904   -9.5380   35.6438 N   0  0  0  0  0  0  0  0  0  0  0  0
    1.4864   -6.0036   27.0374 C   0  0  0  0  0  0  0  0  0  0  0  0
   -0.3498   -9.0834   30.1954 C   0  0  2  0  0  0  0  0  0  0  0  0
   -3.3178   -8.7685   36.2021 C   0  0  1  0  0  0  0  0  0  0  0  0
   -3.3523   -9.3448   37.4914 O   0  0  0  0  0  0  0  0  0  0  0  0
    2.0563   -7.0745   28.0685 C   0  0  2  0  0  0  0  0  0  0  0  0
    1.5457   -6.8666   29.4225 O   0  0  0  0  0  0  0  0  0  0  0  0
   -1.5464   -9.1538   31.2206 C   0  0  2  0  0  0  0  0  0  0  0  0
   -1.6880   -7.9144   31.9072 O   0  0  0  0  0  0  0  0  0  0  0  0
   -1.8439   -8.8316   35.6948 C   0  0  0  0  0  0  0  0  0  0  0  0
   -1.4416  -10.2501   35.4142 O   0  0  0  0  0  0  0  0  0  0  0  0
    3.5642   -7.1582   28.1024 C   0  0  0  0  0  0  0  0  0  0  0  0
    4.0992   -7.6753   26.8702 N   0  0  0  0  0  0  0  0  0  0  0  0
   -1.2924  -10.3045   32.2567 C   0  0  1  0  0  0  0  0  0  0  0  0
   -2.3844  -10.3564   33.1667 O   0  0  0  0  0  0  0  0  0  0  0  0
   -3.6730   -7.2985   36.4638 C   0  0  0  0  0  0  0  0  0  0  0  0
   -6.7425   -9.5841   34.6146 C   0  0  0  0  0  0  0  0  0  0  0  0
  1  2  1  6  0  0  0
  1  6  1  0  0  0  0
  1 21  1  0  0  0  0
  3  4  1  1  0  0  0
  3  8  1  0  0  0  0
  3 28  1  0  0  0  0
  5  9  1  0  0  0  0
  5 25  1  0  0  0  0
  5 29  1  6  0  0  0
  6  7  1  6  0  0  0
  6 11  1  0  0  0  0
  8 12  1  0  0  0  0
  9 10  1  6  0  0  0
  9 14  1  0  0  0  0
 11 16  1  0  0  0  0
 12 13  1  6  0  0  0
 12 17  1  0  0  0  0
 14 15  1  1  0  0  0
 14 18  1  0  0  0  0
 15 31  1  0  0  0  0
 16 20  1  0  0  0  0
 17  2  1  6  0  0  0
 17 22  1  0  0  0  0
 18 19  1  1  0  0  0
 18 24  1  0  0  0  0
 18 30  1  0  0  0  0
 20 21  1  0  0  0  0
 20 26  1  1  0  0  0
 22 23  1  1  0  0  0
 22 28  1  0  0  0  0
 24 25  1  0  0  0  0
 26 27  1  0  0  0  0
 28 29  1  1  0  0  0
M  END
>  <CHROM.1>
-167.72450323,-169.73800794,-87.40497687,-144.04094449,-66.94603102,78.60730304
-1.31101881,-8.96040474,31.78918557,0.54564438,0.86143348,-0.33020198

>  <Name>
2et3_lig

>  <RI>
0

>  <Rbt.Current_Directory>
/home/itssahil/PROJECTS/Mol_Feturizer/New_Systems/rnas/2et3

>  <Rbt.Executable>
rbdock ($Id: //depot/dev/client3/rdock/2013.1/src/exe/rbdock.cxx#4 $)

>  <Rbt.Library>
libRbt.so (2013.1, Build901 2013/11/27)

>  <Rbt.Parameter_File>
/export/apps/rDock/src/rDock_2013.1_src/data/scripts/dock_solv.prm

>  <Rbt.Receptor>
prm/pocket_docking_2.prm

>  <SCORE>
-32.9591

>  <SCORE.INTER>
-24.9273

>  <SCORE.INTER.CONST>
1

>  <SCORE.INTER.POLAR>
-0.938083

>  <SCORE.INTER.ROT>
6

>  <SCORE.INTER.SOLV>
16.7625

>  <SCORE.INTER.VDW>
-26.6788

>  <SCORE.INTER.norm>
-0.804107

>  <SCORE.INTRA>
-8.03194

>  <SCORE.INTRA.DIHEDRAL>
-13.9221

>  <SCORE.INTRA.DIHEDRAL.0>
22.2484

>  <SCORE.INTRA.POLAR>
0

>  <SCORE.INTRA.POLAR.0>
0

>  <SCORE.INTRA.REPUL>
0

>  <SCORE.INTRA.REPUL.0>
0

>  <SCORE.INTRA.SOLV>
-1.45672

>  <SCORE.INTRA.SOLV.lig_0>
-75.7198

>  <SCORE.INTRA.VDW>
-0.342521

>  <SCORE.INTRA.VDW.0>
-3.34171

>  <SCORE.INTRA.norm>
-0.259095

>  <SCORE.RESTR>
0.000112828

>  <SCORE.RESTR.CAVITY>
0.000112828

>  <SCORE.RESTR.norm>
3.63961e-06

>  <SCORE.SYSTEM>
0

>  <SCORE.SYSTEM.CONST>
0

>  <SCORE.SYSTEM.DIHEDRAL>
0

>  <SCORE.SYSTEM.SOLV>
0

>  <SCORE.SYSTEM.norm>
0

>  <SCORE.heavy>
31

>  <SCORE.norm>
-1.0632

>  <RMSD>
1.006

$$$$
2et3_lig
 OpenBabel11021811423D
libRbt.so/2013.1/901 2013/11/27
 31 33  0  0  0  0  0  0  0  0999 V2000
    0.2306   -6.5747   29.6932 C   0  0  2  0  0  0  0  0  0  0  0  0
   -0.5413   -7.7856   29.4828 O   0  0  0  0  0  0  0  0  0  0  0  0
   -1.1487  -11.4961   31.5247 C   0  0  2  0  0  0  0  0  0  0  0  0
   -0.9152  -12.5899   32.4162 N   0  0  0  0  0  0  0  0  0  0  0  0
   -2.2637  -10.9960   34.5327 C   0  0  2  0  0  0  0  0  0  0  0  0
   -0.3681   -5.4290   28.8703 C   0  0  2  0  0  0  0  0  0  0  0  0
   -1.7437   -5.2776   29.2325 N   0  0  0  0  0  0  0  0  0  0  0  0
    0.0249  -11.4005   30.4972 C   0  0  0  0  0  0  0  0  0  0  0  0
   -3.7026  -11.0653   35.0898 C   0  0  2  0  0  0  0  0  0  0  0  0
   -4.5136  -11.7678   34.1749 O   0  0  0  0  0  0  0  0  0  0  0  0
   -0.1952   -5.7078   27.3381 C   0  0  0  0  0  0  0  0  0  0  0  0
   -0.2191  -10.1946   29.5178 C   0  0  2  0  0  0  0  0  0  0  0  0
    0.8839  -10.1000   28.5482 N   0  0  0  0  0  0  0  0  0  0  0  0
   -4.2122   -9.5827   35.3111 C   0  0  1  0  0  0  0  0  0  0  0  0
   -5.6265   -9.5574   35.8093 N   0  0  0  0  0  0  0  0  0  0  0  0
    1.3321   -5.8276   27.0386 C   0  0  0  0  0  0  0  0  0  0  0  0
   -0.3470   -8.8593   30.3468 C   0  0  2  0  0  0  0  0  0  0  0  0
   -3.2442   -8.8074   36.3530 C   0  0  1  0  0  0  0  0  0  0  0  0
   -3.2585   -9.4239   37.6239 O   0  0  0  0  0  0  0  0  0  0  0  0
    1.9326   -7.0042   27.9274 C   0  0  2  0  0  0  0  0  0  0  0  0
    1.6589   -6.8181   29.3514 O   0  0  0  0  0  0  0  0  0  0  0  0
   -1.5365   -8.9878   31.3746 C   0  0  2  0  0  0  0  0  0  0  0  0
   -1.6721   -7.7898   32.1322 O   0  0  0  0  0  0  0  0  0  0  0  0
   -1.7788   -8.8555   35.8202 C   0  0  0  0  0  0  0  0  0  0  0  0
   -1.3827  -10.2648   35.4887 O   0  0  0  0  0  0  0  0  0  0  0  0
    3.4101   -7.2417   27.7217 C   0  0  0  0  0  0  0  0  0  0  0  0
    3.8123   -8.5437   28.1854 N   0  0  0  0  0  0  0  0  0  0  0  0
   -1.2763  -10.1962   32.3412 C   0  0  1  0  0  0  0  0  0  0  0  0
   -2.3619  -10.2997   33.2545 O   0  0  0  0  0  0  0  0  0  0  0  0
   -3.5934   -7.3461   36.6665 C   0  0  0  0  0  0  0  0  0  0  0  0
   -6.6952   -9.6396   34.7997 C   0  0  0  0  0  0  0  0  0  0  0  0
  1  2  1  6  0  0  0
  1  6  1  0  0  0  0
  1 21  1  0  0  0  0
  3  4  1  1  0  0  0
  3  8  1  0  0  0  0
  3 28  1  0  0  0  0
  5  9  1  0  0  0  0
  5 25  1  0  0  0  0
  5 29  1  6  0  0  0
  6  7  1  6  0  0  0
  6 11  1  0  0  0  0
  8 12  1  0  0  0  0
  9 10  1  6  0  0  0
  9 14  1  0  0  0  0
 11 16  1  0  0  0  0
 12 13  1  6  0  0  0
 12 17  1  0  0  0  0
 14 15  1  1  0  0  0
 14 18  1  0  0  0  0
 15 31  1  0  0  0  0
 16 20  1  0  0  0  0
 17  2  1  6  0  0  0
 17 22  1  0  0  0  0
 18 19  1  1  0  0  0
 18 24  1  0  0  0  0
 18 30  1  0  0  0  0
 20 21  1  0  0  0  0
 20 26  1  1  0  0  0
 22 23  1  1  0  0  0
 22 28  1  0  0  0  0
 24 25  1  0  0  0  0
 26 27  1  0  0  0  0
 28 29  1  1  0  0  0
M  END
>  <CHROM.1>
-166.34888341,-171.08195360,-84.37263111,-134.36154610,-161.12981780,80.44263801
-1.29378535,-8.88604332,31.93051189,0.57280954,0.86110858,-0.34720163

>  <Name>
2et3_lig

>  <RI>
3.50789e+07

>  <Rbt.Current_Directory>
/home/itssahil/PROJECTS/Mol_Feturizer/New_Systems/rnas/2et3

>  <Rbt.Executable>
rbdock ($Id: //depot/dev/client3/rdock/2013.1/src/exe/rbdock.cxx#4 $)

>  <Rbt.Library>
libRbt.so (2013.1, Build901 2013/11/27)

>  <Rbt.Parameter_File>
/export/apps/rDock/src/rDock_2013.1_src/data/scripts/dock_solv.prm

>  <Rbt.Receptor>
prm/pocket_docking_4.prm

>  <SCORE>
-30.5638

>  <SCORE.INTER>
-24.5688

>  <SCORE.INTER.CONST>
1

>  <SCORE.INTER.POLAR>
-0.938083

>  <SCORE.INTER.ROT>
6

>  <SCORE.INTER.SOLV>
19.3039

>  <SCORE.INTER.VDW>
-27.2869

>  <SCORE.INTER.norm>
-0.792543

>  <SCORE.INTRA>
-5.99497

>  <SCORE.INTRA.DIHEDRAL>
-11.139

>  <SCORE.INTRA.DIHEDRAL.0>
22.2484

>  <SCORE.INTRA.POLAR>
0

>  <SCORE.INTRA.POLAR.0>
0

>  <SCORE.INTRA.REPUL>
0

>  <SCORE.INTRA.REPUL.0>
0

>  <SCORE.INTRA.SOLV>
0.473346

>  <SCORE.INTRA.SOLV.lig_0>
-75.7198

>  <SCORE.INTRA.VDW>
-0.662136

>  <SCORE.INTRA.VDW.0>
-3.34171

>  <SCORE.INTRA.norm>
-0.193386

>  <SCORE.RESTR>
0

>  <SCORE.RESTR.CAVITY>
0

>  <SCORE.RESTR.norm>
0

>  <SCORE.SYSTEM>
0

>  <SCORE.SYSTEM.CONST>
0

>  <SCORE.SYSTEM.DIHEDRAL>
0

>  <SCORE.SYSTEM.SOLV>
0

>  <SCORE.SYSTEM.norm>
0

>  <SCORE.heavy>
31

>  <SCORE.norm>
-0.985929

>  <RMSD>
1.006

$$$$
2et3_lig
 OpenBabel11021811423D
libRbt.so/2013.1/901 2013/11/27
 31 33  0  0  0  0  0  0  0  0999 V2000
    0.0784   -6.8272   29.5647 C   0  0  2  0  0  0  0  0  0  0  0  0
   -0.4980   -8.1290   29.2835 O   0  0  0  0  0  0  0  0  0  0  0  0
   -1.2324  -11.6462   31.6065 C   0  0  2  0  0  0  0  0  0  0  0  0
   -1.0273  -12.6854   32.5676 N   0  0  0  0  0  0  0  0  0  0  0  0
   -2.2595  -10.9707   34.5562 C   0  0  2  0  0  0  0  0  0  0  0  0
   -0.4947   -5.7866   28.5968 C   0  0  2  0  0  0  0  0  0  0  0  0
   -1.9207   -5.7957   28.7092 N   0  0  0  0  0  0  0  0  0  0  0  0
   -0.0912  -11.6891   30.5397 C   0  0  0  0  0  0  0  0  0  0  0  0
   -3.7076  -11.0035   35.0924 C   0  0  2  0  0  0  0  0  0  0  0  0
   -4.5244  -11.6781   34.1618 O   0  0  0  0  0  0  0  0  0  0  0  0
   -0.0228   -6.0837   27.1324 C   0  0  0  0  0  0  0  0  0  0  0  0
   -0.3039  -10.5438   29.4833 C   0  0  2  0  0  0  0  0  0  0  0  0
    0.7688  -10.5795   28.4764 N   0  0  0  0  0  0  0  0  0  0  0  0
   -4.1794   -9.5086   35.3155 C   0  0  1  0  0  0  0  0  0  0  0  0
   -5.5994   -9.4471   35.7937 N   0  0  0  0  0  0  0  0  0  0  0  0
    1.5368   -6.0229   27.1061 C   0  0  0  0  0  0  0  0  0  0  0  0
   -0.3319   -9.1481   30.2168 C   0  0  2  0  0  0  0  0  0  0  0  0
   -3.2054   -8.7663   36.3757 C   0  0  1  0  0  0  0  0  0  0  0  0
   -3.2549   -9.3894   37.6425 O   0  0  0  0  0  0  0  0  0  0  0  0
    2.1036   -7.0921   28.1407 C   0  0  2  0  0  0  0  0  0  0  0  0
    1.5631   -6.9024   29.4857 O   0  0  0  0  0  0  0  0  0  0  0  0
   -1.4907   -9.1371   31.2868 C   0  0  2  0  0  0  0  0  0  0  0  0
   -1.5362   -7.8828   31.9593 O   0  0  0  0  0  0  0  0  0  0  0  0
   -1.7344   -8.8518   35.8634 C   0  0  0  0  0  0  0  0  0  0  0  0
   -1.3726  -10.2695   35.5290 O   0  0  0  0  0  0  0  0  0  0  0  0
    3.6117   -7.1517   28.2039 C   0  0  0  0  0  0  0  0  0  0  0  0
    4.1794   -7.6473   26.9775 N   0  0  0  0  0  0  0  0  0  0  0  0
   -1.2624  -10.2867   32.3301 C   0  0  1  0  0  0  0  0  0  0  0  0
   -2.3202  -10.2647   33.2810 O   0  0  0  0  0  0  0  0  0  0  0  0
   -3.5188   -7.2977   36.6931 C   0  0  0  0  0  0  0  0  0  0  0  0
   -6.6559   -9.6279   34.7841 C   0  0  0  0  0  0  0  0  0  0  0  0
  1  2  1  6  0  0  0
  1  6  1  0  0  0  0
  1 21  1  0  0  0  0
  3  4  1  1  0  0  0
  3  8  1  0  0  0  0
  3 28  1  0  0  0  0
  5  9  1  0  0  0  0
  5 25  1  0  0  0  0
  5 29  1  6  0  0  0
  6  7  1  6  0  0  0
  6 11  1  0  0  0  0
  8 12  1  0  0  0  0
  9 10  1  6  0  0  0
  9 14  1  0  0  0  0
 11 16  1  0  0  0  0
 12 13  1  6  0  0  0
 12 17  1  0  0  0  0
 14 15  1  1  0  0  0
 14 18  1  0  0  0  0
 15 31  1  0  0  0  0
 16 20  1  0  0  0  0
 17  2  1  6  0  0  0
 17 22  1  0  0  0  0
 18 19  1  1  0  0  0
 18 24  1  0  0  0  0
 18 30  1  0  0  0  0
 20 21  1  0  0  0  0
 20 26  1  1  0  0  0
 22 23  1  1  0  0  0
 22 28  1  0  0  0  0
 24 25  1  0  0  0  0
 26 27  1  0  0  0  0
 28 29  1  1  0  0  0
M  END
>  <CHROM.1>
-166.56351891,-165.21010456,-78.48142816,-149.95001314,-66.77405280,74.97282508
-1.27322222,-8.97012636,31.87574210,0.49236144,0.89924891,-0.26730219

>  <Name>
2et3_lig

>  <RI>
0

>  <Rbt.Current_Directory>
/home/itssahil/PROJECTS/Mol_Feturizer/New_Systems/rnas/2et3

>  <Rbt.Executable>
rbdock ($Id: //depot/dev/client3/rdock/2013.1/src/exe/rbdock.cxx#4 $)

>  <Rbt.Library>
libRbt.so (2013.1, Build901 2013/11/27)

>  <Rbt.Parameter_File>
/export/apps/rDock/src/rDock_2013.1_src/data/scripts/dock_solv.prm

>  <Rbt.Receptor>
prm/pocket_docking_7.prm

>  <SCORE>
-33.1344

>  <SCORE.INTER>
-24.9108

>  <SCORE.INTER.CONST>
1

>  <SCORE.INTER.POLAR>
-0.938083

>  <SCORE.INTER.ROT>
6

>  <SCORE.INTER.SOLV>
17.4395

>  <SCORE.INTER.VDW>
-26.8935

>  <SCORE.INTER.norm>
-0.803576

>  <SCORE.INTRA>
-8.22359

>  <SCORE.INTRA.DIHEDRAL>
-15.1537

>  <SCORE.INTRA.DIHEDRAL.0>
22.2484

>  <SCORE.INTRA.POLAR>
0

>  <SCORE.INTRA.POLAR.0>
0

>  <SCORE.INTRA.REPUL>
0

>  <SCORE.INTRA.REPUL.0>
0

>  <SCORE.INTRA.SOLV>
-1.63535

>  <SCORE.INTRA.SOLV.lig_0>
-75.7198

>  <SCORE.INTRA.VDW>
0.170922

>  <SCORE.INTRA.VDW.0>
-3.34171

>  <SCORE.INTRA.norm>
-0.265277

>  <SCORE.RESTR>
0

>  <SCORE.RESTR.CAVITY>
0

>  <SCORE.RESTR.norm>
0

>  <SCORE.SYSTEM>
0

>  <SCORE.SYSTEM.CONST>
0

>  <SCORE.SYSTEM.DIHEDRAL>
0

>  <SCORE.SYSTEM.SOLV>
0

>  <SCORE.SYSTEM.norm>
0

>  <SCORE.heavy>
31

>  <SCORE.norm>
-1.06885

>  <RMSD>
1.009

$$$$
2et3_lig
 OpenBabel11021811423D
libRbt.so/2013.1/901 2013/11/27
 31 33  0  0  0  0  0  0  0  0999 V2000
    0.1144   -6.9698   29.4742 C   0  0  2  0  0  0  0  0  0  0  0  0
   -0.5804   -8.2285   29.2759 O   0  0  0  0  0  0  0  0  0  0  0  0
   -1.2588  -11.7464   31.6147 C   0  0  2  0  0  0  0  0  0  0  0  0
   -1.0303  -12.7865   32.5695 N   0  0  0  0  0  0  0  0  0  0  0  0
   -2.1771  -11.0035   34.6229 C   0  0  2  0  0  0  0  0  0  0  0  0
   -0.5143   -5.8862   28.5917 C   0  0  2  0  0  0  0  0  0  0  0  0
   -1.9092   -5.8017   28.8972 N   0  0  0  0  0  0  0  0  0  0  0  0
   -0.1452  -11.7897   30.5192 C   0  0  0  0  0  0  0  0  0  0  0  0
   -3.6197  -11.2033   35.1375 C   0  0  2  0  0  0  0  0  0  0  0  0
   -4.3219  -12.0171   34.2248 O   0  0  0  0  0  0  0  0  0  0  0  0
   -0.2666   -6.2028   27.0771 C   0  0  0  0  0  0  0  0  0  0  0  0
   -0.3836  -10.6435   29.4692 C   0  0  2  0  0  0  0  0  0  0  0  0
    0.6631  -10.6796   28.4353 N   0  0  0  0  0  0  0  0  0  0  0  0
   -4.2866   -9.7752   35.2874 C   0  0  1  0  0  0  0  0  0  0  0  0
   -5.7124   -9.8804   35.7403 N   0  0  0  0  0  0  0  0  0  0  0  0
    1.2755   -6.2452   26.8387 C   0  0  0  0  0  0  0  0  0  0  0  0
   -0.3916   -9.2483   30.2040 C   0  0  2  0  0  0  0  0  0  0  0  0
   -3.4403   -8.8684   36.3290 C   0  0  1  0  0  0  0  0  0  0  0  0
   -3.4350   -9.4395   37.6210 O   0  0  0  0  0  0  0  0  0  0  0  0
    1.9051   -7.3574   27.7881 C   0  0  2  0  0  0  0  0  0  0  0  0
    1.5662   -7.1425   29.1939 O   0  0  0  0  0  0  0  0  0  0  0  0
   -1.5227   -9.2369   31.3032 C   0  0  2  0  0  0  0  0  0  0  0  0
   -1.5499   -7.9829   31.9774 O   0  0  0  0  0  0  0  0  0  0  0  0
   -1.9602   -8.7816   35.8439 C   0  0  0  0  0  0  0  0  0  0  0  0
   -1.4098  -10.1524   35.5777 O   0  0  0  0  0  0  0  0  0  0  0  0
    3.4004   -7.5173   27.6455 C   0  0  0  0  0  0  0  0  0  0  0  0
    4.1054   -6.3236   28.0327 N   0  0  0  0  0  0  0  0  0  0  0  0
   -1.2691  -10.3874   32.3397 C   0  0  1  0  0  0  0  0  0  0  0  0
   -2.3023  -10.3650   33.3171 O   0  0  0  0  0  0  0  0  0  0  0  0
   -3.9487   -7.4416   36.5768 C   0  0  0  0  0  0  0  0  0  0  0  0
   -6.7566   -9.6767   34.7224 C   0  0  0  0  0  0  0  0  0  0  0  0
  1  2  1  6  0  0  0
  1  6  1  0  0  0  0
  1 21  1  0  0  0  0
  3  4  1  1  0  0  0
  3  8  1  0  0  0  0
  3 28  1  0  0  0  0
  5  9  1  0  0  0  0
  5 25  1  0  0  0  0
  5 29  1  6  0  0  0
  6  7  1  6  0  0  0
  6 11  1  0  0  0  0
  8 12  1  0  0  0  0
  9 10  1  6  0  0  0
  9 14  1  0  0  0  0
 11 16  1  0  0  0  0
 12 13  1  6  0  0  0
 12 17  1  0  0  0  0
 14 15  1  1  0  0  0
 14 18  1  0  0  0  0
 15 31  1  0  0  0  0
 16 20  1  0  0  0  0
 17  2  1  6  0  0  0
 17 22  1  0  0  0  0
 18 19  1  1  0  0  0
 18 24  1  0  0  0  0
 18 30  1  0  0  0  0
 20 21  1  0  0  0  0
 20 26  1  1  0  0  0
 22 23  1  1  0  0  0
 22 28  1  0  0  0  0
 24 25  1  0  0  0  0
 26 27  1  0  0  0  0
 28 29  1  1  0  0  0
M  END
>  <CHROM.1>
-164.46193045,-159.63651203,-103.35858452,-143.79474161,63.55079264,78.84888416
-1.35187582,-9.05588555,31.85934912,0.48378661,0.91061993,-0.23377916

>  <Name>
2et3_lig

>  <RI>
0

>  <Rbt.Current_Directory>
/home/itssahil/PROJECTS/Mol_Feturizer/New_Systems/rnas/2et3

>  <Rbt.Executable>
rbdock ($Id: //depot/dev/client3/rdock/2013.1/src/exe/rbdock.cxx#4 $)

>  <Rbt.Library>
libRbt.so (2013.1, Build901 2013/11/27)

>  <Rbt.Parameter_File>
/export/apps/rDock/src/rDock_2013.1_src/data/scripts/dock_solv.prm

>  <Rbt.Receptor>
prm/blind_docking_100.prm

>  <SCORE>
-26.0206

>  <SCORE.INTER>
-20.3986

>  <SCORE.INTER.CONST>
1

>  <SCORE.INTER.POLAR>
-0.938083

>  <SCORE.INTER.ROT>
6

>  <SCORE.INTER.SOLV>
23.2396

>  <SCORE.INTER.VDW>
-25.8186

>  <SCORE.INTER.norm>
-0.658018

>  <SCORE.INTRA>
-6.58321

>  <SCORE.INTRA.DIHEDRAL>
-11.7178

>  <SCORE.INTRA.DIHEDRAL.0>
22.2484

>  <SCORE.INTRA.POLAR>
0

>  <SCORE.INTRA.POLAR.0>
0

>  <SCORE.INTRA.REPUL>
0

>  <SCORE.INTRA.REPUL.0>
0

>  <SCORE.INTRA.SOLV>
-0.384479

>  <SCORE.INTRA.SOLV.lig_0>
-75.7198

>  <SCORE.INTRA.VDW>
-0.532076

>  <SCORE.INTRA.VDW.0>
-3.34171

>  <SCORE.INTRA.norm>
-0.212362

>  <SCORE.RESTR>
0.96114

>  <SCORE.RESTR.CAVITY>
0.96114

>  <SCORE.RESTR.norm>
0.0310045

>  <SCORE.SYSTEM>
0

>  <SCORE.SYSTEM.CONST>
0

>  <SCORE.SYSTEM.DIHEDRAL>
0

>  <SCORE.SYSTEM.SOLV>
0

>  <SCORE.SYSTEM.norm>
0

>  <SCORE.heavy>
31

>  <SCORE.norm>
-0.839375

>  <RMSD>
1.011

$$$$
2et3_lig
 OpenBabel11021811423D
libRbt.so/2013.1/901 2013/11/27
 31 33  0  0  0  0  0  0  0  0999 V2000
    0.1842   -6.5935   29.6433 C   0  0  2  0  0  0  0  0  0  0  0  0
   -0.5577   -7.8243   29.4413 O   0  0  0  0  0  0  0  0  0  0  0  0
   -1.1283  -11.5035   31.5495 C   0  0  2  0  0  0  0  0  0  0  0  0
   -0.8859  -12.5770   32.4630 N   0  0  0  0  0  0  0  0  0  0  0  0
   -2.2806  -10.9989   34.5218 C   0  0  2  0  0  0  0  0  0  0  0  0
   -0.4579   -5.4624   28.8330 C   0  0  2  0  0  0  0  0  0  0  0  0
   -1.8313   -5.3493   29.2166 N   0  0  0  0  0  0  0  0  0  0  0  0
    0.0501  -11.4117   30.5272 C   0  0  0  0  0  0  0  0  0  0  0  0
   -3.7221  -11.0600   35.0731 C   0  0  2  0  0  0  0  0  0  0  0  0
   -4.5360  -11.7473   34.1492 O   0  0  0  0  0  0  0  0  0  0  0  0
   -0.3012   -5.7327   27.2975 C   0  0  0  0  0  0  0  0  0  0  0  0
   -0.2039  -10.2278   29.5238 C   0  0  2  0  0  0  0  0  0  0  0  0
    0.9036  -10.1368   28.5590 N   0  0  0  0  0  0  0  0  0  0  0  0
   -4.2192   -9.5747   35.3051 C   0  0  1  0  0  0  0  0  0  0  0  0
   -5.6350   -9.5408   35.7983 N   0  0  0  0  0  0  0  0  0  0  0  0
    1.2240   -5.8103   26.9742 C   0  0  0  0  0  0  0  0  0  0  0  0
   -0.3545   -8.8789   30.3266 C   0  0  2  0  0  0  0  0  0  0  0  0
   -3.2482   -8.8171   36.3571 C   0  0  1  0  0  0  0  0  0  0  0  0
   -3.2728   -9.4442   37.6227 O   0  0  0  0  0  0  0  0  0  0  0  0
    1.8697   -6.9723   27.8502 C   0  0  2  0  0  0  0  0  0  0  0  0
    1.6131   -6.7972   29.2788 O   0  0  0  0  0  0  0  0  0  0  0  0
   -1.5484   -9.0039   31.3497 C   0  0  2  0  0  0  0  0  0  0  0  0
   -1.7044   -7.7936   32.0837 O   0  0  0  0  0  0  0  0  0  0  0  0
   -1.7813   -8.8739   35.8293 C   0  0  0  0  0  0  0  0  0  0  0  0
   -1.3967  -10.2838   35.4873 O   0  0  0  0  0  0  0  0  0  0  0  0
    3.3498   -7.1692   27.6212 C   0  0  0  0  0  0  0  0  0  0  0  0
    3.8124   -8.4217   28.1588 N   0  0  0  0  0  0  0  0  0  0  0  0
   -1.2781  -10.1902   32.3405 C   0  0  1  0  0  0  0  0  0  0  0  0
   -2.3677  -10.2909   33.2493 O   0  0  0  0  0  0  0  0  0  0  0  0
   -3.5854   -7.3554   36.6818 C   0  0  0  0  0  0  0  0  0  0  0  0
   -6.7006   -9.5893   34.7832 C   0  0  0  0  0  0  0  0  0  0  0  0
  1  2  1  6  0  0  0
  1  6  1  0  0  0  0
  1 21  1  0  0  0  0
  3  4  1  1  0  0  0
  3  8  1  0  0  0  0
  3 28  1  0  0  0  0
  5  9  1  0  0  0  0
  5 25  1  0  0  0  0
  5 29  1  6  0  0  0
  6  7  1  6  0  0  0
  6 11  1  0  0  0  0
  8 12  1  0  0  0  0
  9 10  1  6  0  0  0
  9 14  1  0  0  0  0
 11 16  1  0  0  0  0
 12 13  1  6  0  0  0
 12 17  1  0  0  0  0
 14 15  1  1  0  0  0
 14 18  1  0  0  0  0
 15 31  1  0  0  0  0
 16 20  1  0  0  0  0
 17  2  1  6  0  0  0
 17 22  1  0  0  0  0
 18 19  1  1  0  0  0
 18 24  1  0  0  0  0
 18 30  1  0  0  0  0
 20 21  1  0  0  0  0
 20 26  1  1  0  0  0
 22 23  1  1  0  0  0
 22 28  1  0  0  0  0
 24 25  1  0  0  0  0
 26 27  1  0  0  0  0
 28 29  1  1  0  0  0
M  END
>  <CHROM.1>
-164.19174870,-171.04075818,-85.05759244,-135.13504084,-165.17901468,78.39232402
-1.31568099,-8.88593202,31.91186971,0.60464151,0.85168517,-0.38667375

>  <Name>
2et3_lig

>  <RI>
0

>  <Rbt.Current_Directory>
/home/itssahil/PROJECTS/Mol_Feturizer/New_Systems/rnas/2et3

>  <Rbt.Executable>
rbdock ($Id: //depot/dev/client3/rdock/2013.1/src/exe/rbdock.cxx#4 $)

>  <Rbt.Library>
libRbt.so (2013.1, Build901 2013/11/27)

>  <Rbt.Parameter_File>
/export/apps/rDock/src/rDock_2013.1_src/data/scripts/dock_solv.prm

>  <Rbt.Receptor>
prm/pocket_docking_3.prm

>  <SCORE>
-30.7721

>  <SCORE.INTER>
-24.4951

>  <SCORE.INTER.CONST>
1

>  <SCORE.INTER.POLAR>
-0.938083

>  <SCORE.INTER.ROT>
6

>  <SCORE.INTER.SOLV>
19.1503

>  <SCORE.INTER.VDW>
-27.1866

>  <SCORE.INTER.norm>
-0.790166

>  <SCORE.INTRA>
-6.27693

>  <SCORE.INTRA.DIHEDRAL>
-11.6828

>  <SCORE.INTRA.DIHEDRAL.0>
22.2484

>  <SCORE.INTRA.POLAR>
0

>  <SCORE.INTRA.POLAR.0>
0

>  <SCORE.INTRA.REPUL>
0

>  <SCORE.INTRA.REPUL.0>
0

>  <SCORE.INTRA.SOLV>
0.390673

>  <SCORE.INTRA.SOLV.lig_0>
-75.7198

>  <SCORE.INTRA.VDW>
-0.630875

>  <SCORE.INTRA.VDW.0>
-3.34171

>  <SCORE.INTRA.norm>
-0.202482

>  <SCORE.RESTR>
0

>  <SCORE.RESTR.CAVITY>
0

>  <SCORE.RESTR.norm>
0

>  <SCORE.SYSTEM>
0

>  <SCORE.SYSTEM.CONST>
0

>  <SCORE.SYSTEM.DIHEDRAL>
0

>  <SCORE.SYSTEM.SOLV>
0

>  <SCORE.SYSTEM.norm>
0

>  <SCORE.heavy>
31

>  <SCORE.norm>
-0.992647

>  <RMSD>
1.011

$$$$
2et3_lig
 OpenBabel11021811423D
libRbt.so/2013.1/901 2013/11/27
 31 33  0  0  0  0  0  0  0  0999 V2000
    0.1876   -6.5342   29.6518 C   0  0  2  0  0  0  0  0  0  0  0  0
   -0.5191   -7.7800   29.4179 O   0  0  0  0  0  0  0  0  0  0  0  0
   -1.1022  -11.4566   31.5271 C   0  0  2  0  0  0  0  0  0  0  0  0
   -0.8601  -12.5339   32.4362 N   0  0  0  0  0  0  0  0  0  0  0  0
   -2.2120  -10.9332   34.5192 C   0  0  2  0  0  0  0  0  0  0  0  0
   -0.3254   -5.4585   28.6885 C   0  0  2  0  0  0  0  0  0  0  0  0
   -1.7401   -5.3318   28.8579 N   0  0  0  0  0  0  0  0  0  0  0  0
    0.0656  -11.3747   30.4919 C   0  0  0  0  0  0  0  0  0  0  0  0
   -3.6532  -11.0199   35.0681 C   0  0  2  0  0  0  0  0  0  0  0  0
   -4.4513  -11.7289   34.1468 O   0  0  0  0  0  0  0  0  0  0  0  0
    0.0556   -5.8202   27.2122 C   0  0  0  0  0  0  0  0  0  0  0  0
   -0.1879  -10.1869   29.4930 C   0  0  2  0  0  0  0  0  0  0  0  0
    0.9097  -10.1051   28.5161 N   0  0  0  0  0  0  0  0  0  0  0  0
   -4.1804   -9.5435   35.2902 C   0  0  1  0  0  0  0  0  0  0  0  0
   -5.5976   -9.5352   35.7805 N   0  0  0  0  0  0  0  0  0  0  0  0
    1.6116   -5.9069   27.1225 C   0  0  0  0  0  0  0  0  0  0  0  0
   -0.3164   -8.8379   30.2994 C   0  0  2  0  0  0  0  0  0  0  0  0
   -3.2269   -8.7603   36.3394 C   0  0  1  0  0  0  0  0  0  0  0  0
   -3.2415   -9.3801   37.6087 O   0  0  0  0  0  0  0  0  0  0  0  0
    2.1184   -7.0094   28.1532 C   0  0  2  0  0  0  0  0  0  0  0  0
    1.6542   -6.7499   29.5150 O   0  0  0  0  0  0  0  0  0  0  0  0
   -1.5001   -8.9528   31.3355 C   0  0  2  0  0  0  0  0  0  0  0  0
   -1.6362   -7.7422   32.0729 O   0  0  0  0  0  0  0  0  0  0  0  0
   -1.7581   -8.7908   35.8147 C   0  0  0  0  0  0  0  0  0  0  0  0
   -1.3446  -10.1947   35.4819 O   0  0  0  0  0  0  0  0  0  0  0  0
    3.6156   -7.2098   28.1573 C   0  0  0  0  0  0  0  0  0  0  0  0
    4.0822   -7.7818   26.9217 N   0  0  0  0  0  0  0  0  0  0  0  0
   -1.2304  -10.1432   32.3216 C   0  0  1  0  0  0  0  0  0  0  0  0
   -2.3109  -10.2347   33.2422 O   0  0  0  0  0  0  0  0  0  0  0  0
   -3.5940   -7.3037   36.6547 C   0  0  0  0  0  0  0  0  0  0  0  0
   -6.6602   -9.5952   34.7629 C   0  0  0  0  0  0  0  0  0  0  0  0
  1  2  1  6  0  0  0
  1  6  1  0  0  0  0
  1 21  1  0  0  0  0
  3  4  1  1  0  0  0
  3  8  1  0  0  0  0
  3 28  1  0  0  0  0
  5  9  1  0  0  0  0
  5 25  1  0  0  0  0
  5 29  1  6  0  0  0
  6  7  1  6  0  0  0
  6 11  1  0  0  0  0
  8 12  1  0  0  0  0
  9 10  1  6  0  0  0
  9 14  1  0  0  0  0
 11 16  1  0  0  0  0
 12 13  1  6  0  0  0
 12 17  1  0  0  0  0
 14 15  1  1  0  0  0
 14 18  1  0  0  0  0
 15 31  1  0  0  0  0
 16 20  1  0  0  0  0
 17  2  1  6  0  0  0
 17 22  1  0  0  0  0
 18 19  1  1  0  0  0
 18 24  1  0  0  0  0
 18 30  1  0  0  0  0
 20 21  1  0  0  0  0
 20 26  1  1  0  0  0
 22 23  1  1  0  0  0
 22 28  1  0  0  0  0
 24 25  1  0  0  0  0
 26 27  1  0  0  0  0
 28 29  1  1  0  0  0
M  END
>  <CHROM.1>
-172.22368931,-169.58955442,-85.75191987,-138.12424198,-67.11310217,79.07709320
-1.23102817,-8.83735524,31.88072766,0.54636202,0.86818869,-0.31749378

>  <Name>
2et3_lig

>  <RI>
3.50789e+07

>  <Rbt.Current_Directory>
/home/itssahil/PROJECTS/Mol_Feturizer/New_Systems/rnas/2et3

>  <Rbt.Executable>
rbdock ($Id: //depot/dev/client3/rdock/2013.1/src/exe/rbdock.cxx#4 $)

>  <Rbt.Library>
libRbt.so (2013.1, Build901 2013/11/27)

>  <Rbt.Parameter_File>
/export/apps/rDock/src/rDock_2013.1_src/data/scripts/dock_solv.prm

>  <Rbt.Receptor>
prm/pocket_docking_4.prm

>  <SCORE>
-32.6101

>  <SCORE.INTER>
-25.1465

>  <SCORE.INTER.CONST>
1

>  <SCORE.INTER.POLAR>
-0.938083

>  <SCORE.INTER.ROT>
6

>  <SCORE.INTER.SOLV>
17.3431

>  <SCORE.INTER.VDW>
-27.0184

>  <SCORE.INTER.norm>
-0.811177

>  <SCORE.INTRA>
-7.4681

>  <SCORE.INTRA.DIHEDRAL>
-13.3061

>  <SCORE.INTRA.DIHEDRAL.0>
22.2484

>  <SCORE.INTRA.POLAR>
0

>  <SCORE.INTRA.POLAR.0>
0

>  <SCORE.INTRA.REPUL>
0

>  <SCORE.INTRA.REPUL.0>
0

>  <SCORE.INTRA.SOLV>
-0.821131

>  <SCORE.INTRA.SOLV.lig_0>
-75.7198

>  <SCORE.INTRA.VDW>
-0.404459

>  <SCORE.INTRA.VDW.0>
-3.34171

>  <SCORE.INTRA.norm>
-0.240906

>  <SCORE.RESTR>
0.00452575

>  <SCORE.RESTR.CAVITY>
0.00452575

>  <SCORE.RESTR.norm>
0.000145992

>  <SCORE.SYSTEM>
0

>  <SCORE.SYSTEM.CONST>
0

>  <SCORE.SYSTEM.DIHEDRAL>
0

>  <SCORE.SYSTEM.SOLV>
0

>  <SCORE.SYSTEM.norm>
0

>  <SCORE.heavy>
31

>  <SCORE.norm>
-1.05194

>  <RMSD>
1.016

$$$$
2et3_lig
 OpenBabel11021811423D
libRbt.so/2013.1/901 2013/11/27
 31 33  0  0  0  0  0  0  0  0999 V2000
    0.3432   -6.5877   29.5692 C   0  0  2  0  0  0  0  0  0  0  0  0
   -0.5050   -7.7587   29.4445 O   0  0  0  0  0  0  0  0  0  0  0  0
   -1.0562  -11.4739   31.4938 C   0  0  2  0  0  0  0  0  0  0  0  0
   -0.7976  -12.5704   32.3750 N   0  0  0  0  0  0  0  0  0  0  0  0
   -2.0767  -10.9735   34.5389 C   0  0  2  0  0  0  0  0  0  0  0  0
   -0.2491   -5.4300   28.7585 C   0  0  2  0  0  0  0  0  0  0  0  0
   -1.5861   -5.1947   29.2093 N   0  0  0  0  0  0  0  0  0  0  0  0
    0.0860  -11.3773   30.4316 C   0  0  0  0  0  0  0  0  0  0  0  0
   -3.5139  -11.1927   35.0605 C   0  0  2  0  0  0  0  0  0  0  0  0
   -4.2277  -11.9663   34.1221 O   0  0  0  0  0  0  0  0  0  0  0  0
   -0.1982   -5.7534   27.2261 C   0  0  0  0  0  0  0  0  0  0  0  0
   -0.1856  -10.1683   29.4633 C   0  0  2  0  0  0  0  0  0  0  0  0
    0.8878  -10.0726   28.4611 N   0  0  0  0  0  0  0  0  0  0  0  0
   -4.1764   -9.7711   35.2777 C   0  0  1  0  0  0  0  0  0  0  0  0
   -5.5973   -9.8931   35.7414 N   0  0  0  0  0  0  0  0  0  0  0  0
    1.2960   -5.9642   26.8265 C   0  0  0  0  0  0  0  0  0  0  0  0
   -0.2864   -8.8351   30.2993 C   0  0  2  0  0  0  0  0  0  0  0  0
   -3.3169   -8.9102   36.3471 C   0  0  1  0  0  0  0  0  0  0  0  0
   -3.2986   -9.5353   37.6138 O   0  0  0  0  0  0  0  0  0  0  0  0
    1.8930   -7.1512   27.7037 C   0  0  2  0  0  0  0  0  0  0  0  0
    1.7293   -6.9174   29.1375 O   0  0  0  0  0  0  0  0  0  0  0  0
   -1.4445   -8.9647   31.3623 C   0  0  2  0  0  0  0  0  0  0  0  0
   -1.5553   -7.7685   32.1268 O   0  0  0  0  0  0  0  0  0  0  0  0
   -1.8420   -8.8054   35.8499 C   0  0  0  0  0  0  0  0  0  0  0  0
   -1.2973  -10.1646   35.5202 O   0  0  0  0  0  0  0  0  0  0  0  0
    3.3379   -7.4746   27.4043 C   0  0  0  0  0  0  0  0  0  0  0  0
    4.2334   -6.5057   27.9799 N   0  0  0  0  0  0  0  0  0  0  0  0
   -1.1571  -10.1761   32.3173 C   0  0  1  0  0  0  0  0  0  0  0  0
   -2.2148  -10.2804   33.2626 O   0  0  0  0  0  0  0  0  0  0  0  0
   -3.8198   -7.4944   36.6603 C   0  0  0  0  0  0  0  0  0  0  0  0
   -6.6515   -9.7057   34.7307 C   0  0  0  0  0  0  0  0  0  0  0  0
  1  2  1  6  0  0  0
  1  6  1  0  0  0  0
  1 21  1  0  0  0  0
  3  4  1  1  0  0  0
  3  8  1  0  0  0  0
  3 28  1  0  0  0  0
  5  9  1  0  0  0  0
  5 25  1  0  0  0  0
  5 29  1  6  0  0  0
  6  7  1  1  0  0  0
  6 11  1  0  0  0  0
  8 12  1  0  0  0  0
  9 10  1  6  0  0  0
  9 14  1  0  0  0  0
 11 16  1  0  0  0  0
 12 13  1  6  0  0  0
 12 17  1  0  0  0  0
 14 15  1  1  0  0  0
 14 18  1  0  0  0  0
 15 31  1  0  0  0  0
 16 20  1  0  0  0  0
 17  2  1  6  0  0  0
 17 22  1  0  0  0  0
 18 19  1  1  0  0  0
 18 24  1  0  0  0  0
 18 30  1  0  0  0  0
 20 21  1  0  0  0  0
 20 26  1  1  0  0  0
 22 23  1  1  0  0  0
 22 28  1  0  0  0  0
 24 25  1  0  0  0  0
 26 27  1  0  0  0  0
 28 29  1  1  0  0  0
M  END
>  <CHROM.1>
-167.97224513,-164.62221402,-100.63972447,-129.76233939,76.32097089,80.82042065
-1.22687381,-8.86743308,31.86178192,0.55731960,0.88205351,-0.29292635

>  <Name>
2et3_lig

>  <RI>
0

>  <Rbt.Current_Directory>
/home/itssahil/PROJECTS/Mol_Feturizer/New_Systems/rnas/2et3

>  <Rbt.Executable>
rbdock ($Id: //depot/dev/client3/rdock/2013.1/src/exe/rbdock.cxx#4 $)

>  <Rbt.Library>
libRbt.so (2013.1, Build901 2013/11/27)

>  <Rbt.Parameter_File>
/export/apps/rDock/src/rDock_2013.1_src/data/scripts/dock_solv.prm

>  <Rbt.Receptor>
prm/blind_docking_100.prm

>  <SCORE>
-26.0653

>  <SCORE.INTER>
-21.71

>  <SCORE.INTER.CONST>
1

>  <SCORE.INTER.POLAR>
-0.938083

>  <SCORE.INTER.ROT>
6

>  <SCORE.INTER.SOLV>
23.2758

>  <SCORE.INTER.VDW>
-26.705

>  <SCORE.INTER.norm>
-0.700323

>  <SCORE.INTRA>
-5.45787

>  <SCORE.INTRA.DIHEDRAL>
-9.81796

>  <SCORE.INTRA.DIHEDRAL.0>
22.2484

>  <SCORE.INTRA.POLAR>
0

>  <SCORE.INTRA.POLAR.0>
0

>  <SCORE.INTRA.REPUL>
0

>  <SCORE.INTRA.REPUL.0>
0

>  <SCORE.INTRA.SOLV>
0.411751

>  <SCORE.INTRA.SOLV.lig_0>
-75.7198

>  <SCORE.INTRA.VDW>
-0.754764

>  <SCORE.INTRA.VDW.0>
-3.34171

>  <SCORE.INTRA.norm>
-0.17606

>  <SCORE.RESTR>
1.10262

>  <SCORE.RESTR.CAVITY>
1.10262

>  <SCORE.RESTR.norm>
0.0355684

>  <SCORE.SYSTEM>
0

>  <SCORE.SYSTEM.CONST>
0

>  <SCORE.SYSTEM.DIHEDRAL>
0

>  <SCORE.SYSTEM.SOLV>
0

>  <SCORE.SYSTEM.norm>
0

>  <SCORE.heavy>
31

>  <SCORE.norm>
-0.840815

>  <RMSD>
1.026

$$$$
2et3_lig
 OpenBabel11021811423D
libRbt.so/2013.1/901 2013/11/27
 31 33  0  0  0  0  0  0  0  0999 V2000
    0.0146   -6.8807   29.5614 C   0  0  2  0  0  0  0  0  0  0  0  0
   -0.5199   -8.1971   29.2654 O   0  0  0  0  0  0  0  0  0  0  0  0
   -1.2031  -11.7458   31.5559 C   0  0  2  0  0  0  0  0  0  0  0  0
   -0.9918  -12.7807   32.5201 N   0  0  0  0  0  0  0  0  0  0  0  0
   -2.3165  -11.0519   34.5068 C   0  0  2  0  0  0  0  0  0  0  0  0
   -0.6189   -5.8425   28.6291 C   0  0  2  0  0  0  0  0  0  0  0  0
   -2.0406   -5.9072   28.7734 N   0  0  0  0  0  0  0  0  0  0  0  0
   -0.0289  -11.7455   30.5246 C   0  0  0  0  0  0  0  0  0  0  0  0
   -3.7648  -11.0888   35.0425 C   0  0  2  0  0  0  0  0  0  0  0  0
   -4.5658  -11.8234   34.1441 O   0  0  0  0  0  0  0  0  0  0  0  0
   -0.1706   -6.0917   27.1484 C   0  0  0  0  0  0  0  0  0  0  0  0
   -0.2485  -10.6044   29.4650 C   0  0  2  0  0  0  0  0  0  0  0  0
    0.8552  -10.5995   28.4916 N   0  0  0  0  0  0  0  0  0  0  0  0
   -4.2674   -9.5950   35.1936 C   0  0  1  0  0  0  0  0  0  0  0  0
   -5.6893   -9.5399   35.6668 N   0  0  0  0  0  0  0  0  0  0  0  0
    1.3847   -5.9722   27.0883 C   0  0  0  0  0  0  0  0  0  0  0  0
   -0.3474   -9.2132   30.2008 C   0  0  2  0  0  0  0  0  0  0  0  0
   -3.3110   -8.7833   36.2184 C   0  0  1  0  0  0  0  0  0  0  0  0
   -3.3503   -9.3464   37.5134 O   0  0  0  0  0  0  0  0  0  0  0  0
    2.0144   -7.0405   28.0867 C   0  0  2  0  0  0  0  0  0  0  0  0
    1.4988   -6.8988   29.4473 O   0  0  0  0  0  0  0  0  0  0  0  0
   -1.5381   -9.2460   31.2346 C   0  0  2  0  0  0  0  0  0  0  0  0
   -1.6477   -7.9964   31.9085 O   0  0  0  0  0  0  0  0  0  0  0  0
   -1.8375   -8.8629   35.7124 C   0  0  0  0  0  0  0  0  0  0  0  0
   -1.4461  -10.2872   35.4462 O   0  0  0  0  0  0  0  0  0  0  0  0
    3.5247   -7.0451   28.1146 C   0  0  0  0  0  0  0  0  0  0  0  0
    4.0814   -7.5118   26.8720 N   0  0  0  0  0  0  0  0  0  0  0  0
   -1.3024  -10.3908   32.2816 C   0  0  1  0  0  0  0  0  0  0  0  0
   -2.3890  -10.4087   33.1994 O   0  0  0  0  0  0  0  0  0  0  0  0
   -3.6548   -7.3081   36.4653 C   0  0  0  0  0  0  0  0  0  0  0  0
   -6.7413   -9.5818   34.6374 C   0  0  0  0  0  0  0  0  0  0  0  0
  1  2  1  6  0  0  0
  1  6  1  0  0  0  0
  1 21  1  0  0  0  0
  3  4  1  1  0  0  0
  3  8  1  0  0  0  0
  3 28  1  0  0  0  0
  5  9  1  0  0  0  0
  5 25  1  0  0  0  0
  5 29  1  6  0  0  0
  6  7  1  6  0  0  0
  6 11  1  0  0  0  0
  8 12  1  0  0  0  0
  9 10  1  6  0  0  0
  9 14  1  0  0  0  0
 11 16  1  0  0  0  0
 12 13  1  6  0  0  0
 12 17  1  0  0  0  0
 14 15  1  1  0  0  0
 14 18  1  0  0  0  0
 15 31  1  0  0  0  0
 16 20  1  0  0  0  0
 17  2  1  6  0  0  0
 17 22  1  0  0  0  0
 18 19  1  1  0  0  0
 18 24  1  0  0  0  0
 18 30  1  0  0  0  0
 20 21  1  0  0  0  0
 20 26  1  1  0  0  0
 22 23  1  1  0  0  0
 22 28  1  0  0  0  0
 24 25  1  0  0  0  0
 26 27  1  0  0  0  0
 28 29  1  1  0  0  0
M  END
>  <CHROM.1>
-163.67321955,-168.81573631,-87.67964897,-149.30725704,-67.59455815,78.59803111
-1.33564384,-9.01110131,31.81572651,0.52408028,0.87690110,-0.29884799

>  <Name>
2et3_lig

>  <RI>
0

>  <Rbt.Current_Directory>
/home/itssahil/PROJECTS/Mol_Feturizer/New_Systems/rnas/2et3

>  <Rbt.Executable>
rbdock ($Id: //depot/dev/client3/rdock/2013.1/src/exe/rbdock.cxx#4 $)

>  <Rbt.Library>
libRbt.so (2013.1, Build901 2013/11/27)

>  <Rbt.Parameter_File>
/export/apps/rDock/src/rDock_2013.1_src/data/scripts/dock_solv.prm

>  <Rbt.Receptor>
prm/pocket_docking_2.prm

>  <SCORE>
-32.9821

>  <SCORE.INTER>
-24.8177

>  <SCORE.INTER.CONST>
1

>  <SCORE.INTER.POLAR>
-0.938083

>  <SCORE.INTER.ROT>
6

>  <SCORE.INTER.SOLV>
17.1714

>  <SCORE.INTER.VDW>
-26.742

>  <SCORE.INTER.norm>
-0.800572

>  <SCORE.INTRA>
-8.17688

>  <SCORE.INTRA.DIHEDRAL>
-14.2519

>  <SCORE.INTRA.DIHEDRAL.0>
22.2484

>  <SCORE.INTRA.POLAR>
0

>  <SCORE.INTRA.POLAR.0>
0

>  <SCORE.INTRA.REPUL>
0

>  <SCORE.INTRA.REPUL.0>
0

>  <SCORE.INTRA.SOLV>
-1.66974

>  <SCORE.INTRA.SOLV.lig_0>
-75.7198

>  <SCORE.INTRA.VDW>
-0.216077

>  <SCORE.INTRA.VDW.0>
-3.34171

>  <SCORE.INTRA.norm>
-0.26377

>  <SCORE.RESTR>
0.0125316

>  <SCORE.RESTR.CAVITY>
0.0125316

>  <SCORE.RESTR.norm>
0.000404245

>  <SCORE.SYSTEM>
0

>  <SCORE.SYSTEM.CONST>
0

>  <SCORE.SYSTEM.DIHEDRAL>
0

>  <SCORE.SYSTEM.SOLV>
0

>  <SCORE.SYSTEM.norm>
0

>  <SCORE.heavy>
31

>  <SCORE.norm>
-1.06394

>  <RMSD>
1.029

$$$$
2et3_lig
 OpenBabel11021811423D
libRbt.so/2013.1/901 2013/11/27
 31 33  0  0  0  0  0  0  0  0999 V2000
    0.1151   -6.5638   29.6525 C   0  0  2  0  0  0  0  0  0  0  0  0
   -0.5751   -7.8174   29.4113 O   0  0  0  0  0  0  0  0  0  0  0  0
   -1.1718  -11.4787   31.5433 C   0  0  2  0  0  0  0  0  0  0  0  0
   -0.9342  -12.5506   32.4599 N   0  0  0  0  0  0  0  0  0  0  0  0
   -2.2954  -10.9592   34.5160 C   0  0  2  0  0  0  0  0  0  0  0  0
   -0.4056   -5.4918   28.6891 C   0  0  2  0  0  0  0  0  0  0  0  0
   -1.8227   -5.3827   28.8510 N   0  0  0  0  0  0  0  0  0  0  0  0
   -0.0018  -11.4066   30.5097 C   0  0  0  0  0  0  0  0  0  0  0  0
   -3.7356  -11.0106   35.0717 C   0  0  2  0  0  0  0  0  0  0  0  0
   -4.5587  -11.6847   34.1462 O   0  0  0  0  0  0  0  0  0  0  0  0
   -0.0121   -5.8447   27.2140 C   0  0  0  0  0  0  0  0  0  0  0  0
   -0.2504  -10.2246   29.5027 C   0  0  2  0  0  0  0  0  0  0  0  0
    0.8491  -10.1521   28.5273 N   0  0  0  0  0  0  0  0  0  0  0  0
   -4.2185   -9.5224   35.3147 C   0  0  1  0  0  0  0  0  0  0  0  0
   -5.6323   -9.4788   35.8127 N   0  0  0  0  0  0  0  0  0  0  0  0
    1.5453   -5.9122   27.1328 C   0  0  0  0  0  0  0  0  0  0  0  0
   -0.3768   -8.8700   30.3000 C   0  0  2  0  0  0  0  0  0  0  0  0
   -3.2371   -8.7803   36.3682 C   0  0  1  0  0  0  0  0  0  0  0  0
   -3.2633   -9.4151   37.6298 O   0  0  0  0  0  0  0  0  0  0  0  0
    2.0598   -7.0113   28.1634 C   0  0  2  0  0  0  0  0  0  0  0  0
    1.5849   -6.7612   29.5233 O   0  0  0  0  0  0  0  0  0  0  0  0
   -1.5626   -8.9751   31.3347 C   0  0  2  0  0  0  0  0  0  0  0  0
   -1.6968   -7.7593   32.0640 O   0  0  0  0  0  0  0  0  0  0  0  0
   -1.7726   -8.8470   35.8351 C   0  0  0  0  0  0  0  0  0  0  0  0
   -1.4019  -10.2582   35.4830 O   0  0  0  0  0  0  0  0  0  0  0  0
    3.5593   -7.1935   28.1753 C   0  0  0  0  0  0  0  0  0  0  0  0
    4.0392   -7.7602   26.9423 N   0  0  0  0  0  0  0  0  0  0  0  0
   -1.2979  -10.1598   32.3290 C   0  0  1  0  0  0  0  0  0  0  0  0
   -2.3803  -10.2424   33.2482 O   0  0  0  0  0  0  0  0  0  0  0  0
   -3.5600   -7.3177   36.7032 C   0  0  0  0  0  0  0  0  0  0  0  0
   -6.7019   -9.5794   34.8058 C   0  0  0  0  0  0  0  0  0  0  0  0
  1  2  1  6  0  0  0
  1  6  1  0  0  0  0
  1 21  1  0  0  0  0
  3  4  1  1  0  0  0
  3  8  1  0  0  0  0
  3 28  1  0  0  0  0
  5  9  1  0  0  0  0
  5 25  1  0  0  0  0
  5 29  1  6  0  0  0
  6  7  1  6  0  0  0
  6 11  1  0  0  0  0
  8 12  1  0  0  0  0
  9 10  1  6  0  0  0
  9 14  1  0  0  0  0
 11 16  1  0  0  0  0
 12 13  1  6  0  0  0
 12 17  1  0  0  0  0
 14 15  1  1  0  0  0
 14 18  1  0  0  0  0
 15 31  1  0  0  0  0
 16 20  1  0  0  0  0
 17  2  1  6  0  0  0
 17 22  1  0  0  0  0
 18 19  1  1  0  0  0
 18 24  1  0  0  0  0
 18 30  1  0  0  0  0
 20 21  1  0  0  0  0
 20 26  1  1  0  0  0
 22 23  1  1  0  0  0
 22 28  1  0  0  0  0
 24 25  1  0  0  0  0
 26 27  1  0  0  0  0
 28 29  1  1  0  0  0
M  END
>  <CHROM.1>
-171.46761016,-170.23980228,-82.06701096,-139.26520241,-67.28828433,77.60593589
-1.28786220,-8.85263993,31.89224279,0.54729585,0.87097299,-0.31875674

>  <Name>
2et3_lig

>  <RI>
0

>  <Rbt.Current_Directory>
/home/itssahil/PROJECTS/Mol_Feturizer/New_Systems/rnas/2et3

>  <Rbt.Executable>
rbdock ($Id: //depot/dev/client3/rdock/2013.1/src/exe/rbdock.cxx#4 $)

>  <Rbt.Library>
libRbt.so (2013.1, Build901 2013/11/27)

>  <Rbt.Parameter_File>
/export/apps/rDock/src/rDock_2013.1_src/data/scripts/dock_solv.prm

>  <Rbt.Receptor>
prm/pocket_docking_3.prm

>  <SCORE>
-32.621

>  <SCORE.INTER>
-24.9841

>  <SCORE.INTER.CONST>
1

>  <SCORE.INTER.POLAR>
-0.938083

>  <SCORE.INTER.ROT>
6

>  <SCORE.INTER.SOLV>
17.1307

>  <SCORE.INTER.VDW>
-26.8394

>  <SCORE.INTER.norm>
-0.805939

>  <SCORE.INTRA>
-7.63733

>  <SCORE.INTRA.DIHEDRAL>
-13.8158

>  <SCORE.INTRA.DIHEDRAL.0>
22.2484

>  <SCORE.INTRA.POLAR>
0

>  <SCORE.INTRA.POLAR.0>
0

>  <SCORE.INTRA.REPUL>
0

>  <SCORE.INTRA.REPUL.0>
0

>  <SCORE.INTRA.SOLV>
-0.949278

>  <SCORE.INTRA.SOLV.lig_0>
-75.7198

>  <SCORE.INTRA.VDW>
-0.254808

>  <SCORE.INTRA.VDW.0>
-3.34171

>  <SCORE.INTRA.norm>
-0.246366

>  <SCORE.RESTR>
0.000443877

>  <SCORE.RESTR.CAVITY>
0.000443877

>  <SCORE.RESTR.norm>
1.43186e-05

>  <SCORE.SYSTEM>
0

>  <SCORE.SYSTEM.CONST>
0

>  <SCORE.SYSTEM.DIHEDRAL>
0

>  <SCORE.SYSTEM.SOLV>
0

>  <SCORE.SYSTEM.norm>
0

>  <SCORE.heavy>
31

>  <SCORE.norm>
-1.05229

>  <RMSD>
1.033

$$$$
2et3_lig
 OpenBabel11021811423D
libRbt.so/2013.1/901 2013/11/27
 31 33  0  0  0  0  0  0  0  0999 V2000
    0.1068   -6.8720   29.5806 C   0  0  2  0  0  0  0  0  0  0  0  0
   -0.5013   -8.1610   29.3067 O   0  0  0  0  0  0  0  0  0  0  0  0
   -1.1957  -11.7288   31.5638 C   0  0  2  0  0  0  0  0  0  0  0  0
   -0.9845  -12.7769   32.5137 N   0  0  0  0  0  0  0  0  0  0  0  0
   -2.2843  -11.0937   34.5167 C   0  0  2  0  0  0  0  0  0  0  0  0
   -0.4578   -5.8184   28.6217 C   0  0  2  0  0  0  0  0  0  0  0  0
   -1.8819   -5.7972   28.7547 N   0  0  0  0  0  0  0  0  0  0  0  0
   -0.0330  -11.7285   30.5196 C   0  0  0  0  0  0  0  0  0  0  0  0
   -3.7281  -11.1088   35.0654 C   0  0  2  0  0  0  0  0  0  0  0  0
   -4.5587  -11.7846   34.1478 O   0  0  0  0  0  0  0  0  0  0  0  0
   -0.0134   -6.1240   27.1505 C   0  0  0  0  0  0  0  0  0  0  0  0
   -0.2525  -10.5730   29.4757 C   0  0  2  0  0  0  0  0  0  0  0  0
    0.8404  -10.5681   28.4902 N   0  0  0  0  0  0  0  0  0  0  0  0
   -4.1849   -9.6079   35.2786 C   0  0  1  0  0  0  0  0  0  0  0  0
   -5.6002   -9.5295   35.7681 N   0  0  0  0  0  0  0  0  0  0  0  0
    1.5466   -6.0965   27.1018 C   0  0  0  0  0  0  0  0  0  0  0  0
   -0.3289   -9.1895   30.2284 C   0  0  2  0  0  0  0  0  0  0  0  0
   -3.1956   -8.8646   36.3238 C   0  0  1  0  0  0  0  0  0  0  0  0
   -3.2399   -9.4757   37.5967 O   0  0  0  0  0  0  0  0  0  0  0  0
    2.1052   -7.1786   28.1274 C   0  0  2  0  0  0  0  0  0  0  0  0
    1.5883   -6.9788   29.4802 O   0  0  0  0  0  0  0  0  0  0  0  0
   -1.5085   -9.2222   31.2750 C   0  0  2  0  0  0  0  0  0  0  0  0
   -1.5978   -7.9794   31.9643 O   0  0  0  0  0  0  0  0  0  0  0  0
   -1.7298   -8.9677   35.8001 C   0  0  0  0  0  0  0  0  0  0  0  0
   -1.3831  -10.3915   35.4757 O   0  0  0  0  0  0  0  0  0  0  0  0
    3.6124   -7.2704   28.1689 C   0  0  0  0  0  0  0  0  0  0  0  0
    4.1512   -7.7851   26.9374 N   0  0  0  0  0  0  0  0  0  0  0  0
   -1.2731  -10.3813   32.3061 C   0  0  1  0  0  0  0  0  0  0  0  0
   -2.3496  -10.3988   33.2357 O   0  0  0  0  0  0  0  0  0  0  0  0
   -3.4934   -7.3905   36.6304 C   0  0  0  0  0  0  0  0  0  0  0  0
   -6.6662   -9.6185   34.7562 C   0  0  0  0  0  0  0  0  0  0  0  0
  1  2  1  6  0  0  0
  1  6  1  0  0  0  0
  1 21  1  0  0  0  0
  3  4  1  1  0  0  0
  3  8  1  0  0  0  0
  3 28  1  0  0  0  0
  5  9  1  0  0  0  0
  5 25  1  0  0  0  0
  5 29  1  6  0  0  0
  6  7  1  6  0  0  0
  6 11  1  0  0  0  0
  8 12  1  0  0  0  0
  9 10  1  6  0  0  0
  9 14  1  0  0  0  0
 11 16  1  0  0  0  0
 12 13  1  6  0  0  0
 12 17  1  0  0  0  0
 14 15  1  1  0  0  0
 14 18  1  0  0  0  0
 15 31  1  0  0  0  0
 16 20  1  0  0  0  0
 17  2  1  6  0  0  0
 17 22  1  0  0  0  0
 18 19  1  1  0  0  0
 18 24  1  0  0  0  0
 18 30  1  0  0  0  0
 20 21  1  0  0  0  0
 20 26  1  1  0  0  0
 22 23  1  1  0  0  0
 22 28  1  0  0  0  0
 24 25  1  0  0  0  0
 26 27  1  0  0  0  0
 28 29  1  1  0  0  0
M  END
>  <CHROM.1>
-167.39176753,-168.58441402,-82.52779429,-146.27483247,-67.15646478,76.58960730
-1.26708192,-9.04622275,31.85647952,0.51392480,0.88467731,-0.29237316

>  <Name>
2et3_lig

>  <RI>
0

>  <Rbt.Current_Directory>
/home/itssahil/PROJECTS/Mol_Feturizer/New_Systems/rnas/2et3

>  <Rbt.Executable>
rbdock ($Id: //depot/dev/client3/rdock/2013.1/src/exe/rbdock.cxx#4 $)

>  <Rbt.Library>
libRbt.so (2013.1, Build901 2013/11/27)

>  <Rbt.Parameter_File>
/export/apps/rDock/src/rDock_2013.1_src/data/scripts/dock_solv.prm

>  <Rbt.Receptor>
prm/pocket_docking_7.prm

>  <SCORE>
-33.2824

>  <SCORE.INTER>
-25.1126

>  <SCORE.INTER.CONST>
1

>  <SCORE.INTER.POLAR>
-0.938083

>  <SCORE.INTER.ROT>
6

>  <SCORE.INTER.SOLV>
17.1255

>  <SCORE.INTER.VDW>
-26.9233

>  <SCORE.INTER.norm>
-0.810085

>  <SCORE.INTRA>
-8.16973

>  <SCORE.INTRA.DIHEDRAL>
-14.6141

>  <SCORE.INTRA.DIHEDRAL.0>
22.2484

>  <SCORE.INTRA.POLAR>
0

>  <SCORE.INTRA.POLAR.0>
0

>  <SCORE.INTRA.REPUL>
0

>  <SCORE.INTRA.REPUL.0>
0

>  <SCORE.INTRA.SOLV>
-1.53381

>  <SCORE.INTRA.SOLV.lig_0>
-75.7198

>  <SCORE.INTRA.VDW>
-0.0957655

>  <SCORE.INTRA.VDW.0>
-3.34171

>  <SCORE.INTRA.norm>
-0.26354

>  <SCORE.RESTR>
0

>  <SCORE.RESTR.CAVITY>
0

>  <SCORE.RESTR.norm>
0

>  <SCORE.SYSTEM>
0

>  <SCORE.SYSTEM.CONST>
0

>  <SCORE.SYSTEM.DIHEDRAL>
0

>  <SCORE.SYSTEM.SOLV>
0

>  <SCORE.SYSTEM.norm>
0

>  <SCORE.heavy>
31

>  <SCORE.norm>
-1.07362

>  <RMSD>
1.044

$$$$
2et3_lig
 OpenBabel11021811423D
libRbt.so/2013.1/901 2013/11/27
 31 33  0  0  0  0  0  0  0  0999 V2000
    0.3041   -6.5149   29.6137 C   0  0  2  0  0  0  0  0  0  0  0  0
   -0.6317   -7.6234   29.5736 O   0  0  0  0  0  0  0  0  0  0  0  0
   -1.1280  -11.4139   31.4952 C   0  0  2  0  0  0  0  0  0  0  0  0
   -0.8681  -12.5231   32.3599 N   0  0  0  0  0  0  0  0  0  0  0  0
   -2.3150  -11.0213   34.5064 C   0  0  2  0  0  0  0  0  0  0  0  0
   -0.2476   -5.3411   28.7975 C   0  0  2  0  0  0  0  0  0  0  0  0
   -1.5371   -4.9948   29.3108 N   0  0  0  0  0  0  0  0  0  0  0  0
    0.0609  -11.2410   30.4959 C   0  0  0  0  0  0  0  0  0  0  0  0
   -3.7448  -11.0673   35.0886 C   0  0  2  0  0  0  0  0  0  0  0  0
   -4.5842  -11.7520   34.1857 O   0  0  0  0  0  0  0  0  0  0  0  0
   -0.3054   -5.7124   27.2762 C   0  0  0  0  0  0  0  0  0  0  0  0
   -0.2124  -10.0176   29.5465 C   0  0  2  0  0  0  0  0  0  0  0  0
    0.9050   -9.8502   28.6035 N   0  0  0  0  0  0  0  0  0  0  0  0
   -4.2242   -9.5768   35.3239 C   0  0  1  0  0  0  0  0  0  0  0  0
   -5.6288   -9.5284   35.8471 N   0  0  0  0  0  0  0  0  0  0  0  0
    1.1452   -6.0443   26.8048 C   0  0  0  0  0  0  0  0  0  0  0  0
   -0.4112   -8.7135   30.4105 C   0  0  2  0  0  0  0  0  0  0  0  0
   -3.2244   -8.8226   36.3513 C   0  0  1  0  0  0  0  0  0  0  0  0
   -3.2273   -9.4435   37.6201 O   0  0  0  0  0  0  0  0  0  0  0  0
    1.7032   -7.2456   27.6881 C   0  0  2  0  0  0  0  0  0  0  0  0
    1.6367   -6.9583   29.1200 O   0  0  0  0  0  0  0  0  0  0  0  0
   -1.6147   -8.9198   31.4088 C   0  0  2  0  0  0  0  0  0  0  0  0
   -1.8141   -7.7510   32.1974 O   0  0  0  0  0  0  0  0  0  0  0  0
   -1.7697   -8.8945   35.7925 C   0  0  0  0  0  0  0  0  0  0  0  0
   -1.4045  -10.3093   35.4492 O   0  0  0  0  0  0  0  0  0  0  0  0
    3.1021   -7.6832   27.3231 C   0  0  0  0  0  0  0  0  0  0  0  0
    4.0542   -6.6146   27.4765 N   0  0  0  0  0  0  0  0  0  0  0  0
   -1.3248  -10.1447   32.3457 C   0  0  1  0  0  0  0  0  0  0  0  0
   -2.4233  -10.3186   33.2325 O   0  0  0  0  0  0  0  0  0  0  0  0
   -3.5422   -7.3566   36.6759 C   0  0  0  0  0  0  0  0  0  0  0  0
   -6.7165   -9.6317   34.8600 C   0  0  0  0  0  0  0  0  0  0  0  0
  1  2  1  6  0  0  0
  1  6  1  0  0  0  0
  1 21  1  0  0  0  0
  3  4  1  1  0  0  0
  3  8  1  0  0  0  0
  3 28  1  0  0  0  0
  5  9  1  0  0  0  0
  5 25  1  0  0  0  0
  5 29  1  6  0  0  0
  6  7  1  1  0  0  0
  6 11  1  0  0  0  0
  8 12  1  0  0  0  0
  9 10  1  6  0  0  0
  9 14  1  0  0  0  0
 11 16  1  0  0  0  0
 12 13  1  6  0  0  0
 12 17  1  0  0  0  0
 14 15  1  1  0  0  0
 14 18  1  0  0  0  0
 15 31  1  0  0  0  0
 16 20  1  0  0  0  0
 17  2  1  6  0  0  0
 17 22  1  0  0  0  0
 18 19  1  1  0  0  0
 18 24  1  0  0  0  0
 18 30  1  0  0  0  0
 20 21  1  0  0  0  0
 20 26  1  6  0  0  0
 22 23  1  1  0  0  0
 22 28  1  0  0  0  0
 24 25  1  0  0  0  0
 26 27  1  0  0  0  0
 28 29  1  1  0  0  0
M  END
>  <CHROM.1>
-170.71161506,-175.93854473,-82.45363305,-119.23755869,60.17323641,81.89190977
-1.31655050,-8.81009820,31.87684113,0.56383917,0.88434610,-0.31225835

>  <Name>
2et3_lig

>  <RI>
3.50789e+07

>  <Rbt.Current_Directory>
/home/itssahil/PROJECTS/Mol_Feturizer/New_Systems/rnas/2et3

>  <Rbt.Executable>
rbdock ($Id: //depot/dev/client3/rdock/2013.1/src/exe/rbdock.cxx#4 $)

>  <Rbt.Library>
libRbt.so (2013.1, Build901 2013/11/27)

>  <Rbt.Parameter_File>
/export/apps/rDock/src/rDock_2013.1_src/data/scripts/dock_solv.prm

>  <Rbt.Receptor>
prm/pocket_docking_4.prm

>  <SCORE>
-29.1031

>  <SCORE.INTER>
-23.2594

>  <SCORE.INTER.CONST>
1

>  <SCORE.INTER.POLAR>
-0.938083

>  <SCORE.INTER.ROT>
6

>  <SCORE.INTER.SOLV>
20.8497

>  <SCORE.INTER.VDW>
-26.9292

>  <SCORE.INTER.norm>
-0.750302

>  <SCORE.INTRA>
-5.84372

>  <SCORE.INTRA.DIHEDRAL>
-11.917

>  <SCORE.INTRA.DIHEDRAL.0>
22.2484

>  <SCORE.INTRA.POLAR>
0

>  <SCORE.INTRA.POLAR.0>
0

>  <SCORE.INTRA.REPUL>
0

>  <SCORE.INTRA.REPUL.0>
0

>  <SCORE.INTRA.SOLV>
0.946574

>  <SCORE.INTRA.SOLV.lig_0>
-75.7198

>  <SCORE.INTRA.VDW>
-0.358496

>  <SCORE.INTRA.VDW.0>
-3.34171

>  <SCORE.INTRA.norm>
-0.188507

>  <SCORE.RESTR>
0

>  <SCORE.RESTR.CAVITY>
0

>  <SCORE.RESTR.norm>
0

>  <SCORE.SYSTEM>
0

>  <SCORE.SYSTEM.CONST>
0

>  <SCORE.SYSTEM.DIHEDRAL>
0

>  <SCORE.SYSTEM.SOLV>
0

>  <SCORE.SYSTEM.norm>
0

>  <SCORE.heavy>
31

>  <SCORE.norm>
-0.938809

>  <RMSD>
1.045

$$$$
2et3_lig
 OpenBabel11021811423D
libRbt.so/2013.1/901 2013/11/27
 31 33  0  0  0  0  0  0  0  0999 V2000
    0.1062   -6.5563   29.6377 C   0  0  2  0  0  0  0  0  0  0  0  0
   -0.5863   -7.8128   29.4189 O   0  0  0  0  0  0  0  0  0  0  0  0
   -1.1142  -11.4818   31.5558 C   0  0  2  0  0  0  0  0  0  0  0  0
   -0.8595  -12.5450   32.4779 N   0  0  0  0  0  0  0  0  0  0  0  0
   -2.2810  -10.9858   34.5136 C   0  0  2  0  0  0  0  0  0  0  0  0
   -0.4210   -5.4974   28.6635 C   0  0  2  0  0  0  0  0  0  0  0  0
   -1.8368   -5.3853   28.8341 N   0  0  0  0  0  0  0  0  0  0  0  0
    0.0638  -11.3838   30.5336 C   0  0  0  0  0  0  0  0  0  0  0  0
   -3.7217  -11.0478   35.0672 C   0  0  2  0  0  0  0  0  0  0  0  0
   -4.5382  -11.7289   34.1411 O   0  0  0  0  0  0  0  0  0  0  0  0
   -0.0383   -5.8709   27.1906 C   0  0  0  0  0  0  0  0  0  0  0  0
   -0.2037  -10.2110   29.5206 C   0  0  2  0  0  0  0  0  0  0  0  0
    0.9034  -10.1143   28.5559 N   0  0  0  0  0  0  0  0  0  0  0  0
   -4.2162   -9.5631   35.3081 C   0  0  1  0  0  0  0  0  0  0  0  0
   -5.6310   -9.5298   35.8041 N   0  0  0  0  0  0  0  0  0  0  0  0
    1.5184   -5.9405   27.0990 C   0  0  0  0  0  0  0  0  0  0  0  0
   -0.3711   -8.8578   30.3127 C   0  0  2  0  0  0  0  0  0  0  0  0
   -3.2421   -8.8125   36.3624 C   0  0  1  0  0  0  0  0  0  0  0  0
   -3.2653   -9.4465   37.6246 O   0  0  0  0  0  0  0  0  0  0  0  0
    2.0398   -7.0255   28.1409 C   0  0  2  0  0  0  0  0  0  0  0  0
    1.5750   -6.7564   29.5006 O   0  0  0  0  0  0  0  0  0  0  0  0
   -1.5642   -8.9891   31.3360 C   0  0  2  0  0  0  0  0  0  0  0  0
   -1.7354   -7.7750   32.0602 O   0  0  0  0  0  0  0  0  0  0  0  0
   -1.7763   -8.8686   35.8316 C   0  0  0  0  0  0  0  0  0  0  0  0
   -1.3943  -10.2772   35.4813 O   0  0  0  0  0  0  0  0  0  0  0  0
    3.5393   -7.2083   28.1445 C   0  0  0  0  0  0  0  0  0  0  0  0
    4.0169   -7.7359   26.8933 N   0  0  0  0  0  0  0  0  0  0  0  0
   -1.2804  -10.1642   32.3363 C   0  0  1  0  0  0  0  0  0  0  0  0
   -2.3695  -10.2708   33.2450 O   0  0  0  0  0  0  0  0  0  0  0  0
   -3.5766   -7.3522   36.6956 C   0  0  0  0  0  0  0  0  0  0  0  0
   -6.6986   -9.6099   34.7931 C   0  0  0  0  0  0  0  0  0  0  0  0
  1  2  1  6  0  0  0
  1  6  1  0  0  0  0
  1 21  1  0  0  0  0
  3  4  1  1  0  0  0
  3  8  1  0  0  0  0
  3 28  1  0  0  0  0
  5  9  1  0  0  0  0
  5 25  1  0  0  0  0
  5 29  1  6  0  0  0
  6  7  1  6  0  0  0
  6 11  1  0  0  0  0
  8 12  1  0  0  0  0
  9 10  1  6  0  0  0
  9 14  1  0  0  0  0
 11 16  1  0  0  0  0
 12 13  1  6  0  0  0
 12 17  1  0  0  0  0
 14 15  1  1  0  0  0
 14 18  1  0  0  0  0
 15 31  1  0  0  0  0
 16 20  1  0  0  0  0
 17  2  1  6  0  0  0
 17 22  1  0  0  0  0
 18 19  1  1  0  0  0
 18 24  1  0  0  0  0
 18 30  1  0  0  0  0
 20 21  1  0  0  0  0
 20 26  1  1  0  0  0
 22 23  1  1  0  0  0
 22 28  1  0  0  0  0
 24 25  1  0  0  0  0
 26 27  1  0  0  0  0
 28 29  1  1  0  0  0
M  END
>  <CHROM.1>
-172.13915057,-171.19064352,-83.36006485,-137.19179236,-64.66968967,77.38483568
-1.28329509,-8.86556966,31.88634958,0.57912237,0.85765435,-0.35606432

>  <Name>
2et3_lig

>  <RI>
3.50789e+07

>  <Rbt.Current_Directory>
/home/itssahil/PROJECTS/Mol_Feturizer/New_Systems/rnas/2et3

>  <Rbt.Executable>
rbdock ($Id: //depot/dev/client3/rdock/2013.1/src/exe/rbdock.cxx#4 $)

>  <Rbt.Library>
libRbt.so (2013.1, Build901 2013/11/27)

>  <Rbt.Parameter_File>
/export/apps/rDock/src/rDock_2013.1_src/data/scripts/dock_solv.prm

>  <Rbt.Receptor>
prm/pocket_docking_4.prm

>  <SCORE>
-32.6782

>  <SCORE.INTER>
-25.1601

>  <SCORE.INTER.CONST>
1

>  <SCORE.INTER.POLAR>
-0.938083

>  <SCORE.INTER.ROT>
6

>  <SCORE.INTER.SOLV>
17.1943

>  <SCORE.INTER.VDW>
-26.9779

>  <SCORE.INTER.norm>
-0.811615

>  <SCORE.INTRA>
-7.52997

>  <SCORE.INTRA.DIHEDRAL>
-13.7299

>  <SCORE.INTRA.DIHEDRAL.0>
22.2484

>  <SCORE.INTRA.POLAR>
0

>  <SCORE.INTRA.POLAR.0>
0

>  <SCORE.INTRA.REPUL>
0

>  <SCORE.INTRA.REPUL.0>
0

>  <SCORE.INTRA.SOLV>
-0.735352

>  <SCORE.INTRA.SOLV.lig_0>
-75.7198

>  <SCORE.INTRA.VDW>
-0.297367

>  <SCORE.INTRA.VDW.0>
-3.34171

>  <SCORE.INTRA.norm>
-0.242902

>  <SCORE.RESTR>
0.0118278

>  <SCORE.RESTR.CAVITY>
0.0118278

>  <SCORE.RESTR.norm>
0.00038154

>  <SCORE.SYSTEM>
0

>  <SCORE.SYSTEM.CONST>
0

>  <SCORE.SYSTEM.DIHEDRAL>
0

>  <SCORE.SYSTEM.SOLV>
0

>  <SCORE.SYSTEM.norm>
0

>  <SCORE.heavy>
31

>  <SCORE.norm>
-1.05414

>  <RMSD>
1.048

$$$$
2et3_lig
 OpenBabel11021811423D
libRbt.so/2013.1/901 2013/11/27
 31 33  0  0  0  0  0  0  0  0999 V2000
    0.0777   -6.5777   29.6841 C   0  0  2  0  0  0  0  0  0  0  0  0
   -0.5967   -7.8389   29.4378 O   0  0  0  0  0  0  0  0  0  0  0  0
   -1.1275  -11.5318   31.5324 C   0  0  2  0  0  0  0  0  0  0  0  0
   -0.8751  -12.6045   32.4442 N   0  0  0  0  0  0  0  0  0  0  0  0
   -2.3032  -11.0512   34.5000 C   0  0  2  0  0  0  0  0  0  0  0  0
   -0.4684   -5.5043   28.7364 C   0  0  2  0  0  0  0  0  0  0  0  0
   -1.8852   -5.4174   28.9138 N   0  0  0  0  0  0  0  0  0  0  0  0
    0.0552  -11.4205   30.5171 C   0  0  0  0  0  0  0  0  0  0  0  0
   -3.7390  -11.0885   35.0680 C   0  0  2  0  0  0  0  0  0  0  0  0
   -4.5749  -11.7621   34.1537 O   0  0  0  0  0  0  0  0  0  0  0  0
   -0.0851   -5.8374   27.2541 C   0  0  0  0  0  0  0  0  0  0  0  0
   -0.2097  -10.2374   29.5155 C   0  0  2  0  0  0  0  0  0  0  0  0
    0.9019  -10.1280   28.5573 N   0  0  0  0  0  0  0  0  0  0  0  0
   -4.2087   -9.5952   35.3057 C   0  0  1  0  0  0  0  0  0  0  0  0
   -5.6179   -9.5379   35.8153 N   0  0  0  0  0  0  0  0  0  0  0  0
    1.4722   -5.8815   27.1563 C   0  0  0  0  0  0  0  0  0  0  0  0
   -0.3837   -8.8931   30.3213 C   0  0  2  0  0  0  0  0  0  0  0  0
   -3.2130   -8.8539   36.3463 C   0  0  1  0  0  0  0  0  0  0  0  0
   -3.2334   -9.4807   37.6121 O   0  0  0  0  0  0  0  0  0  0  0  0
    2.0132   -6.9826   28.1710 C   0  0  2  0  0  0  0  0  0  0  0  0
    1.5489   -6.7525   29.5380 O   0  0  0  0  0  0  0  0  0  0  0  0
   -1.5815   -9.0378   31.3373 C   0  0  2  0  0  0  0  0  0  0  0  0
   -1.7586   -7.8320   32.0738 O   0  0  0  0  0  0  0  0  0  0  0  0
   -1.7536   -8.9349   35.8015 C   0  0  0  0  0  0  0  0  0  0  0  0
   -1.3964  -10.3510   35.4551 O   0  0  0  0  0  0  0  0  0  0  0  0
    3.5152   -7.1430   28.1658 C   0  0  0  0  0  0  0  0  0  0  0  0
    3.9963   -7.6364   26.9021 N   0  0  0  0  0  0  0  0  0  0  0  0
   -1.3001  -10.2231   32.3262 C   0  0  1  0  0  0  0  0  0  0  0  0
   -2.3934  -10.3417   33.2285 O   0  0  0  0  0  0  0  0  0  0  0  0
   -3.5222   -7.3869   36.6748 C   0  0  0  0  0  0  0  0  0  0  0  0
   -6.6967   -9.6651   34.8212 C   0  0  0  0  0  0  0  0  0  0  0  0
  1  2  1  6  0  0  0
  1  6  1  0  0  0  0
  1 21  1  0  0  0  0
  3  4  1  1  0  0  0
  3  8  1  0  0  0  0
  3 28  1  0  0  0  0
  5  9  1  0  0  0  0
  5 25  1  0  0  0  0
  5 29  1  6  0  0  0
  6  7  1  6  0  0  0
  6 11  1  0  0  0  0
  8 12  1  0  0  0  0
  9 10  1  6  0  0  0
  9 14  1  0  0  0  0
 11 16  1  0  0  0  0
 12 13  1  6  0  0  0
 12 17  1  0  0  0  0
 14 15  1  1  0  0  0
 14 18  1  0  0  0  0
 15 31  1  0  0  0  0
 16 20  1  0  0  0  0
 17  2  1  6  0  0  0
 17 22  1  0  0  0  0
 18 19  1  1  0  0  0
 18 24  1  0  0  0  0
 18 30  1  0  0  0  0
 20 21  1  0  0  0  0
 20 26  1  1  0  0  0
 22 23  1  1  0  0  0
 22 28  1  0  0  0  0
 24 25  1  0  0  0  0
 26 27  1  0  0  0  0
 28 29  1  1  0  0  0
M  END
>  <CHROM.1>
-170.87771888,-173.08746239,-80.81882758,-138.03759007,-64.77840326,78.44034112
-1.29556588,-8.88933110,31.89551913,0.57118209,0.86378297,-0.33342034

>  <Name>
2et3_lig

>  <RI>
0

>  <Rbt.Current_Directory>
/home/itssahil/PROJECTS/Mol_Feturizer/New_Systems/rnas/2et3

>  <Rbt.Executable>
rbdock ($Id: //depot/dev/client3/rdock/2013.1/src/exe/rbdock.cxx#4 $)

>  <Rbt.Library>
libRbt.so (2013.1, Build901 2013/11/27)

>  <Rbt.Parameter_File>
/export/apps/rDock/src/rDock_2013.1_src/data/scripts/dock_solv.prm

>  <Rbt.Receptor>
prm/pocket_docking_3.prm

>  <SCORE>
-32.6967

>  <SCORE.INTER>
-25.1084

>  <SCORE.INTER.CONST>
1

>  <SCORE.INTER.POLAR>
-0.938083

>  <SCORE.INTER.ROT>
6

>  <SCORE.INTER.SOLV>
17.2337

>  <SCORE.INTER.VDW>
-26.9566

>  <SCORE.INTER.norm>
-0.80995

>  <SCORE.INTRA>
-7.58823

>  <SCORE.INTRA.DIHEDRAL>
-13.8075

>  <SCORE.INTRA.DIHEDRAL.0>
22.2484

>  <SCORE.INTRA.POLAR>
0

>  <SCORE.INTRA.POLAR.0>
0

>  <SCORE.INTRA.REPUL>
0

>  <SCORE.INTRA.REPUL.0>
0

>  <SCORE.INTRA.SOLV>
-0.893492

>  <SCORE.INTRA.SOLV.lig_0>
-75.7198

>  <SCORE.INTRA.VDW>
-0.237736

>  <SCORE.INTRA.VDW.0>
-3.34171

>  <SCORE.INTRA.norm>
-0.244781

>  <SCORE.RESTR>
0

>  <SCORE.RESTR.CAVITY>
0

>  <SCORE.RESTR.norm>
0

>  <SCORE.SYSTEM>
0

>  <SCORE.SYSTEM.CONST>
0

>  <SCORE.SYSTEM.DIHEDRAL>
0

>  <SCORE.SYSTEM.SOLV>
0

>  <SCORE.SYSTEM.norm>
0

>  <SCORE.heavy>
31

>  <SCORE.norm>
-1.05473

>  <RMSD>
1.081

$$$$
2et3_lig
 OpenBabel11021811423D
libRbt.so/2013.1/901 2013/11/27
 31 33  0  0  0  0  0  0  0  0999 V2000
   -0.2172   -7.1245   29.5214 C   0  0  2  0  0  0  0  0  0  0  0  0
   -0.7797   -8.4326   29.2403 O   0  0  0  0  0  0  0  0  0  0  0  0
   -1.3800  -11.6648   31.9787 C   0  0  2  0  0  0  0  0  0  0  0  0
   -1.0755  -12.7387   32.8729 N   0  0  0  0  0  0  0  0  0  0  0  0
   -2.3105  -10.9116   34.4602 C   0  0  2  0  0  0  0  0  0  0  0  0
   -0.7306   -6.1084   28.4957 C   0  0  2  0  0  0  0  0  0  0  0  0
   -2.1607   -6.1131   28.5253 N   0  0  0  0  0  0  0  0  0  0  0  0
   -0.8189  -11.9935   30.5577 C   0  0  0  0  0  0  0  0  0  0  0  0
   -3.6767  -10.4383   33.9171 C   0  0  2  0  0  0  0  0  0  0  0  0
   -3.6920  -10.5985   32.5162 O   0  0  0  0  0  0  0  0  0  0  0  0
   -0.1753   -6.4432   27.0692 C   0  0  0  0  0  0  0  0  0  0  0  0
   -1.1416  -10.8135   29.5695 C   0  0  2  0  0  0  0  0  0  0  0  0
   -0.6147  -11.1181   28.2297 N   0  0  0  0  0  0  0  0  0  0  0  0
   -3.8720   -8.9248   34.3391 C   0  0  1  0  0  0  0  0  0  0  0  0
   -5.1600   -8.3693   33.8090 N   0  0  0  0  0  0  0  0  0  0  0  0
    1.3834   -6.3848   27.1319 C   0  0  0  0  0  0  0  0  0  0  0  0
   -0.5155   -9.4761   30.1226 C   0  0  2  0  0  0  0  0  0  0  0  0
   -3.8302   -8.7834   35.9522 C   0  0  1  0  0  0  0  0  0  0  0  0
   -4.8847   -9.5017   36.5584 O   0  0  0  0  0  0  0  0  0  0  0  0
    1.8865   -7.4278   28.2245 C   0  0  2  0  0  0  0  0  0  0  0  0
    1.2693   -7.2032   29.5307 O   0  0  0  0  0  0  0  0  0  0  0  0
   -1.0989   -9.1734   31.5564 C   0  0  2  0  0  0  0  0  0  0  0  0
   -0.5487   -7.9661   32.0736 O   0  0  0  0  0  0  0  0  0  0  0  0
   -2.4880   -9.3763   36.4816 C   0  0  0  0  0  0  0  0  0  0  0  0
   -2.2730  -10.7609   35.9437 O   0  0  0  0  0  0  0  0  0  0  0  0
    3.3882   -7.4873   28.3767 C   0  0  0  0  0  0  0  0  0  0  0  0
    4.0014   -8.2653   27.3324 N   0  0  0  0  0  0  0  0  0  0  0  0
   -0.7688  -10.3614   32.5269 C   0  0  1  0  0  0  0  0  0  0  0  0
   -1.3087  -10.0730   33.8109 O   0  0  0  0  0  0  0  0  0  0  0  0
   -3.9908   -7.3696   36.5276 C   0  0  0  0  0  0  0  0  0  0  0  0
   -6.3897   -9.1210   34.1106 C   0  0  0  0  0  0  0  0  0  0  0  0
  1  2  1  6  0  0  0
  1  6  1  0  0  0  0
  1 21  1  0  0  0  0
  3  4  1  1  0  0  0
  3  8  1  0  0  0  0
  3 28  1  0  0  0  0
  5  9  1  0  0  0  0
  5 25  1  0  0  0  0
  5 29  1  6  0  0  0
  6  7  1  6  0  0  0
  6 11  1  0  0  0  0
  8 12  1  0  0  0  0
  9 10  1  6  0  0  0
  9 14  1  0  0  0  0
 11 16  1  0  0  0  0
 12 13  1  6  0  0  0
 12 17  1  0  0  0  0
 14 15  1  1  0  0  0
 14 18  1  0  0  0  0
 15 31  1  0  0  0  0
 16 20  1  0  0  0  0
 17  2  1  6  0  0  0
 17 22  1  0  0  0  0
 18 19  1  1  0  0  0
 18 24  1  0  0  0  0
 18 30  1  0  0  0  0
 20 21  1  0  0  0  0
 20 26  1  1  0  0  0
 22 23  1  1  0  0  0
 22 28  1  0  0  0  0
 24 25  1  0  0  0  0
 26 27  1  0  0  0  0
 28 29  1  1  0  0  0
M  END
>  <CHROM.1>
-175.16603318,-85.05013526,53.11666947,-176.20910766,-79.02317749,-0.92195199
-1.43927983,-9.04535881,31.69880944,0.61519888,0.81522446,-0.49085076

>  <Name>
2et3_lig

>  <RI>
0

>  <Rbt.Current_Directory>
/home/itssahil/PROJECTS/Mol_Feturizer/New_Systems/rnas/2et3

>  <Rbt.Executable>
rbdock ($Id: //depot/dev/client3/rdock/2013.1/src/exe/rbdock.cxx#4 $)

>  <Rbt.Library>
libRbt.so (2013.1, Build901 2013/11/27)

>  <Rbt.Parameter_File>
/export/apps/rDock/src/rDock_2013.1_src/data/scripts/dock_solv.prm

>  <Rbt.Receptor>
prm/blind_docking_100.prm

>  <SCORE>
-11.7158

>  <SCORE.INTER>
-13.4975

>  <SCORE.INTER.CONST>
1

>  <SCORE.INTER.POLAR>
-0.938083

>  <SCORE.INTER.ROT>
6

>  <SCORE.INTER.SOLV>
14.1355

>  <SCORE.INTER.VDW>
-18.1832

>  <SCORE.INTER.norm>
-0.435402

>  <SCORE.INTRA>
-1.145

>  <SCORE.INTRA.DIHEDRAL>
-10.8689

>  <SCORE.INTRA.DIHEDRAL.0>
22.2484

>  <SCORE.INTRA.POLAR>
0

>  <SCORE.INTRA.POLAR.0>
0

>  <SCORE.INTRA.REPUL>
0

>  <SCORE.INTRA.REPUL.0>
0

>  <SCORE.INTRA.SOLV>
-1.43445

>  <SCORE.INTRA.SOLV.lig_0>
-75.7198

>  <SCORE.INTRA.VDW>
5.00667

>  <SCORE.INTRA.VDW.0>
-3.34171

>  <SCORE.INTRA.norm>
-0.0369354

>  <SCORE.RESTR>
2.92663

>  <SCORE.RESTR.CAVITY>
2.92663

>  <SCORE.RESTR.norm>
0.0944074

>  <SCORE.SYSTEM>
0

>  <SCORE.SYSTEM.CONST>
0

>  <SCORE.SYSTEM.DIHEDRAL>
0

>  <SCORE.SYSTEM.SOLV>
0

>  <SCORE.SYSTEM.norm>
0

>  <SCORE.heavy>
31

>  <SCORE.norm>
-0.37793

>  <RMSD>
1.312

$$$$
2et3_lig
 OpenBabel11021811423D
libRbt.so/2013.1/901 2013/11/27
 31 33  0  0  0  0  0  0  0  0999 V2000
    0.1138   -6.8590   29.9852 C   0  0  2  0  0  0  0  0  0  0  0  0
   -0.6593   -8.0602   29.7294 O   0  0  0  0  0  0  0  0  0  0  0  0
   -1.5800  -11.4089   32.2284 C   0  0  2  0  0  0  0  0  0  0  0  0
   -1.3831  -12.5302   33.0941 N   0  0  0  0  0  0  0  0  0  0  0  0
   -2.9086  -10.5868   34.5184 C   0  0  2  0  0  0  0  0  0  0  0  0
   -0.5353   -5.6644   29.2782 C   0  0  2  0  0  0  0  0  0  0  0  0
   -1.8910   -5.5540   29.7210 N   0  0  0  0  0  0  0  0  0  0  0  0
   -0.8811  -11.6792   30.8570 C   0  0  0  0  0  0  0  0  0  0  0  0
   -4.0542   -9.7878   33.8590 C   0  0  2  0  0  0  0  0  0  0  0  0
   -3.8694   -9.7929   32.4610 O   0  0  0  0  0  0  0  0  0  0  0  0
   -0.4410   -5.8323   27.7231 C   0  0  0  0  0  0  0  0  0  0  0  0
   -1.0852  -10.4472   29.9012 C   0  0  2  0  0  0  0  0  0  0  0  0
   -0.4283  -10.6966   28.6081 N   0  0  0  0  0  0  0  0  0  0  0  0
   -4.0290   -8.3195   34.4511 C   0  0  1  0  0  0  0  0  0  0  0  0
   -5.0856   -7.4579   33.8265 N   0  0  0  0  0  0  0  0  0  0  0  0
    1.0693   -5.9140   27.3370 C   0  0  0  0  0  0  0  0  0  0  0  0
   -0.5009   -9.1498   30.5808 C   0  0  2  0  0  0  0  0  0  0  0  0
   -4.2265   -8.3604   36.0583 C   0  0  1  0  0  0  0  0  0  0  0  0
   -5.4817   -8.9060   36.4080 O   0  0  0  0  0  0  0  0  0  0  0  0
    1.7238   -7.1440   28.1075 C   0  0  2  0  0  0  0  0  0  0  0  0
    1.5239   -7.0621   29.5534 O   0  0  0  0  0  0  0  0  0  0  0  0
   -1.2236   -8.9057   31.9614 C   0  0  2  0  0  0  0  0  0  0  0  0
   -0.7128   -7.7351   32.5912 O   0  0  0  0  0  0  0  0  0  0  0  0
   -3.1243   -9.2695   36.6846 C   0  0  0  0  0  0  0  0  0  0  0  0
   -3.0872  -10.6042   35.9991 O   0  0  0  0  0  0  0  0  0  0  0  0
    3.1902   -7.3504   27.8091 C   0  0  0  0  0  0  0  0  0  0  0  0
    3.6510   -8.6387   28.2561 N   0  0  0  0  0  0  0  0  0  0  0  0
   -1.0105  -10.1450   32.8999 C   0  0  1  0  0  0  0  0  0  0  0  0
   -1.6749   -9.9089   34.1353 O   0  0  0  0  0  0  0  0  0  0  0  0
   -4.2115   -7.0126   36.7922 C   0  0  0  0  0  0  0  0  0  0  0  0
   -6.4566   -7.9942   33.7948 C   0  0  0  0  0  0  0  0  0  0  0  0
  1  2  1  6  0  0  0
  1  6  1  0  0  0  0
  1 21  1  0  0  0  0
  3  4  1  1  0  0  0
  3  8  1  0  0  0  0
  3 28  1  0  0  0  0
  5  9  1  0  0  0  0
  5 25  1  0  0  0  0
  5 29  1  1  0  0  0
  6  7  1  6  0  0  0
  6 11  1  0  0  0  0
  8 12  1  0  0  0  0
  9 10  1  6  0  0  0
  9 14  1  0  0  0  0
 11 16  1  0  0  0  0
 12 13  1  6  0  0  0
 12 17  1  0  0  0  0
 14 15  1  6  0  0  0
 14 18  1  0  0  0  0
 15 31  1  0  0  0  0
 16 20  1  0  0  0  0
 17  2  1  6  0  0  0
 17 22  1  0  0  0  0
 18 19  1  1  0  0  0
 18 24  1  0  0  0  0
 18 30  1  0  0  0  0
 20 21  1  0  0  0  0
 20 26  1  1  0  0  0
 22 23  1  1  0  0  0
 22 28  1  0  0  0  0
 24 25  1  0  0  0  0
 26 27  1  0  0  0  0
 28 29  1  1  0  0  0
M  END
>  <CHROM.1>
-160.51591193,-83.69767420,50.46331356,-163.59541745,-165.81010738,-13.28128901
-1.61288131,-8.66540895,31.94808433,0.52495477,0.80014314,-0.42892209

>  <Name>
2et3_lig

>  <RI>
0

>  <Rbt.Current_Directory>
/home/itssahil/PROJECTS/Mol_Feturizer/New_Systems/rnas/2et3

>  <Rbt.Executable>
rbdock ($Id: //depot/dev/client3/rdock/2013.1/src/exe/rbdock.cxx#4 $)

>  <Rbt.Library>
libRbt.so (2013.1, Build901 2013/11/27)

>  <Rbt.Parameter_File>
/export/apps/rDock/src/rDock_2013.1_src/data/scripts/dock_solv.prm

>  <Rbt.Receptor>
prm/pocket_docking_3.prm

>  <SCORE>
-18.5563

>  <SCORE.INTER>
-16.3372

>  <SCORE.INTER.CONST>
1

>  <SCORE.INTER.POLAR>
-0.938083

>  <SCORE.INTER.ROT>
6

>  <SCORE.INTER.SOLV>
15.6173

>  <SCORE.INTER.VDW>
-20.5703

>  <SCORE.INTER.norm>
-0.527005

>  <SCORE.INTRA>
-2.21918

>  <SCORE.INTRA.DIHEDRAL>
-9.5729

>  <SCORE.INTRA.DIHEDRAL.0>
22.2484

>  <SCORE.INTRA.POLAR>
0

>  <SCORE.INTRA.POLAR.0>
0

>  <SCORE.INTRA.REPUL>
0

>  <SCORE.INTRA.REPUL.0>
0

>  <SCORE.INTRA.SOLV>
-0.768426

>  <SCORE.INTRA.SOLV.lig_0>
-75.7198

>  <SCORE.INTRA.VDW>
2.95148

>  <SCORE.INTRA.VDW.0>
-3.34171

>  <SCORE.INTRA.norm>
-0.0715864

>  <SCORE.RESTR>
0

>  <SCORE.RESTR.CAVITY>
0

>  <SCORE.RESTR.norm>
0

>  <SCORE.SYSTEM>
0

>  <SCORE.SYSTEM.CONST>
0

>  <SCORE.SYSTEM.DIHEDRAL>
0

>  <SCORE.SYSTEM.SOLV>
0

>  <SCORE.SYSTEM.norm>
0

>  <SCORE.heavy>
31

>  <SCORE.norm>
-0.598592

>  <RMSD>
1.359

$$$$
2et3_lig
 OpenBabel11021811423D
libRbt.so/2013.1/901 2013/11/27
 31 33  0  0  0  0  0  0  0  0999 V2000
    0.1691   -6.5268   29.8948 C   0  0  2  0  0  0  0  0  0  0  0  0
   -0.6789   -7.6916   29.7211 O   0  0  0  0  0  0  0  0  0  0  0  0
   -1.7240  -10.8275   32.4378 C   0  0  2  0  0  0  0  0  0  0  0  0
   -1.5693  -11.9132   33.3559 N   0  0  0  0  0  0  0  0  0  0  0  0
   -2.6162  -10.0598   34.9343 C   0  0  2  0  0  0  0  0  0  0  0  0
   -0.3859   -5.3552   29.0779 C   0  0  2  0  0  0  0  0  0  0  0  0
   -1.7384   -5.1192   29.4797 N   0  0  0  0  0  0  0  0  0  0  0  0
   -1.1083  -11.2202   31.0562 C   0  0  0  0  0  0  0  0  0  0  0  0
   -3.9942   -9.5525   34.4554 C   0  0  2  0  0  0  0  0  0  0  0  0
   -4.0683   -9.6856   33.0536 O   0  0  0  0  0  0  0  0  0  0  0  0
   -0.2770   -5.6578   27.5443 C   0  0  0  0  0  0  0  0  0  0  0  0
   -1.2662  -10.0283   30.0425 C   0  0  2  0  0  0  0  0  0  0  0  0
   -0.6873  -10.3931   28.7396 N   0  0  0  0  0  0  0  0  0  0  0  0
   -4.1449   -8.0442   34.9127 C   0  0  1  0  0  0  0  0  0  0  0  0
   -5.4428   -7.4563   34.4451 N   0  0  0  0  0  0  0  0  0  0  0  0
    1.2306   -5.8708   27.2001 C   0  0  0  0  0  0  0  0  0  0  0  0
   -0.5609   -8.7437   30.6246 C   0  0  2  0  0  0  0  0  0  0  0  0
   -4.0363   -7.9343   36.5251 C   0  0  1  0  0  0  0  0  0  0  0  0
   -5.0786   -8.6457   37.1600 O   0  0  0  0  0  0  0  0  0  0  0  0
    1.7876   -7.0727   28.0832 C   0  0  2  0  0  0  0  0  0  0  0  0
    1.5694   -6.8576   29.5127 O   0  0  0  0  0  0  0  0  0  0  0  0
   -1.2018   -8.3749   32.0178 C   0  0  2  0  0  0  0  0  0  0  0  0
   -0.5810   -7.2138   32.5602 O   0  0  0  0  0  0  0  0  0  0  0  0
   -2.6849   -8.5605   36.9891 C   0  0  0  0  0  0  0  0  0  0  0  0
   -2.5167   -9.9382   36.4176 O   0  0  0  0  0  0  0  0  0  0  0  0
    3.2415   -7.3993   27.8356 C   0  0  0  0  0  0  0  0  0  0  0  0
    3.6032   -8.6799   28.3845 N   0  0  0  0  0  0  0  0  0  0  0  0
   -1.0362   -9.5756   33.0143 C   0  0  1  0  0  0  0  0  0  0  0  0
   -1.6261   -9.2265   34.2607 O   0  0  0  0  0  0  0  0  0  0  0  0
   -4.1480   -6.5293   37.1325 C   0  0  0  0  0  0  0  0  0  0  0  0
   -5.5203   -5.9887   34.3532 C   0  0  0  0  0  0  0  0  0  0  0  0
  1  2  1  6  0  0  0
  1  6  1  0  0  0  0
  1 21  1  0  0  0  0
  3  4  1  1  0  0  0
  3  8  1  0  0  0  0
  3 28  1  0  0  0  0
  5  9  1  0  0  0  0
  5 25  1  0  0  0  0
  5 29  1  6  0  0  0
  6  7  1  1  0  0  0
  6 11  1  0  0  0  0
  8 12  1  0  0  0  0
  9 10  1  6  0  0  0
  9 14  1  0  0  0  0
 11 16  1  0  0  0  0
 12 13  1  6  0  0  0
 12 17  1  0  0  0  0
 14 15  1  1  0  0  0
 14 18  1  0  0  0  0
 15 31  1  0  0  0  0
 16 20  1  0  0  0  0
 17  2  1  6  0  0  0
 17 22  1  0  0  0  0
 18 19  1  1  0  0  0
 18 24  1  0  0  0  0
 18 30  1  0  0  0  0
 20 21  1  0  0  0  0
 20 26  1  1  0  0  0
 22 23  1  1  0  0  0
 22 28  1  0  0  0  0
 24 25  1  0  0  0  0
 26 27  1  0  0  0  0
 28 29  1  1  0  0  0
M  END
>  <CHROM.1>
-163.68512932,-92.05784335,-158.30327229,-164.88093447,-165.19031007,7.10352434
-1.53741149,-8.25371282,32.14490343,0.51023618,0.86856588,-0.44716323

>  <Name>
2et3_lig

>  <RI>
0

>  <Rbt.Current_Directory>
/home/itssahil/PROJECTS/Mol_Feturizer/New_Systems/rnas/2et3

>  <Rbt.Executable>
rbdock ($Id: //depot/dev/client3/rdock/2013.1/src/exe/rbdock.cxx#4 $)

>  <Rbt.Library>
libRbt.so (2013.1, Build901 2013/11/27)

>  <Rbt.Parameter_File>
/export/apps/rDock/src/rDock_2013.1_src/data/scripts/dock_solv.prm

>  <Rbt.Receptor>
prm/pocket_docking_2.prm

>  <SCORE>
-16.9283

>  <SCORE.INTER>
-16.534

>  <SCORE.INTER.CONST>
1

>  <SCORE.INTER.POLAR>
-0.938083

>  <SCORE.INTER.ROT>
6

>  <SCORE.INTER.SOLV>
16.3601

>  <SCORE.INTER.VDW>
-20.9491

>  <SCORE.INTER.norm>
-0.533354

>  <SCORE.INTRA>
-0.595865

>  <SCORE.INTRA.DIHEDRAL>
-7.75303

>  <SCORE.INTRA.DIHEDRAL.0>
22.2484

>  <SCORE.INTRA.POLAR>
0

>  <SCORE.INTRA.POLAR.0>
0

>  <SCORE.INTRA.REPUL>
0

>  <SCORE.INTRA.REPUL.0>
0

>  <SCORE.INTRA.SOLV>
-0.914922

>  <SCORE.INTRA.SOLV.lig_0>
-75.7198

>  <SCORE.INTRA.VDW>
3.73811

>  <SCORE.INTRA.VDW.0>
-3.34171

>  <SCORE.INTRA.norm>
-0.0192214

>  <SCORE.RESTR>
0.201551

>  <SCORE.RESTR.CAVITY>
0.201551

>  <SCORE.RESTR.norm>
0.00650165

>  <SCORE.SYSTEM>
0

>  <SCORE.SYSTEM.CONST>
0

>  <SCORE.SYSTEM.DIHEDRAL>
0

>  <SCORE.SYSTEM.SOLV>
0

>  <SCORE.SYSTEM.norm>
0

>  <SCORE.heavy>
31

>  <SCORE.norm>
-0.546074

>  <RMSD>
1.385

$$$$
2et3_lig
 OpenBabel11021811423D
libRbt.so/2013.1/901 2013/11/27
 31 33  0  0  0  0  0  0  0  0999 V2000
    0.2820   -6.8309   29.4253 C   0  0  2  0  0  0  0  0  0  0  0  0
   -0.3639   -8.1036   29.1625 O   0  0  0  0  0  0  0  0  0  0  0  0
   -1.7610  -11.2677   31.6811 C   0  0  2  0  0  0  0  0  0  0  0  0
   -1.7766  -12.2369   32.7328 N   0  0  0  0  0  0  0  0  0  0  0  0
   -3.0735  -10.4419   34.3021 C   0  0  2  0  0  0  0  0  0  0  0  0
   -0.2359   -5.7744   28.4434 C   0  0  2  0  0  0  0  0  0  0  0  0
   -1.6601   -5.7054   28.5570 N   0  0  0  0  0  0  0  0  0  0  0  0
   -0.5660  -11.5616   30.7180 C   0  0  0  0  0  0  0  0  0  0  0  0
   -4.2641   -9.7540   35.0056 C   0  0  2  0  0  0  0  0  0  0  0  0
   -5.3445   -9.6745   34.1029 O   0  0  0  0  0  0  0  0  0  0  0  0
    0.2173   -6.1167   26.9829 C   0  0  0  0  0  0  0  0  0  0  0  0
   -0.5358  -10.4950   29.5627 C   0  0  2  0  0  0  0  0  0  0  0  0
    0.5885  -10.7672   28.6530 N   0  0  0  0  0  0  0  0  0  0  0  0
   -3.7879   -8.3211   35.4820 C   0  0  1  0  0  0  0  0  0  0  0  0
   -4.9030   -7.5622   36.1373 N   0  0  0  0  0  0  0  0  0  0  0  0
    1.7778   -6.1401   26.9546 C   0  0  0  0  0  0  0  0  0  0  0  0
   -0.4131   -9.0500   30.1819 C   0  0  2  0  0  0  0  0  0  0  0  0
   -2.5366   -8.4571   36.5015 C   0  0  1  0  0  0  0  0  0  0  0  0
   -2.9007   -9.1614   37.6707 O   0  0  0  0  0  0  0  0  0  0  0  0
    2.2879   -7.2238   28.0035 C   0  0  2  0  0  0  0  0  0  0  0  0
    1.7604   -6.9867   29.3462 O   0  0  0  0  0  0  0  0  0  0  0  0
   -1.6303   -8.7849   31.1493 C   0  0  2  0  0  0  0  0  0  0  0  0
   -1.5410   -7.4821   31.7173 O   0  0  0  0  0  0  0  0  0  0  0  0
   -1.3944   -9.2577   35.8031 C   0  0  0  0  0  0  0  0  0  0  0  0
   -1.9193  -10.5467   35.2412 O   0  0  0  0  0  0  0  0  0  0  0  0
    3.7907   -7.3634   28.0664 C   0  0  0  0  0  0  0  0  0  0  0  0
    4.3303   -7.8958   26.8428 N   0  0  0  0  0  0  0  0  0  0  0  0
   -1.6448   -9.8589   32.2931 C   0  0  1  0  0  0  0  0  0  0  0  0
   -2.7524   -9.6073   33.1494 O   0  0  0  0  0  0  0  0  0  0  0  0
   -1.9432   -7.1512   37.0475 C   0  0  0  0  0  0  0  0  0  0  0  0
   -5.0033   -6.1242   35.8372 C   0  0  0  0  0  0  0  0  0  0  0  0
  1  2  1  6  0  0  0
  1  6  1  0  0  0  0
  1 21  1  0  0  0  0
  3  4  1  1  0  0  0
  3  8  1  0  0  0  0
  3 28  1  0  0  0  0
  5  9  1  0  0  0  0
  5 25  1  0  0  0  0
  5 29  1  6  0  0  0
  6  7  1  6  0  0  0
  6 11  1  0  0  0  0
  8 12  1  0  0  0  0
  9 10  1  6  0  0  0
  9 14  1  0  0  0  0
 11 16  1  0  0  0  0
 12 13  1  6  0  0  0
 12 17  1  0  0  0  0
 14 15  1  1  0  0  0
 14 18  1  0  0  0  0
 15 31  1  0  0  0  0
 16 20  1  0  0  0  0
 17  2  1  6  0  0  0
 17 22  1  0  0  0  0
 18 19  1  1  0  0  0
 18 24  1  0  0  0  0
 18 30  1  0  0  0  0
 20 21  1  0  0  0  0
 20 26  1  1  0  0  0
 22 23  1  1  0  0  0
 22 28  1  0  0  0  0
 24 25  1  0  0  0  0
 26 27  1  0  0  0  0
 28 29  1  1  0  0  0
M  END
>  <CHROM.1>
-157.67215538,175.55843012,-140.08015931,-154.79776921,-66.31612647,58.38741346
-1.21272894,-8.56160737,31.87558115,0.28187917,0.97858892,-0.14278077

>  <Name>
2et3_lig

>  <RI>
0

>  <Rbt.Current_Directory>
/home/itssahil/PROJECTS/Mol_Feturizer/New_Systems/rnas/2et3

>  <Rbt.Executable>
rbdock ($Id: //depot/dev/client3/rdock/2013.1/src/exe/rbdock.cxx#4 $)

>  <Rbt.Library>
libRbt.so (2013.1, Build901 2013/11/27)

>  <Rbt.Parameter_File>
/export/apps/rDock/src/rDock_2013.1_src/data/scripts/dock_solv.prm

>  <Rbt.Receptor>
prm/pocket_docking_3.prm

>  <SCORE>
-29.0161

>  <SCORE.INTER>
-20.9656

>  <SCORE.INTER.CONST>
1

>  <SCORE.INTER.POLAR>
-0.938083

>  <SCORE.INTER.ROT>
6

>  <SCORE.INTER.SOLV>
13.4654

>  <SCORE.INTER.VDW>
-22.9386

>  <SCORE.INTER.norm>
-0.676308

>  <SCORE.INTRA>
-8.05059

>  <SCORE.INTRA.DIHEDRAL>
-16.0864

>  <SCORE.INTRA.DIHEDRAL.0>
22.2484

>  <SCORE.INTRA.POLAR>
0

>  <SCORE.INTRA.POLAR.0>
0

>  <SCORE.INTRA.REPUL>
0

>  <SCORE.INTRA.REPUL.0>
0

>  <SCORE.INTRA.SOLV>
-1.32694

>  <SCORE.INTRA.SOLV.lig_0>
-75.7198

>  <SCORE.INTRA.VDW>
0.656101

>  <SCORE.INTRA.VDW.0>
-3.34171

>  <SCORE.INTRA.norm>
-0.259696

>  <SCORE.RESTR>
0

>  <SCORE.RESTR.CAVITY>
0

>  <SCORE.RESTR.norm>
0

>  <SCORE.SYSTEM>
0

>  <SCORE.SYSTEM.CONST>
0

>  <SCORE.SYSTEM.DIHEDRAL>
0

>  <SCORE.SYSTEM.SOLV>
0

>  <SCORE.SYSTEM.norm>
0

>  <SCORE.heavy>
31

>  <SCORE.norm>
-0.936005

>  <RMSD>
1.400

$$$$
2et3_lig
 OpenBabel11021811423D
libRbt.so/2013.1/901 2013/11/27
 31 33  0  0  0  0  0  0  0  0999 V2000
    0.3660   -6.8529   29.4758 C   0  0  2  0  0  0  0  0  0  0  0  0
   -0.3280   -8.0954   29.1921 O   0  0  0  0  0  0  0  0  0  0  0  0
   -1.8263  -11.2611   31.6497 C   0  0  2  0  0  0  0  0  0  0  0  0
   -1.8734  -12.2489   32.6830 N   0  0  0  0  0  0  0  0  0  0  0  0
   -3.0979  -10.4275   34.3024 C   0  0  2  0  0  0  0  0  0  0  0  0
   -0.1312   -5.7540   28.5304 C   0  0  2  0  0  0  0  0  0  0  0  0
   -1.5501   -5.6392   28.6708 N   0  0  0  0  0  0  0  0  0  0  0  0
   -0.6398  -11.5740   30.6820 C   0  0  0  0  0  0  0  0  0  0  0  0
   -4.2807   -9.7250   35.0046 C   0  0  2  0  0  0  0  0  0  0  0  0
   -5.3600   -9.6348   34.1016 O   0  0  0  0  0  0  0  0  0  0  0  0
    0.2853   -6.0734   27.0539 C   0  0  0  0  0  0  0  0  0  0  0  0
   -0.5750  -10.4874   29.5471 C   0  0  2  0  0  0  0  0  0  0  0  0
    0.5414  -10.7774   28.6331 N   0  0  0  0  0  0  0  0  0  0  0  0
   -3.7884   -8.2968   35.4786 C   0  0  1  0  0  0  0  0  0  0  0  0
   -4.8949   -7.5242   36.1326 N   0  0  0  0  0  0  0  0  0  0  0  0
    1.8434   -6.1496   26.9976 C   0  0  0  0  0  0  0  0  0  0  0  0
   -0.4080   -9.0588   30.1934 C   0  0  2  0  0  0  0  0  0  0  0  0
   -2.5389   -8.4452   36.4986 C   0  0  1  0  0  0  0  0  0  0  0  0
   -2.9110   -9.1434   37.6689 O   0  0  0  0  0  0  0  0  0  0  0  0
    2.3330   -7.2771   28.0094 C   0  0  2  0  0  0  0  0  0  0  0  0
    1.8365   -7.0572   29.3667 O   0  0  0  0  0  0  0  0  0  0  0  0
   -1.6176   -8.7740   31.1648 C   0  0  2  0  0  0  0  0  0  0  0  0
   -1.4883   -7.4856   31.7572 O   0  0  0  0  0  0  0  0  0  0  0  0
   -1.4057   -9.2599   35.8017 C   0  0  0  0  0  0  0  0  0  0  0  0
   -1.9451  -10.5438   35.2418 O   0  0  0  0  0  0  0  0  0  0  0  0
    3.8309   -7.4698   28.0422 C   0  0  0  0  0  0  0  0  0  0  0  0
    4.3289   -8.0046   26.8022 N   0  0  0  0  0  0  0  0  0  0  0  0
   -1.6670   -9.8684   32.2882 C   0  0  1  0  0  0  0  0  0  0  0  0
   -2.7672   -9.5985   33.1484 O   0  0  0  0  0  0  0  0  0  0  0  0
   -1.9308   -7.1452   37.0425 C   0  0  0  0  0  0  0  0  0  0  0  0
   -4.9416   -6.0744   35.8798 C   0  0  0  0  0  0  0  0  0  0  0  0
  1  2  1  6  0  0  0
  1  6  1  0  0  0  0
  1 21  1  0  0  0  0
  3  4  1  1  0  0  0
  3  8  1  0  0  0  0
  3 28  1  0  0  0  0
  5  9  1  0  0  0  0
  5 25  1  0  0  0  0
  5 29  1  6  0  0  0
  6  7  1  6  0  0  0
  6 11  1  0  0  0  0
  8 12  1  0  0  0  0
  9 10  1  6  0  0  0
  9 14  1  0  0  0  0
 11 16  1  0  0  0  0
 12 13  1  6  0  0  0
 12 17  1  0  0  0  0
 14 15  1  1  0  0  0
 14 18  1  0  0  0  0
 15 31  1  0  0  0  0
 16 20  1  0  0  0  0
 17  2  1  6  0  0  0
 17 22  1  0  0  0  0
 18 19  1  1  0  0  0
 18 24  1  0  0  0  0
 18 30  1  0  0  0  0
 20 21  1  0  0  0  0
 20 26  1  1  0  0  0
 22 23  1  1  0  0  0
 22 28  1  0  0  0  0
 24 25  1  0  0  0  0
 26 27  1  0  0  0  0
 28 29  1  1  0  0  0
M  END
>  <CHROM.1>
-156.85142138,175.92683267,-142.84080443,-154.32210207,-67.06700504,59.79220608
-1.20219889,-8.56230534,31.88499221,0.21612818,0.98207428,-0.07213980

>  <Name>
2et3_lig

>  <RI>
0

>  <Rbt.Current_Directory>
/home/itssahil/PROJECTS/Mol_Feturizer/New_Systems/rnas/2et3

>  <Rbt.Executable>
rbdock ($Id: //depot/dev/client3/rdock/2013.1/src/exe/rbdock.cxx#4 $)

>  <Rbt.Library>
libRbt.so (2013.1, Build901 2013/11/27)

>  <Rbt.Parameter_File>
/export/apps/rDock/src/rDock_2013.1_src/data/scripts/dock_solv.prm

>  <Rbt.Receptor>
prm/pocket_docking_6.prm

>  <SCORE>
-28.9925

>  <SCORE.INTER>
-20.9918

>  <SCORE.INTER.CONST>
1

>  <SCORE.INTER.POLAR>
-0.938083

>  <SCORE.INTER.ROT>
6

>  <SCORE.INTER.SOLV>
13.1966

>  <SCORE.INTER.VDW>
-22.8665

>  <SCORE.INTER.norm>
-0.677154

>  <SCORE.INTRA>
-8.00069

>  <SCORE.INTRA.DIHEDRAL>
-15.9306

>  <SCORE.INTRA.DIHEDRAL.0>
22.2484

>  <SCORE.INTRA.POLAR>
0

>  <SCORE.INTRA.POLAR.0>
0

>  <SCORE.INTRA.REPUL>
0

>  <SCORE.INTRA.REPUL.0>
0

>  <SCORE.INTRA.SOLV>
-1.3554

>  <SCORE.INTRA.SOLV.lig_0>
-75.7198

>  <SCORE.INTRA.VDW>
0.642327

>  <SCORE.INTRA.VDW.0>
-3.34171

>  <SCORE.INTRA.norm>
-0.258087

>  <SCORE.RESTR>
0

>  <SCORE.RESTR.CAVITY>
0

>  <SCORE.RESTR.norm>
0

>  <SCORE.SYSTEM>
0

>  <SCORE.SYSTEM.CONST>
0

>  <SCORE.SYSTEM.DIHEDRAL>
0

>  <SCORE.SYSTEM.SOLV>
0

>  <SCORE.SYSTEM.norm>
0

>  <SCORE.heavy>
31

>  <SCORE.norm>
-0.935241

>  <RMSD>
1.405

$$$$
2et3_lig
 OpenBabel11021811423D
libRbt.so/2013.1/901 2013/11/27
 31 33  0  0  0  0  0  0  0  0999 V2000
    0.2813   -6.8079   29.4184 C   0  0  2  0  0  0  0  0  0  0  0  0
   -0.3744   -8.0751   29.1528 O   0  0  0  0  0  0  0  0  0  0  0  0
   -1.7809  -11.2421   31.6623 C   0  0  2  0  0  0  0  0  0  0  0  0
   -1.7982  -12.2161   32.7096 N   0  0  0  0  0  0  0  0  0  0  0  0
   -3.0817  -10.4246   34.2883 C   0  0  2  0  0  0  0  0  0  0  0  0
   -0.2187   -5.7485   28.4306 C   0  0  2  0  0  0  0  0  0  0  0  0
   -1.6431   -5.6658   28.5327 N   0  0  0  0  0  0  0  0  0  0  0  0
   -0.5917  -11.5389   30.6929 C   0  0  0  0  0  0  0  0  0  0  0  0
   -4.2664   -9.7341   34.9992 C   0  0  2  0  0  0  0  0  0  0  0  0
   -5.3472   -9.6389   34.0985 O   0  0  0  0  0  0  0  0  0  0  0  0
    0.2428   -6.0976   26.9744 C   0  0  0  0  0  0  0  0  0  0  0  0
   -0.5596  -10.4672   29.5425 C   0  0  2  0  0  0  0  0  0  0  0  0
    0.5592  -10.7420   28.6269 N   0  0  0  0  0  0  0  0  0  0  0  0
   -3.7791   -8.3089   35.4873 C   0  0  1  0  0  0  0  0  0  0  0  0
   -4.8878   -7.5476   36.1506 N   0  0  0  0  0  0  0  0  0  0  0  0
    1.8033   -6.1358   26.9586 C   0  0  0  0  0  0  0  0  0  0  0  0
   -0.4253   -9.0258   30.1679 C   0  0  2  0  0  0  0  0  0  0  0  0
   -2.5277   -8.4629   36.5041 C   0  0  1  0  0  0  0  0  0  0  0  0
   -2.8955   -9.1746   37.6676 O   0  0  0  0  0  0  0  0  0  0  0  0
    2.2947   -7.2223   28.0134 C   0  0  2  0  0  0  0  0  0  0  0  0
    1.7588   -6.9779   29.3515 O   0  0  0  0  0  0  0  0  0  0  0  0
   -1.6369   -8.7577   31.1415 C   0  0  2  0  0  0  0  0  0  0  0  0
   -1.5371   -7.4582   31.7152 O   0  0  0  0  0  0  0  0  0  0  0  0
   -1.3922   -9.2659   35.7974 C   0  0  0  0  0  0  0  0  0  0  0  0
   -1.9273  -10.5460   35.2250 O   0  0  0  0  0  0  0  0  0  0  0  0
    3.7956   -7.3760   28.0886 C   0  0  0  0  0  0  0  0  0  0  0  0
    4.3351   -7.9540   26.8858 N   0  0  0  0  0  0  0  0  0  0  0  0
   -1.6534   -9.8370   32.2804 C   0  0  1  0  0  0  0  0  0  0  0  0
   -2.7558   -9.5825   33.1425 O   0  0  0  0  0  0  0  0  0  0  0  0
   -1.9240   -7.1662   37.0606 C   0  0  0  0  0  0  0  0  0  0  0  0
   -4.9528   -6.0987   35.8962 C   0  0  0  0  0  0  0  0  0  0  0  0
  1  2  1  6  0  0  0
  1  6  1  0  0  0  0
  1 21  1  0  0  0  0
  3  4  1  1  0  0  0
  3  8  1  0  0  0  0
  3 28  1  0  0  0  0
  5  9  1  0  0  0  0
  5 25  1  0  0  0  0
  5 29  1  6  0  0  0
  6  7  1  6  0  0  0
  6 11  1  0  0  0  0
  8 12  1  0  0  0  0
  9 10  1  6  0  0  0
  9 14  1  0  0  0  0
 11 16  1  0  0  0  0
 12 13  1  6  0  0  0
 12 17  1  0  0  0  0
 14 15  1  1  0  0  0
 14 18  1  0  0  0  0
 15 31  1  0  0  0  0
 16 20  1  0  0  0  0
 17  2  1  6  0  0  0
 17 22  1  0  0  0  0
 18 19  1  1  0  0  0
 18 24  1  0  0  0  0
 18 30  1  0  0  0  0
 20 21  1  0  0  0  0
 20 26  1  1  0  0  0
 22 23  1  1  0  0  0
 22 28  1  0  0  0  0
 24 25  1  0  0  0  0
 26 27  1  0  0  0  0
 28 29  1  1  0  0  0
M  END
>  <CHROM.1>
-158.49935622,175.74144479,-141.92614782,-154.75343396,-68.10103942,58.04259657
-1.21160448,-8.54850611,31.87288168,0.26993403,0.98181240,-0.12911025

>  <Name>
2et3_lig

>  <RI>
0

>  <Rbt.Current_Directory>
/home/itssahil/PROJECTS/Mol_Feturizer/New_Systems/rnas/2et3

>  <Rbt.Executable>
rbdock ($Id: //depot/dev/client3/rdock/2013.1/src/exe/rbdock.cxx#4 $)

>  <Rbt.Library>
libRbt.so (2013.1, Build901 2013/11/27)

>  <Rbt.Parameter_File>
/export/apps/rDock/src/rDock_2013.1_src/data/scripts/dock_solv.prm

>  <Rbt.Receptor>
prm/pocket_docking_3.prm

>  <SCORE>
-28.945

>  <SCORE.INTER>
-20.8829

>  <SCORE.INTER.CONST>
1

>  <SCORE.INTER.POLAR>
-0.938083

>  <SCORE.INTER.ROT>
6

>  <SCORE.INTER.SOLV>
13.4807

>  <SCORE.INTER.VDW>
-22.8886

>  <SCORE.INTER.norm>
-0.673643

>  <SCORE.INTRA>
-8.06203

>  <SCORE.INTRA.DIHEDRAL>
-16.1888

>  <SCORE.INTRA.DIHEDRAL.0>
22.2484

>  <SCORE.INTRA.POLAR>
0

>  <SCORE.INTRA.POLAR.0>
0

>  <SCORE.INTRA.REPUL>
0

>  <SCORE.INTRA.REPUL.0>
0

>  <SCORE.INTRA.SOLV>
-1.36612

>  <SCORE.INTRA.SOLV.lig_0>
-75.7198

>  <SCORE.INTRA.VDW>
0.71542

>  <SCORE.INTRA.VDW.0>
-3.34171

>  <SCORE.INTRA.norm>
-0.260066

>  <SCORE.RESTR>
0

>  <SCORE.RESTR.CAVITY>
0

>  <SCORE.RESTR.norm>
0

>  <SCORE.SYSTEM>
0

>  <SCORE.SYSTEM.CONST>
0

>  <SCORE.SYSTEM.DIHEDRAL>
0

>  <SCORE.SYSTEM.SOLV>
0

>  <SCORE.SYSTEM.norm>
0

>  <SCORE.heavy>
31

>  <SCORE.norm>
-0.933708

>  <RMSD>
1.415

$$$$
2et3_lig
 OpenBabel11021811423D
libRbt.so/2013.1/901 2013/11/27
 31 33  0  0  0  0  0  0  0  0999 V2000
    0.3061   -6.8179   29.4467 C   0  0  2  0  0  0  0  0  0  0  0  0
   -0.3329   -8.0888   29.1590 O   0  0  0  0  0  0  0  0  0  0  0  0
   -1.7928  -11.2439   31.6530 C   0  0  2  0  0  0  0  0  0  0  0  0
   -1.8249  -12.2254   32.6928 N   0  0  0  0  0  0  0  0  0  0  0  0
   -3.0548  -10.4148   34.2976 C   0  0  2  0  0  0  0  0  0  0  0  0
   -0.1987   -5.7510   28.4693 C   0  0  2  0  0  0  0  0  0  0  0  0
   -1.6246   -5.6861   28.5615 N   0  0  0  0  0  0  0  0  0  0  0  0
   -0.6163  -11.5590   30.6738 C   0  0  0  0  0  0  0  0  0  0  0  0
   -4.2456   -9.7242   34.9983 C   0  0  2  0  0  0  0  0  0  0  0  0
   -5.3201   -9.6330   34.0898 O   0  0  0  0  0  0  0  0  0  0  0  0
    0.2779   -6.0752   27.0122 C   0  0  0  0  0  0  0  0  0  0  0  0
   -0.5679  -10.4792   29.5315 C   0  0  2  0  0  0  0  0  0  0  0  0
    0.5389  -10.7713   28.6067 N   0  0  0  0  0  0  0  0  0  0  0  0
   -3.7639   -8.2970   35.4862 C   0  0  1  0  0  0  0  0  0  0  0  0
   -4.8784   -7.5357   36.1397 N   0  0  0  0  0  0  0  0  0  0  0  0
    1.8388   -6.0952   27.0079 C   0  0  0  0  0  0  0  0  0  0  0  0
   -0.3983   -9.0461   30.1671 C   0  0  2  0  0  0  0  0  0  0  0  0
   -2.5194   -8.4465   36.5122 C   0  0  1  0  0  0  0  0  0  0  0  0
   -2.8944   -9.1558   37.6749 O   0  0  0  0  0  0  0  0  0  0  0  0
    2.3348   -7.1902   28.0519 C   0  0  2  0  0  0  0  0  0  0  0  0
    1.7859   -6.9700   29.3889 O   0  0  0  0  0  0  0  0  0  0  0  0
   -1.5978   -8.7592   31.1504 C   0  0  2  0  0  0  0  0  0  0  0  0
   -1.4660   -7.4668   31.7334 O   0  0  0  0  0  0  0  0  0  0  0  0
   -1.3778   -9.2496   35.8156 C   0  0  0  0  0  0  0  0  0  0  0  0
   -1.9069  -10.5320   35.2427 O   0  0  0  0  0  0  0  0  0  0  0  0
    3.8367   -7.3276   28.1366 C   0  0  0  0  0  0  0  0  0  0  0  0
    4.3909   -7.8931   26.9345 N   0  0  0  0  0  0  0  0  0  0  0  0
   -1.6308   -9.8468   32.2810 C   0  0  1  0  0  0  0  0  0  0  0  0
   -2.7221   -9.5751   33.1519 O   0  0  0  0  0  0  0  0  0  0  0  0
   -1.9217   -7.1475   37.0696 C   0  0  0  0  0  0  0  0  0  0  0  0
   -4.9095   -6.0787   35.9292 C   0  0  0  0  0  0  0  0  0  0  0  0
  1  2  1  6  0  0  0
  1  6  1  0  0  0  0
  1 21  1  0  0  0  0
  3  4  1  1  0  0  0
  3  8  1  0  0  0  0
  3 28  1  0  0  0  0
  5  9  1  0  0  0  0
  5 25  1  0  0  0  0
  5 29  1  6  0  0  0
  6  7  1  6  0  0  0
  6 11  1  0  0  0  0
  8 12  1  0  0  0  0
  9 10  1  6  0  0  0
  9 14  1  0  0  0  0
 11 16  1  0  0  0  0
 12 13  1  6  0  0  0
 12 17  1  0  0  0  0
 14 15  1  1  0  0  0
 14 18  1  0  0  0  0
 15 31  1  0  0  0  0
 16 20  1  0  0  0  0
 17  2  1  6  0  0  0
 17 22  1  0  0  0  0
 18 19  1  1  0  0  0
 18 24  1  0  0  0  0
 18 30  1  0  0  0  0
 20 21  1  0  0  0  0
 20 26  1  1  0  0  0
 22 23  1  1  0  0  0
 22 28  1  0  0  0  0
 24 25  1  0  0  0  0
 26 27  1  0  0  0  0
 28 29  1  1  0  0  0
M  END
>  <CHROM.1>
-157.54560188,177.17599990,-144.53508266,-157.13189138,-68.56474811,58.38882592
-1.19083264,-8.54150631,31.88600257,0.22453021,0.98645776,-0.07412946

>  <Name>
2et3_lig

>  <RI>
0

>  <Rbt.Current_Directory>
/home/itssahil/PROJECTS/Mol_Feturizer/New_Systems/rnas/2et3

>  <Rbt.Executable>
rbdock ($Id: //depot/dev/client3/rdock/2013.1/src/exe/rbdock.cxx#4 $)

>  <Rbt.Library>
libRbt.so (2013.1, Build901 2013/11/27)

>  <Rbt.Parameter_File>
/export/apps/rDock/src/rDock_2013.1_src/data/scripts/dock_solv.prm

>  <Rbt.Receptor>
prm/pocket_docking_3.prm

>  <SCORE>
-28.9645

>  <SCORE.INTER>
-20.7912

>  <SCORE.INTER.CONST>
1

>  <SCORE.INTER.POLAR>
-0.938083

>  <SCORE.INTER.ROT>
6

>  <SCORE.INTER.SOLV>
13.6531

>  <SCORE.INTER.VDW>
-22.8849

>  <SCORE.INTER.norm>
-0.670683

>  <SCORE.INTRA>
-8.17334

>  <SCORE.INTRA.DIHEDRAL>
-16.5596

>  <SCORE.INTRA.DIHEDRAL.0>
22.2484

>  <SCORE.INTRA.POLAR>
0

>  <SCORE.INTRA.POLAR.0>
0

>  <SCORE.INTRA.REPUL>
0

>  <SCORE.INTRA.REPUL.0>
0

>  <SCORE.INTRA.SOLV>
-1.48167

>  <SCORE.INTRA.SOLV.lig_0>
-75.7198

>  <SCORE.INTRA.VDW>
0.847293

>  <SCORE.INTRA.VDW.0>
-3.34171

>  <SCORE.INTRA.norm>
-0.263656

>  <SCORE.RESTR>
0

>  <SCORE.RESTR.CAVITY>
0

>  <SCORE.RESTR.norm>
0

>  <SCORE.SYSTEM>
0

>  <SCORE.SYSTEM.CONST>
0

>  <SCORE.SYSTEM.DIHEDRAL>
0

>  <SCORE.SYSTEM.SOLV>
0

>  <SCORE.SYSTEM.norm>
0

>  <SCORE.heavy>
31

>  <SCORE.norm>
-0.934339

>  <RMSD>
1.417

$$$$
2et3_lig
 OpenBabel11021811423D
libRbt.so/2013.1/901 2013/11/27
 31 33  0  0  0  0  0  0  0  0999 V2000
    0.3023   -6.8450   29.4729 C   0  0  2  0  0  0  0  0  0  0  0  0
   -0.3687   -8.0994   29.1857 O   0  0  0  0  0  0  0  0  0  0  0  0
   -1.8607  -11.2594   31.6544 C   0  0  2  0  0  0  0  0  0  0  0  0
   -1.9056  -12.2441   32.6906 N   0  0  0  0  0  0  0  0  0  0  0  0
   -3.1383  -10.4264   34.2984 C   0  0  2  0  0  0  0  0  0  0  0  0
   -0.2238   -5.7501   28.5388 C   0  0  2  0  0  0  0  0  0  0  0  0
   -1.6436   -5.6648   28.6902 N   0  0  0  0  0  0  0  0  0  0  0  0
   -0.6747  -11.5738   30.6865 C   0  0  0  0  0  0  0  0  0  0  0  0
   -4.3046   -9.7106   35.0147 C   0  0  2  0  0  0  0  0  0  0  0  0
   -5.3886   -9.5953   34.1202 O   0  0  0  0  0  0  0  0  0  0  0  0
    0.1881   -6.0510   27.0572 C   0  0  0  0  0  0  0  0  0  0  0  0
   -0.6123  -10.4905   29.5482 C   0  0  2  0  0  0  0  0  0  0  0  0
    0.5036  -10.7819   28.6341 N   0  0  0  0  0  0  0  0  0  0  0  0
   -3.7856   -8.2946   35.4969 C   0  0  1  0  0  0  0  0  0  0  0  0
   -4.8748   -7.5096   36.1651 N   0  0  0  0  0  0  0  0  0  0  0  0
    1.7470   -6.0954   26.9890 C   0  0  0  0  0  0  0  0  0  0  0  0
   -0.4465   -9.0598   30.1901 C   0  0  2  0  0  0  0  0  0  0  0  0
   -2.5316   -8.4719   36.5067 C   0  0  1  0  0  0  0  0  0  0  0  0
   -2.9068   -9.1736   37.6738 O   0  0  0  0  0  0  0  0  0  0  0  0
    2.2666   -7.2196   27.9895 C   0  0  2  0  0  0  0  0  0  0  0  0
    1.7758   -7.0190   29.3519 O   0  0  0  0  0  0  0  0  0  0  0  0
   -1.6555   -8.7735   31.1617 C   0  0  2  0  0  0  0  0  0  0  0  0
   -1.5273   -7.4832   31.7501 O   0  0  0  0  0  0  0  0  0  0  0  0
   -1.4168   -9.2991   35.7950 C   0  0  0  0  0  0  0  0  0  0  0  0
   -1.9811  -10.5693   35.2285 O   0  0  0  0  0  0  0  0  0  0  0  0
    3.7683   -7.3823   28.0102 C   0  0  0  0  0  0  0  0  0  0  0  0
    4.2693   -7.8850   26.7579 N   0  0  0  0  0  0  0  0  0  0  0  0
   -1.7025   -9.8646   32.2884 C   0  0  1  0  0  0  0  0  0  0  0  0
   -2.8023   -9.5934   33.1488 O   0  0  0  0  0  0  0  0  0  0  0  0
   -1.8985   -7.1865   37.0568 C   0  0  0  0  0  0  0  0  0  0  0  0
   -4.8563   -6.0484   35.9846 C   0  0  0  0  0  0  0  0  0  0  0  0
  1  2  1  6  0  0  0
  1  6  1  0  0  0  0
  1 21  1  0  0  0  0
  3  4  1  1  0  0  0
  3  8  1  0  0  0  0
  3 28  1  0  0  0  0
  5  9  1  0  0  0  0
  5 25  1  0  0  0  0
  5 29  1  6  0  0  0
  6  7  1  6  0  0  0
  6 11  1  0  0  0  0
  8 12  1  0  0  0  0
  9 10  1  6  0  0  0
  9 14  1  0  0  0  0
 11 16  1  0  0  0  0
 12 13  1  6  0  0  0
 12 17  1  0  0  0  0
 14 15  1  1  0  0  0
 14 18  1  0  0  0  0
 15 31  1  0  0  0  0
 16 20  1  0  0  0  0
 17  2  1  6  0  0  0
 17 22  1  0  0  0  0
 18 19  1  1  0  0  0
 18 24  1  0  0  0  0
 18 30  1  0  0  0  0
 20 21  1  0  0  0  0
 20 26  1  1  0  0  0
 22 23  1  1  0  0  0
 22 28  1  0  0  0  0
 24 25  1  0  0  0  0
 26 27  1  0  0  0  0
 28 29  1  1  0  0  0
M  END
>  <CHROM.1>
-155.51363610,175.10920692,-146.09749235,-155.45983758,-66.44358665,59.19809310
-1.23670095,-8.55247963,31.88821510,0.21024499,0.99187339,-0.05781865

>  <Name>
2et3_lig

>  <RI>
0

>  <Rbt.Current_Directory>
/home/itssahil/PROJECTS/Mol_Feturizer/New_Systems/rnas/2et3

>  <Rbt.Executable>
rbdock ($Id: //depot/dev/client3/rdock/2013.1/src/exe/rbdock.cxx#4 $)

>  <Rbt.Library>
libRbt.so (2013.1, Build901 2013/11/27)

>  <Rbt.Parameter_File>
/export/apps/rDock/src/rDock_2013.1_src/data/scripts/dock_solv.prm

>  <Rbt.Receptor>
prm/pocket_docking_3.prm

>  <SCORE>
-28.9188

>  <SCORE.INTER>
-21.1039

>  <SCORE.INTER.CONST>
1

>  <SCORE.INTER.POLAR>
-0.938083

>  <SCORE.INTER.ROT>
6

>  <SCORE.INTER.SOLV>
12.9329

>  <SCORE.INTER.VDW>
-22.8533

>  <SCORE.INTER.norm>
-0.68077

>  <SCORE.INTRA>
-7.81498

>  <SCORE.INTRA.DIHEDRAL>
-15.9872

>  <SCORE.INTRA.DIHEDRAL.0>
22.2484

>  <SCORE.INTRA.POLAR>
0

>  <SCORE.INTRA.POLAR.0>
0

>  <SCORE.INTRA.REPUL>
0

>  <SCORE.INTRA.REPUL.0>
0

>  <SCORE.INTRA.SOLV>
-1.30393

>  <SCORE.INTRA.SOLV.lig_0>
-75.7198

>  <SCORE.INTRA.VDW>
0.830577

>  <SCORE.INTRA.VDW.0>
-3.34171

>  <SCORE.INTRA.norm>
-0.252096

>  <SCORE.RESTR>
0

>  <SCORE.RESTR.CAVITY>
0

>  <SCORE.RESTR.norm>
0

>  <SCORE.SYSTEM>
0

>  <SCORE.SYSTEM.CONST>
0

>  <SCORE.SYSTEM.DIHEDRAL>
0

>  <SCORE.SYSTEM.SOLV>
0

>  <SCORE.SYSTEM.norm>
0

>  <SCORE.heavy>
31

>  <SCORE.norm>
-0.932866

>  <RMSD>
1.436

$$$$
2et3_lig
 OpenBabel11021811423D
libRbt.so/2013.1/901 2013/11/27
 31 33  0  0  0  0  0  0  0  0999 V2000
    0.3503   -6.8961   29.5804 C   0  0  2  0  0  0  0  0  0  0  0  0
   -0.3465   -8.1184   29.2245 O   0  0  0  0  0  0  0  0  0  0  0  0
   -1.7224  -11.5029   31.4512 C   0  0  2  0  0  0  0  0  0  0  0  0
   -1.7270  -12.5685   32.4052 N   0  0  0  0  0  0  0  0  0  0  0  0
   -2.9715  -10.9127   34.1770 C   0  0  2  0  0  0  0  0  0  0  0  0
   -0.2797   -5.7077   28.8461 C   0  0  2  0  0  0  0  0  0  0  0  0
   -1.6736   -5.6620   29.1642 N   0  0  0  0  0  0  0  0  0  0  0  0
   -0.5451  -11.7086   30.4444 C   0  0  0  0  0  0  0  0  0  0  0  0
   -4.1888  -10.3217   34.9218 C   0  0  2  0  0  0  0  0  0  0  0  0
   -5.2692  -10.2182   34.0216 O   0  0  0  0  0  0  0  0  0  0  0  0
   -0.0368   -5.8277   27.3028 C   0  0  0  0  0  0  0  0  0  0  0  0
   -0.5270  -10.5363   29.3964 C   0  0  2  0  0  0  0  0  0  0  0  0
    0.5806  -10.7251   28.4460 N   0  0  0  0  0  0  0  0  0  0  0  0
   -3.7678   -8.9097   35.5015 C   0  0  1  0  0  0  0  0  0  0  0  0
   -4.9122   -8.2417   36.2037 N   0  0  0  0  0  0  0  0  0  0  0  0
    1.5046   -5.8404   27.0561 C   0  0  0  0  0  0  0  0  0  0  0  0
   -0.3851   -9.1579   30.1492 C   0  0  2  0  0  0  0  0  0  0  0  0
   -2.5147   -9.0715   36.5151 C   0  0  1  0  0  0  0  0  0  0  0  0
   -2.8548   -9.8706   37.6292 O   0  0  0  0  0  0  0  0  0  0  0  0
    2.1356   -7.0657   27.8532 C   0  0  2  0  0  0  0  0  0  0  0  0
    1.8011   -7.0326   29.2759 O   0  0  0  0  0  0  0  0  0  0  0  0
   -1.5848   -8.9812   31.1578 C   0  0  2  0  0  0  0  0  0  0  0  0
   -1.4779   -7.7394   31.8465 O   0  0  0  0  0  0  0  0  0  0  0  0
   -1.3416   -9.7771   35.7671 C   0  0  0  0  0  0  0  0  0  0  0  0
   -1.8165  -11.0412   35.1120 O   0  0  0  0  0  0  0  0  0  0  0  0
    3.6303   -7.2071   27.6867 C   0  0  0  0  0  0  0  0  0  0  0  0
    4.1039   -8.4792   28.1655 N   0  0  0  0  0  0  0  0  0  0  0  0
   -1.5874  -10.1600   32.1934 C   0  0  1  0  0  0  0  0  0  0  0  0
   -2.6793   -9.9865   33.0884 O   0  0  0  0  0  0  0  0  0  0  0  0
   -1.9720   -7.7867   37.1557 C   0  0  0  0  0  0  0  0  0  0  0  0
   -4.8406   -6.7796   36.3627 C   0  0  0  0  0  0  0  0  0  0  0  0
  1  2  1  6  0  0  0
  1  6  1  0  0  0  0
  1 21  1  0  0  0  0
  3  4  1  1  0  0  0
  3  8  1  0  0  0  0
  3 28  1  0  0  0  0
  5  9  1  0  0  0  0
  5 25  1  0  0  0  0
  5 29  1  6  0  0  0
  6  7  1  6  0  0  0
  6 11  1  0  0  0  0
  8 12  1  0  0  0  0
  9 10  1  6  0  0  0
  9 14  1  0  0  0  0
 11 16  1  0  0  0  0
 12 13  1  6  0  0  0
 12 17  1  0  0  0  0
 14 15  1  1  0  0  0
 14 18  1  0  0  0  0
 15 31  1  0  0  0  0
 16 20  1  0  0  0  0
 17  2  1  6  0  0  0
 17 22  1  0  0  0  0
 18 19  1  1  0  0  0
 18 24  1  0  0  0  0
 18 30  1  0  0  0  0
 20 21  1  0  0  0  0
 20 26  1  1  0  0  0
 22 23  1  1  0  0  0
 22 28  1  0  0  0  0
 24 25  1  0  0  0  0
 26 27  1  0  0  0  0
 28 29  1  1  0  0  0
M  END
>  <CHROM.1>
-151.24692289,177.78198665,-158.58579271,-152.76084166,-166.89315286,59.60786474
-1.21117423,-8.82796998,31.91993478,0.31247802,0.99015961,-0.09754552

>  <Name>
2et3_lig

>  <RI>
0

>  <Rbt.Current_Directory>
/home/itssahil/PROJECTS/Mol_Feturizer/New_Systems/rnas/2et3

>  <Rbt.Executable>
rbdock ($Id: //depot/dev/client3/rdock/2013.1/src/exe/rbdock.cxx#4 $)

>  <Rbt.Library>
libRbt.so (2013.1, Build901 2013/11/27)

>  <Rbt.Parameter_File>
/export/apps/rDock/src/rDock_2013.1_src/data/scripts/dock_solv.prm

>  <Rbt.Receptor>
prm/blind_docking_100.prm

>  <SCORE>
-21.5775

>  <SCORE.INTER>
-17.476

>  <SCORE.INTER.CONST>
1

>  <SCORE.INTER.POLAR>
-0.938083

>  <SCORE.INTER.ROT>
6

>  <SCORE.INTER.SOLV>
17.4572

>  <SCORE.INTER.VDW>
-21.9428

>  <SCORE.INTER.norm>
-0.563742

>  <SCORE.INTRA>
-6.38365

>  <SCORE.INTRA.DIHEDRAL>
-14.7162

>  <SCORE.INTRA.DIHEDRAL.0>
22.2484

>  <SCORE.INTRA.POLAR>
0

>  <SCORE.INTRA.POLAR.0>
0

>  <SCORE.INTRA.REPUL>
0

>  <SCORE.INTRA.REPUL.0>
0

>  <SCORE.INTRA.SOLV>
-0.875554

>  <SCORE.INTRA.SOLV.lig_0>
-75.7198

>  <SCORE.INTRA.VDW>
1.41225

>  <SCORE.INTRA.VDW.0>
-3.34171

>  <SCORE.INTRA.norm>
-0.205924

>  <SCORE.RESTR>
2.28212

>  <SCORE.RESTR.CAVITY>
2.28212

>  <SCORE.RESTR.norm>
0.0736167

>  <SCORE.SYSTEM>
0

>  <SCORE.SYSTEM.CONST>
0

>  <SCORE.SYSTEM.DIHEDRAL>
0

>  <SCORE.SYSTEM.SOLV>
0

>  <SCORE.SYSTEM.norm>
0

>  <SCORE.heavy>
31

>  <SCORE.norm>
-0.69605

>  <RMSD>
1.463

$$$$
2et3_lig
 OpenBabel11021811423D
libRbt.so/2013.1/901 2013/11/27
 31 33  0  0  0  0  0  0  0  0999 V2000
    0.2924   -6.6778   29.3568 C   0  0  2  0  0  0  0  0  0  0  0  0
   -0.3774   -7.9430   29.1181 O   0  0  0  0  0  0  0  0  0  0  0  0
   -1.8019  -11.0418   31.7016 C   0  0  2  0  0  0  0  0  0  0  0  0
   -1.8208  -11.9974   32.7655 N   0  0  0  0  0  0  0  0  0  0  0  0
   -3.1268  -10.2224   34.2575 C   0  0  2  0  0  0  0  0  0  0  0  0
   -0.1907   -5.6361   28.3420 C   0  0  2  0  0  0  0  0  0  0  0  0
   -1.6144   -5.5341   28.4357 N   0  0  0  0  0  0  0  0  0  0  0  0
   -0.6322  -11.3758   30.7206 C   0  0  0  0  0  0  0  0  0  0  0  0
   -4.2669   -9.4899   34.9988 C   0  0  2  0  0  0  0  0  0  0  0  0
   -5.3267   -9.2628   34.0967 O   0  0  0  0  0  0  0  0  0  0  0  0
    0.2728   -6.0250   26.8966 C   0  0  0  0  0  0  0  0  0  0  0  0
   -0.5983  -10.3245   29.5516 C   0  0  2  0  0  0  0  0  0  0  0  0
    0.5022  -10.6344   28.6250 N   0  0  0  0  0  0  0  0  0  0  0  0
   -3.6833   -8.1355   35.5749 C   0  0  1  0  0  0  0  0  0  0  0  0
   -4.7418   -7.3353   36.2735 N   0  0  0  0  0  0  0  0  0  0  0  0
    1.8327   -6.0822   26.8887 C   0  0  0  0  0  0  0  0  0  0  0  0
   -0.4300   -8.8753   30.1501 C   0  0  2  0  0  0  0  0  0  0  0  0
   -2.4590   -8.4404   36.5907 C   0  0  1  0  0  0  0  0  0  0  0  0
   -2.8920   -9.1905   37.7067 O   0  0  0  0  0  0  0  0  0  0  0  0
    2.3066   -7.1493   27.9711 C   0  0  2  0  0  0  0  0  0  0  0  0
    1.7679   -6.8669   29.3005 O   0  0  0  0  0  0  0  0  0  0  0  0
   -1.6226   -8.5695   31.1360 C   0  0  2  0  0  0  0  0  0  0  0  0
   -1.4920   -7.2624   31.6857 O   0  0  0  0  0  0  0  0  0  0  0  0
   -1.3763   -9.2815   35.8465 C   0  0  0  0  0  0  0  0  0  0  0  0
   -1.9959  -10.4830   35.1945 O   0  0  0  0  0  0  0  0  0  0  0  0
    3.8052   -7.3190   28.0567 C   0  0  0  0  0  0  0  0  0  0  0  0
    4.3498   -7.8812   26.8487 N   0  0  0  0  0  0  0  0  0  0  0  0
   -1.6412   -9.6288   32.2934 C   0  0  1  0  0  0  0  0  0  0  0  0
   -2.7265   -9.3405   33.1665 O   0  0  0  0  0  0  0  0  0  0  0  0
   -1.7696   -7.2265   37.2283 C   0  0  0  0  0  0  0  0  0  0  0  0
   -5.0430   -6.0008   35.7290 C   0  0  0  0  0  0  0  0  0  0  0  0
  1  2  1  6  0  0  0
  1  6  1  0  0  0  0
  1 21  1  0  0  0  0
  3  4  1  1  0  0  0
  3  8  1  0  0  0  0
  3 28  1  0  0  0  0
  5  9  1  0  0  0  0
  5 25  1  0  0  0  0
  5 29  1  6  0  0  0
  6  7  1  6  0  0  0
  6 11  1  0  0  0  0
  8 12  1  0  0  0  0
  9 10  1  6  0  0  0
  9 14  1  0  0  0  0
 11 16  1  0  0  0  0
 12 13  1  6  0  0  0
 12 17  1  0  0  0  0
 14 15  1  1  0  0  0
 14 18  1  0  0  0  0
 15 31  1  0  0  0  0
 16 20  1  0  0  0  0
 17  2  1  6  0  0  0
 17 22  1  0  0  0  0
 18 19  1  1  0  0  0
 18 24  1  0  0  0  0
 18 30  1  0  0  0  0
 20 21  1  0  0  0  0
 20 26  1  1  0  0  0
 22 23  1  1  0  0  0
 22 28  1  0  0  0  0
 24 25  1  0  0  0  0
 26 27  1  0  0  0  0
 28 29  1  1  0  0  0
M  END
>  <CHROM.1>
-159.26331387,176.23007668,-118.76226593,-155.35591235,-65.72904940,52.19097144
-1.19935933,-8.41751592,31.86734173,0.34666466,0.97510662,-0.22301283

>  <Name>
2et3_lig

>  <RI>
2.5794e+07

>  <Rbt.Current_Directory>
/home/itssahil/PROJECTS/Mol_Feturizer/New_Systems/rnas/2et3

>  <Rbt.Executable>
rbdock ($Id: //depot/dev/client3/rdock/2013.1/src/exe/rbdock.cxx#4 $)

>  <Rbt.Library>
libRbt.so (2013.1, Build901 2013/11/27)

>  <Rbt.Parameter_File>
/export/apps/rDock/src/rDock_2013.1_src/data/scripts/dock_solv.prm

>  <Rbt.Receptor>
prm/pocket_docking_5.prm

>  <SCORE>
-28.1734

>  <SCORE.INTER>
-20.4715

>  <SCORE.INTER.CONST>
1

>  <SCORE.INTER.POLAR>
-0.938083

>  <SCORE.INTER.ROT>
6

>  <SCORE.INTER.SOLV>
13.4552

>  <SCORE.INTER.VDW>
-22.6058

>  <SCORE.INTER.norm>
-0.66037

>  <SCORE.INTRA>
-7.70474

>  <SCORE.INTRA.DIHEDRAL>
-15.9223

>  <SCORE.INTRA.DIHEDRAL.0>
22.2484

>  <SCORE.INTRA.POLAR>
0

>  <SCORE.INTRA.POLAR.0>
0

>  <SCORE.INTRA.REPUL>
0

>  <SCORE.INTRA.REPUL.0>
0

>  <SCORE.INTRA.SOLV>
-1.1539

>  <SCORE.INTRA.SOLV.lig_0>
-75.7198

>  <SCORE.INTRA.VDW>
0.833351

>  <SCORE.INTRA.VDW.0>
-3.34171

>  <SCORE.INTRA.norm>
-0.24854

>  <SCORE.RESTR>
0.00279296

>  <SCORE.RESTR.CAVITY>
0.00279296

>  <SCORE.RESTR.norm>
9.00956e-05

>  <SCORE.SYSTEM>
0

>  <SCORE.SYSTEM.CONST>
0

>  <SCORE.SYSTEM.DIHEDRAL>
0

>  <SCORE.SYSTEM.SOLV>
0

>  <SCORE.SYSTEM.norm>
0

>  <SCORE.heavy>
31

>  <SCORE.norm>
-0.90882

>  <RMSD>
1.483

$$$$
2et3_lig
 OpenBabel11021811423D
libRbt.so/2013.1/901 2013/11/27
 31 33  0  0  0  0  0  0  0  0999 V2000
    0.2853   -7.2297   29.5925 C   0  0  2  0  0  0  0  0  0  0  0  0
   -0.6150   -8.3388   29.3369 O   0  0  0  0  0  0  0  0  0  0  0  0
   -2.3200  -11.4474   31.7320 C   0  0  2  0  0  0  0  0  0  0  0  0
   -2.4279  -12.4600   32.7363 N   0  0  0  0  0  0  0  0  0  0  0  0
   -3.3814  -10.5229   34.5097 C   0  0  2  0  0  0  0  0  0  0  0  0
   -0.0963   -6.0380   28.7079 C   0  0  2  0  0  0  0  0  0  0  0  0
   -1.4657   -5.7066   28.9550 N   0  0  0  0  0  0  0  0  0  0  0  0
   -1.1822  -11.8254   30.7296 C   0  0  0  0  0  0  0  0  0  0  0  0
   -4.4785   -9.7326   35.2562 C   0  0  2  0  0  0  0  0  0  0  0  0
   -5.6119   -9.6266   34.4239 O   0  0  0  0  0  0  0  0  0  0  0  0
    0.1600   -6.3731   27.1988 C   0  0  0  0  0  0  0  0  0  0  0  0
   -1.0505  -10.7127   29.6262 C   0  0  2  0  0  0  0  0  0  0  0  0
    0.0204  -11.0638   28.6798 N   0  0  0  0  0  0  0  0  0  0  0  0
   -3.8877   -8.3121   35.6305 C   0  0  1  0  0  0  0  0  0  0  0  0
   -4.9088   -7.4578   36.3207 N   0  0  0  0  0  0  0  0  0  0  0  0
    1.6786   -6.6907   27.0259 C   0  0  0  0  0  0  0  0  0  0  0  0
   -0.7543   -9.3234   30.3108 C   0  0  2  0  0  0  0  0  0  0  0  0
   -2.5794   -8.4798   36.5707 C   0  0  1  0  0  0  0  0  0  0  0  0
   -2.9028   -9.1080   37.7939 O   0  0  0  0  0  0  0  0  0  0  0  0
    2.0528   -7.9116   27.9768 C   0  0  2  0  0  0  0  0  0  0  0  0
    1.6936   -7.6585   29.3711 O   0  0  0  0  0  0  0  0  0  0  0  0
   -1.9173   -8.9716   31.3164 C   0  0  2  0  0  0  0  0  0  0  0  0
   -1.6713   -7.7172   31.9439 O   0  0  0  0  0  0  0  0  0  0  0  0
   -1.5367   -9.3794   35.8379 C   0  0  0  0  0  0  0  0  0  0  0  0
   -2.1735  -10.6571   35.3745 O   0  0  0  0  0  0  0  0  0  0  0  0
    3.4998   -8.3376   27.8951 C   0  0  0  0  0  0  0  0  0  0  0  0
    4.3959   -7.2289   28.0940 N   0  0  0  0  0  0  0  0  0  0  0  0
   -2.0345  -10.0930   32.4077 C   0  0  1  0  0  0  0  0  0  0  0  0
   -3.0920   -9.7614   33.2995 O   0  0  0  0  0  0  0  0  0  0  0  0
   -1.8745   -7.1902   37.0128 C   0  0  0  0  0  0  0  0  0  0  0  0
   -4.8919   -6.0165   36.0197 C   0  0  0  0  0  0  0  0  0  0  0  0
  1  2  1  6  0  0  0
  1  6  1  0  0  0  0
  1 21  1  0  0  0  0
  3  4  1  1  0  0  0
  3  8  1  0  0  0  0
  3 28  1  0  0  0  0
  5  9  1  0  0  0  0
  5 25  1  0  0  0  0
  5 29  1  6  0  0  0
  6  7  1  6  0  0  0
  6 11  1  0  0  0  0
  8 12  1  0  0  0  0
  9 10  1  6  0  0  0
  9 14  1  0  0  0  0
 11 16  1  0  0  0  0
 12 13  1  6  0  0  0
 12 17  1  0  0  0  0
 14 15  1  1  0  0  0
 14 18  1  0  0  0  0
 15 31  1  0  0  0  0
 16 20  1  0  0  0  0
 17  2  1  6  0  0  0
 17 22  1  0  0  0  0
 18 19  1  1  0  0  0
 18 24  1  0  0  0  0
 18 30  1  0  0  0  0
 20 21  1  0  0  0  0
 20 26  1  1  0  0  0
 22 23  1  1  0  0  0
 22 28  1  0  0  0  0
 24 25  1  0  0  0  0
 26 27  1  0  0  0  0
 28 29  1  1  0  0  0
M  END
>  <CHROM.1>
-158.22970702,173.43885371,-143.66900425,-148.50302261,52.65279216,66.13175305
-1.40876144,-8.74324663,32.03533881,-0.08137821,0.99247817,0.25573281

>  <Name>
2et3_lig

>  <RI>
3.50789e+07

>  <Rbt.Current_Directory>
/home/itssahil/PROJECTS/Mol_Feturizer/New_Systems/rnas/2et3

>  <Rbt.Executable>
rbdock ($Id: //depot/dev/client3/rdock/2013.1/src/exe/rbdock.cxx#4 $)

>  <Rbt.Library>
libRbt.so (2013.1, Build901 2013/11/27)

>  <Rbt.Parameter_File>
/export/apps/rDock/src/rDock_2013.1_src/data/scripts/dock_solv.prm

>  <Rbt.Receptor>
prm/pocket_docking_4.prm

>  <SCORE>
-25.4373

>  <SCORE.INTER>
-18.1241

>  <SCORE.INTER.CONST>
1

>  <SCORE.INTER.POLAR>
-0.938083

>  <SCORE.INTER.ROT>
6

>  <SCORE.INTER.SOLV>
15.8703

>  <SCORE.INTER.VDW>
-21.8459

>  <SCORE.INTER.norm>
-0.584647

>  <SCORE.INTRA>
-7.31324

>  <SCORE.INTRA.DIHEDRAL>
-14.7787

>  <SCORE.INTRA.DIHEDRAL.0>
22.2484

>  <SCORE.INTRA.POLAR>
0

>  <SCORE.INTRA.POLAR.0>
0

>  <SCORE.INTRA.REPUL>
0

>  <SCORE.INTRA.REPUL.0>
0

>  <SCORE.INTRA.SOLV>
-0.412029

>  <SCORE.INTRA.SOLV.lig_0>
-75.7198

>  <SCORE.INTRA.VDW>
0.28214

>  <SCORE.INTRA.VDW.0>
-3.34171

>  <SCORE.INTRA.norm>
-0.235911

>  <SCORE.RESTR>
0

>  <SCORE.RESTR.CAVITY>
0

>  <SCORE.RESTR.norm>
0

>  <SCORE.SYSTEM>
0

>  <SCORE.SYSTEM.CONST>
0

>  <SCORE.SYSTEM.DIHEDRAL>
0

>  <SCORE.SYSTEM.SOLV>
0

>  <SCORE.SYSTEM.norm>
0

>  <SCORE.heavy>
31

>  <SCORE.norm>
-0.820558

>  <RMSD>
1.489

$$$$
2et3_lig
 OpenBabel11021811423D
libRbt.so/2013.1/901 2013/11/27
 31 33  0  0  0  0  0  0  0  0999 V2000
    0.1979   -7.3312   29.7639 C   0  0  2  0  0  0  0  0  0  0  0  0
   -0.6477   -8.4949   29.5715 O   0  0  0  0  0  0  0  0  0  0  0  0
   -1.5350  -11.7991   32.1409 C   0  0  2  0  0  0  0  0  0  0  0  0
   -1.3265  -12.9276   32.9944 N   0  0  0  0  0  0  0  0  0  0  0  0
   -2.6731  -10.9011   34.5071 C   0  0  2  0  0  0  0  0  0  0  0  0
   -0.2936   -6.1814   28.8780 C   0  0  2  0  0  0  0  0  0  0  0  0
   -1.6667   -5.9238   29.1850 N   0  0  0  0  0  0  0  0  0  0  0  0
   -0.9473  -12.1003   30.7245 C   0  0  0  0  0  0  0  0  0  0  0  0
   -3.8106  -10.0803   33.8606 C   0  0  2  0  0  0  0  0  0  0  0  0
   -3.6861  -10.1526   32.4579 O   0  0  0  0  0  0  0  0  0  0  0  0
   -0.0897   -6.5319   27.3644 C   0  0  0  0  0  0  0  0  0  0  0  0
   -1.1643  -10.8608   29.7812 C   0  0  2  0  0  0  0  0  0  0  0  0
   -0.6121  -11.1393   28.4459 N   0  0  0  0  0  0  0  0  0  0  0  0
   -3.6973   -8.5910   34.3860 C   0  0  1  0  0  0  0  0  0  0  0  0
   -4.7418   -7.7102   33.7679 N   0  0  0  0  0  0  0  0  0  0  0  0
    1.4348   -6.7657   27.1240 C   0  0  0  0  0  0  0  0  0  0  0  0
   -0.4772   -9.5901   30.4134 C   0  0  2  0  0  0  0  0  0  0  0  0
   -3.8275   -8.5552   36.0002 C   0  0  1  0  0  0  0  0  0  0  0  0
   -5.0888   -9.0290   36.4246 O   0  0  0  0  0  0  0  0  0  0  0  0
    1.9237   -7.9437   28.0769 C   0  0  2  0  0  0  0  0  0  0  0  0
    1.6166   -7.6833   29.4824 O   0  0  0  0  0  0  0  0  0  0  0  0
   -1.0891   -9.3141   31.8407 C   0  0  2  0  0  0  0  0  0  0  0  0
   -0.4844   -8.1668   32.4288 O   0  0  0  0  0  0  0  0  0  0  0  0
   -2.7394   -9.4853   36.6203 C   0  0  0  0  0  0  0  0  0  0  0  0
   -2.7889  -10.8481   35.9933 O   0  0  0  0  0  0  0  0  0  0  0  0
    3.3875   -8.2879   27.9330 C   0  0  0  0  0  0  0  0  0  0  0  0
    4.2271   -7.1284   28.0834 N   0  0  0  0  0  0  0  0  0  0  0  0
   -0.8647  -10.5612   32.7661 C   0  0  1  0  0  0  0  0  0  0  0  0
   -1.4290  -10.2957   34.0445 O   0  0  0  0  0  0  0  0  0  0  0  0
   -3.7234   -7.1797   36.6729 C   0  0  0  0  0  0  0  0  0  0  0  0
   -4.5146   -7.2718   32.3806 C   0  0  0  0  0  0  0  0  0  0  0  0
  1  2  1  6  0  0  0
  1  6  1  0  0  0  0
  1 21  1  0  0  0  0
  3  4  1  1  0  0  0
  3  8  1  0  0  0  0
  3 28  1  0  0  0  0
  5  9  1  0  0  0  0
  5 25  1  0  0  0  0
  5 29  1  1  0  0  0
  6  7  1  6  0  0  0
  6 11  1  0  0  0  0
  8 12  1  0  0  0  0
  9 10  1  6  0  0  0
  9 14  1  0  0  0  0
 11 16  1  0  0  0  0
 12 13  1  6  0  0  0
 12 17  1  0  0  0  0
 14 15  1  6  0  0  0
 14 18  1  0  0  0  0
 15 31  1  0  0  0  0
 16 20  1  0  0  0  0
 17  2  1  6  0  0  0
 17 22  1  0  0  0  0
 18 19  1  1  0  0  0
 18 24  1  0  0  0  0
 18 30  1  0  0  0  0
 20 21  1  0  0  0  0
 20 26  1  1  0  0  0
 22 23  1  1  0  0  0
 22 28  1  0  0  0  0
 24 25  1  0  0  0  0
 26 27  1  0  0  0  0
 28 29  1  1  0  0  0
M  END
>  <CHROM.1>
-171.68629815,-80.36856318,-76.86367936,-163.30111967,53.28684784,-14.36506772
-1.34536074,-8.98643940,31.78245300,0.46814822,0.87792422,-0.33342065

>  <Name>
2et3_lig

>  <RI>
0

>  <Rbt.Current_Directory>
/home/itssahil/PROJECTS/Mol_Feturizer/New_Systems/rnas/2et3

>  <Rbt.Executable>
rbdock ($Id: //depot/dev/client3/rdock/2013.1/src/exe/rbdock.cxx#4 $)

>  <Rbt.Library>
libRbt.so (2013.1, Build901 2013/11/27)

>  <Rbt.Parameter_File>
/export/apps/rDock/src/rDock_2013.1_src/data/scripts/dock_solv.prm

>  <Rbt.Receptor>
prm/pocket_docking_3.prm

>  <SCORE>
-17.1477

>  <SCORE.INTER>
-13.3652

>  <SCORE.INTER.CONST>
1

>  <SCORE.INTER.POLAR>
-0.938083

>  <SCORE.INTER.ROT>
6

>  <SCORE.INTER.SOLV>
17.3191

>  <SCORE.INTER.VDW>
-19.1562

>  <SCORE.INTER.norm>
-0.431137

>  <SCORE.INTRA>
-4.00752

>  <SCORE.INTRA.DIHEDRAL>
-12.0129

>  <SCORE.INTRA.DIHEDRAL.0>
22.2484

>  <SCORE.INTRA.POLAR>
0

>  <SCORE.INTRA.POLAR.0>
0

>  <SCORE.INTRA.REPUL>
0

>  <SCORE.INTRA.REPUL.0>
0

>  <SCORE.INTRA.SOLV>
-0.0588346

>  <SCORE.INTRA.SOLV.lig_0>
-75.7198

>  <SCORE.INTRA.VDW>
2.02836

>  <SCORE.INTRA.VDW.0>
-3.34171

>  <SCORE.INTRA.norm>
-0.129275

>  <SCORE.RESTR>
0.225022

>  <SCORE.RESTR.CAVITY>
0.225022

>  <SCORE.RESTR.norm>
0.00725876

>  <SCORE.SYSTEM>
0

>  <SCORE.SYSTEM.CONST>
0

>  <SCORE.SYSTEM.DIHEDRAL>
0

>  <SCORE.SYSTEM.SOLV>
0

>  <SCORE.SYSTEM.norm>
0

>  <SCORE.heavy>
31

>  <SCORE.norm>
-0.553153

>  <RMSD>
1.491

$$$$
2et3_lig
 OpenBabel11021811423D
libRbt.so/2013.1/901 2013/11/27
 31 33  0  0  0  0  0  0  0  0999 V2000
    0.2993   -7.2373   29.5903 C   0  0  2  0  0  0  0  0  0  0  0  0
   -0.6029   -8.3390   29.3105 O   0  0  0  0  0  0  0  0  0  0  0  0
   -2.3789  -11.4253   31.6826 C   0  0  2  0  0  0  0  0  0  0  0  0
   -2.5080  -12.4473   32.6748 N   0  0  0  0  0  0  0  0  0  0  0  0
   -3.3840  -10.5055   34.4828 C   0  0  2  0  0  0  0  0  0  0  0  0
   -0.0754   -6.0283   28.7265 C   0  0  2  0  0  0  0  0  0  0  0  0
   -1.4450   -5.6978   28.9741 N   0  0  0  0  0  0  0  0  0  0  0  0
   -1.2631  -11.8247   30.6639 C   0  0  0  0  0  0  0  0  0  0  0  0
   -4.4837   -9.7160   35.2265 C   0  0  2  0  0  0  0  0  0  0  0  0
   -5.6108   -9.6009   34.3869 O   0  0  0  0  0  0  0  0  0  0  0  0
    0.1861   -6.3360   27.2124 C   0  0  0  0  0  0  0  0  0  0  0  0
   -1.1081  -10.7021   29.5736 C   0  0  2  0  0  0  0  0  0  0  0  0
   -0.0579  -11.0732   28.6119 N   0  0  0  0  0  0  0  0  0  0  0  0
   -3.8907   -8.3000   35.6139 C   0  0  1  0  0  0  0  0  0  0  0  0
   -4.9138   -7.4465   36.3022 N   0  0  0  0  0  0  0  0  0  0  0  0
    1.7045   -6.6546   27.0398 C   0  0  0  0  0  0  0  0  0  0  0  0
   -0.7628   -9.3316   30.2730 C   0  0  2  0  0  0  0  0  0  0  0  0
   -2.5897   -8.4781   36.5622 C   0  0  1  0  0  0  0  0  0  0  0  0
   -2.9239   -9.1128   37.7792 O   0  0  0  0  0  0  0  0  0  0  0  0
    2.0716   -7.8940   27.9693 C   0  0  2  0  0  0  0  0  0  0  0  0
    1.7074   -7.6658   29.3667 O   0  0  0  0  0  0  0  0  0  0  0  0
   -1.9046   -8.9577   31.2949 C   0  0  2  0  0  0  0  0  0  0  0  0
   -1.6141   -7.7198   31.9359 O   0  0  0  0  0  0  0  0  0  0  0  0
   -1.5449   -9.3767   35.8312 C   0  0  0  0  0  0  0  0  0  0  0  0
   -2.1828  -10.6492   35.3553 O   0  0  0  0  0  0  0  0  0  0  0  0
    3.5177   -8.3223   27.8856 C   0  0  0  0  0  0  0  0  0  0  0  0
    4.4160   -7.2143   28.0786 N   0  0  0  0  0  0  0  0  0  0  0  0
   -2.0454  -10.0893   32.3728 C   0  0  1  0  0  0  0  0  0  0  0  0
   -3.0834   -9.7374   33.2795 O   0  0  0  0  0  0  0  0  0  0  0  0
   -1.8835   -7.1937   37.0174 C   0  0  0  0  0  0  0  0  0  0  0  0
   -4.9326   -6.0143   35.9604 C   0  0  0  0  0  0  0  0  0  0  0  0
  1  2  1  6  0  0  0
  1  6  1  0  0  0  0
  1 21  1  0  0  0  0
  3  4  1  1  0  0  0
  3  8  1  0  0  0  0
  3 28  1  0  0  0  0
  5  9  1  0  0  0  0
  5 25  1  0  0  0  0
  5 29  1  6  0  0  0
  6  7  1  6  0  0  0
  6 11  1  0  0  0  0
  8 12  1  0  0  0  0
  9 10  1  6  0  0  0
  9 14  1  0  0  0  0
 11 16  1  0  0  0  0
 12 13  1  6  0  0  0
 12 17  1  0  0  0  0
 14 15  1  1  0  0  0
 14 18  1  0  0  0  0
 15 31  1  0  0  0  0
 16 20  1  0  0  0  0
 17  2  1  6  0  0  0
 17 22  1  0  0  0  0
 18 19  1  1  0  0  0
 18 24  1  0  0  0  0
 18 30  1  0  0  0  0
 20 21  1  0  0  0  0
 20 26  1  1  0  0  0
 22 23  1  1  0  0  0
 22 28  1  0  0  0  0
 24 25  1  0  0  0  0
 26 27  1  0  0  0  0
 28 29  1  1  0  0  0
M  END
>  <CHROM.1>
-157.36032156,175.31220992,-140.75462424,-150.56923133,51.34148847,66.14287306
-1.41540947,-8.73430473,32.01436099,-0.12328363,0.98665691,0.30683284

>  <Name>
2et3_lig

>  <RI>
0

>  <Rbt.Current_Directory>
/home/itssahil/PROJECTS/Mol_Feturizer/New_Systems/rnas/2et3

>  <Rbt.Executable>
rbdock ($Id: //depot/dev/client3/rdock/2013.1/src/exe/rbdock.cxx#4 $)

>  <Rbt.Library>
libRbt.so (2013.1, Build901 2013/11/27)

>  <Rbt.Parameter_File>
/export/apps/rDock/src/rDock_2013.1_src/data/scripts/dock_solv.prm

>  <Rbt.Receptor>
prm/pocket_docking_3.prm

>  <SCORE>
-25.3978

>  <SCORE.INTER>
-17.899

>  <SCORE.INTER.CONST>
1

>  <SCORE.INTER.POLAR>
-0.938083

>  <SCORE.INTER.ROT>
6

>  <SCORE.INTER.SOLV>
15.7538

>  <SCORE.INTER.VDW>
-21.657

>  <SCORE.INTER.norm>
-0.577389

>  <SCORE.INTRA>
-7.4988

>  <SCORE.INTRA.DIHEDRAL>
-14.969

>  <SCORE.INTRA.DIHEDRAL.0>
22.2484

>  <SCORE.INTRA.POLAR>
0

>  <SCORE.INTRA.POLAR.0>
0

>  <SCORE.INTRA.REPUL>
0

>  <SCORE.INTRA.REPUL.0>
0

>  <SCORE.INTRA.SOLV>
-0.557493

>  <SCORE.INTRA.SOLV.lig_0>
-75.7198

>  <SCORE.INTRA.VDW>
0.264461

>  <SCORE.INTRA.VDW.0>
-3.34171

>  <SCORE.INTRA.norm>
-0.241897

>  <SCORE.RESTR>
0

>  <SCORE.RESTR.CAVITY>
0

>  <SCORE.RESTR.norm>
0

>  <SCORE.SYSTEM>
0

>  <SCORE.SYSTEM.CONST>
0

>  <SCORE.SYSTEM.DIHEDRAL>
0

>  <SCORE.SYSTEM.SOLV>
0

>  <SCORE.SYSTEM.norm>
0

>  <SCORE.heavy>
31

>  <SCORE.norm>
-0.819285

>  <RMSD>
1.491

$$$$
2et3_lig
 OpenBabel11021811423D
libRbt.so/2013.1/901 2013/11/27
 31 33  0  0  0  0  0  0  0  0999 V2000
    0.0258   -6.8880   29.5595 C   0  0  2  0  0  0  0  0  0  0  0  0
   -0.6018   -8.1617   29.2593 O   0  0  0  0  0  0  0  0  0  0  0  0
   -2.0855  -11.3035   31.7560 C   0  0  2  0  0  0  0  0  0  0  0  0
   -2.1209  -12.2914   32.7897 N   0  0  0  0  0  0  0  0  0  0  0  0
   -3.2471  -10.4309   34.4627 C   0  0  2  0  0  0  0  0  0  0  0  0
   -0.5043   -5.8116   28.6063 C   0  0  2  0  0  0  0  0  0  0  0  0
   -1.9297   -5.7654   28.7179 N   0  0  0  0  0  0  0  0  0  0  0  0
   -0.9319  -11.6358   30.7556 C   0  0  0  0  0  0  0  0  0  0  0  0
   -4.3769   -9.6907   35.2120 C   0  0  2  0  0  0  0  0  0  0  0  0
   -5.4977   -9.5879   34.3625 O   0  0  0  0  0  0  0  0  0  0  0  0
   -0.0431   -6.1063   27.1380 C   0  0  0  0  0  0  0  0  0  0  0  0
   -0.8798  -10.5494   29.6199 C   0  0  2  0  0  0  0  0  0  0  0  0
    0.2056  -10.8575   28.6752 N   0  0  0  0  0  0  0  0  0  0  0  0
   -3.8289   -8.2679   35.6389 C   0  0  1  0  0  0  0  0  0  0  0  0
   -4.8833   -7.4602   36.3351 N   0  0  0  0  0  0  0  0  0  0  0  0
    1.5177   -6.1075   27.1132 C   0  0  0  0  0  0  0  0  0  0  0  0
   -0.6705   -9.1245   30.2621 C   0  0  2  0  0  0  0  0  0  0  0  0
   -2.5335   -8.4312   36.5975 C   0  0  1  0  0  0  0  0  0  0  0  0
   -2.8624   -9.1037   37.7955 O   0  0  0  0  0  0  0  0  0  0  0  0
    2.0403   -7.2131   28.1327 C   0  0  2  0  0  0  0  0  0  0  0  0
    1.5064   -7.0212   29.4800 O   0  0  0  0  0  0  0  0  0  0  0  0
   -1.8477   -8.8199   31.2667 C   0  0  2  0  0  0  0  0  0  0  0  0
   -1.6799   -7.5345   31.8560 O   0  0  0  0  0  0  0  0  0  0  0  0
   -1.4556   -9.2824   35.8577 C   0  0  0  0  0  0  0  0  0  0  0  0
   -2.0517  -10.5609   35.3452 O   0  0  0  0  0  0  0  0  0  0  0  0
    3.5447   -7.3338   28.1957 C   0  0  0  0  0  0  0  0  0  0  0  0
    4.0934   -7.8343   26.9627 N   0  0  0  0  0  0  0  0  0  0  0  0
   -1.8847   -9.9144   32.3905 C   0  0  1  0  0  0  0  0  0  0  0  0
   -2.9559   -9.6265   33.2810 O   0  0  0  0  0  0  0  0  0  0  0  0
   -1.8693   -7.1383   37.0903 C   0  0  0  0  0  0  0  0  0  0  0  0
   -4.9293   -6.0186   36.0385 C   0  0  0  0  0  0  0  0  0  0  0  0
  1  2  1  6  0  0  0
  1  6  1  0  0  0  0
  1 21  1  0  0  0  0
  3  4  1  1  0  0  0
  3  8  1  0  0  0  0
  3 28  1  0  0  0  0
  5  9  1  0  0  0  0
  5 25  1  0  0  0  0
  5 29  1  6  0  0  0
  6  7  1  6  0  0  0
  6 11  1  0  0  0  0
  8 12  1  0  0  0  0
  9 10  1  6  0  0  0
  9 14  1  0  0  0  0
 11 16  1  0  0  0  0
 12 13  1  6  0  0  0
 12 17  1  0  0  0  0
 14 15  1  1  0  0  0
 14 18  1  0  0  0  0
 15 31  1  0  0  0  0
 16 20  1  0  0  0  0
 17  2  1  6  0  0  0
 17 22  1  0  0  0  0
 18 19  1  1  0  0  0
 18 24  1  0  0  0  0
 18 30  1  0  0  0  0
 20 21  1  0  0  0  0
 20 26  1  1  0  0  0
 22 23  1  1  0  0  0
 22 28  1  0  0  0  0
 24 25  1  0  0  0  0
 26 27  1  0  0  0  0
 28 29  1  1  0  0  0
M  END
>  <CHROM.1>
-156.06127923,174.22619411,-141.45571772,-159.29177537,-66.78532593,61.43793347
-1.39816010,-8.56652752,31.99880102,0.14819063,1.01768948,0.01447202

>  <Name>
2et3_lig

>  <RI>
2.5794e+07

>  <Rbt.Current_Directory>
/home/itssahil/PROJECTS/Mol_Feturizer/New_Systems/rnas/2et3

>  <Rbt.Executable>
rbdock ($Id: //depot/dev/client3/rdock/2013.1/src/exe/rbdock.cxx#4 $)

>  <Rbt.Library>
libRbt.so (2013.1, Build901 2013/11/27)

>  <Rbt.Parameter_File>
/export/apps/rDock/src/rDock_2013.1_src/data/scripts/dock_solv.prm

>  <Rbt.Receptor>
prm/pocket_docking_5.prm

>  <SCORE>
-28.6701

>  <SCORE.INTER>
-20.2705

>  <SCORE.INTER.CONST>
1

>  <SCORE.INTER.POLAR>
-0.938083

>  <SCORE.INTER.ROT>
6

>  <SCORE.INTER.SOLV>
12.1975

>  <SCORE.INTER.VDW>
-22.0526

>  <SCORE.INTER.norm>
-0.653887

>  <SCORE.INTRA>
-8.39964

>  <SCORE.INTRA.DIHEDRAL>
-16.5469

>  <SCORE.INTRA.DIHEDRAL.0>
22.2484

>  <SCORE.INTRA.POLAR>
0

>  <SCORE.INTRA.POLAR.0>
0

>  <SCORE.INTRA.REPUL>
0

>  <SCORE.INTRA.REPUL.0>
0

>  <SCORE.INTRA.SOLV>
-1.52709

>  <SCORE.INTRA.SOLV.lig_0>
-75.7198

>  <SCORE.INTRA.VDW>
0.637329

>  <SCORE.INTRA.VDW.0>
-3.34171

>  <SCORE.INTRA.norm>
-0.270956

>  <SCORE.RESTR>
0

>  <SCORE.RESTR.CAVITY>
0

>  <SCORE.RESTR.norm>
0

>  <SCORE.SYSTEM>
0

>  <SCORE.SYSTEM.CONST>
0

>  <SCORE.SYSTEM.DIHEDRAL>
0

>  <SCORE.SYSTEM.SOLV>
0

>  <SCORE.SYSTEM.norm>
0

>  <SCORE.heavy>
31

>  <SCORE.norm>
-0.924843

>  <RMSD>
1.495

$$$$
2et3_lig
 OpenBabel11021811423D
libRbt.so/2013.1/901 2013/11/27
 31 33  0  0  0  0  0  0  0  0999 V2000
    0.3515   -6.8635   29.3872 C   0  0  2  0  0  0  0  0  0  0  0  0
   -0.2696   -8.1458   29.1111 O   0  0  0  0  0  0  0  0  0  0  0  0
   -1.9046  -11.1360   31.6978 C   0  0  2  0  0  0  0  0  0  0  0  0
   -1.9919  -12.0819   32.7671 N   0  0  0  0  0  0  0  0  0  0  0  0
   -3.1319  -10.1682   34.3013 C   0  0  2  0  0  0  0  0  0  0  0  0
   -0.1803   -5.8090   28.4107 C   0  0  2  0  0  0  0  0  0  0  0  0
   -1.6061   -5.7669   28.5170 N   0  0  0  0  0  0  0  0  0  0  0  0
   -0.7476  -11.5465   30.7309 C   0  0  0  0  0  0  0  0  0  0  0  0
   -4.1808   -9.3250   35.0592 C   0  0  2  0  0  0  0  0  0  0  0  0
   -5.2731   -9.0766   34.2027 O   0  0  0  0  0  0  0  0  0  0  0  0
    0.2869   -6.1315   26.9502 C   0  0  0  0  0  0  0  0  0  0  0  0
   -0.6386  -10.5067   29.5561 C   0  0  2  0  0  0  0  0  0  0  0  0
    0.4502  -10.8887   28.6427 N   0  0  0  0  0  0  0  0  0  0  0  0
   -3.4826   -7.9833   35.5276 C   0  0  1  0  0  0  0  0  0  0  0  0
   -4.4484   -7.0802   36.2350 N   0  0  0  0  0  0  0  0  0  0  0  0
    1.8478   -6.1263   26.9303 C   0  0  0  0  0  0  0  0  0  0  0  0
   -0.3887   -9.0666   30.1479 C   0  0  2  0  0  0  0  0  0  0  0  0
   -2.2249   -8.3142   36.4933 C   0  0  1  0  0  0  0  0  0  0  0  0
   -2.6409   -8.9749   37.6705 O   0  0  0  0  0  0  0  0  0  0  0  0
    2.3719   -7.2086   27.9736 C   0  0  2  0  0  0  0  0  0  0  0  0
    1.8329   -6.9918   29.3151 O   0  0  0  0  0  0  0  0  0  0  0  0
   -1.5703   -8.6828   31.1198 C   0  0  2  0  0  0  0  0  0  0  0  0
   -1.3661   -7.3825   31.6632 O   0  0  0  0  0  0  0  0  0  0  0  0
   -1.2401   -9.2619   35.7415 C   0  0  0  0  0  0  0  0  0  0  0  0
   -1.9690  -10.4528   35.1908 O   0  0  0  0  0  0  0  0  0  0  0  0
    3.8766   -7.3213   28.0437 C   0  0  0  0  0  0  0  0  0  0  0  0
    4.4249   -7.9137   26.8520 N   0  0  0  0  0  0  0  0  0  0  0  0
   -1.6644   -9.7316   32.2831 C   0  0  1  0  0  0  0  0  0  0  0  0
   -2.7388   -9.3725   33.1434 O   0  0  0  0  0  0  0  0  0  0  0  0
   -1.4265   -7.1162   37.0253 C   0  0  0  0  0  0  0  0  0  0  0  0
   -4.9587   -7.5336   37.5397 C   0  0  0  0  0  0  0  0  0  0  0  0
  1  2  1  6  0  0  0
  1  6  1  0  0  0  0
  1 21  1  0  0  0  0
  3  4  1  1  0  0  0
  3  8  1  0  0  0  0
  3 28  1  0  0  0  0
  5  9  1  0  0  0  0
  5 25  1  0  0  0  0
  5 29  1  6  0  0  0
  6  7  1  6  0  0  0
  6 11  1  0  0  0  0
  8 12  1  0  0  0  0
  9 10  1  6  0  0  0
  9 14  1  0  0  0  0
 11 16  1  0  0  0  0
 12 13  1  6  0  0  0
 12 17  1  0  0  0  0
 14 15  1  1  0  0  0
 14 18  1  0  0  0  0
 15 31  1  0  0  0  0
 16 20  1  0  0  0  0
 17  2  1  6  0  0  0
 17 22  1  0  0  0  0
 18 19  1  1  0  0  0
 18 24  1  0  0  0  0
 18 30  1  0  0  0  0
 20 21  1  0  0  0  0
 20 26  1  1  0  0  0
 22 23  1  1  0  0  0
 22 28  1  0  0  0  0
 24 25  1  0  0  0  0
 26 27  1  0  0  0  0
 28 29  1  1  0  0  0
M  END
>  <CHROM.1>
-153.34833169,171.88390461,67.40517352,-161.67081883,-70.02235786,57.36996385
-1.13659876,-8.50734843,31.92651714,0.02051060,1.02538473,0.14684942

>  <Name>
2et3_lig

>  <RI>
0

>  <Rbt.Current_Directory>
/home/itssahil/PROJECTS/Mol_Feturizer/New_Systems/rnas/2et3

>  <Rbt.Executable>
rbdock ($Id: //depot/dev/client3/rdock/2013.1/src/exe/rbdock.cxx#4 $)

>  <Rbt.Library>
libRbt.so (2013.1, Build901 2013/11/27)

>  <Rbt.Parameter_File>
/export/apps/rDock/src/rDock_2013.1_src/data/scripts/dock_solv.prm

>  <Rbt.Receptor>
prm/pocket_docking_3.prm

>  <SCORE>
-25.2603

>  <SCORE.INTER>
-19.3209

>  <SCORE.INTER.CONST>
1

>  <SCORE.INTER.POLAR>
-0.938083

>  <SCORE.INTER.ROT>
6

>  <SCORE.INTER.SOLV>
13.1977

>  <SCORE.INTER.VDW>
-21.7529

>  <SCORE.INTER.norm>
-0.623256

>  <SCORE.INTRA>
-5.93933

>  <SCORE.INTRA.DIHEDRAL>
-16.8926

>  <SCORE.INTRA.DIHEDRAL.0>
22.2484

>  <SCORE.INTRA.POLAR>
0

>  <SCORE.INTRA.POLAR.0>
0

>  <SCORE.INTRA.REPUL>
0

>  <SCORE.INTRA.REPUL.0>
0

>  <SCORE.INTRA.SOLV>
-1.11233

>  <SCORE.INTRA.SOLV.lig_0>
-75.7198

>  <SCORE.INTRA.VDW>
3.06313

>  <SCORE.INTRA.VDW.0>
-3.34171

>  <SCORE.INTRA.norm>
-0.191591

>  <SCORE.RESTR>
0

>  <SCORE.RESTR.CAVITY>
0

>  <SCORE.RESTR.norm>
0

>  <SCORE.SYSTEM>
0

>  <SCORE.SYSTEM.CONST>
0

>  <SCORE.SYSTEM.DIHEDRAL>
0

>  <SCORE.SYSTEM.SOLV>
0

>  <SCORE.SYSTEM.norm>
0

>  <SCORE.heavy>
31

>  <SCORE.norm>
-0.814848

>  <RMSD>
1.500

$$$$
2et3_lig
 OpenBabel11021811423D
libRbt.so/2013.1/901 2013/11/27
 31 33  0  0  0  0  0  0  0  0999 V2000
    0.1028   -6.9807   29.5996 C   0  0  2  0  0  0  0  0  0  0  0  0
   -0.5603   -8.2284   29.2681 O   0  0  0  0  0  0  0  0  0  0  0  0
   -2.2046  -11.3290   31.7153 C   0  0  2  0  0  0  0  0  0  0  0  0
   -2.2902  -12.3320   32.7312 N   0  0  0  0  0  0  0  0  0  0  0  0
   -3.2916  -10.4307   34.4552 C   0  0  2  0  0  0  0  0  0  0  0  0
   -0.4301   -5.8569   28.7044 C   0  0  2  0  0  0  0  0  0  0  0  0
   -1.8504   -5.7859   28.8583 N   0  0  0  0  0  0  0  0  0  0  0  0
   -1.0747  -11.7058   30.7036 C   0  0  0  0  0  0  0  0  0  0  0  0
   -4.4085   -9.6644   35.1973 C   0  0  2  0  0  0  0  0  0  0  0  0
   -5.5221   -9.5376   34.3415 O   0  0  0  0  0  0  0  0  0  0  0  0
   -0.0160   -6.1028   27.2133 C   0  0  0  0  0  0  0  0  0  0  0  0
   -0.9675  -10.6034   29.5872 C   0  0  2  0  0  0  0  0  0  0  0  0
    0.0958  -10.9534   28.6319 N   0  0  0  0  0  0  0  0  0  0  0  0
   -3.8311   -8.2536   35.6255 C   0  0  1  0  0  0  0  0  0  0  0  0
   -4.8709   -7.4215   36.3149 N   0  0  0  0  0  0  0  0  0  0  0  0
    1.5431   -6.1350   27.1442 C   0  0  0  0  0  0  0  0  0  0  0  0
   -0.6778   -9.2040   30.2537 C   0  0  2  0  0  0  0  0  0  0  0  0
   -2.5450   -8.4448   36.5915 C   0  0  1  0  0  0  0  0  0  0  0  0
   -2.8955   -9.1080   37.7885 O   0  0  0  0  0  0  0  0  0  0  0  0
    2.0696   -7.2905   28.1046 C   0  0  2  0  0  0  0  0  0  0  0  0
    1.5774   -7.1411   29.4730 O   0  0  0  0  0  0  0  0  0  0  0  0
   -1.8327   -8.8537   31.2693 C   0  0  2  0  0  0  0  0  0  0  0  0
   -1.5924   -7.5903   31.8807 O   0  0  0  0  0  0  0  0  0  0  0  0
   -1.4824   -9.3209   35.8587 C   0  0  0  0  0  0  0  0  0  0  0  0
   -2.1042  -10.5864   35.3445 O   0  0  0  0  0  0  0  0  0  0  0  0
    3.5723   -7.4444   28.1201 C   0  0  0  0  0  0  0  0  0  0  0  0
    4.0762   -7.9038   26.8525 N   0  0  0  0  0  0  0  0  0  0  0  0
   -1.9254   -9.9647   32.3735 C   0  0  1  0  0  0  0  0  0  0  0  0
   -2.9758   -9.6347   33.2742 O   0  0  0  0  0  0  0  0  0  0  0  0
   -1.8547   -7.1665   37.0864 C   0  0  0  0  0  0  0  0  0  0  0  0
   -4.8896   -5.9815   36.0082 C   0  0  0  0  0  0  0  0  0  0  0  0
  1  2  1  6  0  0  0
  1  6  1  0  0  0  0
  1 21  1  0  0  0  0
  3  4  1  1  0  0  0
  3  8  1  0  0  0  0
  3 28  1  0  0  0  0
  5  9  1  0  0  0  0
  5 25  1  0  0  0  0
  5 29  1  6  0  0  0
  6  7  1  6  0  0  0
  6 11  1  0  0  0  0
  8 12  1  0  0  0  0
  9 10  1  6  0  0  0
  9 14  1  0  0  0  0
 11 16  1  0  0  0  0
 12 13  1  6  0  0  0
 12 17  1  0  0  0  0
 14 15  1  1  0  0  0
 14 18  1  0  0  0  0
 15 31  1  0  0  0  0
 16 20  1  0  0  0  0
 17  2  1  6  0  0  0
 17 22  1  0  0  0  0
 18 19  1  1  0  0  0
 18 24  1  0  0  0  0
 18 30  1  0  0  0  0
 20 21  1  0  0  0  0
 20 26  1  1  0  0  0
 22 23  1  1  0  0  0
 22 28  1  0  0  0  0
 24 25  1  0  0  0  0
 26 27  1  0  0  0  0
 28 29  1  1  0  0  0
M  END
>  <CHROM.1>
-153.06018009,175.68007696,-140.98933676,-161.08509210,-66.64088160,62.51498699
-1.40755121,-8.60124209,31.99288583,0.05430559,1.01692098,0.11506832

>  <Name>
2et3_lig

>  <RI>
3.50789e+07

>  <Rbt.Current_Directory>
/home/itssahil/PROJECTS/Mol_Feturizer/New_Systems/rnas/2et3

>  <Rbt.Executable>
rbdock ($Id: //depot/dev/client3/rdock/2013.1/src/exe/rbdock.cxx#4 $)

>  <Rbt.Library>
libRbt.so (2013.1, Build901 2013/11/27)

>  <Rbt.Parameter_File>
/export/apps/rDock/src/rDock_2013.1_src/data/scripts/dock_solv.prm

>  <Rbt.Receptor>
prm/pocket_docking_4.prm

>  <SCORE>
-28.4994

>  <SCORE.INTER>
-20.1752

>  <SCORE.INTER.CONST>
1

>  <SCORE.INTER.POLAR>
-0.938083

>  <SCORE.INTER.ROT>
6

>  <SCORE.INTER.SOLV>
11.4861

>  <SCORE.INTER.VDW>
-21.7519

>  <SCORE.INTER.norm>
-0.650812

>  <SCORE.INTRA>
-8.32424

>  <SCORE.INTRA.DIHEDRAL>
-16.3383

>  <SCORE.INTRA.DIHEDRAL.0>
22.2484

>  <SCORE.INTRA.POLAR>
0

>  <SCORE.INTRA.POLAR.0>
0

>  <SCORE.INTRA.REPUL>
0

>  <SCORE.INTRA.REPUL.0>
0

>  <SCORE.INTRA.SOLV>
-1.56981

>  <SCORE.INTRA.SOLV.lig_0>
-75.7198

>  <SCORE.INTRA.VDW>
0.629801

>  <SCORE.INTRA.VDW.0>
-3.34171

>  <SCORE.INTRA.norm>
-0.268524

>  <SCORE.RESTR>
0

>  <SCORE.RESTR.CAVITY>
0

>  <SCORE.RESTR.norm>
0

>  <SCORE.SYSTEM>
0

>  <SCORE.SYSTEM.CONST>
0

>  <SCORE.SYSTEM.DIHEDRAL>
0

>  <SCORE.SYSTEM.SOLV>
0

>  <SCORE.SYSTEM.norm>
0

>  <SCORE.heavy>
31

>  <SCORE.norm>
-0.919336

>  <RMSD>
1.506

$$$$
2et3_lig
 OpenBabel11021811423D
libRbt.so/2013.1/901 2013/11/27
 31 33  0  0  0  0  0  0  0  0999 V2000
    0.0865   -6.9571   29.5513 C   0  0  2  0  0  0  0  0  0  0  0  0
   -0.5765   -8.2088   29.2352 O   0  0  0  0  0  0  0  0  0  0  0  0
   -2.1906  -11.3014   31.7125 C   0  0  2  0  0  0  0  0  0  0  0  0
   -2.2660  -12.2961   32.7374 N   0  0  0  0  0  0  0  0  0  0  0  0
   -3.3007  -10.4055   34.4291 C   0  0  2  0  0  0  0  0  0  0  0  0
   -0.4365   -5.8473   28.6331 C   0  0  2  0  0  0  0  0  0  0  0  0
   -1.8579   -5.7709   28.7738 N   0  0  0  0  0  0  0  0  0  0  0  0
   -1.0591  -11.6776   30.7022 C   0  0  0  0  0  0  0  0  0  0  0  0
   -4.4080   -9.6331   35.1795 C   0  0  2  0  0  0  0  0  0  0  0  0
   -5.5191   -9.4815   34.3246 O   0  0  0  0  0  0  0  0  0  0  0  0
   -0.0105   -6.1190   27.1498 C   0  0  0  0  0  0  0  0  0  0  0  0
   -0.9631  -10.5843   29.5760 C   0  0  2  0  0  0  0  0  0  0  0  0
    0.1016  -10.9337   28.6220 N   0  0  0  0  0  0  0  0  0  0  0  0
   -3.8121   -8.2353   35.6245 C   0  0  1  0  0  0  0  0  0  0  0  0
   -4.8413   -7.3976   36.3230 N   0  0  0  0  0  0  0  0  0  0  0  0
    1.5491   -6.1556   27.0943 C   0  0  0  0  0  0  0  0  0  0  0  0
   -0.6842   -9.1766   30.2296 C   0  0  2  0  0  0  0  0  0  0  0  0
   -2.5294   -8.4547   36.5889 C   0  0  1  0  0  0  0  0  0  0  0  0
   -2.8895   -9.1272   37.7779 O   0  0  0  0  0  0  0  0  0  0  0  0
    2.0650   -7.2959   28.0783 C   0  0  2  0  0  0  0  0  0  0  0  0
    1.5617   -7.1225   29.4398 O   0  0  0  0  0  0  0  0  0  0  0  0
   -1.8404   -8.8271   31.2440 C   0  0  2  0  0  0  0  0  0  0  0  0
   -1.6098   -7.5563   31.8438 O   0  0  0  0  0  0  0  0  0  0  0  0
   -1.4780   -9.3362   35.8465 C   0  0  0  0  0  0  0  0  0  0  0  0
   -2.1162  -10.5873   35.3172 O   0  0  0  0  0  0  0  0  0  0  0  0
    3.5671   -7.4526   28.1090 C   0  0  0  0  0  0  0  0  0  0  0  0
    4.0782   -7.9560   26.8611 N   0  0  0  0  0  0  0  0  0  0  0  0
   -1.9219   -9.9290   32.3582 C   0  0  1  0  0  0  0  0  0  0  0  0
   -2.9736   -9.6000   33.2576 O   0  0  0  0  0  0  0  0  0  0  0  0
   -1.8225   -7.1916   37.0991 C   0  0  0  0  0  0  0  0  0  0  0  0
   -4.8016   -5.9456   36.0810 C   0  0  0  0  0  0  0  0  0  0  0  0
  1  2  1  6  0  0  0
  1  6  1  0  0  0  0
  1 21  1  0  0  0  0
  3  4  1  1  0  0  0
  3  8  1  0  0  0  0
  3 28  1  0  0  0  0
  5  9  1  0  0  0  0
  5 25  1  0  0  0  0
  5 29  1  6  0  0  0
  6  7  1  6  0  0  0
  6 11  1  0  0  0  0
  8 12  1  0  0  0  0
  9 10  1  6  0  0  0
  9 14  1  0  0  0  0
 11 16  1  0  0  0  0
 12 13  1  6  0  0  0
 12 17  1  0  0  0  0
 14 15  1  1  0  0  0
 14 18  1  0  0  0  0
 15 31  1  0  0  0  0
 16 20  1  0  0  0  0
 17  2  1  6  0  0  0
 17 22  1  0  0  0  0
 18 19  1  1  0  0  0
 18 24  1  0  0  0  0
 18 30  1  0  0  0  0
 20 21  1  0  0  0  0
 20 26  1  1  0  0  0
 22 23  1  1  0  0  0
 22 28  1  0  0  0  0
 24 25  1  0  0  0  0
 26 27  1  0  0  0  0
 28 29  1  1  0  0  0
M  END
>  <CHROM.1>
-154.14234063,175.29589012,-143.71289558,-160.57366644,-67.63665102,61.03667738
-1.40252461,-8.58849413,31.97463866,0.06719599,1.02133315,0.09716548

>  <Name>
2et3_lig

>  <RI>
3.50789e+07

>  <Rbt.Current_Directory>
/home/itssahil/PROJECTS/Mol_Feturizer/New_Systems/rnas/2et3

>  <Rbt.Executable>
rbdock ($Id: //depot/dev/client3/rdock/2013.1/src/exe/rbdock.cxx#4 $)

>  <Rbt.Library>
libRbt.so (2013.1, Build901 2013/11/27)

>  <Rbt.Parameter_File>
/export/apps/rDock/src/rDock_2013.1_src/data/scripts/dock_solv.prm

>  <Rbt.Receptor>
prm/pocket_docking_4.prm

>  <SCORE>
-28.4446

>  <SCORE.INTER>
-20.1947

>  <SCORE.INTER.CONST>
1

>  <SCORE.INTER.POLAR>
-0.938083

>  <SCORE.INTER.ROT>
6

>  <SCORE.INTER.SOLV>
11.4491

>  <SCORE.INTER.VDW>
-21.7525

>  <SCORE.INTER.norm>
-0.651441

>  <SCORE.INTRA>
-8.24993

>  <SCORE.INTRA.DIHEDRAL>
-16.4964

>  <SCORE.INTRA.DIHEDRAL.0>
22.2484

>  <SCORE.INTRA.POLAR>
0

>  <SCORE.INTRA.POLAR.0>
0

>  <SCORE.INTRA.REPUL>
0

>  <SCORE.INTRA.REPUL.0>
0

>  <SCORE.INTRA.SOLV>
-1.53472

>  <SCORE.INTRA.SOLV.lig_0>
-75.7198

>  <SCORE.INTRA.VDW>
0.765625

>  <SCORE.INTRA.VDW.0>
-3.34171

>  <SCORE.INTRA.norm>
-0.266127

>  <SCORE.RESTR>
0

>  <SCORE.RESTR.CAVITY>
0

>  <SCORE.RESTR.norm>
0

>  <SCORE.SYSTEM>
0

>  <SCORE.SYSTEM.CONST>
0

>  <SCORE.SYSTEM.DIHEDRAL>
0

>  <SCORE.SYSTEM.SOLV>
0

>  <SCORE.SYSTEM.norm>
0

>  <SCORE.heavy>
31

>  <SCORE.norm>
-0.917568

>  <RMSD>
1.524

$$$$
2et3_lig
 OpenBabel11021811423D
libRbt.so/2013.1/901 2013/11/27
 31 33  0  0  0  0  0  0  0  0999 V2000
    0.0221   -6.9885   29.5614 C   0  0  2  0  0  0  0  0  0  0  0  0
   -0.6372   -8.2450   29.2570 O   0  0  0  0  0  0  0  0  0  0  0  0
   -2.2191  -11.3433   31.7479 C   0  0  2  0  0  0  0  0  0  0  0  0
   -2.2859  -12.3307   32.7805 N   0  0  0  0  0  0  0  0  0  0  0  0
   -3.3534  -10.4340   34.4581 C   0  0  2  0  0  0  0  0  0  0  0  0
   -0.4937   -5.8920   28.6235 C   0  0  2  0  0  0  0  0  0  0  0  0
   -1.9164   -5.8148   28.7510 N   0  0  0  0  0  0  0  0  0  0  0  0
   -1.0741  -11.7091   30.7492 C   0  0  0  0  0  0  0  0  0  0  0  0
   -4.4558   -9.6561   35.2099 C   0  0  2  0  0  0  0  0  0  0  0  0
   -5.5762   -9.5196   34.3646 O   0  0  0  0  0  0  0  0  0  0  0  0
   -0.0550   -6.1838   27.1478 C   0  0  0  0  0  0  0  0  0  0  0  0
   -0.9875  -10.6236   29.6146 C   0  0  2  0  0  0  0  0  0  0  0  0
    0.0899  -10.9634   28.6715 N   0  0  0  0  0  0  0  0  0  0  0  0
   -3.8608   -8.2505   35.6308 C   0  0  1  0  0  0  0  0  0  0  0  0
   -4.8859   -7.4077   36.3291 N   0  0  0  0  0  0  0  0  0  0  0  0
    1.5051   -6.2198   27.1061 C   0  0  0  0  0  0  0  0  0  0  0  0
   -0.7366   -9.2063   30.2586 C   0  0  2  0  0  0  0  0  0  0  0  0
   -2.5674   -8.4528   36.5847 C   0  0  1  0  0  0  0  0  0  0  0  0
   -2.9128   -9.1113   37.7858 O   0  0  0  0  0  0  0  0  0  0  0  0
    2.0134   -7.3460   28.1101 C   0  0  2  0  0  0  0  0  0  0  0  0
    1.4984   -7.1543   29.4648 O   0  0  0  0  0  0  0  0  0  0  0  0
   -1.9058   -8.8675   31.2616 C   0  0  2  0  0  0  0  0  0  0  0  0
   -1.7006   -7.5883   31.8525 O   0  0  0  0  0  0  0  0  0  0  0  0
   -1.5204   -9.3399   35.8429 C   0  0  0  0  0  0  0  0  0  0  0  0
   -2.1592  -10.6001   35.3362 O   0  0  0  0  0  0  0  0  0  0  0  0
    3.5153   -7.5010   28.1557 C   0  0  0  0  0  0  0  0  0  0  0  0
    4.0459   -7.9465   26.8940 N   0  0  0  0  0  0  0  0  0  0  0  0
   -1.9777   -9.9615   32.3842 C   0  0  1  0  0  0  0  0  0  0  0  0
   -3.0413   -9.6424   33.2731 O   0  0  0  0  0  0  0  0  0  0  0  0
   -1.8602   -7.1806   37.0714 C   0  0  0  0  0  0  0  0  0  0  0  0
   -4.8980   -5.9689   36.0160 C   0  0  0  0  0  0  0  0  0  0  0  0
  1  2  1  6  0  0  0
  1  6  1  0  0  0  0
  1 21  1  0  0  0  0
  3  4  1  1  0  0  0
  3  8  1  0  0  0  0
  3 28  1  0  0  0  0
  5  9  1  0  0  0  0
  5 25  1  0  0  0  0
  5 29  1  6  0  0  0
  6  7  1  6  0  0  0
  6 11  1  0  0  0  0
  8 12  1  0  0  0  0
  9 10  1  6  0  0  0
  9 14  1  0  0  0  0
 11 16  1  0  0  0  0
 12 13  1  6  0  0  0
 12 17  1  0  0  0  0
 14 15  1  1  0  0  0
 14 18  1  0  0  0  0
 15 31  1  0  0  0  0
 16 20  1  0  0  0  0
 17  2  1  6  0  0  0
 17 22  1  0  0  0  0
 18 19  1  1  0  0  0
 18 24  1  0  0  0  0
 18 30  1  0  0  0  0
 20 21  1  0  0  0  0
 20 26  1  1  0  0  0
 22 23  1  1  0  0  0
 22 28  1  0  0  0  0
 24 25  1  0  0  0  0
 26 27  1  0  0  0  0
 28 29  1  1  0  0  0
M  END
>  <CHROM.1>
-155.00732582,173.77865351,-140.70826750,-159.58634742,-64.23241870,61.83641227
-1.45104687,-8.61685704,31.99035358,0.08783871,1.01854210,0.07098883

>  <Name>
2et3_lig

>  <RI>
3.50789e+07

>  <Rbt.Current_Directory>
/home/itssahil/PROJECTS/Mol_Feturizer/New_Systems/rnas/2et3

>  <Rbt.Executable>
rbdock ($Id: //depot/dev/client3/rdock/2013.1/src/exe/rbdock.cxx#4 $)

>  <Rbt.Library>
libRbt.so (2013.1, Build901 2013/11/27)

>  <Rbt.Parameter_File>
/export/apps/rDock/src/rDock_2013.1_src/data/scripts/dock_solv.prm

>  <Rbt.Receptor>
prm/pocket_docking_4.prm

>  <SCORE>
-28.5392

>  <SCORE.INTER>
-20.2322

>  <SCORE.INTER.CONST>
1

>  <SCORE.INTER.POLAR>
-0.938083

>  <SCORE.INTER.ROT>
6

>  <SCORE.INTER.SOLV>
11.3479

>  <SCORE.INTER.VDW>
-21.7439

>  <SCORE.INTER.norm>
-0.652653

>  <SCORE.INTRA>
-8.30697

>  <SCORE.INTRA.DIHEDRAL>
-16.4445

>  <SCORE.INTRA.DIHEDRAL.0>
22.2484

>  <SCORE.INTRA.POLAR>
0

>  <SCORE.INTRA.POLAR.0>
0

>  <SCORE.INTRA.REPUL>
0

>  <SCORE.INTRA.REPUL.0>
0

>  <SCORE.INTRA.SOLV>
-1.47604

>  <SCORE.INTRA.SOLV.lig_0>
-75.7198

>  <SCORE.INTRA.VDW>
0.65332

>  <SCORE.INTRA.VDW.0>
-3.34171

>  <SCORE.INTRA.norm>
-0.267967

>  <SCORE.RESTR>
0

>  <SCORE.RESTR.CAVITY>
0

>  <SCORE.RESTR.norm>
0

>  <SCORE.SYSTEM>
0

>  <SCORE.SYSTEM.CONST>
0

>  <SCORE.SYSTEM.DIHEDRAL>
0

>  <SCORE.SYSTEM.SOLV>
0

>  <SCORE.SYSTEM.norm>
0

>  <SCORE.heavy>
31

>  <SCORE.norm>
-0.92062

>  <RMSD>
1.524

$$$$
2et3_lig
 OpenBabel11021811423D
libRbt.so/2013.1/901 2013/11/27
 31 33  0  0  0  0  0  0  0  0999 V2000
   -0.0809   -6.7552   29.4467 C   0  0  2  0  0  0  0  0  0  0  0  0
   -0.6527   -8.0590   29.1648 O   0  0  0  0  0  0  0  0  0  0  0  0
   -1.9879  -11.2352   31.7016 C   0  0  2  0  0  0  0  0  0  0  0  0
   -1.9773  -12.2100   32.7481 N   0  0  0  0  0  0  0  0  0  0  0  0
   -3.2344  -10.4255   34.3569 C   0  0  2  0  0  0  0  0  0  0  0  0
   -0.6242   -5.7248   28.4511 C   0  0  2  0  0  0  0  0  0  0  0  0
   -2.0528   -5.7293   28.5239 N   0  0  0  0  0  0  0  0  0  0  0  0
   -0.8185  -11.5251   30.7063 C   0  0  0  0  0  0  0  0  0  0  0  0
   -4.3648   -9.7094   35.1283 C   0  0  2  0  0  0  0  0  0  0  0  0
   -5.4834   -9.5758   34.2801 O   0  0  0  0  0  0  0  0  0  0  0  0
   -0.1126   -6.0402   27.0040 C   0  0  0  0  0  0  0  0  0  0  0  0
   -0.8170  -10.4523   29.5564 C   0  0  2  0  0  0  0  0  0  0  0  0
    0.2830  -10.7207   28.6164 N   0  0  0  0  0  0  0  0  0  0  0  0
   -3.8156   -8.3030   35.6048 C   0  0  1  0  0  0  0  0  0  0  0  0
   -4.8704   -7.5177   36.3257 N   0  0  0  0  0  0  0  0  0  0  0  0
    1.4473   -5.9833   27.0203 C   0  0  0  0  0  0  0  0  0  0  0  0
   -0.6766   -9.0108   30.1800 C   0  0  2  0  0  0  0  0  0  0  0  0
   -2.5229   -8.5012   36.5605 C   0  0  1  0  0  0  0  0  0  0  0  0
   -2.8558   -9.2136   37.7340 O   0  0  0  0  0  0  0  0  0  0  0  0
    1.9823   -7.0414   28.0827 C   0  0  2  0  0  0  0  0  0  0  0  0
    1.4052   -6.8346   29.4099 O   0  0  0  0  0  0  0  0  0  0  0  0
   -1.8681   -8.7496   31.1800 C   0  0  2  0  0  0  0  0  0  0  0  0
   -1.7624   -7.4501   31.7525 O   0  0  0  0  0  0  0  0  0  0  0  0
   -1.4445   -9.3284   35.7947 C   0  0  0  0  0  0  0  0  0  0  0  0
   -2.0414  -10.5877   35.2374 O   0  0  0  0  0  0  0  0  0  0  0  0
    3.4879   -7.1037   28.1885 C   0  0  0  0  0  0  0  0  0  0  0  0
    4.0879   -7.6193   26.9860 N   0  0  0  0  0  0  0  0  0  0  0  0
   -1.8542   -9.8299   32.3180 C   0  0  1  0  0  0  0  0  0  0  0  0
   -2.9389   -9.5818   33.2041 O   0  0  0  0  0  0  0  0  0  0  0  0
   -1.8578   -7.2270   37.0988 C   0  0  0  0  0  0  0  0  0  0  0  0
   -4.8432   -6.0541   36.1671 C   0  0  0  0  0  0  0  0  0  0  0  0
  1  2  1  6  0  0  0
  1  6  1  0  0  0  0
  1 21  1  0  0  0  0
  3  4  1  1  0  0  0
  3  8  1  0  0  0  0
  3 28  1  0  0  0  0
  5  9  1  0  0  0  0
  5 25  1  0  0  0  0
  5 29  1  6  0  0  0
  6  7  1  6  0  0  0
  6 11  1  0  0  0  0
  8 12  1  0  0  0  0
  9 10  1  6  0  0  0
  9 14  1  0  0  0  0
 11 16  1  0  0  0  0
 12 13  1  6  0  0  0
 12 17  1  0  0  0  0
 14 15  1  1  0  0  0
 14 18  1  0  0  0  0
 15 31  1  0  0  0  0
 16 20  1  0  0  0  0
 17  2  1  6  0  0  0
 17 22  1  0  0  0  0
 18 19  1  1  0  0  0
 18 24  1  0  0  0  0
 18 30  1  0  0  0  0
 20 21  1  0  0  0  0
 20 26  1  1  0  0  0
 22 23  1  1  0  0  0
 22 28  1  0  0  0  0
 24 25  1  0  0  0  0
 26 27  1  0  0  0  0
 28 29  1  1  0  0  0
M  END
>  <CHROM.1>
-157.96495391,173.28352053,-146.42864044,-158.99619625,-66.96662174,58.11775997
-1.40271725,-8.51010606,31.93375667,0.23450267,1.02181035,-0.06231199

>  <Name>
2et3_lig

>  <RI>
2.5794e+07

>  <Rbt.Current_Directory>
/home/itssahil/PROJECTS/Mol_Feturizer/New_Systems/rnas/2et3

>  <Rbt.Executable>
rbdock ($Id: //depot/dev/client3/rdock/2013.1/src/exe/rbdock.cxx#4 $)

>  <Rbt.Library>
libRbt.so (2013.1, Build901 2013/11/27)

>  <Rbt.Parameter_File>
/export/apps/rDock/src/rDock_2013.1_src/data/scripts/dock_solv.prm

>  <Rbt.Receptor>
prm/pocket_docking_5.prm

>  <SCORE>
-28.5233

>  <SCORE.INTER>
-20.3711

>  <SCORE.INTER.CONST>
1

>  <SCORE.INTER.POLAR>
-0.938083

>  <SCORE.INTER.ROT>
6

>  <SCORE.INTER.SOLV>
12.9479

>  <SCORE.INTER.VDW>
-22.3697

>  <SCORE.INTER.norm>
-0.657131

>  <SCORE.INTRA>
-8.15229

>  <SCORE.INTRA.DIHEDRAL>
-16.9032

>  <SCORE.INTRA.DIHEDRAL.0>
22.2484

>  <SCORE.INTRA.POLAR>
0

>  <SCORE.INTRA.POLAR.0>
0

>  <SCORE.INTRA.REPUL>
0

>  <SCORE.INTRA.REPUL.0>
0

>  <SCORE.INTRA.SOLV>
-1.43311

>  <SCORE.INTRA.SOLV.lig_0>
-75.7198

>  <SCORE.INTRA.VDW>
1.01586

>  <SCORE.INTRA.VDW.0>
-3.34171

>  <SCORE.INTRA.norm>
-0.262977

>  <SCORE.RESTR>
0

>  <SCORE.RESTR.CAVITY>
0

>  <SCORE.RESTR.norm>
0

>  <SCORE.SYSTEM>
0

>  <SCORE.SYSTEM.CONST>
0

>  <SCORE.SYSTEM.DIHEDRAL>
0

>  <SCORE.SYSTEM.SOLV>
0

>  <SCORE.SYSTEM.norm>
0

>  <SCORE.heavy>
31

>  <SCORE.norm>
-0.920108

>  <RMSD>
1.531

$$$$
2et3_lig
 OpenBabel11021811423D
libRbt.so/2013.1/901 2013/11/27
 31 33  0  0  0  0  0  0  0  0999 V2000
    0.0018   -6.8548   29.4637 C   0  0  2  0  0  0  0  0  0  0  0  0
   -0.6374   -8.1252   29.1745 O   0  0  0  0  0  0  0  0  0  0  0  0
   -2.1693  -11.2123   31.7102 C   0  0  2  0  0  0  0  0  0  0  0  0
   -2.2186  -12.1891   32.7537 N   0  0  0  0  0  0  0  0  0  0  0  0
   -3.3385  -10.3255   34.3791 C   0  0  2  0  0  0  0  0  0  0  0  0
   -0.5179   -5.7820   28.5006 C   0  0  2  0  0  0  0  0  0  0  0  0
   -1.9428   -5.7217   28.6111 N   0  0  0  0  0  0  0  0  0  0  0  0
   -1.0281  -11.5772   30.7069 C   0  0  0  0  0  0  0  0  0  0  0  0
   -4.4325   -9.5489   35.1444 C   0  0  2  0  0  0  0  0  0  0  0  0
   -5.5408   -9.3621   34.2929 O   0  0  0  0  0  0  0  0  0  0  0  0
   -0.0588   -6.0941   27.0353 C   0  0  0  0  0  0  0  0  0  0  0  0
   -0.9609  -10.5032   29.5601 C   0  0  2  0  0  0  0  0  0  0  0  0
    0.1129  -10.8422   28.6127 N   0  0  0  0  0  0  0  0  0  0  0  0
   -3.8129   -8.1703   35.6160 C   0  0  1  0  0  0  0  0  0  0  0  0
   -4.8277   -7.3287   36.3307 N   0  0  0  0  0  0  0  0  0  0  0  0
    1.5020   -6.1099   27.0114 C   0  0  0  0  0  0  0  0  0  0  0  0
   -0.7196   -9.0766   30.1871 C   0  0  2  0  0  0  0  0  0  0  0  0
   -2.5342   -8.4301   36.5757 C   0  0  1  0  0  0  0  0  0  0  0  0
   -2.9059   -9.1190   37.7516 O   0  0  0  0  0  0  0  0  0  0  0  0
    2.0139   -7.2112   28.0409 C   0  0  2  0  0  0  0  0  0  0  0  0
    1.4811   -7.0024   29.3863 O   0  0  0  0  0  0  0  0  0  0  0  0
   -1.8848   -8.7388   31.1950 C   0  0  2  0  0  0  0  0  0  0  0  0
   -1.6882   -7.4513   31.7707 O   0  0  0  0  0  0  0  0  0  0  0  0
   -1.4979   -9.3149   35.8163 C   0  0  0  0  0  0  0  0  0  0  0  0
   -2.1573  -10.5446   35.2632 O   0  0  0  0  0  0  0  0  0  0  0  0
    3.5171   -7.3452   28.1059 C   0  0  0  0  0  0  0  0  0  0  0  0
    4.0605   -7.8732   26.8821 N   0  0  0  0  0  0  0  0  0  0  0  0
   -1.9373   -9.8213   32.3298 C   0  0  1  0  0  0  0  0  0  0  0  0
   -2.9975   -9.5033   33.2232 O   0  0  0  0  0  0  0  0  0  0  0  0
   -1.8060   -7.1891   37.1099 C   0  0  0  0  0  0  0  0  0  0  0  0
   -4.8772   -5.8984   35.9844 C   0  0  0  0  0  0  0  0  0  0  0  0
  1  2  1  6  0  0  0
  1  6  1  0  0  0  0
  1 21  1  0  0  0  0
  3  4  1  1  0  0  0
  3  8  1  0  0  0  0
  3 28  1  0  0  0  0
  5  9  1  0  0  0  0
  5 25  1  0  0  0  0
  5 29  1  6  0  0  0
  6  7  1  6  0  0  0
  6 11  1  0  0  0  0
  8 12  1  0  0  0  0
  9 10  1  6  0  0  0
  9 14  1  0  0  0  0
 11 16  1  0  0  0  0
 12 13  1  6  0  0  0
 12 17  1  0  0  0  0
 14 15  1  1  0  0  0
 14 18  1  0  0  0  0
 15 31  1  0  0  0  0
 16 20  1  0  0  0  0
 17  2  1  6  0  0  0
 17 22  1  0  0  0  0
 18 19  1  1  0  0  0
 18 24  1  0  0  0  0
 18 30  1  0  0  0  0
 20 21  1  0  0  0  0
 20 26  1  1  0  0  0
 22 23  1  1  0  0  0
 22 28  1  0  0  0  0
 24 25  1  0  0  0  0
 26 27  1  0  0  0  0
 28 29  1  1  0  0  0
M  END
>  <CHROM.1>
-155.84129194,174.22770057,-135.99777681,-160.07533783,-67.31276648,58.42689695
-1.43226147,-8.51444040,31.93323766,0.14335714,1.02320516,0.01248972

>  <Name>
2et3_lig

>  <RI>
3.50789e+07

>  <Rbt.Current_Directory>
/home/itssahil/PROJECTS/Mol_Feturizer/New_Systems/rnas/2et3

>  <Rbt.Executable>
rbdock ($Id: //depot/dev/client3/rdock/2013.1/src/exe/rbdock.cxx#4 $)

>  <Rbt.Library>
libRbt.so (2013.1, Build901 2013/11/27)

>  <Rbt.Parameter_File>
/export/apps/rDock/src/rDock_2013.1_src/data/scripts/dock_solv.prm

>  <Rbt.Receptor>
prm/pocket_docking_4.prm

>  <SCORE>
-28.4431

>  <SCORE.INTER>
-20.2335

>  <SCORE.INTER.CONST>
1

>  <SCORE.INTER.POLAR>
-0.938083

>  <SCORE.INTER.ROT>
6

>  <SCORE.INTER.SOLV>
11.4671

>  <SCORE.INTER.VDW>
-21.7844

>  <SCORE.INTER.norm>
-0.652694

>  <SCORE.INTRA>
-8.21452

>  <SCORE.INTRA.DIHEDRAL>
-16.4696

>  <SCORE.INTRA.DIHEDRAL.0>
22.2484

>  <SCORE.INTRA.POLAR>
0

>  <SCORE.INTRA.POLAR.0>
0

>  <SCORE.INTRA.REPUL>
0

>  <SCORE.INTRA.REPUL.0>
0

>  <SCORE.INTRA.SOLV>
-1.4365

>  <SCORE.INTRA.SOLV.lig_0>
-75.7198

>  <SCORE.INTRA.VDW>
0.738544

>  <SCORE.INTRA.VDW.0>
-3.34171

>  <SCORE.INTRA.norm>
-0.264985

>  <SCORE.RESTR>
0.00488369

>  <SCORE.RESTR.CAVITY>
0.00488369

>  <SCORE.RESTR.norm>
0.000157538

>  <SCORE.SYSTEM>
0

>  <SCORE.SYSTEM.CONST>
0

>  <SCORE.SYSTEM.DIHEDRAL>
0

>  <SCORE.SYSTEM.SOLV>
0

>  <SCORE.SYSTEM.norm>
0

>  <SCORE.heavy>
31

>  <SCORE.norm>
-0.917521

>  <RMSD>
1.544

$$$$
2et3_lig
 OpenBabel11021811423D
libRbt.so/2013.1/901 2013/11/27
 31 33  0  0  0  0  0  0  0  0999 V2000
   -0.1195   -6.8565   29.4159 C   0  0  2  0  0  0  0  0  0  0  0  0
   -0.7330   -8.1440   29.1472 O   0  0  0  0  0  0  0  0  0  0  0  0
   -2.1494  -11.2570   31.7181 C   0  0  2  0  0  0  0  0  0  0  0  0
   -2.1617  -12.2245   32.7714 N   0  0  0  0  0  0  0  0  0  0  0  0
   -3.3393  -10.3830   34.3835 C   0  0  2  0  0  0  0  0  0  0  0  0
   -0.6443   -5.8149   28.4220 C   0  0  2  0  0  0  0  0  0  0  0  0
   -2.0714   -5.7768   28.5122 N   0  0  0  0  0  0  0  0  0  0  0  0
   -0.9990  -11.5921   30.7149 C   0  0  0  0  0  0  0  0  0  0  0  0
   -4.4408   -9.6252   35.1570 C   0  0  2  0  0  0  0  0  0  0  0  0
   -5.5642   -9.4710   34.3187 O   0  0  0  0  0  0  0  0  0  0  0  0
   -0.1599   -6.1517   26.9704 C   0  0  0  0  0  0  0  0  0  0  0  0
   -0.9723  -10.5279   29.5574 C   0  0  2  0  0  0  0  0  0  0  0  0
    0.1100  -10.8388   28.6100 N   0  0  0  0  0  0  0  0  0  0  0  0
   -3.8471   -8.2288   35.6091 C   0  0  1  0  0  0  0  0  0  0  0  0
   -4.8716   -7.4048   36.3304 N   0  0  0  0  0  0  0  0  0  0  0  0
    1.4010   -6.1409   26.9675 C   0  0  0  0  0  0  0  0  0  0  0  0
   -0.7792   -9.0875   30.1694 C   0  0  2  0  0  0  0  0  0  0  0  0
   -2.5503   -8.4512   36.5540 C   0  0  1  0  0  0  0  0  0  0  0  0
   -2.8907   -9.1386   37.7402 O   0  0  0  0  0  0  0  0  0  0  0  0
    1.9175   -7.2098   28.0284 C   0  0  2  0  0  0  0  0  0  0  0  0
    1.3631   -6.9801   29.3615 O   0  0  0  0  0  0  0  0  0  0  0  0
   -1.9527   -8.7804   31.1776 C   0  0  2  0  0  0  0  0  0  0  0  0
   -1.7995   -7.4811   31.7398 O   0  0  0  0  0  0  0  0  0  0  0  0
   -1.5040   -9.3184   35.7881 C   0  0  0  0  0  0  0  0  0  0  0  0
   -2.1420  -10.5674   35.2537 O   0  0  0  0  0  0  0  0  0  0  0  0
    3.4218   -7.3161   28.1162 C   0  0  0  0  0  0  0  0  0  0  0  0
    3.9903   -7.8672   26.9142 N   0  0  0  0  0  0  0  0  0  0  0  0
   -1.9643   -9.8526   32.3231 C   0  0  1  0  0  0  0  0  0  0  0  0
   -3.0325   -9.5629   33.2166 O   0  0  0  0  0  0  0  0  0  0  0  0
   -1.8440   -7.1895   37.0684 C   0  0  0  0  0  0  0  0  0  0  0  0
   -4.9317   -5.9707   36.0019 C   0  0  0  0  0  0  0  0  0  0  0  0
  1  2  1  6  0  0  0
  1  6  1  0  0  0  0
  1 21  1  0  0  0  0
  3  4  1  1  0  0  0
  3  8  1  0  0  0  0
  3 28  1  0  0  0  0
  5  9  1  0  0  0  0
  5 25  1  0  0  0  0
  5 29  1  6  0  0  0
  6  7  1  6  0  0  0
  6 11  1  0  0  0  0
  8 12  1  0  0  0  0
  9 10  1  6  0  0  0
  9 14  1  0  0  0  0
 11 16  1  0  0  0  0
 12 13  1  6  0  0  0
 12 17  1  0  0  0  0
 14 15  1  1  0  0  0
 14 18  1  0  0  0  0
 15 31  1  0  0  0  0
 16 20  1  0  0  0  0
 17  2  1  6  0  0  0
 17 22  1  0  0  0  0
 18 19  1  1  0  0  0
 18 24  1  0  0  0  0
 18 30  1  0  0  0  0
 20 21  1  0  0  0  0
 20 26  1  1  0  0  0
 22 23  1  1  0  0  0
 22 28  1  0  0  0  0
 24 25  1  0  0  0  0
 26 27  1  0  0  0  0
 28 29  1  1  0  0  0
M  END
>  <CHROM.1>
-157.61072238,173.24877915,-137.75282782,-159.16053497,-67.55588239,58.58568550
-1.47948582,-8.54499495,31.91833542,0.19495222,1.02732624,-0.04235132

>  <Name>
2et3_lig

>  <RI>
3.50789e+07

>  <Rbt.Current_Directory>
/home/itssahil/PROJECTS/Mol_Feturizer/New_Systems/rnas/2et3

>  <Rbt.Executable>
rbdock ($Id: //depot/dev/client3/rdock/2013.1/src/exe/rbdock.cxx#4 $)

>  <Rbt.Library>
libRbt.so (2013.1, Build901 2013/11/27)

>  <Rbt.Parameter_File>
/export/apps/rDock/src/rDock_2013.1_src/data/scripts/dock_solv.prm

>  <Rbt.Receptor>
prm/pocket_docking_4.prm

>  <SCORE>
-28.3856

>  <SCORE.INTER>
-20.0931

>  <SCORE.INTER.CONST>
1

>  <SCORE.INTER.POLAR>
-0.938083

>  <SCORE.INTER.ROT>
6

>  <SCORE.INTER.SOLV>
11.4972

>  <SCORE.INTER.VDW>
-21.7008

>  <SCORE.INTER.norm>
-0.648164

>  <SCORE.INTRA>
-8.29473

>  <SCORE.INTRA.DIHEDRAL>
-16.6019

>  <SCORE.INTRA.DIHEDRAL.0>
22.2484

>  <SCORE.INTRA.POLAR>
0

>  <SCORE.INTRA.POLAR.0>
0

>  <SCORE.INTRA.REPUL>
0

>  <SCORE.INTRA.REPUL.0>
0

>  <SCORE.INTRA.SOLV>
-1.44485

>  <SCORE.INTRA.SOLV.lig_0>
-75.7198

>  <SCORE.INTRA.VDW>
0.728625

>  <SCORE.INTRA.VDW.0>
-3.34171

>  <SCORE.INTRA.norm>
-0.267572

>  <SCORE.RESTR>
0.00221263

>  <SCORE.RESTR.CAVITY>
0.00221263

>  <SCORE.RESTR.norm>
7.13751e-05

>  <SCORE.SYSTEM>
0

>  <SCORE.SYSTEM.CONST>
0

>  <SCORE.SYSTEM.DIHEDRAL>
0

>  <SCORE.SYSTEM.SOLV>
0

>  <SCORE.SYSTEM.norm>
0

>  <SCORE.heavy>
31

>  <SCORE.norm>
-0.915664

>  <RMSD>
1.545

$$$$
2et3_lig
 OpenBabel11021811423D
libRbt.so/2013.1/901 2013/11/27
 31 33  0  0  0  0  0  0  0  0999 V2000
    0.0088   -6.9049   29.5722 C   0  0  2  0  0  0  0  0  0  0  0  0
   -0.6631   -8.1578   29.2807 O   0  0  0  0  0  0  0  0  0  0  0  0
   -2.2064  -11.2756   31.7713 C   0  0  2  0  0  0  0  0  0  0  0  0
   -2.2632  -12.2598   32.8076 N   0  0  0  0  0  0  0  0  0  0  0  0
   -3.4012  -10.3954   34.4499 C   0  0  2  0  0  0  0  0  0  0  0  0
   -0.5014   -5.8112   28.6279 C   0  0  2  0  0  0  0  0  0  0  0  0
   -1.9227   -5.7202   28.7611 N   0  0  0  0  0  0  0  0  0  0  0  0
   -1.0460  -11.6234   30.7841 C   0  0  0  0  0  0  0  0  0  0  0  0
   -4.4778   -9.6061   35.2268 C   0  0  2  0  0  0  0  0  0  0  0  0
   -5.5989   -9.4194   34.3922 O   0  0  0  0  0  0  0  0  0  0  0  0
   -0.0719   -6.1185   27.1527 C   0  0  0  0  0  0  0  0  0  0  0  0
   -0.9705  -10.5412   29.6456 C   0  0  2  0  0  0  0  0  0  0  0  0
    0.1213  -10.8640   28.7132 N   0  0  0  0  0  0  0  0  0  0  0  0
   -3.8424   -8.2275   35.6771 C   0  0  1  0  0  0  0  0  0  0  0  0
   -4.8404   -7.3742   36.4016 N   0  0  0  0  0  0  0  0  0  0  0  0
    1.4876   -6.1688   27.1044 C   0  0  0  0  0  0  0  0  0  0  0  0
   -0.7525   -9.1166   30.2856 C   0  0  2  0  0  0  0  0  0  0  0  0
   -2.5496   -8.4874   36.6177 C   0  0  1  0  0  0  0  0  0  0  0  0
   -2.9059   -9.1647   37.8051 O   0  0  0  0  0  0  0  0  0  0  0  0
    1.9904   -7.2916   28.1150 C   0  0  2  0  0  0  0  0  0  0  0  0
    1.4831   -7.0846   29.4704 O   0  0  0  0  0  0  0  0  0  0  0  0
   -1.9368   -8.7963   31.2769 C   0  0  2  0  0  0  0  0  0  0  0  0
   -1.7613   -7.5109   31.8640 O   0  0  0  0  0  0  0  0  0  0  0  0
   -1.5313   -9.3845   35.8485 C   0  0  0  0  0  0  0  0  0  0  0  0
   -2.2069  -10.6145   35.3162 O   0  0  0  0  0  0  0  0  0  0  0  0
    3.4910   -7.4596   28.1553 C   0  0  0  0  0  0  0  0  0  0  0  0
    4.0093   -7.9411   26.9017 N   0  0  0  0  0  0  0  0  0  0  0  0
   -1.9972   -9.8867   32.4036 C   0  0  1  0  0  0  0  0  0  0  0  0
   -3.0745   -9.5845   33.2820 O   0  0  0  0  0  0  0  0  0  0  0  0
   -1.8054   -7.2467   37.1299 C   0  0  0  0  0  0  0  0  0  0  0  0
   -4.9720   -5.9752   35.9615 C   0  0  0  0  0  0  0  0  0  0  0  0
  1  2  1  6  0  0  0
  1  6  1  0  0  0  0
  1 21  1  0  0  0  0
  3  4  1  1  0  0  0
  3  8  1  0  0  0  0
  3 28  1  0  0  0  0
  5  9  1  0  0  0  0
  5 25  1  0  0  0  0
  5 29  1  6  0  0  0
  6  7  1  6  0  0  0
  6 11  1  0  0  0  0
  8 12  1  0  0  0  0
  9 10  1  6  0  0  0
  9 14  1  0  0  0  0
 11 16  1  0  0  0  0
 12 13  1  6  0  0  0
 12 17  1  0  0  0  0
 14 15  1  1  0  0  0
 14 18  1  0  0  0  0
 15 31  1  0  0  0  0
 16 20  1  0  0  0  0
 17  2  1  6  0  0  0
 17 22  1  0  0  0  0
 18 19  1  1  0  0  0
 18 24  1  0  0  0  0
 18 30  1  0  0  0  0
 20 21  1  0  0  0  0
 20 26  1  1  0  0  0
 22 23  1  1  0  0  0
 22 28  1  0  0  0  0
 24 25  1  0  0  0  0
 26 27  1  0  0  0  0
 28 29  1  1  0  0  0
M  END
>  <CHROM.1>
-155.76033532,171.64882276,-130.64939866,-157.55684725,-65.19815317,60.32490917
-1.46192904,-8.57101304,32.00636547,0.15608472,1.01592796,-0.00079335

>  <Name>
2et3_lig

>  <RI>
3.50789e+07

>  <Rbt.Current_Directory>
/home/itssahil/PROJECTS/Mol_Feturizer/New_Systems/rnas/2et3

>  <Rbt.Executable>
rbdock ($Id: //depot/dev/client3/rdock/2013.1/src/exe/rbdock.cxx#4 $)

>  <Rbt.Library>
libRbt.so (2013.1, Build901 2013/11/27)

>  <Rbt.Parameter_File>
/export/apps/rDock/src/rDock_2013.1_src/data/scripts/dock_solv.prm

>  <Rbt.Receptor>
prm/pocket_docking_4.prm

>  <SCORE>
-28.3822

>  <SCORE.INTER>
-20.2876

>  <SCORE.INTER.CONST>
1

>  <SCORE.INTER.POLAR>
-0.938083

>  <SCORE.INTER.ROT>
6

>  <SCORE.INTER.SOLV>
11.4509

>  <SCORE.INTER.VDW>
-21.8151

>  <SCORE.INTER.norm>
-0.654437

>  <SCORE.INTRA>
-8.10192

>  <SCORE.INTRA.DIHEDRAL>
-15.8459

>  <SCORE.INTRA.DIHEDRAL.0>
22.2484

>  <SCORE.INTRA.POLAR>
0

>  <SCORE.INTRA.POLAR.0>
0

>  <SCORE.INTRA.REPUL>
0

>  <SCORE.INTRA.REPUL.0>
0

>  <SCORE.INTRA.SOLV>
-1.30986

>  <SCORE.INTRA.SOLV.lig_0>
-75.7198

>  <SCORE.INTRA.VDW>
0.475945

>  <SCORE.INTRA.VDW.0>
-3.34171

>  <SCORE.INTRA.norm>
-0.261352

>  <SCORE.RESTR>
0.00727177

>  <SCORE.RESTR.CAVITY>
0.00727177

>  <SCORE.RESTR.norm>
0.000234573

>  <SCORE.SYSTEM>
0

>  <SCORE.SYSTEM.CONST>
0

>  <SCORE.SYSTEM.DIHEDRAL>
0

>  <SCORE.SYSTEM.SOLV>
0

>  <SCORE.SYSTEM.norm>
0

>  <SCORE.heavy>
31

>  <SCORE.norm>
-0.915555

>  <RMSD>
1.546

$$$$
2et3_lig
 OpenBabel11021811423D
libRbt.so/2013.1/901 2013/11/27
 31 33  0  0  0  0  0  0  0  0999 V2000
    0.5503   -6.9380   29.3701 C   0  0  2  0  0  0  0  0  0  0  0  0
   -0.1400   -8.1807   29.0778 O   0  0  0  0  0  0  0  0  0  0  0  0
   -2.1194  -10.9809   31.6365 C   0  0  2  0  0  0  0  0  0  0  0  0
   -2.3257  -11.9020   32.7111 N   0  0  0  0  0  0  0  0  0  0  0  0
   -3.3869   -9.9081   34.1440 C   0  0  2  0  0  0  0  0  0  0  0  0
   -0.0254   -5.8100   28.5074 C   0  0  2  0  0  0  0  0  0  0  0  0
   -1.4339   -5.7286   28.7435 N   0  0  0  0  0  0  0  0  0  0  0  0
   -0.9733  -11.5050   30.7124 C   0  0  0  0  0  0  0  0  0  0  0  0
   -4.3615   -8.9640   34.8819 C   0  0  2  0  0  0  0  0  0  0  0  0
   -5.3682   -8.5536   33.9838 O   0  0  0  0  0  0  0  0  0  0  0  0
    0.2994   -6.0584   26.9947 C   0  0  0  0  0  0  0  0  0  0  0  0
   -0.7336  -10.4936   29.5323 C   0  0  2  0  0  0  0  0  0  0  0  0
    0.3455  -10.9825   28.6592 N   0  0  0  0  0  0  0  0  0  0  0  0
   -3.5279   -7.7361   35.4334 C   0  0  1  0  0  0  0  0  0  0  0  0
   -4.4101   -6.7414   36.1270 N   0  0  0  0  0  0  0  0  0  0  0  0
    1.8516   -6.1020   26.8350 C   0  0  0  0  0  0  0  0  0  0  0  0
   -0.3747   -9.0744   30.1187 C   0  0  2  0  0  0  0  0  0  0  0  0
   -2.3732   -8.2524   36.4453 C   0  0  1  0  0  0  0  0  0  0  0  0
   -2.9289   -8.8922   37.5755 O   0  0  0  0  0  0  0  0  0  0  0  0
    2.4246   -7.2617   27.7632 C   0  0  2  0  0  0  0  0  0  0  0  0
    2.0139   -7.1091   29.1580 O   0  0  0  0  0  0  0  0  0  0  0  0
   -1.5478   -8.5747   31.0471 C   0  0  2  0  0  0  0  0  0  0  0  0
   -1.2454   -7.2913   31.5849 O   0  0  0  0  0  0  0  0  0  0  0  0
   -1.4754   -9.2924   35.7065 C   0  0  0  0  0  0  0  0  0  0  0  0
   -2.3164  -10.3644   35.0770 O   0  0  0  0  0  0  0  0  0  0  0  0
    3.9244   -7.4266   27.6913 C   0  0  0  0  0  0  0  0  0  0  0  0
    4.3495   -8.6938   28.2255 N   0  0  0  0  0  0  0  0  0  0  0  0
   -1.7731   -9.5965   32.2164 C   0  0  1  0  0  0  0  0  0  0  0  0
   -2.8382   -9.1323   33.0371 O   0  0  0  0  0  0  0  0  0  0  0  0
   -1.4615   -7.1815   37.0597 C   0  0  0  0  0  0  0  0  0  0  0  0
   -4.9498   -7.1254   37.4421 C   0  0  0  0  0  0  0  0  0  0  0  0
  1  2  1  6  0  0  0
  1  6  1  0  0  0  0
  1 21  1  0  0  0  0
  3  4  1  1  0  0  0
  3  8  1  0  0  0  0
  3 28  1  0  0  0  0
  5  9  1  0  0  0  0
  5 25  1  0  0  0  0
  5 29  1  6  0  0  0
  6  7  1  6  0  0  0
  6 11  1  0  0  0  0
  8 12  1  0  0  0  0
  9 10  1  6  0  0  0
  9 14  1  0  0  0  0
 11 16  1  0  0  0  0
 12 13  1  6  0  0  0
 12 17  1  0  0  0  0
 14 15  1  1  0  0  0
 14 18  1  0  0  0  0
 15 31  1  0  0  0  0
 16 20  1  0  0  0  0
 17  2  1  6  0  0  0
 17 22  1  0  0  0  0
 18 19  1  1  0  0  0
 18 24  1  0  0  0  0
 18 30  1  0  0  0  0
 20 21  1  0  0  0  0
 20 26  1  1  0  0  0
 22 23  1  1  0  0  0
 22 28  1  0  0  0  0
 24 25  1  0  0  0  0
 26 27  1  0  0  0  0
 28 29  1  1  0  0  0
M  END
>  <CHROM.1>
-144.00770013,171.89411245,72.37551456,-163.43407986,-163.41221744,53.91446753
-1.19218144,-8.43795146,31.90133764,0.00861035,0.99788008,0.12141875

>  <Name>
2et3_lig

>  <RI>
0

>  <Rbt.Current_Directory>
/home/itssahil/PROJECTS/Mol_Feturizer/New_Systems/rnas/2et3

>  <Rbt.Executable>
rbdock ($Id: //depot/dev/client3/rdock/2013.1/src/exe/rbdock.cxx#4 $)

>  <Rbt.Library>
libRbt.so (2013.1, Build901 2013/11/27)

>  <Rbt.Parameter_File>
/export/apps/rDock/src/rDock_2013.1_src/data/scripts/dock_solv.prm

>  <Rbt.Receptor>
prm/pocket_docking_2.prm

>  <SCORE>
-22.4718

>  <SCORE.INTER>
-18.5669

>  <SCORE.INTER.CONST>
1

>  <SCORE.INTER.POLAR>
-0.938083

>  <SCORE.INTER.ROT>
6

>  <SCORE.INTER.SOLV>
15.6361

>  <SCORE.INTER.VDW>
-22.063

>  <SCORE.INTER.norm>
-0.598932

>  <SCORE.INTRA>
-3.93028

>  <SCORE.INTRA.DIHEDRAL>
-14.6055

>  <SCORE.INTRA.DIHEDRAL.0>
22.2484

>  <SCORE.INTRA.POLAR>
0

>  <SCORE.INTRA.POLAR.0>
0

>  <SCORE.INTRA.REPUL>
0

>  <SCORE.INTRA.REPUL.0>
0

>  <SCORE.INTRA.SOLV>
-0.712258

>  <SCORE.INTRA.SOLV.lig_0>
-75.7198

>  <SCORE.INTRA.VDW>
3.7286

>  <SCORE.INTRA.VDW.0>
-3.34171

>  <SCORE.INTRA.norm>
-0.126783

>  <SCORE.RESTR>
0.0253296

>  <SCORE.RESTR.CAVITY>
0.0253296

>  <SCORE.RESTR.norm>
0.000817085

>  <SCORE.SYSTEM>
0

>  <SCORE.SYSTEM.CONST>
0

>  <SCORE.SYSTEM.DIHEDRAL>
0

>  <SCORE.SYSTEM.SOLV>
0

>  <SCORE.SYSTEM.norm>
0

>  <SCORE.heavy>
31

>  <SCORE.norm>
-0.724898

>  <RMSD>
1.550

$$$$
2et3_lig
 OpenBabel11021811423D
libRbt.so/2013.1/901 2013/11/27
 31 33  0  0  0  0  0  0  0  0999 V2000
    0.0413   -6.8578   29.5653 C   0  0  2  0  0  0  0  0  0  0  0  0
   -0.6527   -8.0979   29.2710 O   0  0  0  0  0  0  0  0  0  0  0  0
   -2.2610  -11.1797   31.7655 C   0  0  2  0  0  0  0  0  0  0  0  0
   -2.3367  -12.1645   32.7999 N   0  0  0  0  0  0  0  0  0  0  0  0
   -3.4172  -10.2781   34.4508 C   0  0  2  0  0  0  0  0  0  0  0  0
   -0.4565   -5.7508   28.6298 C   0  0  2  0  0  0  0  0  0  0  0  0
   -1.8754   -5.6374   28.7719 N   0  0  0  0  0  0  0  0  0  0  0  0
   -1.1173  -11.5558   30.7693 C   0  0  0  0  0  0  0  0  0  0  0  0
   -4.4696   -9.4646   35.2359 C   0  0  2  0  0  0  0  0  0  0  0  0
   -5.5882   -9.2433   34.4064 O   0  0  0  0  0  0  0  0  0  0  0  0
   -0.0407   -6.0571   27.1505 C   0  0  0  0  0  0  0  0  0  0  0  0
   -1.0210  -10.4732   29.6327 C   0  0  2  0  0  0  0  0  0  0  0  0
    0.0553  -10.8227   28.6919 N   0  0  0  0  0  0  0  0  0  0  0  0
   -3.7960   -8.1061   35.6914 C   0  0  1  0  0  0  0  0  0  0  0  0
   -4.7682   -7.2304   36.4242 N   0  0  0  0  0  0  0  0  0  0  0  0
    1.5174   -6.1325   27.0927 C   0  0  0  0  0  0  0  0  0  0  0  0
   -0.7606   -9.0565   30.2744 C   0  0  2  0  0  0  0  0  0  0  0  0
   -2.5074   -8.4057   36.6259 C   0  0  1  0  0  0  0  0  0  0  0  0
   -2.8775   -9.0798   37.8108 O   0  0  0  0  0  0  0  0  0  0  0  0
    2.0077   -7.2688   28.0943 C   0  0  2  0  0  0  0  0  0  0  0  0
    1.5118   -7.0609   29.4538 O   0  0  0  0  0  0  0  0  0  0  0  0
   -1.9289   -8.7072   31.2748 C   0  0  2  0  0  0  0  0  0  0  0  0
   -1.7151   -7.4283   31.8636 O   0  0  0  0  0  0  0  0  0  0  0  0
   -1.5161   -9.3254   35.8481 C   0  0  0  0  0  0  0  0  0  0  0  0
   -2.2263  -10.5339   35.3115 O   0  0  0  0  0  0  0  0  0  0  0  0
    3.5056   -7.4615   28.1248 C   0  0  0  0  0  0  0  0  0  0  0  0
    4.0144   -7.9023   26.8525 N   0  0  0  0  0  0  0  0  0  0  0  0
   -2.0104   -9.7983   32.3995 C   0  0  1  0  0  0  0  0  0  0  0  0
   -3.0730   -9.4697   33.2861 O   0  0  0  0  0  0  0  0  0  0  0  0
   -1.7284   -7.1882   37.1421 C   0  0  0  0  0  0  0  0  0  0  0  0
   -5.0335   -5.8988   35.8544 C   0  0  0  0  0  0  0  0  0  0  0  0
  1  2  1  6  0  0  0
  1  6  1  0  0  0  0
  1 21  1  0  0  0  0
  3  4  1  1  0  0  0
  3  8  1  0  0  0  0
  3 28  1  0  0  0  0
  5  9  1  0  0  0  0
  5 25  1  0  0  0  0
  5 29  1  6  0  0  0
  6  7  1  6  0  0  0
  6 11  1  0  0  0  0
  8 12  1  0  0  0  0
  9 10  1  6  0  0  0
  9 14  1  0  0  0  0
 11 16  1  0  0  0  0
 12 13  1  6  0  0  0
 12 17  1  0  0  0  0
 14 15  1  1  0  0  0
 14 18  1  0  0  0  0
 15 31  1  0  0  0  0
 16 20  1  0  0  0  0
 17  2  1  6  0  0  0
 17 22  1  0  0  0  0
 18 19  1  1  0  0  0
 18 24  1  0  0  0  0
 18 30  1  0  0  0  0
 20 21  1  0  0  0  0
 20 26  1  1  0  0  0
 22 23  1  1  0  0  0
 22 28  1  0  0  0  0
 24 25  1  0  0  0  0
 26 27  1  0  0  0  0
 28 29  1  1  0  0  0
M  END
>  <CHROM.1>
-155.28789057,171.88413946,-120.56682980,-158.24522789,-63.28822375,60.01057762
-1.45575256,-8.49420462,31.99860907,0.13146344,1.01826598,0.02036312

>  <Name>
2et3_lig

>  <RI>
3.50789e+07

>  <Rbt.Current_Directory>
/home/itssahil/PROJECTS/Mol_Feturizer/New_Systems/rnas/2et3

>  <Rbt.Executable>
rbdock ($Id: //depot/dev/client3/rdock/2013.1/src/exe/rbdock.cxx#4 $)

>  <Rbt.Library>
libRbt.so (2013.1, Build901 2013/11/27)

>  <Rbt.Parameter_File>
/export/apps/rDock/src/rDock_2013.1_src/data/scripts/dock_solv.prm

>  <Rbt.Receptor>
prm/pocket_docking_4.prm

>  <SCORE>
-28.1017

>  <SCORE.INTER>
-20.0033

>  <SCORE.INTER.CONST>
1

>  <SCORE.INTER.POLAR>
-0.938083

>  <SCORE.INTER.ROT>
6

>  <SCORE.INTER.SOLV>
11.1175

>  <SCORE.INTER.VDW>
-21.5144

>  <SCORE.INTER.norm>
-0.645268

>  <SCORE.INTRA>
-8.09841

>  <SCORE.INTRA.DIHEDRAL>
-15.8605

>  <SCORE.INTRA.DIHEDRAL.0>
22.2484

>  <SCORE.INTRA.POLAR>
0

>  <SCORE.INTRA.POLAR.0>
0

>  <SCORE.INTRA.REPUL>
0

>  <SCORE.INTRA.REPUL.0>
0

>  <SCORE.INTRA.SOLV>
-1.27818

>  <SCORE.INTRA.SOLV.lig_0>
-75.7198

>  <SCORE.INTRA.VDW>
0.470913

>  <SCORE.INTRA.VDW.0>
-3.34171

>  <SCORE.INTRA.norm>
-0.261239

>  <SCORE.RESTR>
0

>  <SCORE.RESTR.CAVITY>
0

>  <SCORE.RESTR.norm>
0

>  <SCORE.SYSTEM>
0

>  <SCORE.SYSTEM.CONST>
0

>  <SCORE.SYSTEM.DIHEDRAL>
0

>  <SCORE.SYSTEM.SOLV>
0

>  <SCORE.SYSTEM.norm>
0

>  <SCORE.heavy>
31

>  <SCORE.norm>
-0.906507

>  <RMSD>
1.562

$$$$
2et3_lig
 OpenBabel11021811423D
libRbt.so/2013.1/901 2013/11/27
 31 33  0  0  0  0  0  0  0  0999 V2000
    0.0364   -6.9126   29.5167 C   0  0  2  0  0  0  0  0  0  0  0  0
   -0.6052   -8.1732   29.1918 O   0  0  0  0  0  0  0  0  0  0  0  0
   -2.2623  -11.2528   31.6568 C   0  0  2  0  0  0  0  0  0  0  0  0
   -2.3560  -12.2411   32.6864 N   0  0  0  0  0  0  0  0  0  0  0  0
   -3.4666  -10.3750   34.3092 C   0  0  2  0  0  0  0  0  0  0  0  0
   -0.5963   -5.7827   28.6973 C   0  0  2  0  0  0  0  0  0  0  0  0
   -2.0039   -5.7681   28.9512 N   0  0  0  0  0  0  0  0  0  0  0  0
   -1.1109  -11.6334   30.6711 C   0  0  0  0  0  0  0  0  0  0  0  0
   -4.5426   -9.5737   35.0744 C   0  0  2  0  0  0  0  0  0  0  0  0
   -5.6300   -9.3282   34.2109 O   0  0  0  0  0  0  0  0  0  0  0  0
   -0.2799   -5.9689   27.1739 C   0  0  0  0  0  0  0  0  0  0  0  0
   -0.9947  -10.5471   29.5400 C   0  0  2  0  0  0  0  0  0  0  0  0
    0.0888  -10.9008   28.6091 N   0  0  0  0  0  0  0  0  0  0  0  0
   -3.8797   -8.2290   35.5837 C   0  0  1  0  0  0  0  0  0  0  0  0
   -4.8734   -7.3647   36.3008 N   0  0  0  0  0  0  0  0  0  0  0  0
    1.2707   -5.9422   26.9961 C   0  0  0  0  0  0  0  0  0  0  0  0
   -0.7307   -9.1349   30.1901 C   0  0  2  0  0  0  0  0  0  0  0  0
   -2.6264   -8.5559   36.5564 C   0  0  1  0  0  0  0  0  0  0  0  0
   -3.0415   -9.2542   37.7121 O   0  0  0  0  0  0  0  0  0  0  0  0
    1.9027   -7.1059   27.8800 C   0  0  2  0  0  0  0  0  0  0  0  0
    1.5030   -7.0153   29.2833 O   0  0  0  0  0  0  0  0  0  0  0  0
   -1.9068   -8.7809   31.1796 C   0  0  2  0  0  0  0  0  0  0  0  0
   -1.6898   -7.5060   31.7758 O   0  0  0  0  0  0  0  0  0  0  0  0
   -1.6122   -9.4634   35.7939 C   0  0  0  0  0  0  0  0  0  0  0  0
   -2.3081  -10.6560   35.2057 O   0  0  0  0  0  0  0  0  0  0  0  0
    3.4071   -7.2053   27.7865 C   0  0  0  0  0  0  0  0  0  0  0  0
    3.8862   -8.4918   28.2193 N   0  0  0  0  0  0  0  0  0  0  0  0
   -2.0082   -9.8759   32.2989 C   0  0  1  0  0  0  0  0  0  0  0  0
   -3.0776   -9.5429   33.1758 O   0  0  0  0  0  0  0  0  0  0  0  0
   -1.8609   -7.3542   37.1269 C   0  0  0  0  0  0  0  0  0  0  0  0
   -4.7665   -5.9101   36.0991 C   0  0  0  0  0  0  0  0  0  0  0  0
  1  2  1  6  0  0  0
  1  6  1  0  0  0  0
  1 21  1  0  0  0  0
  3  4  1  1  0  0  0
  3  8  1  0  0  0  0
  3 28  1  0  0  0  0
  5  9  1  0  0  0  0
  5 25  1  0  0  0  0
  5 29  1  6  0  0  0
  6  7  1  6  0  0  0
  6 11  1  0  0  0  0
  8 12  1  0  0  0  0
  9 10  1  6  0  0  0
  9 14  1  0  0  0  0
 11 16  1  0  0  0  0
 12 13  1  6  0  0  0
 12 17  1  0  0  0  0
 14 15  1  1  0  0  0
 14 18  1  0  0  0  0
 15 31  1  0  0  0  0
 16 20  1  0  0  0  0
 17  2  1  6  0  0  0
 17 22  1  0  0  0  0
 18 19  1  1  0  0  0
 18 24  1  0  0  0  0
 18 30  1  0  0  0  0
 20 21  1  0  0  0  0
 20 26  1  1  0  0  0
 22 23  1  1  0  0  0
 22 28  1  0  0  0  0
 24 25  1  0  0  0  0
 26 27  1  0  0  0  0
 28 29  1  1  0  0  0
M  END
>  <CHROM.1>
-147.12729565,173.62228426,-142.65870835,-161.24844588,-160.84919711,58.03718107
-1.50670093,-8.56579229,31.96238884,0.16699300,1.01610074,-0.00707345

>  <Name>
2et3_lig

>  <RI>
3.50789e+07

>  <Rbt.Current_Directory>
/home/itssahil/PROJECTS/Mol_Feturizer/New_Systems/rnas/2et3

>  <Rbt.Executable>
rbdock ($Id: //depot/dev/client3/rdock/2013.1/src/exe/rbdock.cxx#4 $)

>  <Rbt.Library>
libRbt.so (2013.1, Build901 2013/11/27)

>  <Rbt.Parameter_File>
/export/apps/rDock/src/rDock_2013.1_src/data/scripts/dock_solv.prm

>  <Rbt.Receptor>
prm/pocket_docking_4.prm

>  <SCORE>
-26.3571

>  <SCORE.INTER>
-19.4529

>  <SCORE.INTER.CONST>
1

>  <SCORE.INTER.POLAR>
-0.938083

>  <SCORE.INTER.ROT>
6

>  <SCORE.INTER.SOLV>
14.159

>  <SCORE.INTER.VDW>
-22.1613

>  <SCORE.INTER.norm>
-0.627512

>  <SCORE.INTRA>
-6.90419

>  <SCORE.INTRA.DIHEDRAL>
-14.1503

>  <SCORE.INTRA.DIHEDRAL.0>
22.2484

>  <SCORE.INTRA.POLAR>
0

>  <SCORE.INTRA.POLAR.0>
0

>  <SCORE.INTRA.REPUL>
0

>  <SCORE.INTRA.REPUL.0>
0

>  <SCORE.INTRA.SOLV>
-1.20197

>  <SCORE.INTRA.SOLV.lig_0>
-75.7198

>  <SCORE.INTRA.VDW>
0.771944

>  <SCORE.INTRA.VDW.0>
-3.34171

>  <SCORE.INTRA.norm>
-0.222716

>  <SCORE.RESTR>
0

>  <SCORE.RESTR.CAVITY>
0

>  <SCORE.RESTR.norm>
0

>  <SCORE.SYSTEM>
0

>  <SCORE.SYSTEM.CONST>
0

>  <SCORE.SYSTEM.DIHEDRAL>
0

>  <SCORE.SYSTEM.SOLV>
0

>  <SCORE.SYSTEM.norm>
0

>  <SCORE.heavy>
31

>  <SCORE.norm>
-0.850228

>  <RMSD>
1.567

$$$$
2et3_lig
 OpenBabel11021811423D
libRbt.so/2013.1/901 2013/11/27
 31 33  0  0  0  0  0  0  0  0999 V2000
    0.2616   -7.2113   29.6202 C   0  0  2  0  0  0  0  0  0  0  0  0
   -0.6842   -8.2801   29.3567 O   0  0  0  0  0  0  0  0  0  0  0  0
   -2.5033  -11.3358   31.7357 C   0  0  2  0  0  0  0  0  0  0  0  0
   -2.6455  -12.3564   32.7275 N   0  0  0  0  0  0  0  0  0  0  0  0
   -3.4938  -10.4168   34.5276 C   0  0  2  0  0  0  0  0  0  0  0  0
   -0.0671   -5.9999   28.7411 C   0  0  2  0  0  0  0  0  0  0  0  0
   -1.4219   -5.6122   28.9868 N   0  0  0  0  0  0  0  0  0  0  0  0
   -1.4012  -11.7545   30.7100 C   0  0  0  0  0  0  0  0  0  0  0  0
   -4.5469   -9.5918   35.2997 C   0  0  2  0  0  0  0  0  0  0  0  0
   -5.6744   -9.4028   34.4742 O   0  0  0  0  0  0  0  0  0  0  0  0
    0.1785   -6.3377   27.2308 C   0  0  0  0  0  0  0  0  0  0  0  0
   -1.2318  -10.6336   29.6201 C   0  0  2  0  0  0  0  0  0  0  0  0
   -0.1945  -11.0231   28.6517 N   0  0  0  0  0  0  0  0  0  0  0  0
   -3.8818   -8.2156   35.7127 C   0  0  1  0  0  0  0  0  0  0  0  0
   -4.8557   -7.3292   36.4301 N   0  0  0  0  0  0  0  0  0  0  0  0
    1.6827   -6.7184   27.0596 C   0  0  0  0  0  0  0  0  0  0  0  0
   -0.8568   -9.2707   30.3190 C   0  0  2  0  0  0  0  0  0  0  0  0
   -2.5827   -8.4786   36.6438 C   0  0  1  0  0  0  0  0  0  0  0  0
   -2.9368   -9.1239   37.8495 O   0  0  0  0  0  0  0  0  0  0  0  0
    2.0026   -7.9590   28.0048 C   0  0  2  0  0  0  0  0  0  0  0  0
    1.6510   -7.6982   29.3997 O   0  0  0  0  0  0  0  0  0  0  0  0
   -1.9854   -8.8770   31.3481 C   0  0  2  0  0  0  0  0  0  0  0  0
   -1.6680   -7.6455   31.9888 O   0  0  0  0  0  0  0  0  0  0  0  0
   -1.5897   -9.4102   35.8824 C   0  0  0  0  0  0  0  0  0  0  0  0
   -2.2934  -10.6389   35.3846 O   0  0  0  0  0  0  0  0  0  0  0  0
    3.4305   -8.4453   27.9241 C   0  0  0  0  0  0  0  0  0  0  0  0
    4.3722   -7.3777   28.1365 N   0  0  0  0  0  0  0  0  0  0  0  0
   -2.1408  -10.0071   32.4255 C   0  0  1  0  0  0  0  0  0  0  0  0
   -3.1667   -9.6370   33.3388 O   0  0  0  0  0  0  0  0  0  0  0  0
   -1.8105   -7.2409   37.1205 C   0  0  0  0  0  0  0  0  0  0  0  0
   -4.8251   -5.8942   36.1013 C   0  0  0  0  0  0  0  0  0  0  0  0
  1  2  1  6  0  0  0
  1  6  1  0  0  0  0
  1 21  1  0  0  0  0
  3  4  1  1  0  0  0
  3  8  1  0  0  0  0
  3 28  1  0  0  0  0
  5  9  1  0  0  0  0
  5 25  1  0  0  0  0
  5 29  1  6  0  0  0
  6  7  1  6  0  0  0
  6 11  1  0  0  0  0
  8 12  1  0  0  0  0
  9 10  1  6  0  0  0
  9 14  1  0  0  0  0
 11 16  1  0  0  0  0
 12 13  1  6  0  0  0
 12 17  1  0  0  0  0
 14 15  1  1  0  0  0
 14 18  1  0  0  0  0
 15 31  1  0  0  0  0
 16 20  1  0  0  0  0
 17  2  1  6  0  0  0
 17 22  1  0  0  0  0
 18 19  1  1  0  0  0
 18 24  1  0  0  0  0
 18 30  1  0  0  0  0
 20 21  1  0  0  0  0
 20 26  1  1  0  0  0
 22 23  1  1  0  0  0
 22 28  1  0  0  0  0
 24 25  1  0  0  0  0
 26 27  1  0  0  0  0
 28 29  1  1  0  0  0
M  END
>  <CHROM.1>
-158.90959904,174.27637527,-139.59022955,-149.25433103,52.89736876,64.76146291
-1.46632733,-8.69643331,32.07004453,-0.16192692,0.98990330,0.33900048

>  <Name>
2et3_lig

>  <RI>
2.5794e+07

>  <Rbt.Current_Directory>
/home/itssahil/PROJECTS/Mol_Feturizer/New_Systems/rnas/2et3

>  <Rbt.Executable>
rbdock ($Id: //depot/dev/client3/rdock/2013.1/src/exe/rbdock.cxx#4 $)

>  <Rbt.Library>
libRbt.so (2013.1, Build901 2013/11/27)

>  <Rbt.Parameter_File>
/export/apps/rDock/src/rDock_2013.1_src/data/scripts/dock_solv.prm

>  <Rbt.Receptor>
prm/pocket_docking_5.prm

>  <SCORE>
-25.3199

>  <SCORE.INTER>
-17.8285

>  <SCORE.INTER.CONST>
1

>  <SCORE.INTER.POLAR>
-0.938083

>  <SCORE.INTER.ROT>
6

>  <SCORE.INTER.SOLV>
15.1662

>  <SCORE.INTER.VDW>
-21.4141

>  <SCORE.INTER.norm>
-0.575112

>  <SCORE.INTRA>
-7.4914

>  <SCORE.INTRA.DIHEDRAL>
-15.0528

>  <SCORE.INTRA.DIHEDRAL.0>
22.2484

>  <SCORE.INTRA.POLAR>
0

>  <SCORE.INTRA.POLAR.0>
0

>  <SCORE.INTRA.REPUL>
0

>  <SCORE.INTRA.REPUL.0>
0

>  <SCORE.INTRA.SOLV>
-0.437294

>  <SCORE.INTRA.SOLV.lig_0>
-75.7198

>  <SCORE.INTRA.VDW>
0.25366

>  <SCORE.INTRA.VDW.0>
-3.34171

>  <SCORE.INTRA.norm>
-0.241658

>  <SCORE.RESTR>
0

>  <SCORE.RESTR.CAVITY>
0

>  <SCORE.RESTR.norm>
0

>  <SCORE.SYSTEM>
0

>  <SCORE.SYSTEM.CONST>
0

>  <SCORE.SYSTEM.DIHEDRAL>
0

>  <SCORE.SYSTEM.SOLV>
0

>  <SCORE.SYSTEM.norm>
0

>  <SCORE.heavy>
31

>  <SCORE.norm>
-0.81677

>  <RMSD>
1.567

$$$$
2et3_lig
 OpenBabel11021811423D
libRbt.so/2013.1/901 2013/11/27
 31 33  0  0  0  0  0  0  0  0999 V2000
   -0.9846   -5.7896   29.2764 C   0  0  2  0  0  0  0  0  0  0  0  0
   -1.5485   -7.1263   29.2398 O   0  0  0  0  0  0  0  0  0  0  0  0
   -1.1011  -10.8059   31.3769 C   0  0  2  0  0  0  0  0  0  0  0  0
   -0.5934  -11.7582   32.3154 N   0  0  0  0  0  0  0  0  0  0  0  0
   -2.4873  -10.7703   34.2292 C   0  0  2  0  0  0  0  0  0  0  0  0
   -1.6133   -4.9315   28.1734 C   0  0  2  0  0  0  0  0  0  0  0  0
   -3.0335   -4.9373   28.3447 N   0  0  0  0  0  0  0  0  0  0  0  0
    0.0418  -10.3721   30.4033 C   0  0  0  0  0  0  0  0  0  0  0  0
   -3.8650  -10.8943   34.9164 C   0  0  2  0  0  0  0  0  0  0  0  0
   -4.7511  -11.5626   34.0465 O   0  0  0  0  0  0  0  0  0  0  0  0
   -1.1937   -5.4638   26.7606 C   0  0  0  0  0  0  0  0  0  0  0  0
   -0.5055   -9.3179   29.3726 C   0  0  2  0  0  0  0  0  0  0  0  0
    0.5673   -8.9057   28.4535 N   0  0  0  0  0  0  0  0  0  0  0  0
   -4.3700   -9.4346   35.2643 C   0  0  1  0  0  0  0  0  0  0  0  0
   -5.7301   -9.4605   35.8955 N   0  0  0  0  0  0  0  0  0  0  0  0
    0.3624   -5.3912   26.6600 C   0  0  0  0  0  0  0  0  0  0  0  0
   -1.0826   -8.0722   30.1484 C   0  0  2  0  0  0  0  0  0  0  0  0
   -3.3164   -8.6974   36.2493 C   0  0  1  0  0  0  0  0  0  0  0  0
   -3.2007   -9.3794   37.4809 O   0  0  0  0  0  0  0  0  0  0  0  0
    0.9879   -6.2664   27.8337 C   0  0  2  0  0  0  0  0  0  0  0  0
    0.4970   -5.8606   29.1496 O   0  0  0  0  0  0  0  0  0  0  0  0
   -2.2304   -8.5422   31.1227 C   0  0  2  0  0  0  0  0  0  0  0  0
   -2.7687   -7.4306   31.8315 O   0  0  0  0  0  0  0  0  0  0  0  0
   -1.9085   -8.6914   35.5775 C   0  0  0  0  0  0  0  0  0  0  0  0
   -1.5281  -10.0742   35.1348 O   0  0  0  0  0  0  0  0  0  0  0  0
    2.4981   -6.2982   27.8434 C   0  0  0  0  0  0  0  0  0  0  0  0
    3.0096   -7.0894   28.9316 N   0  0  0  0  0  0  0  0  0  0  0  0
   -1.6663   -9.5939   32.1414 C   0  0  1  0  0  0  0  0  0  0  0  0
   -2.7168  -10.0102   33.0053 O   0  0  0  0  0  0  0  0  0  0  0  0
   -3.6526   -7.2609   36.6725 C   0  0  0  0  0  0  0  0  0  0  0  0
   -6.8823   -9.6547   34.9994 C   0  0  0  0  0  0  0  0  0  0  0  0
  1  2  1  6  0  0  0
  1  6  1  0  0  0  0
  1 21  1  0  0  0  0
  3  4  1  1  0  0  0
  3  8  1  0  0  0  0
  3 28  1  0  0  0  0
  5  9  1  0  0  0  0
  5 25  1  0  0  0  0
  5 29  1  6  0  0  0
  6  7  1  6  0  0  0
  6 11  1  0  0  0  0
  8 12  1  0  0  0  0
  9 10  1  6  0  0  0
  9 14  1  0  0  0  0
 11 16  1  0  0  0  0
 12 13  1  6  0  0  0
 12 17  1  0  0  0  0
 14 15  1  1  0  0  0
 14 18  1  0  0  0  0
 15 31  1  0  0  0  0
 16 20  1  0  0  0  0
 17  2  1  6  0  0  0
 17 22  1  0  0  0  0
 18 19  1  1  0  0  0
 18 24  1  0  0  0  0
 18 30  1  0  0  0  0
 20 21  1  0  0  0  0
 20 26  1  1  0  0  0
 22 23  1  1  0  0  0
 22 28  1  0  0  0  0
 24 25  1  0  0  0  0
 26 27  1  0  0  0  0
 28 29  1  1  0  0  0
M  END
>  <CHROM.1>
178.54495549,174.94581132,-77.98703641,-121.84270008,179.34338326,72.39907631
-1.79344511,-8.38831110,31.75032587,0.96524538,0.64864770,-0.74261046

>  <Name>
2et3_lig

>  <RI>
0

>  <Rbt.Current_Directory>
/home/itssahil/PROJECTS/Mol_Feturizer/New_Systems/rnas/2et3

>  <Rbt.Executable>
rbdock ($Id: //depot/dev/client3/rdock/2013.1/src/exe/rbdock.cxx#4 $)

>  <Rbt.Library>
libRbt.so (2013.1, Build901 2013/11/27)

>  <Rbt.Parameter_File>
/export/apps/rDock/src/rDock_2013.1_src/data/scripts/dock_solv.prm

>  <Rbt.Receptor>
prm/pocket_docking_3.prm

>  <SCORE>
-24.3408

>  <SCORE.INTER>
-18.7439

>  <SCORE.INTER.CONST>
1

>  <SCORE.INTER.POLAR>
-0.648611

>  <SCORE.INTER.ROT>
6

>  <SCORE.INTER.SOLV>
19.3364

>  <SCORE.INTER.VDW>
-24.3794

>  <SCORE.INTER.norm>
-0.604642

>  <SCORE.INTRA>
-5.5969

>  <SCORE.INTRA.DIHEDRAL>
-13.7954

>  <SCORE.INTRA.DIHEDRAL.0>
22.2484

>  <SCORE.INTRA.POLAR>
0

>  <SCORE.INTRA.POLAR.0>
0

>  <SCORE.INTRA.REPUL>
0

>  <SCORE.INTRA.REPUL.0>
0

>  <SCORE.INTRA.SOLV>
2.49135

>  <SCORE.INTRA.SOLV.lig_0>
-75.7198

>  <SCORE.INTRA.VDW>
0.0551261

>  <SCORE.INTRA.VDW.0>
-3.34171

>  <SCORE.INTRA.norm>
-0.180545

>  <SCORE.RESTR>
0

>  <SCORE.RESTR.CAVITY>
0

>  <SCORE.RESTR.norm>
0

>  <SCORE.SYSTEM>
0

>  <SCORE.SYSTEM.CONST>
0

>  <SCORE.SYSTEM.DIHEDRAL>
0

>  <SCORE.SYSTEM.SOLV>
0

>  <SCORE.SYSTEM.norm>
0

>  <SCORE.heavy>
31

>  <SCORE.norm>
-0.785187

>  <RMSD>
1.598

$$$$
2et3_lig
 OpenBabel11021811423D
libRbt.so/2013.1/901 2013/11/27
 31 33  0  0  0  0  0  0  0  0999 V2000
    0.0239   -6.8844   29.8341 C   0  0  2  0  0  0  0  0  0  0  0  0
   -0.7477   -8.0557   29.4613 O   0  0  0  0  0  0  0  0  0  0  0  0
   -2.5623  -11.1802   31.7527 C   0  0  2  0  0  0  0  0  0  0  0  0
   -2.7061  -12.2218   32.7223 N   0  0  0  0  0  0  0  0  0  0  0  0
   -3.5970  -10.3208   34.5545 C   0  0  2  0  0  0  0  0  0  0  0  0
   -0.5460   -5.6448   29.1363 C   0  0  2  0  0  0  0  0  0  0  0  0
   -1.9304   -5.5260   29.4762 N   0  0  0  0  0  0  0  0  0  0  0  0
   -1.4396  -11.5648   30.7360 C   0  0  0  0  0  0  0  0  0  0  0  0
   -4.6087   -9.4848   35.3689 C   0  0  2  0  0  0  0  0  0  0  0  0
   -5.7471   -9.2425   34.5727 O   0  0  0  0  0  0  0  0  0  0  0  0
   -0.3316   -5.7425   27.5871 C   0  0  0  0  0  0  0  0  0  0  0  0
   -1.2684  -10.4207   29.6707 C   0  0  2  0  0  0  0  0  0  0  0  0
   -0.2116  -10.7779   28.7110 N   0  0  0  0  0  0  0  0  0  0  0  0
   -3.8945   -8.1392   35.8005 C   0  0  1  0  0  0  0  0  0  0  0  0
   -4.8264   -7.2427   36.5599 N   0  0  0  0  0  0  0  0  0  0  0  0
    1.2029   -5.8386   27.3172 C   0  0  0  0  0  0  0  0  0  0  0  0
   -0.9217   -9.0671   30.4015 C   0  0  2  0  0  0  0  0  0  0  0  0
   -2.5846   -8.4629   36.6966 C   0  0  1  0  0  0  0  0  0  0  0  0
   -2.9324   -9.1272   37.8938 O   0  0  0  0  0  0  0  0  0  0  0  0
    1.7725   -7.1165   28.0769 C   0  0  2  0  0  0  0  0  0  0  0  0
    1.4600   -7.0974   29.5049 O   0  0  0  0  0  0  0  0  0  0  0  0
   -2.0707   -8.7079   31.4207 C   0  0  2  0  0  0  0  0  0  0  0  0
   -1.7790   -7.4852   32.0899 O   0  0  0  0  0  0  0  0  0  0  0  0
   -1.6359   -9.4039   35.8917 C   0  0  0  0  0  0  0  0  0  0  0  0
   -2.3860  -10.5989   35.3797 O   0  0  0  0  0  0  0  0  0  0  0  0
    3.2540   -7.3402   27.8849 C   0  0  0  0  0  0  0  0  0  0  0  0
    3.6473   -8.6724   28.2620 N   0  0  0  0  0  0  0  0  0  0  0  0
   -2.2276   -9.8607   32.4736 C   0  0  1  0  0  0  0  0  0  0  0  0
   -3.2718   -9.5217   33.3780 O   0  0  0  0  0  0  0  0  0  0  0  0
   -1.7662   -7.2604   37.1861 C   0  0  0  0  0  0  0  0  0  0  0  0
   -4.8176   -5.8129   36.2081 C   0  0  0  0  0  0  0  0  0  0  0  0
  1  2  1  6  0  0  0
  1  6  1  0  0  0  0
  1 21  1  0  0  0  0
  3  4  1  1  0  0  0
  3  8  1  0  0  0  0
  3 28  1  0  0  0  0
  5  9  1  0  0  0  0
  5 25  1  0  0  0  0
  5 29  1  6  0  0  0
  6  7  1  6  0  0  0
  6 11  1  0  0  0  0
  8 12  1  0  0  0  0
  9 10  1  6  0  0  0
  9 14  1  0  0  0  0
 11 16  1  0  0  0  0
 12 13  1  6  0  0  0
 12 17  1  0  0  0  0
 14 15  1  1  0  0  0
 14 18  1  0  0  0  0
 15 31  1  0  0  0  0
 16 20  1  0  0  0  0
 17  2  1  6  0  0  0
 17 22  1  0  0  0  0
 18 19  1  1  0  0  0
 18 24  1  0  0  0  0
 18 30  1  0  0  0  0
 20 21  1  0  0  0  0
 20 26  1  1  0  0  0
 22 23  1  1  0  0  0
 22 28  1  0  0  0  0
 24 25  1  0  0  0  0
 26 27  1  0  0  0  0
 28 29  1  1  0  0  0
M  END
>  <CHROM.1>
-146.26056771,170.73629816,-136.01635586,-158.16214081,-163.84762168,65.45625123
-1.61221756,-8.50105572,32.17420748,0.01806457,1.02389796,0.16158051

>  <Name>
2et3_lig

>  <RI>
3.86414e+07

>  <Rbt.Current_Directory>
/home/itssahil/PROJECTS/Mol_Feturizer/New_Systems/rnas/2et3

>  <Rbt.Executable>
rbdock ($Id: //depot/dev/client3/rdock/2013.1/src/exe/rbdock.cxx#4 $)

>  <Rbt.Library>
libRbt.so (2013.1, Build901 2013/11/27)

>  <Rbt.Parameter_File>
/export/apps/rDock/src/rDock_2013.1_src/data/scripts/dock_solv.prm

>  <Rbt.Receptor>
prm/pocket_docking_8.prm

>  <SCORE>
-25.9949

>  <SCORE.INTER>
-18.847

>  <SCORE.INTER.CONST>
1

>  <SCORE.INTER.POLAR>
-0.938083

>  <SCORE.INTER.ROT>
6

>  <SCORE.INTER.SOLV>
13.4245

>  <SCORE.INTER.VDW>
-21.5125

>  <SCORE.INTER.norm>
-0.607967

>  <SCORE.INTRA>
-7.14795

>  <SCORE.INTRA.DIHEDRAL>
-13.286

>  <SCORE.INTRA.DIHEDRAL.0>
22.2484

>  <SCORE.INTRA.POLAR>
0

>  <SCORE.INTRA.POLAR.0>
0

>  <SCORE.INTRA.REPUL>
0

>  <SCORE.INTRA.REPUL.0>
0

>  <SCORE.INTRA.SOLV>
-1.22951

>  <SCORE.INTRA.SOLV.lig_0>
-75.7198

>  <SCORE.INTRA.VDW>
0.109796

>  <SCORE.INTRA.VDW.0>
-3.34171

>  <SCORE.INTRA.norm>
-0.230579

>  <SCORE.RESTR>
0

>  <SCORE.RESTR.CAVITY>
0

>  <SCORE.RESTR.norm>
0

>  <SCORE.SYSTEM>
0

>  <SCORE.SYSTEM.CONST>
0

>  <SCORE.SYSTEM.DIHEDRAL>
0

>  <SCORE.SYSTEM.SOLV>
0

>  <SCORE.SYSTEM.norm>
0

>  <SCORE.heavy>
31

>  <SCORE.norm>
-0.838546

>  <RMSD>
1.663

$$$$
2et3_lig
 OpenBabel11021811423D
libRbt.so/2013.1/901 2013/11/27
 31 33  0  0  0  0  0  0  0  0999 V2000
    0.2018   -7.2388   29.6780 C   0  0  2  0  0  0  0  0  0  0  0  0
   -0.7638   -8.2773   29.3693 O   0  0  0  0  0  0  0  0  0  0  0  0
   -2.8518  -11.1285   31.7812 C   0  0  2  0  0  0  0  0  0  0  0  0
   -3.0801  -12.1412   32.7651 N   0  0  0  0  0  0  0  0  0  0  0  0
   -3.6105  -10.1419   34.6243 C   0  0  2  0  0  0  0  0  0  0  0  0
   -0.0988   -5.9878   28.8455 C   0  0  2  0  0  0  0  0  0  0  0  0
   -1.4468   -5.5830   29.1009 N   0  0  0  0  0  0  0  0  0  0  0  0
   -1.8498  -11.6610   30.7067 C   0  0  0  0  0  0  0  0  0  0  0  0
   -4.5821   -9.2359   35.4121 C   0  0  2  0  0  0  0  0  0  0  0  0
   -5.7028   -8.9555   34.6035 O   0  0  0  0  0  0  0  0  0  0  0  0
    0.1472   -6.2713   27.3242 C   0  0  0  0  0  0  0  0  0  0  0  0
   -1.5859  -10.5505   29.6250 C   0  0  2  0  0  0  0  0  0  0  0  0
   -0.6422  -11.0470   28.6108 N   0  0  0  0  0  0  0  0  0  0  0  0
   -3.8023   -7.9182   35.8153 C   0  0  1  0  0  0  0  0  0  0  0  0
   -4.6908   -6.9572   36.5473 N   0  0  0  0  0  0  0  0  0  0  0  0
    1.6443   -6.6750   27.1442 C   0  0  0  0  0  0  0  0  0  0  0  0
   -1.0197   -9.2560   30.3253 C   0  0  2  0  0  0  0  0  0  0  0  0
   -2.5149   -8.2862   36.7269 C   0  0  1  0  0  0  0  0  0  0  0  0
   -2.9019   -8.9025   37.9377 O   0  0  0  0  0  0  0  0  0  0  0  0
    1.9352   -7.9575   28.0415 C   0  0  2  0  0  0  0  0  0  0  0  0
    1.5823   -7.7443   29.4441 O   0  0  0  0  0  0  0  0  0  0  0  0
   -2.0509   -8.7451   31.4039 C   0  0  2  0  0  0  0  0  0  0  0  0
   -1.5602   -7.5730   32.0466 O   0  0  0  0  0  0  0  0  0  0  0  0
   -1.6116   -9.2937   35.9507 C   0  0  0  0  0  0  0  0  0  0  0  0
   -2.4193  -10.4611   35.4633 O   0  0  0  0  0  0  0  0  0  0  0  0
    3.3535   -8.4687   27.9475 C   0  0  0  0  0  0  0  0  0  0  0  0
    4.3154   -7.4264   28.1928 N   0  0  0  0  0  0  0  0  0  0  0  0
   -2.3026   -9.8663   32.4724 C   0  0  1  0  0  0  0  0  0  0  0  0
   -3.2393   -9.3895   33.4308 O   0  0  0  0  0  0  0  0  0  0  0  0
   -1.6385   -7.1154   37.1922 C   0  0  0  0  0  0  0  0  0  0  0  0
   -4.9817   -5.6746   35.8850 C   0  0  0  0  0  0  0  0  0  0  0  0
  1  2  1  6  0  0  0
  1  6  1  0  0  0  0
  1 21  1  0  0  0  0
  3  4  1  1  0  0  0
  3  8  1  0  0  0  0
  3 28  1  0  0  0  0
  5  9  1  0  0  0  0
  5 25  1  0  0  0  0
  5 29  1  6  0  0  0
  6  7  1  6  0  0  0
  6 11  1  0  0  0  0
  8 12  1  0  0  0  0
  9 10  1  6  0  0  0
  9 14  1  0  0  0  0
 11 16  1  0  0  0  0
 12 13  1  6  0  0  0
 12 17  1  0  0  0  0
 14 15  1  1  0  0  0
 14 18  1  0  0  0  0
 15 31  1  0  0  0  0
 16 20  1  0  0  0  0
 17  2  1  6  0  0  0
 17 22  1  0  0  0  0
 18 19  1  1  0  0  0
 18 24  1  0  0  0  0
 18 30  1  0  0  0  0
 20 21  1  0  0  0  0
 20 26  1  1  0  0  0
 22 23  1  1  0  0  0
 22 28  1  0  0  0  0
 24 25  1  0  0  0  0
 26 27  1  0  0  0  0
 28 29  1  1  0  0  0
M  END
>  <CHROM.1>
-155.07469179,177.07310185,-114.71038743,-156.72612909,52.36079224,64.97356356
-1.55721805,-8.56688966,32.12332857,-0.34895029,0.96295624,0.53151816

>  <Name>
2et3_lig

>  <RI>
0

>  <Rbt.Current_Directory>
/home/itssahil/PROJECTS/Mol_Feturizer/New_Systems/rnas/2et3

>  <Rbt.Executable>
rbdock ($Id: //depot/dev/client3/rdock/2013.1/src/exe/rbdock.cxx#4 $)

>  <Rbt.Library>
libRbt.so (2013.1, Build901 2013/11/27)

>  <Rbt.Parameter_File>
/export/apps/rDock/src/rDock_2013.1_src/data/scripts/dock_solv.prm

>  <Rbt.Receptor>
prm/pocket_docking_3.prm

>  <SCORE>
-24.8177

>  <SCORE.INTER>
-16.8242

>  <SCORE.INTER.CONST>
1

>  <SCORE.INTER.POLAR>
-0.934065

>  <SCORE.INTER.ROT>
6

>  <SCORE.INTER.SOLV>
13.9455

>  <SCORE.INTER.VDW>
-20.3511

>  <SCORE.INTER.norm>
-0.542716

>  <SCORE.INTRA>
-7.99354

>  <SCORE.INTRA.DIHEDRAL>
-15.5846

>  <SCORE.INTRA.DIHEDRAL.0>
22.2484

>  <SCORE.INTRA.POLAR>
0

>  <SCORE.INTRA.POLAR.0>
0

>  <SCORE.INTRA.REPUL>
0

>  <SCORE.INTRA.REPUL.0>
0

>  <SCORE.INTRA.SOLV>
-0.754386

>  <SCORE.INTRA.SOLV.lig_0>
-75.7198

>  <SCORE.INTRA.VDW>
0.17597

>  <SCORE.INTRA.VDW.0>
-3.34171

>  <SCORE.INTRA.norm>
-0.257856

>  <SCORE.RESTR>
0

>  <SCORE.RESTR.CAVITY>
0

>  <SCORE.RESTR.norm>
0

>  <SCORE.SYSTEM>
0

>  <SCORE.SYSTEM.CONST>
0

>  <SCORE.SYSTEM.DIHEDRAL>
0

>  <SCORE.SYSTEM.SOLV>
0

>  <SCORE.SYSTEM.norm>
0

>  <SCORE.heavy>
31

>  <SCORE.norm>
-0.800572

>  <RMSD>
1.683

$$$$
2et3_lig
 OpenBabel11021811423D
libRbt.so/2013.1/901 2013/11/27
 31 33  0  0  0  0  0  0  0  0999 V2000
    0.3268   -6.2104   29.0760 C   0  0  2  0  0  0  0  0  0  0  0  0
   -0.3418   -7.4984   29.0837 O   0  0  0  0  0  0  0  0  0  0  0  0
   -1.5989  -10.1031   32.2368 C   0  0  2  0  0  0  0  0  0  0  0  0
   -1.5458  -10.8757   33.4392 N   0  0  0  0  0  0  0  0  0  0  0  0
   -2.2723   -8.3062   34.9240 C   0  0  2  0  0  0  0  0  0  0  0  0
   -0.1365   -5.3932   27.8653 C   0  0  2  0  0  0  0  0  0  0  0  0
   -1.5614   -5.2760   27.9124 N   0  0  0  0  0  0  0  0  0  0  0  0
   -0.5186  -10.6228   31.2342 C   0  0  0  0  0  0  0  0  0  0  0  0
   -3.6648   -7.9424   35.4848 C   0  0  2  0  0  0  0  0  0  0  0  0
   -4.6213   -8.8240   34.9405 O   0  0  0  0  0  0  0  0  0  0  0  0
    0.3504   -6.0628   26.5349 C   0  0  0  0  0  0  0  0  0  0  0  0
   -0.5638   -9.7729   29.9118 C   0  0  2  0  0  0  0  0  0  0  0  0
    0.4523  -10.2582   28.9643 N   0  0  0  0  0  0  0  0  0  0  0  0
   -3.9668   -6.4361   35.1017 C   0  0  1  0  0  0  0  0  0  0  0  0
   -5.3272   -6.0132   35.5701 N   0  0  0  0  0  0  0  0  0  0  0  0
    1.9101   -6.1187   26.5653 C   0  0  0  0  0  0  0  0  0  0  0  0
   -0.3245   -8.2522   30.2536 C   0  0  2  0  0  0  0  0  0  0  0  0
   -2.8367   -5.4609   35.7307 C   0  0  1  0  0  0  0  0  0  0  0  0
   -2.8371   -5.5173   37.1422 O   0  0  0  0  0  0  0  0  0  0  0  0
    2.3631   -6.9472   27.8471 C   0  0  2  0  0  0  0  0  0  0  0  0
    1.8027   -6.4053   29.0839 O   0  0  0  0  0  0  0  0  0  0  0  0
   -1.4276   -7.7589   31.2674 C   0  0  2  0  0  0  0  0  0  0  0  0
   -1.2320   -6.3851   31.5870 O   0  0  0  0  0  0  0  0  0  0  0  0
   -1.4311   -5.9255   35.2388 C   0  0  0  0  0  0  0  0  0  0  0  0
   -1.2401   -7.3923   35.4933 O   0  0  0  0  0  0  0  0  0  0  0  0
    3.8596   -7.0948   27.9905 C   0  0  0  0  0  0  0  0  0  0  0  0
    4.4215   -7.8975   26.9360 N   0  0  0  0  0  0  0  0  0  0  0  0
   -1.3682   -8.6190   32.5784 C   0  0  1  0  0  0  0  0  0  0  0  0
   -2.3738   -8.1640   33.4757 O   0  0  0  0  0  0  0  0  0  0  0  0
   -2.9761   -3.9607   35.4382 C   0  0  0  0  0  0  0  0  0  0  0  0
   -6.1594   -5.2572   34.6192 C   0  0  0  0  0  0  0  0  0  0  0  0
  1  2  1  6  0  0  0
  1  6  1  0  0  0  0
  1 21  1  0  0  0  0
  3  4  1  1  0  0  0
  3  8  1  0  0  0  0
  3 28  1  0  0  0  0
  5  9  1  0  0  0  0
  5 25  1  0  0  0  0
  5 29  1  6  0  0  0
  6  7  1  6  0  0  0
  6 11  1  0  0  0  0
  8 12  1  0  0  0  0
  9 10  1  6  0  0  0
  9 14  1  0  0  0  0
 11 16  1  0  0  0  0
 12 13  1  6  0  0  0
 12 17  1  0  0  0  0
 14 15  1  1  0  0  0
 14 18  1  0  0  0  0
 15 31  1  0  0  0  0
 16 20  1  0  0  0  0
 17  2  1  6  0  0  0
 17 22  1  0  0  0  0
 18 19  1  1  0  0  0
 18 24  1  0  0  0  0
 18 30  1  0  0  0  0
 20 21  1  0  0  0  0
 20 26  1  1  0  0  0
 22 23  1  1  0  0  0
 22 28  1  0  0  0  0
 24 25  1  0  0  0  0
 26 27  1  0  0  0  0
 28 29  1  1  0  0  0
M  END
>  <CHROM.1>
-164.16232738,-169.33586733,-134.99799713,-157.40983041,-66.29312870,86.35530626
-1.14471519,-7.29373233,31.76867556,0.17860594,0.95883087,-0.28253700

>  <Name>
2et3_lig

>  <RI>
0

>  <Rbt.Current_Directory>
/home/itssahil/PROJECTS/Mol_Feturizer/New_Systems/rnas/2et3

>  <Rbt.Executable>
rbdock ($Id: //depot/dev/client3/rdock/2013.1/src/exe/rbdock.cxx#4 $)

>  <Rbt.Library>
libRbt.so (2013.1, Build901 2013/11/27)

>  <Rbt.Parameter_File>
/export/apps/rDock/src/rDock_2013.1_src/data/scripts/dock_solv.prm

>  <Rbt.Receptor>
prm/pocket_docking_3.prm

>  <SCORE>
-28.1026

>  <SCORE.INTER>
-19.6197

>  <SCORE.INTER.CONST>
1

>  <SCORE.INTER.POLAR>
-1.78439

>  <SCORE.INTER.ROT>
6

>  <SCORE.INTER.SOLV>
13.6667

>  <SCORE.INTER.VDW>
-19.2874

>  <SCORE.INTER.norm>
-0.632895

>  <SCORE.INTRA>
-8.48287

>  <SCORE.INTRA.DIHEDRAL>
-14.0862

>  <SCORE.INTRA.DIHEDRAL.0>
22.2484

>  <SCORE.INTRA.POLAR>
0

>  <SCORE.INTRA.POLAR.0>
0

>  <SCORE.INTRA.REPUL>
0

>  <SCORE.INTRA.REPUL.0>
0

>  <SCORE.INTRA.SOLV>
-2.32409

>  <SCORE.INTRA.SOLV.lig_0>
-75.7198

>  <SCORE.INTRA.VDW>
-0.277735

>  <SCORE.INTRA.VDW.0>
-3.34171

>  <SCORE.INTRA.norm>
-0.273641

>  <SCORE.RESTR>
0

>  <SCORE.RESTR.CAVITY>
0

>  <SCORE.RESTR.norm>
0

>  <SCORE.SYSTEM>
0

>  <SCORE.SYSTEM.CONST>
0

>  <SCORE.SYSTEM.DIHEDRAL>
0

>  <SCORE.SYSTEM.SOLV>
0

>  <SCORE.SYSTEM.norm>
0

>  <SCORE.heavy>
31

>  <SCORE.norm>
-0.906536

>  <RMSD>
1.737

$$$$
2et3_lig
 OpenBabel11021811423D
libRbt.so/2013.1/901 2013/11/27
 31 33  0  0  0  0  0  0  0  0999 V2000
    0.7314   -6.8203   29.2215 C   0  0  2  0  0  0  0  0  0  0  0  0
    0.0588   -8.0876   29.0030 O   0  0  0  0  0  0  0  0  0  0  0  0
   -1.2976  -11.0120   31.8162 C   0  0  2  0  0  0  0  0  0  0  0  0
   -1.2570  -11.9844   32.8643 N   0  0  0  0  0  0  0  0  0  0  0  0
   -3.1077   -9.1829   33.3273 C   0  0  2  0  0  0  0  0  0  0  0  0
    0.1227   -5.7471   28.3127 C   0  0  2  0  0  0  0  0  0  0  0  0
   -1.2832   -5.6778   28.5670 N   0  0  0  0  0  0  0  0  0  0  0  0
   -0.4028  -11.4887   30.6269 C   0  0  0  0  0  0  0  0  0  0  0  0
   -3.5170   -7.7705   33.7997 C   0  0  2  0  0  0  0  0  0  0  0  0
   -2.9006   -6.8136   32.9673 O   0  0  0  0  0  0  0  0  0  0  0  0
    0.4289   -6.0659   26.8093 C   0  0  0  0  0  0  0  0  0  0  0  0
   -0.4345  -10.4209   29.4728 C   0  0  2  0  0  0  0  0  0  0  0  0
    0.4072  -10.8650   28.3504 N   0  0  0  0  0  0  0  0  0  0  0  0
   -3.0700   -7.6124   35.3103 C   0  0  1  0  0  0  0  0  0  0  0  0
   -3.3893   -6.2450   35.8367 N   0  0  0  0  0  0  0  0  0  0  0  0
    1.9791   -6.0912   26.6272 C   0  0  0  0  0  0  0  0  0  0  0  0
    0.0642   -9.0311   30.0262 C   0  0  2  0  0  0  0  0  0  0  0  0
   -3.7858   -8.7397   36.2271 C   0  0  1  0  0  0  0  0  0  0  0  0
   -5.1911   -8.5964   36.2139 O   0  0  0  0  0  0  0  0  0  0  0  0
    2.5865   -7.1927   27.6031 C   0  0  2  0  0  0  0  0  0  0  0  0
    2.1944   -6.9771   28.9948 O   0  0  0  0  0  0  0  0  0  0  0  0
   -0.8560   -8.5790   31.2248 C   0  0  2  0  0  0  0  0  0  0  0  0
   -0.4248   -7.3225   31.7378 O   0  0  0  0  0  0  0  0  0  0  0  0
   -3.4487  -10.1515   35.6554 C   0  0  0  0  0  0  0  0  0  0  0  0
   -3.7558  -10.2147   34.1876 O   0  0  0  0  0  0  0  0  0  0  0  0
    4.0877   -7.3357   27.5155 C   0  0  0  0  0  0  0  0  0  0  0  0
    4.5421   -8.5727   28.0943 N   0  0  0  0  0  0  0  0  0  0  0  0
   -0.8129   -9.6566   32.3646 C   0  0  1  0  0  0  0  0  0  0  0  0
   -1.6534   -9.2346   33.4317 O   0  0  0  0  0  0  0  0  0  0  0  0
   -3.4453   -8.7338   37.7236 C   0  0  0  0  0  0  0  0  0  0  0  0
   -4.7696   -5.7635   35.6604 C   0  0  0  0  0  0  0  0  0  0  0  0
  1  2  1  6  0  0  0
  1  6  1  0  0  0  0
  1 21  1  0  0  0  0
  3  4  1  1  0  0  0
  3  8  1  0  0  0  0
  3 28  1  0  0  0  0
  5  9  1  0  0  0  0
  5 25  1  0  0  0  0
  5 29  1  1  0  0  0
  6  7  1  6  0  0  0
  6 11  1  0  0  0  0
  8 12  1  0  0  0  0
  9 10  1  6  0  0  0
  9 14  1  0  0  0  0
 11 16  1  0  0  0  0
 12 13  1  6  0  0  0
 12 17  1  0  0  0  0
 14 15  1  1  0  0  0
 14 18  1  0  0  0  0
 15 31  1  0  0  0  0
 16 20  1  0  0  0  0
 17  2  1  6  0  0  0
 17 22  1  0  0  0  0
 18 19  1  6  0  0  0
 18 24  1  0  0  0  0
 18 30  1  0  0  0  0
 20 21  1  0  0  0  0
 20 26  1  1  0  0  0
 22 23  1  1  0  0  0
 22 28  1  0  0  0  0
 24 25  1  0  0  0  0
 26 27  1  0  0  0  0
 28 29  1  1  0  0  0
M  END
>  <CHROM.1>
-155.27448240,-129.03368583,51.73683521,-167.70274472,-162.86535641,-51.07125365
-1.04522478,-8.30724134,31.63735859,0.29246367,0.90770890,-0.23383997

>  <Name>
2et3_lig

>  <RI>
0

>  <Rbt.Current_Directory>
/home/itssahil/PROJECTS/Mol_Feturizer/New_Systems/rnas/2et3

>  <Rbt.Executable>
rbdock ($Id: //depot/dev/client3/rdock/2013.1/src/exe/rbdock.cxx#4 $)

>  <Rbt.Library>
libRbt.so (2013.1, Build901 2013/11/27)

>  <Rbt.Parameter_File>
/export/apps/rDock/src/rDock_2013.1_src/data/scripts/dock_solv.prm

>  <Rbt.Receptor>
prm/pocket_docking_2.prm

>  <SCORE>
-20.5175

>  <SCORE.INTER>
-16.5056

>  <SCORE.INTER.CONST>
1

>  <SCORE.INTER.POLAR>
-0.938083

>  <SCORE.INTER.ROT>
6

>  <SCORE.INTER.SOLV>
17.6164

>  <SCORE.INTER.VDW>
-21.3489

>  <SCORE.INTER.norm>
-0.532437

>  <SCORE.INTRA>
-4.40503

>  <SCORE.INTRA.DIHEDRAL>
-10.5437

>  <SCORE.INTRA.DIHEDRAL.0>
22.2484

>  <SCORE.INTRA.POLAR>
0

>  <SCORE.INTRA.POLAR.0>
0

>  <SCORE.INTRA.REPUL>
0

>  <SCORE.INTRA.REPUL.0>
0

>  <SCORE.INTRA.SOLV>
-1.49003

>  <SCORE.INTRA.SOLV.lig_0>
-75.7198

>  <SCORE.INTRA.VDW>
1.61184

>  <SCORE.INTRA.VDW.0>
-3.34171

>  <SCORE.INTRA.norm>
-0.142098

>  <SCORE.RESTR>
0.393036

>  <SCORE.RESTR.CAVITY>
0.393036

>  <SCORE.RESTR.norm>
0.0126786

>  <SCORE.SYSTEM>
0

>  <SCORE.SYSTEM.CONST>
0

>  <SCORE.SYSTEM.DIHEDRAL>
0

>  <SCORE.SYSTEM.SOLV>
0

>  <SCORE.SYSTEM.norm>
0

>  <SCORE.heavy>
31

>  <SCORE.norm>
-0.661856

>  <RMSD>
1.859

$$$$
2et3_lig
 OpenBabel11021811423D
libRbt.so/2013.1/901 2013/11/27
 31 33  0  0  0  0  0  0  0  0999 V2000
    0.7415   -6.6471   29.2175 C   0  0  2  0  0  0  0  0  0  0  0  0
   -0.1722   -7.7725   29.1484 O   0  0  0  0  0  0  0  0  0  0  0  0
   -1.3347  -10.9368   31.7832 C   0  0  2  0  0  0  0  0  0  0  0  0
   -1.2443  -11.9270   32.8113 N   0  0  0  0  0  0  0  0  0  0  0  0
   -3.4518   -9.6657   33.2823 C   0  0  2  0  0  0  0  0  0  0  0  0
    0.3223   -5.5763   28.2045 C   0  0  2  0  0  0  0  0  0  0  0  0
   -1.0335   -5.2046   28.4685 N   0  0  0  0  0  0  0  0  0  0  0  0
   -0.2943  -11.2532   30.6609 C   0  0  0  0  0  0  0  0  0  0  0  0
   -4.2692   -8.3599   33.3937 C   0  0  2  0  0  0  0  0  0  0  0  0
   -3.8831   -7.4889   32.3541 O   0  0  0  0  0  0  0  0  0  0  0  0
    0.5081   -6.1053   26.7413 C   0  0  0  0  0  0  0  0  0  0  0  0
   -0.3805  -10.1641   29.5297 C   0  0  2  0  0  0  0  0  0  0  0  0
    0.5979  -10.4573   28.4703 N   0  0  0  0  0  0  0  0  0  0  0  0
   -3.9941   -7.7321   34.8209 C   0  0  1  0  0  0  0  0  0  0  0  0
   -4.7167   -6.4298   34.9960 N   0  0  0  0  0  0  0  0  0  0  0  0
    2.0164   -6.4551   26.5423 C   0  0  0  0  0  0  0  0  0  0  0  0
   -0.1187   -8.7379   30.1495 C   0  0  2  0  0  0  0  0  0  0  0  0
   -4.4345   -8.7703   35.9837 C   0  0  1  0  0  0  0  0  0  0  0  0
   -5.8197   -9.0422   35.9321 O   0  0  0  0  0  0  0  0  0  0  0  0
    2.4311   -7.5462   27.6250 C   0  0  2  0  0  0  0  0  0  0  0  0
    2.1371   -7.1125   28.9898 O   0  0  0  0  0  0  0  0  0  0  0  0
   -1.1816   -8.4496   31.2786 C   0  0  2  0  0  0  0  0  0  0  0  0
   -0.9653   -7.1633   31.8500 O   0  0  0  0  0  0  0  0  0  0  0  0
   -3.6793  -10.1193   35.7757 C   0  0  0  0  0  0  0  0  0  0  0  0
   -3.8496  -10.6089   34.3671 O   0  0  0  0  0  0  0  0  0  0  0  0
    3.8718   -7.9911   27.5335 C   0  0  0  0  0  0  0  0  0  0  0  0
    4.7650   -6.8775   27.3491 N   0  0  0  0  0  0  0  0  0  0  0  0
   -1.0817   -9.5465   32.3962 C   0  0  1  0  0  0  0  0  0  0  0  0
   -2.0516   -9.2733   33.4001 O   0  0  0  0  0  0  0  0  0  0  0  0
   -4.2183   -8.3177   37.4342 C   0  0  0  0  0  0  0  0  0  0  0  0
   -4.0349   -5.2147   34.5195 C   0  0  0  0  0  0  0  0  0  0  0  0
  1  2  1  6  0  0  0
  1  6  1  0  0  0  0
  1 21  1  0  0  0  0
  3  4  1  1  0  0  0
  3  8  1  0  0  0  0
  3 28  1  0  0  0  0
  5  9  1  0  0  0  0
  5 25  1  0  0  0  0
  5 29  1  1  0  0  0
  6  7  1  1  0  0  0
  6 11  1  0  0  0  0
  8 12  1  0  0  0  0
  9 10  1  6  0  0  0
  9 14  1  0  0  0  0
 11 16  1  0  0  0  0
 12 13  1  6  0  0  0
 12 17  1  0  0  0  0
 14 15  1  1  0  0  0
 14 18  1  0  0  0  0
 15 31  1  0  0  0  0
 16 20  1  0  0  0  0
 17  2  1  6  0  0  0
 17 22  1  0  0  0  0
 18 19  1  6  0  0  0
 18 24  1  0  0  0  0
 18 30  1  0  0  0  0
 20 21  1  0  0  0  0
 20 26  1  1  0  0  0
 22 23  1  1  0  0  0
 22 28  1  0  0  0  0
 24 25  1  0  0  0  0
 26 27  1  0  0  0  0
 28 29  1  1  0  0  0
M  END
>  <CHROM.1>
-168.23885994,-121.77087602,-86.48675288,-143.33083392,44.15323759,-38.12957521
-1.28069241,-8.27634366,31.48849991,0.37272427,0.82065111,-0.29899699

>  <Name>
2et3_lig

>  <RI>
0

>  <Rbt.Current_Directory>
/home/itssahil/PROJECTS/Mol_Feturizer/New_Systems/rnas/2et3

>  <Rbt.Executable>
rbdock ($Id: //depot/dev/client3/rdock/2013.1/src/exe/rbdock.cxx#4 $)

>  <Rbt.Library>
libRbt.so (2013.1, Build901 2013/11/27)

>  <Rbt.Parameter_File>
/export/apps/rDock/src/rDock_2013.1_src/data/scripts/dock_solv.prm

>  <Rbt.Receptor>
prm/pocket_docking_3.prm

>  <SCORE>
-17.2022

>  <SCORE.INTER>
-14.3596

>  <SCORE.INTER.CONST>
1

>  <SCORE.INTER.POLAR>
-0.938083

>  <SCORE.INTER.ROT>
6

>  <SCORE.INTER.SOLV>
18.6126

>  <SCORE.INTER.VDW>
-20.2503

>  <SCORE.INTER.norm>
-0.463211

>  <SCORE.INTRA>
-2.86043

>  <SCORE.INTRA.DIHEDRAL>
-6.02993

>  <SCORE.INTRA.DIHEDRAL.0>
22.2484

>  <SCORE.INTRA.POLAR>
0

>  <SCORE.INTRA.POLAR.0>
0

>  <SCORE.INTRA.REPUL>
0

>  <SCORE.INTRA.REPUL.0>
0

>  <SCORE.INTRA.SOLV>
0.0562064

>  <SCORE.INTRA.SOLV.lig_0>
-75.7198

>  <SCORE.INTRA.VDW>
0.12643

>  <SCORE.INTRA.VDW.0>
-3.34171

>  <SCORE.INTRA.norm>
-0.092272

>  <SCORE.RESTR>
0.0177863

>  <SCORE.RESTR.CAVITY>
0.0177863

>  <SCORE.RESTR.norm>
0.000573751

>  <SCORE.SYSTEM>
0

>  <SCORE.SYSTEM.CONST>
0

>  <SCORE.SYSTEM.DIHEDRAL>
0

>  <SCORE.SYSTEM.SOLV>
0

>  <SCORE.SYSTEM.norm>
0

>  <SCORE.heavy>
31

>  <SCORE.norm>
-0.55491

>  <RMSD>
1.862

$$$$
2et3_lig
 OpenBabel11021811423D
libRbt.so/2013.1/901 2013/11/27
 31 33  0  0  0  0  0  0  0  0999 V2000
    0.3388   -7.7373   29.1271 C   0  0  2  0  0  0  0  0  0  0  0  0
   -0.7756   -8.6214   29.4148 O   0  0  0  0  0  0  0  0  0  0  0  0
   -1.4285  -12.1321   31.7717 C   0  0  2  0  0  0  0  0  0  0  0  0
   -1.2342  -13.1212   32.7864 N   0  0  0  0  0  0  0  0  0  0  0  0
   -2.8069  -11.3857   34.6126 C   0  0  2  0  0  0  0  0  0  0  0  0
    0.2641   -6.4995   30.0274 C   0  0  2  0  0  0  0  0  0  0  0  0
    0.2369   -6.9286   31.3916 N   0  0  0  0  0  0  0  0  0  0  0  0
   -0.1772  -12.0911   30.8363 C   0  0  0  0  0  0  0  0  0  0  0  0
   -4.2334  -11.1870   35.1706 C   0  0  2  0  0  0  0  0  0  0  0  0
   -5.1491  -11.8566   34.3330 O   0  0  0  0  0  0  0  0  0  0  0  0
   -0.9898   -5.6332   29.6628 C   0  0  0  0  0  0  0  0  0  0  0  0
   -0.3784  -10.9997   29.7222 C   0  0  2  0  0  0  0  0  0  0  0  0
    0.7978  -10.9567   28.8387 N   0  0  0  0  0  0  0  0  0  0  0  0
   -4.5208   -9.6313   35.2328 C   0  0  1  0  0  0  0  0  0  0  0  0
   -5.9100   -9.3492   35.7222 N   0  0  0  0  0  0  0  0  0  0  0  0
   -0.8543   -5.1912   28.1719 C   0  0  0  0  0  0  0  0  0  0  0  0
   -0.6187   -9.5949   30.3971 C   0  0  2  0  0  0  0  0  0  0  0  0
   -3.4375   -8.8995   36.1893 C   0  0  1  0  0  0  0  0  0  0  0  0
   -3.5242   -9.3707   37.5181 O   0  0  0  0  0  0  0  0  0  0  0  0
   -0.7493   -6.4947   27.2639 C   0  0  2  0  0  0  0  0  0  0  0  0
    0.3394   -7.3759   27.6830 O   0  0  0  0  0  0  0  0  0  0  0  0
   -1.8847   -9.6693   31.3349 C   0  0  2  0  0  0  0  0  0  0  0  0
   -2.1223   -8.4084   31.9524 O   0  0  0  0  0  0  0  0  0  0  0  0
   -2.0015   -9.2150   35.6680 C   0  0  0  0  0  0  0  0  0  0  0  0
   -1.8173  -10.6937   35.4881 O   0  0  0  0  0  0  0  0  0  0  0  0
   -0.6306   -6.2100   25.7852 C   0  0  0  0  0  0  0  0  0  0  0  0
    0.6809   -5.7304   25.4362 N   0  0  0  0  0  0  0  0  0  0  0  0
   -1.6663  -10.7638   32.4379 C   0  0  1  0  0  0  0  0  0  0  0  0
   -2.8202  -10.8204   33.2678 O   0  0  0  0  0  0  0  0  0  0  0  0
   -3.5681   -7.3783   36.3459 C   0  0  0  0  0  0  0  0  0  0  0  0
   -7.0060   -9.4917   34.7493 C   0  0  0  0  0  0  0  0  0  0  0  0
  1  2  1  6  0  0  0
  1  6  1  0  0  0  0
  1 21  1  0  0  0  0
  3  4  1  1  0  0  0
  3  8  1  0  0  0  0
  3 28  1  0  0  0  0
  5  9  1  0  0  0  0
  5 25  1  0  0  0  0
  5 29  1  6  0  0  0
  6  7  1  1  0  0  0
  6 11  1  0  0  0  0
  8 12  1  0  0  0  0
  9 10  1  6  0  0  0
  9 14  1  0  0  0  0
 11 16  1  0  0  0  0
 12 13  1  6  0  0  0
 12 17  1  0  0  0  0
 14 15  1  1  0  0  0
 14 18  1  0  0  0  0
 15 31  1  0  0  0  0
 16 20  1  0  0  0  0
 17  2  1  6  0  0  0
 17 22  1  0  0  0  0
 18 19  1  1  0  0  0
 18 24  1  0  0  0  0
 18 30  1  0  0  0  0
 20 21  1  0  0  0  0
 20 26  1  6  0  0  0
 22 23  1  1  0  0  0
 22 28  1  0  0  0  0
 24 25  1  0  0  0  0
 26 27  1  0  0  0  0
 28 29  1  1  0  0  0
M  END
>  <CHROM.1>
-89.56821827,177.46226400,-79.38320890,-102.49050290,74.48997763,80.21850529
-1.88752519,-9.14247987,31.91672975,-0.66037894,-0.99150598,2.77946843

>  <Name>
2et3_lig

>  <RI>
0

>  <Rbt.Current_Directory>
/home/itssahil/PROJECTS/Mol_Feturizer/New_Systems/rnas/2et3

>  <Rbt.Executable>
rbdock ($Id: //depot/dev/client3/rdock/2013.1/src/exe/rbdock.cxx#4 $)

>  <Rbt.Library>
libRbt.so (2013.1, Build901 2013/11/27)

>  <Rbt.Parameter_File>
/export/apps/rDock/src/rDock_2013.1_src/data/scripts/dock_solv.prm

>  <Rbt.Receptor>
prm/pocket_docking_2.prm

>  <SCORE>
-16.9331

>  <SCORE.INTER>
-12.7473

>  <SCORE.INTER.CONST>
1

>  <SCORE.INTER.POLAR>
-0.000360945

>  <SCORE.INTER.ROT>
6

>  <SCORE.INTER.SOLV>
25.235

>  <SCORE.INTER.VDW>
-24.5086

>  <SCORE.INTER.norm>
-0.411202

>  <SCORE.INTRA>
-4.78367

>  <SCORE.INTRA.DIHEDRAL>
-9.95086

>  <SCORE.INTRA.DIHEDRAL.0>
22.2484

>  <SCORE.INTRA.POLAR>
0

>  <SCORE.INTRA.POLAR.0>
0

>  <SCORE.INTRA.REPUL>
0

>  <SCORE.INTRA.REPUL.0>
0

>  <SCORE.INTRA.SOLV>
0.713121

>  <SCORE.INTRA.SOLV.lig_0>
-75.7198

>  <SCORE.INTRA.VDW>
-0.164804

>  <SCORE.INTRA.VDW.0>
-3.34171

>  <SCORE.INTRA.norm>
-0.154312

>  <SCORE.RESTR>
0.597832

>  <SCORE.RESTR.CAVITY>
0.597832

>  <SCORE.RESTR.norm>
0.0192849

>  <SCORE.SYSTEM>
0

>  <SCORE.SYSTEM.CONST>
0

>  <SCORE.SYSTEM.DIHEDRAL>
0

>  <SCORE.SYSTEM.SOLV>
0

>  <SCORE.SYSTEM.norm>
0

>  <SCORE.heavy>
31

>  <SCORE.norm>
-0.546229

>  <RMSD>
2.000

$$$$
2et3_lig
 OpenBabel11021811423D
libRbt.so/2013.1/901 2013/11/27
 31 33  0  0  0  0  0  0  0  0999 V2000
    0.4574   -6.3452   29.0390 C   0  0  2  0  0  0  0  0  0  0  0  0
   -0.2437   -7.6089   28.9054 O   0  0  0  0  0  0  0  0  0  0  0  0
   -1.1136  -10.8944   31.5045 C   0  0  2  0  0  0  0  0  0  0  0  0
   -0.9508  -11.8564   32.5502 N   0  0  0  0  0  0  0  0  0  0  0  0
   -3.5084   -9.8607   32.8082 C   0  0  2  0  0  0  0  0  0  0  0  0
    0.0244   -5.3916   27.9203 C   0  0  2  0  0  0  0  0  0  0  0  0
   -1.3974   -5.2432   27.9723 N   0  0  0  0  0  0  0  0  0  0  0  0
    0.0329  -11.0638   30.4562 C   0  0  0  0  0  0  0  0  0  0  0  0
   -4.4357   -8.6266   32.7549 C   0  0  2  0  0  0  0  0  0  0  0  0
   -4.0098   -7.7796   31.7111 O   0  0  0  0  0  0  0  0  0  0  0  0
    0.5048   -5.9277   26.5285 C   0  0  0  0  0  0  0  0  0  0  0  0
   -0.1332  -10.0038   29.3065 C   0  0  2  0  0  0  0  0  0  0  0  0
    0.9448  -10.1588   28.3167 N   0  0  0  0  0  0  0  0  0  0  0  0
   -4.3695   -7.9053   34.1629 C   0  0  1  0  0  0  0  0  0  0  0  0
   -5.2095   -6.6632   34.1829 N   0  0  0  0  0  0  0  0  0  0  0  0
    2.0623   -6.0270   26.5608 C   0  0  0  0  0  0  0  0  0  0  0  0
   -0.1189   -8.5518   29.9215 C   0  0  2  0  0  0  0  0  0  0  0  0
   -4.8491   -8.9170   35.3334 C   0  0  1  0  0  0  0  0  0  0  0  0
   -6.1940   -9.3101   35.1537 O   0  0  0  0  0  0  0  0  0  0  0  0
    2.4840   -6.9992   27.7489 C   0  0  2  0  0  0  0  0  0  0  0  0
    1.9277   -6.5781   29.0336 O   0  0  0  0  0  0  0  0  0  0  0  0
   -1.2842   -8.4134   30.9755 C   0  0  2  0  0  0  0  0  0  0  0  0
   -1.2918   -7.1067   31.5413 O   0  0  0  0  0  0  0  0  0  0  0  0
   -3.9694  -10.2044   35.2868 C   0  0  0  0  0  0  0  0  0  0  0  0
   -3.9449  -10.7782   33.9001 O   0  0  0  0  0  0  0  0  0  0  0  0
    3.9752   -7.2000   27.8834 C   0  0  0  0  0  0  0  0  0  0  0  0
    4.5249   -7.9003   26.7524 N   0  0  0  0  0  0  0  0  0  0  0  0
   -1.1026   -9.4792   32.1126 C   0  0  1  0  0  0  0  0  0  0  0  0
   -2.1656   -9.3431   33.0479 O   0  0  0  0  0  0  0  0  0  0  0  0
   -4.8298   -8.3739   36.7688 C   0  0  0  0  0  0  0  0  0  0  0  0
   -4.5989   -5.4492   34.7500 C   0  0  0  0  0  0  0  0  0  0  0  0
  1  2  1  6  0  0  0
  1  6  1  0  0  0  0
  1 21  1  0  0  0  0
  3  4  1  1  0  0  0
  3  8  1  0  0  0  0
  3 28  1  0  0  0  0
  5  9  1  0  0  0  0
  5 25  1  0  0  0  0
  5 29  1  1  0  0  0
  6  7  1  6  0  0  0
  6 11  1  0  0  0  0
  8 12  1  0  0  0  0
  9 10  1  6  0  0  0
  9 14  1  0  0  0  0
 11 16  1  0  0  0  0
 12 13  1  6  0  0  0
 12 17  1  0  0  0  0
 14 15  1  6  0  0  0
 14 18  1  0  0  0  0
 15 31  1  0  0  0  0
 16 20  1  0  0  0  0
 17  2  1  6  0  0  0
 17 22  1  0  0  0  0
 18 19  1  6  0  0  0
 18 24  1  0  0  0  0
 18 30  1  0  0  0  0
 20 21  1  0  0  0  0
 20 26  1  1  0  0  0
 22 23  1  1  0  0  0
 22 28  1  0  0  0  0
 24 25  1  0  0  0  0
 26 27  1  0  0  0  0
 28 29  1  1  0  0  0
M  END
>  <CHROM.1>
-171.94880715,-115.95084201,-133.34921800,-145.40606830,-66.32194142,-42.09191217
-1.41271691,-8.24692374,31.16164175,0.45981151,0.72691165,-0.40009970

>  <Name>
2et3_lig

>  <RI>
0

>  <Rbt.Current_Directory>
/home/itssahil/PROJECTS/Mol_Feturizer/New_Systems/rnas/2et3

>  <Rbt.Executable>
rbdock ($Id: //depot/dev/client3/rdock/2013.1/src/exe/rbdock.cxx#4 $)

>  <Rbt.Library>
libRbt.so (2013.1, Build901 2013/11/27)

>  <Rbt.Parameter_File>
/export/apps/rDock/src/rDock_2013.1_src/data/scripts/dock_solv.prm

>  <Rbt.Receptor>
prm/pocket_docking_3.prm

>  <SCORE>
-21.7874

>  <SCORE.INTER>
-17.4884

>  <SCORE.INTER.CONST>
1

>  <SCORE.INTER.POLAR>
-0.938083

>  <SCORE.INTER.ROT>
6

>  <SCORE.INTER.SOLV>
14.8757

>  <SCORE.INTER.VDW>
-21.0906

>  <SCORE.INTER.norm>
-0.564142

>  <SCORE.INTRA>
-4.3413

>  <SCORE.INTRA.DIHEDRAL>
-7.55362

>  <SCORE.INTRA.DIHEDRAL.0>
22.2484

>  <SCORE.INTRA.POLAR>
0

>  <SCORE.INTRA.POLAR.0>
0

>  <SCORE.INTRA.REPUL>
0

>  <SCORE.INTRA.REPUL.0>
0

>  <SCORE.INTRA.SOLV>
-1.08014

>  <SCORE.INTRA.SOLV.lig_0>
-75.7198

>  <SCORE.INTRA.VDW>
-0.0244226

>  <SCORE.INTRA.VDW.0>
-3.34171

>  <SCORE.INTRA.norm>
-0.140042

>  <SCORE.RESTR>
0.0422763

>  <SCORE.RESTR.CAVITY>
0.0422763

>  <SCORE.RESTR.norm>
0.00136375

>  <SCORE.SYSTEM>
0

>  <SCORE.SYSTEM.CONST>
0

>  <SCORE.SYSTEM.DIHEDRAL>
0

>  <SCORE.SYSTEM.SOLV>
0

>  <SCORE.SYSTEM.norm>
0

>  <SCORE.heavy>
31

>  <SCORE.norm>
-0.70282

>  <RMSD>
2.006

$$$$
2et3_lig
 OpenBabel11021811423D
libRbt.so/2013.1/901 2013/11/27
 31 33  0  0  0  0  0  0  0  0999 V2000
    0.0579   -6.0377   29.1802 C   0  0  2  0  0  0  0  0  0  0  0  0
   -0.5689   -7.3450   29.2452 O   0  0  0  0  0  0  0  0  0  0  0  0
   -1.7054   -9.7674   32.5839 C   0  0  2  0  0  0  0  0  0  0  0  0
   -1.5964  -10.5032   33.8055 N   0  0  0  0  0  0  0  0  0  0  0  0
   -2.0795   -7.9024   35.2492 C   0  0  2  0  0  0  0  0  0  0  0  0
   -0.3888   -5.3116   27.9068 C   0  0  2  0  0  0  0  0  0  0  0  0
   -1.8175   -5.2407   27.8995 N   0  0  0  0  0  0  0  0  0  0  0  0
   -0.7447  -10.3830   31.5161 C   0  0  0  0  0  0  0  0  0  0  0  0
   -3.4004   -7.4316   35.8967 C   0  0  2  0  0  0  0  0  0  0  0  0
   -4.4565   -8.2322   35.4148 O   0  0  0  0  0  0  0  0  0  0  0  0
    0.1657   -6.0434   26.6370 C   0  0  0  0  0  0  0  0  0  0  0  0
   -0.8515   -9.5745   30.1716 C   0  0  2  0  0  0  0  0  0  0  0  0
    0.0520  -10.1502   29.1626 N   0  0  0  0  0  0  0  0  0  0  0  0
   -3.6054   -5.9045   35.5323 C   0  0  1  0  0  0  0  0  0  0  0  0
   -4.8955   -5.3769   36.0855 N   0  0  0  0  0  0  0  0  0  0  0  0
    1.7244   -6.0440   26.7223 C   0  0  0  0  0  0  0  0  0  0  0  0
   -0.4971   -8.0610   30.4366 C   0  0  2  0  0  0  0  0  0  0  0  0
   -2.3639   -5.0247   36.0876 C   0  0  1  0  0  0  0  0  0  0  0  0
   -2.2795   -5.0869   37.4963 O   0  0  0  0  0  0  0  0  0  0  0  0
    2.1586   -6.7774   28.0670 C   0  0  2  0  0  0  0  0  0  0  0  0
    1.5380   -6.1811   29.2487 O   0  0  0  0  0  0  0  0  0  0  0  0
   -1.4811   -7.4699   31.5184 C   0  0  2  0  0  0  0  0  0  0  0  0
   -1.1806   -6.1009   31.7704 O   0  0  0  0  0  0  0  0  0  0  0  0
   -1.0335   -5.5974   35.5081 C   0  0  0  0  0  0  0  0  0  0  0  0
   -0.9440   -7.0758   35.7511 O   0  0  0  0  0  0  0  0  0  0  0  0
    3.6531   -6.8647   28.2685 C   0  0  0  0  0  0  0  0  0  0  0  0
    4.2810   -7.6859   27.2668 N   0  0  0  0  0  0  0  0  0  0  0  0
   -1.3617   -8.2898   32.8509 C   0  0  1  0  0  0  0  0  0  0  0  0
   -2.2608   -7.7466   33.8100 O   0  0  0  0  0  0  0  0  0  0  0  0
   -2.4018   -3.5170   35.8033 C   0  0  0  0  0  0  0  0  0  0  0  0
   -5.1207   -5.5367   37.5319 C   0  0  0  0  0  0  0  0  0  0  0  0
  1  2  1  6  0  0  0
  1  6  1  0  0  0  0
  1 21  1  0  0  0  0
  3  4  1  1  0  0  0
  3  8  1  0  0  0  0
  3 28  1  0  0  0  0
  5  9  1  0  0  0  0
  5 25  1  0  0  0  0
  5 29  1  6  0  0  0
  6  7  1  6  0  0  0
  6 11  1  0  0  0  0
  8 12  1  0  0  0  0
  9 10  1  6  0  0  0
  9 14  1  0  0  0  0
 11 16  1  0  0  0  0
 12 13  1  6  0  0  0
 12 17  1  0  0  0  0
 14 15  1  1  0  0  0
 14 18  1  0  0  0  0
 15 31  1  0  0  0  0
 16 20  1  0  0  0  0
 17  2  1  6  0  0  0
 17 22  1  0  0  0  0
 18 19  1  1  0  0  0
 18 24  1  0  0  0  0
 18 30  1  0  0  0  0
 20 21  1  0  0  0  0
 20 26  1  1  0  0  0
 22 23  1  1  0  0  0
 22 28  1  0  0  0  0
 24 25  1  0  0  0  0
 26 27  1  0  0  0  0
 28 29  1  1  0  0  0
M  END
>  <CHROM.1>
-168.04205834,-168.56005111,54.78670242,-163.53339175,-64.99725938,83.39243665
-1.09284746,-7.01976820,32.12608460,-0.10697406,1.06095456,0.03056938

>  <Name>
2et3_lig

>  <RI>
3.50789e+07

>  <Rbt.Current_Directory>
/home/itssahil/PROJECTS/Mol_Feturizer/New_Systems/rnas/2et3

>  <Rbt.Executable>
rbdock ($Id: //depot/dev/client3/rdock/2013.1/src/exe/rbdock.cxx#4 $)

>  <Rbt.Library>
libRbt.so (2013.1, Build901 2013/11/27)

>  <Rbt.Parameter_File>
/export/apps/rDock/src/rDock_2013.1_src/data/scripts/dock_solv.prm

>  <Rbt.Receptor>
prm/pocket_docking_4.prm

>  <SCORE>
-29.6259

>  <SCORE.INTER>
-21.4333

>  <SCORE.INTER.CONST>
1

>  <SCORE.INTER.POLAR>
-1.77992

>  <SCORE.INTER.ROT>
6

>  <SCORE.INTER.SOLV>
14.3241

>  <SCORE.INTER.VDW>
-20.7305

>  <SCORE.INTER.norm>
-0.691397

>  <SCORE.INTRA>
-8.19264

>  <SCORE.INTRA.DIHEDRAL>
-17.0464

>  <SCORE.INTRA.DIHEDRAL.0>
22.2484

>  <SCORE.INTRA.POLAR>
0

>  <SCORE.INTRA.POLAR.0>
0

>  <SCORE.INTRA.REPUL>
0

>  <SCORE.INTRA.REPUL.0>
0

>  <SCORE.INTRA.SOLV>
-2.38947

>  <SCORE.INTRA.SOLV.lig_0>
-75.7198

>  <SCORE.INTRA.VDW>
1.52528

>  <SCORE.INTRA.VDW.0>
-3.34171

>  <SCORE.INTRA.norm>
-0.264279

>  <SCORE.RESTR>
0

>  <SCORE.RESTR.CAVITY>
0

>  <SCORE.RESTR.norm>
0

>  <SCORE.SYSTEM>
0

>  <SCORE.SYSTEM.CONST>
0

>  <SCORE.SYSTEM.DIHEDRAL>
0

>  <SCORE.SYSTEM.SOLV>
0

>  <SCORE.SYSTEM.norm>
0

>  <SCORE.heavy>
31

>  <SCORE.norm>
-0.955675

>  <RMSD>
2.175

$$$$
2et3_lig
 OpenBabel11021811423D
libRbt.so/2013.1/901 2013/11/27
 31 33  0  0  0  0  0  0  0  0999 V2000
    0.6634   -6.5224   29.1237 C   0  0  2  0  0  0  0  0  0  0  0  0
   -0.0246   -7.7961   29.0210 O   0  0  0  0  0  0  0  0  0  0  0  0
   -1.5175  -10.3102   32.1445 C   0  0  2  0  0  0  0  0  0  0  0  0
   -1.5212  -11.1690   33.2882 N   0  0  0  0  0  0  0  0  0  0  0  0
   -2.8489   -7.4746   33.3012 C   0  0  2  0  0  0  0  0  0  0  0  0
    0.1006   -5.5442   28.0870 C   0  0  2  0  0  0  0  0  0  0  0  0
   -1.3108   -5.4280   28.2888 N   0  0  0  0  0  0  0  0  0  0  0  0
   -0.6831  -10.9694   30.9994 C   0  0  0  0  0  0  0  0  0  0  0  0
   -3.5221   -7.2210   34.6680 C   0  0  2  0  0  0  0  0  0  0  0  0
   -2.5867   -6.6169   35.5332 O   0  0  0  0  0  0  0  0  0  0  0  0
    0.4450   -6.0268   26.6366 C   0  0  0  0  0  0  0  0  0  0  0  0
   -0.6664  -10.0276   29.7401 C   0  0  2  0  0  0  0  0  0  0  0  0
    0.1188  -10.6438   28.6587 N   0  0  0  0  0  0  0  0  0  0  0  0
   -4.0293   -8.6125   35.2279 C   0  0  1  0  0  0  0  0  0  0  0  0
   -4.6577   -8.4632   36.5813 N   0  0  0  0  0  0  0  0  0  0  0  0
    1.9992   -6.0937   26.5063 C   0  0  0  0  0  0  0  0  0  0  0  0
   -0.0620   -8.6263   30.1374 C   0  0  2  0  0  0  0  0  0  0  0  0
   -5.0862   -9.2792   34.1972 C   0  0  1  0  0  0  0  0  0  0  0  0
   -6.2353   -8.4718   34.0458 O   0  0  0  0  0  0  0  0  0  0  0  0
    2.5583   -7.0928   27.6126 C   0  0  2  0  0  0  0  0  0  0  0  0
    2.1294   -6.7235   28.9605 O   0  0  0  0  0  0  0  0  0  0  0  0
   -0.9232   -7.9888   31.2948 C   0  0  2  0  0  0  0  0  0  0  0  0
   -0.3961   -6.7193   31.6669 O   0  0  0  0  0  0  0  0  0  0  0  0
   -4.4152   -9.4151   32.7955 C   0  0  0  0  0  0  0  0  0  0  0  0
   -3.8226   -8.1054   32.3638 O   0  0  0  0  0  0  0  0  0  0  0  0
    4.0587   -7.2658   27.5874 C   0  0  0  0  0  0  0  0  0  0  0  0
    4.4644   -8.5076   28.1916 N   0  0  0  0  0  0  0  0  0  0  0  0
   -0.9296   -8.9427   32.5407 C   0  0  1  0  0  0  0  0  0  0  0  0
   -1.7163   -8.3542   33.5694 O   0  0  0  0  0  0  0  0  0  0  0  0
   -5.6651  -10.6461   34.5870 C   0  0  0  0  0  0  0  0  0  0  0  0
   -3.7668   -8.5625   37.7495 C   0  0  0  0  0  0  0  0  0  0  0  0
  1  2  1  6  0  0  0
  1  6  1  0  0  0  0
  1 21  1  0  0  0  0
  3  4  1  1  0  0  0
  3  8  1  0  0  0  0
  3 28  1  0  0  0  0
  5  9  1  0  0  0  0
  5 25  1  0  0  0  0
  5 29  1  1  0  0  0
  6  7  1  6  0  0  0
  6 11  1  0  0  0  0
  8 12  1  0  0  0  0
  9 10  1  1  0  0  0
  9 14  1  0  0  0  0
 11 16  1  0  0  0  0
 12 13  1  6  0  0  0
 12 17  1  0  0  0  0
 14 15  1  1  0  0  0
 14 18  1  0  0  0  0
 15 31  1  0  0  0  0
 16 20  1  0  0  0  0
 17  2  1  6  0  0  0
 17 22  1  0  0  0  0
 18 19  1  6  0  0  0
 18 24  1  0  0  0  0
 18 30  1  0  0  0  0
 20 21  1  0  0  0  0
 20 26  1  1  0  0  0
 22 23  1  1  0  0  0
 22 28  1  0  0  0  0
 24 25  1  0  0  0  0
 26 27  1  0  0  0  0
 28 29  1  1  0  0  0
M  END
>  <CHROM.1>
-155.48665763,172.61851972,-88.56794017,-171.72025297,-157.04893881,-90.35697513
-1.30720298,-8.16619804,31.49155034,0.35063020,0.81806778,-0.23715316

>  <Name>
2et3_lig

>  <RI>
3.50789e+07

>  <Rbt.Current_Directory>
/home/itssahil/PROJECTS/Mol_Feturizer/New_Systems/rnas/2et3

>  <Rbt.Executable>
rbdock ($Id: //depot/dev/client3/rdock/2013.1/src/exe/rbdock.cxx#4 $)

>  <Rbt.Library>
libRbt.so (2013.1, Build901 2013/11/27)

>  <Rbt.Parameter_File>
/export/apps/rDock/src/rDock_2013.1_src/data/scripts/dock_solv.prm

>  <Rbt.Receptor>
prm/pocket_docking_4.prm

>  <SCORE>
-23.4292

>  <SCORE.INTER>
-17.1548

>  <SCORE.INTER.CONST>
1

>  <SCORE.INTER.POLAR>
-0.938083

>  <SCORE.INTER.ROT>
6

>  <SCORE.INTER.SOLV>
17.3702

>  <SCORE.INTER.VDW>
-21.6996

>  <SCORE.INTER.norm>
-0.55338

>  <SCORE.INTRA>
-6.27445

>  <SCORE.INTRA.DIHEDRAL>
-13.0595

>  <SCORE.INTRA.DIHEDRAL.0>
22.2484

>  <SCORE.INTRA.POLAR>
0

>  <SCORE.INTRA.POLAR.0>
0

>  <SCORE.INTRA.REPUL>
0

>  <SCORE.INTRA.REPUL.0>
0

>  <SCORE.INTRA.SOLV>
-1.60941

>  <SCORE.INTRA.SOLV.lig_0>
-75.7198

>  <SCORE.INTRA.VDW>
1.06

>  <SCORE.INTRA.VDW.0>
-3.34171

>  <SCORE.INTRA.norm>
-0.202402

>  <SCORE.RESTR>
0

>  <SCORE.RESTR.CAVITY>
0

>  <SCORE.RESTR.norm>
0

>  <SCORE.SYSTEM>
0

>  <SCORE.SYSTEM.CONST>
0

>  <SCORE.SYSTEM.DIHEDRAL>
0

>  <SCORE.SYSTEM.SOLV>
0

>  <SCORE.SYSTEM.norm>
0

>  <SCORE.heavy>
31

>  <SCORE.norm>
-0.755782

>  <RMSD>
2.191

$$$$
2et3_lig
 OpenBabel11021811423D
libRbt.so/2013.1/901 2013/11/27
 31 33  0  0  0  0  0  0  0  0999 V2000
    0.5597   -8.1591   28.3276 C   0  0  2  0  0  0  0  0  0  0  0  0
    0.6021   -7.9197   29.7583 O   0  0  0  0  0  0  0  0  0  0  0  0
   -1.4443  -11.0377   31.8551 C   0  0  2  0  0  0  0  0  0  0  0  0
   -1.6622  -12.1374   32.7433 N   0  0  0  0  0  0  0  0  0  0  0  0
   -1.6829   -9.4325   35.0649 C   0  0  2  0  0  0  0  0  0  0  0  0
    1.9636   -8.0011   27.7339 C   0  0  2  0  0  0  0  0  0  0  0  0
    2.8507   -8.8911   28.4173 N   0  0  0  0  0  0  0  0  0  0  0  0
   -0.3913  -11.4412   30.7732 C   0  0  0  0  0  0  0  0  0  0  0  0
   -3.0088   -9.8334   35.7481 C   0  0  2  0  0  0  0  0  0  0  0  0
   -3.3771  -11.1222   35.3102 O   0  0  0  0  0  0  0  0  0  0  0  0
    2.4369   -6.5110   27.8386 C   0  0  0  0  0  0  0  0  0  0  0  0
   -0.1388  -10.2344   29.7970 C   0  0  2  0  0  0  0  0  0  0  0  0
    0.8528  -10.6092   28.7762 N   0  0  0  0  0  0  0  0  0  0  0  0
   -4.0994   -8.7492   35.3712 C   0  0  1  0  0  0  0  0  0  0  0  0
   -5.4367   -9.0891   35.9586 N   0  0  0  0  0  0  0  0  0  0  0  0
    1.4269   -5.6266   27.0420 C   0  0  0  0  0  0  0  0  0  0  0  0
    0.3562   -8.9842   30.6206 C   0  0  2  0  0  0  0  0  0  0  0  0
   -3.6296   -7.2834   35.8756 C   0  0  1  0  0  0  0  0  0  0  0  0
   -3.4997   -7.2410   37.2816 O   0  0  0  0  0  0  0  0  0  0  0  0
   -0.0255   -5.8327   27.6606 C   0  0  2  0  0  0  0  0  0  0  0  0
   -0.4214   -7.2398   27.6885 O   0  0  0  0  0  0  0  0  0  0  0  0
   -0.7253   -8.6037   31.7039 C   0  0  2  0  0  0  0  0  0  0  0  0
   -0.2993   -7.4731   32.4577 O   0  0  0  0  0  0  0  0  0  0  0  0
   -2.2335   -6.9560   35.2613 C   0  0  0  0  0  0  0  0  0  0  0  0
   -1.2665   -8.0744   35.5200 O   0  0  0  0  0  0  0  0  0  0  0  0
   -1.1045   -5.0155   26.9900 C   0  0  0  0  0  0  0  0  0  0  0  0
   -2.3592   -5.1095   27.6891 N   0  0  0  0  0  0  0  0  0  0  0  0
   -0.9648   -9.8194   32.6666 C   0  0  1  0  0  0  0  0  0  0  0  0
   -1.9470   -9.4593   33.6304 O   0  0  0  0  0  0  0  0  0  0  0  0
   -4.5738   -6.1118   35.5736 C   0  0  0  0  0  0  0  0  0  0  0  0
   -6.4208   -9.7225   35.0649 C   0  0  0  0  0  0  0  0  0  0  0  0
  1  2  1  1  0  0  0
  1  6  1  0  0  0  0
  1 21  1  0  0  0  0
  3  4  1  1  0  0  0
  3  8  1  0  0  0  0
  3 28  1  0  0  0  0
  5  9  1  0  0  0  0
  5 25  1  0  0  0  0
  5 29  1  6  0  0  0
  6  7  1  1  0  0  0
  6 11  1  0  0  0  0
  8 12  1  0  0  0  0
  9 10  1  6  0  0  0
  9 14  1  0  0  0  0
 11 16  1  0  0  0  0
 12 13  1  6  0  0  0
 12 17  1  0  0  0  0
 14 15  1  1  0  0  0
 14 18  1  0  0  0  0
 15 31  1  0  0  0  0
 16 20  1  0  0  0  0
 17  2  1  6  0  0  0
 17 22  1  0  0  0  0
 18 19  1  1  0  0  0
 18 24  1  0  0  0  0
 18 30  1  0  0  0  0
 20 21  1  0  0  0  0
 20 26  1  6  0  0  0
 22 23  1  1  0  0  0
 22 28  1  0  0  0  0
 24 25  1  0  0  0  0
 26 27  1  0  0  0  0
 28 29  1  1  0  0  0
M  END
>  <CHROM.1>
-112.69376548,-147.15107074,-99.97715150,-8.34776730,-172.74662358,120.71630488
-1.30496685,-8.42941473,31.85879599,-0.59709949,-0.92200757,2.62794862

>  <Name>
2et3_lig

>  <RI>
0

>  <Rbt.Current_Directory>
/home/itssahil/PROJECTS/Mol_Feturizer/New_Systems/rnas/2et3

>  <Rbt.Executable>
rbdock ($Id: //depot/dev/client3/rdock/2013.1/src/exe/rbdock.cxx#4 $)

>  <Rbt.Library>
libRbt.so (2013.1, Build901 2013/11/27)

>  <Rbt.Parameter_File>
/export/apps/rDock/src/rDock_2013.1_src/data/scripts/dock_solv.prm

>  <Rbt.Receptor>
prm/pocket_docking_2.prm

>  <SCORE>
-10.258

>  <SCORE.INTER>
-19.0484

>  <SCORE.INTER.CONST>
1

>  <SCORE.INTER.POLAR>
-0.561195

>  <SCORE.INTER.ROT>
6

>  <SCORE.INTER.SOLV>
18.9408

>  <SCORE.INTER.VDW>
-24.7419

>  <SCORE.INTER.norm>
-0.614466

>  <SCORE.INTRA>
7.79834

>  <SCORE.INTRA.DIHEDRAL>
4.05125

>  <SCORE.INTRA.DIHEDRAL.0>
22.2484

>  <SCORE.INTRA.POLAR>
0

>  <SCORE.INTRA.POLAR.0>
0

>  <SCORE.INTRA.REPUL>
0

>  <SCORE.INTRA.REPUL.0>
0

>  <SCORE.INTRA.SOLV>
2.21883

>  <SCORE.INTRA.SOLV.lig_0>
-75.7198

>  <SCORE.INTRA.VDW>
4.6633

>  <SCORE.INTRA.VDW.0>
-3.34171

>  <SCORE.INTRA.norm>
0.251559

>  <SCORE.RESTR>
0.992049

>  <SCORE.RESTR.CAVITY>
0.992049

>  <SCORE.RESTR.norm>
0.0320016

>  <SCORE.SYSTEM>
0

>  <SCORE.SYSTEM.CONST>
0

>  <SCORE.SYSTEM.DIHEDRAL>
0

>  <SCORE.SYSTEM.SOLV>
0

>  <SCORE.SYSTEM.norm>
0

>  <SCORE.heavy>
31

>  <SCORE.norm>
-0.330905

>  <RMSD>
2.235

$$$$
2et3_lig
 OpenBabel11021811423D
libRbt.so/2013.1/901 2013/11/27
 31 33  0  0  0  0  0  0  0  0999 V2000
   -0.0703   -5.8845   29.3741 C   0  0  2  0  0  0  0  0  0  0  0  0
   -0.7349   -7.1724   29.4511 O   0  0  0  0  0  0  0  0  0  0  0  0
   -1.7476   -9.6801   32.7665 C   0  0  2  0  0  0  0  0  0  0  0  0
   -1.5953  -10.4409   33.9680 N   0  0  0  0  0  0  0  0  0  0  0  0
   -2.0424   -7.8379   35.4824 C   0  0  2  0  0  0  0  0  0  0  0  0
   -0.5501   -5.1272   28.1313 C   0  0  2  0  0  0  0  0  0  0  0  0
   -1.9747   -5.0115   28.1895 N   0  0  0  0  0  0  0  0  0  0  0  0
   -0.8109  -10.2608   31.6586 C   0  0  0  0  0  0  0  0  0  0  0  0
   -3.3447   -7.3968   36.1859 C   0  0  2  0  0  0  0  0  0  0  0  0
   -4.4007   -8.2255   35.7540 O   0  0  0  0  0  0  0  0  0  0  0  0
   -0.0766   -5.8584   26.8288 C   0  0  0  0  0  0  0  0  0  0  0  0
   -0.9654   -9.4246   30.3358 C   0  0  2  0  0  0  0  0  0  0  0  0
   -0.0846   -9.9674   29.2892 N   0  0  0  0  0  0  0  0  0  0  0  0
   -3.6035   -5.8769   35.8255 C   0  0  1  0  0  0  0  0  0  0  0  0
   -4.8807   -5.3787   36.4334 N   0  0  0  0  0  0  0  0  0  0  0  0
    1.4835   -5.9088   26.8435 C   0  0  0  0  0  0  0  0  0  0  0  0
   -0.6208   -7.9131   30.6239 C   0  0  2  0  0  0  0  0  0  0  0  0
   -2.3609   -4.9642   36.3224 C   0  0  1  0  0  0  0  0  0  0  0  0
   -2.2131   -5.0177   37.7262 O   0  0  0  0  0  0  0  0  0  0  0  0
    1.9539   -6.6741   28.1580 C   0  0  2  0  0  0  0  0  0  0  0  0
    1.4062   -6.0751   29.3739 O   0  0  0  0  0  0  0  0  0  0  0  0
   -1.5801   -7.3575   31.7459 C   0  0  2  0  0  0  0  0  0  0  0  0
   -1.2881   -5.9908   32.0194 O   0  0  0  0  0  0  0  0  0  0  0  0
   -1.0436   -5.5065   35.6867 C   0  0  0  0  0  0  0  0  0  0  0  0
   -0.9067   -6.9811   35.9308 O   0  0  0  0  0  0  0  0  0  0  0  0
    3.4524   -6.8109   28.2906 C   0  0  0  0  0  0  0  0  0  0  0  0
    4.0013   -7.6819   27.2847 N   0  0  0  0  0  0  0  0  0  0  0  0
   -1.4133   -8.2046   33.0561 C   0  0  1  0  0  0  0  0  0  0  0  0
   -2.2906   -7.6932   34.0521 O   0  0  0  0  0  0  0  0  0  0  0  0
   -2.4488   -3.4592   36.0347 C   0  0  0  0  0  0  0  0  0  0  0  0
   -5.9256   -4.9089   35.5084 C   0  0  0  0  0  0  0  0  0  0  0  0
  1  2  1  6  0  0  0
  1  6  1  0  0  0  0
  1 21  1  0  0  0  0
  3  4  1  1  0  0  0
  3  8  1  0  0  0  0
  3 28  1  0  0  0  0
  5  9  1  0  0  0  0
  5 25  1  0  0  0  0
  5 29  1  6  0  0  0
  6  7  1  6  0  0  0
  6 11  1  0  0  0  0
  8 12  1  0  0  0  0
  9 10  1  6  0  0  0
  9 14  1  0  0  0  0
 11 16  1  0  0  0  0
 12 13  1  6  0  0  0
 12 17  1  0  0  0  0
 14 15  1  1  0  0  0
 14 18  1  0  0  0  0
 15 31  1  0  0  0  0
 16 20  1  0  0  0  0
 17  2  1  6  0  0  0
 17 22  1  0  0  0  0
 18 19  1  1  0  0  0
 18 24  1  0  0  0  0
 18 30  1  0  0  0  0
 20 21  1  0  0  0  0
 20 26  1  1  0  0  0
 22 23  1  1  0  0  0
 22 28  1  0  0  0  0
 24 25  1  0  0  0  0
 26 27  1  0  0  0  0
 28 29  1  1  0  0  0
M  END
>  <CHROM.1>
-168.71750516,-169.33521482,-118.75687878,-160.57278171,-67.39815010,85.58998572
-1.19903658,-6.90381874,32.24791156,0.10008716,1.06714363,-0.20388666

>  <Name>
2et3_lig

>  <RI>
3.50789e+07

>  <Rbt.Current_Directory>
/home/itssahil/PROJECTS/Mol_Feturizer/New_Systems/rnas/2et3

>  <Rbt.Executable>
rbdock ($Id: //depot/dev/client3/rdock/2013.1/src/exe/rbdock.cxx#4 $)

>  <Rbt.Library>
libRbt.so (2013.1, Build901 2013/11/27)

>  <Rbt.Parameter_File>
/export/apps/rDock/src/rDock_2013.1_src/data/scripts/dock_solv.prm

>  <Rbt.Receptor>
prm/pocket_docking_4.prm

>  <SCORE>
-29.6972

>  <SCORE.INTER>
-20.5437

>  <SCORE.INTER.CONST>
1

>  <SCORE.INTER.POLAR>
-1.72721

>  <SCORE.INTER.ROT>
6

>  <SCORE.INTER.SOLV>
13.3359

>  <SCORE.INTER.VDW>
-19.9837

>  <SCORE.INTER.norm>
-0.662699

>  <SCORE.INTRA>
-9.1535

>  <SCORE.INTRA.DIHEDRAL>
-15.0866

>  <SCORE.INTRA.DIHEDRAL.0>
22.2484

>  <SCORE.INTRA.POLAR>
0

>  <SCORE.INTRA.POLAR.0>
0

>  <SCORE.INTRA.REPUL>
0

>  <SCORE.INTRA.REPUL.0>
0

>  <SCORE.INTRA.SOLV>
-2.57675

>  <SCORE.INTRA.SOLV.lig_0>
-75.7198

>  <SCORE.INTRA.VDW>
-0.321812

>  <SCORE.INTRA.VDW.0>
-3.34171

>  <SCORE.INTRA.norm>
-0.295274

>  <SCORE.RESTR>
0

>  <SCORE.RESTR.CAVITY>
0

>  <SCORE.RESTR.norm>
0

>  <SCORE.SYSTEM>
0

>  <SCORE.SYSTEM.CONST>
0

>  <SCORE.SYSTEM.DIHEDRAL>
0

>  <SCORE.SYSTEM.SOLV>
0

>  <SCORE.SYSTEM.norm>
0

>  <SCORE.heavy>
31

>  <SCORE.norm>
-0.957973

>  <RMSD>
2.239

$$$$
2et3_lig
 OpenBabel11021811423D
libRbt.so/2013.1/901 2013/11/27
 31 33  0  0  0  0  0  0  0  0999 V2000
   -0.1156   -5.9003   29.4274 C   0  0  2  0  0  0  0  0  0  0  0  0
   -0.7741   -7.1918   29.4952 O   0  0  0  0  0  0  0  0  0  0  0  0
   -1.7869   -9.6970   32.8125 C   0  0  2  0  0  0  0  0  0  0  0  0
   -1.6322  -10.4658   34.0086 N   0  0  0  0  0  0  0  0  0  0  0  0
   -2.0226   -7.8747   35.5399 C   0  0  2  0  0  0  0  0  0  0  0  0
   -0.6218   -5.1239   28.2070 C   0  0  2  0  0  0  0  0  0  0  0  0
   -2.0454   -5.0147   28.2943 N   0  0  0  0  0  0  0  0  0  0  0  0
   -0.8745  -10.2886   31.6900 C   0  0  0  0  0  0  0  0  0  0  0  0
   -3.3039   -7.4001   36.2603 C   0  0  2  0  0  0  0  0  0  0  0  0
   -4.3895   -8.1904   35.8299 O   0  0  0  0  0  0  0  0  0  0  0  0
   -0.1707   -5.8311   26.8835 C   0  0  0  0  0  0  0  0  0  0  0  0
   -1.0317   -9.4438   30.3730 C   0  0  2  0  0  0  0  0  0  0  0  0
   -0.1739   -9.9967   29.3127 N   0  0  0  0  0  0  0  0  0  0  0  0
   -3.5176   -5.8691   35.9181 C   0  0  1  0  0  0  0  0  0  0  0  0
   -4.7727   -5.3373   36.5431 N   0  0  0  0  0  0  0  0  0  0  0  0
    1.3896   -5.8758   26.8676 C   0  0  0  0  0  0  0  0  0  0  0  0
   -0.6577   -7.9397   30.6632 C   0  0  2  0  0  0  0  0  0  0  0  0
   -2.2422   -5.0014   36.4125 C   0  0  1  0  0  0  0  0  0  0  0  0
   -2.0832   -5.0745   37.8142 O   0  0  0  0  0  0  0  0  0  0  0  0
    1.8877   -6.6614   28.1597 C   0  0  2  0  0  0  0  0  0  0  0  0
    1.3612   -6.0852   29.3959 O   0  0  0  0  0  0  0  0  0  0  0  0
   -1.5928   -7.3729   31.7999 C   0  0  2  0  0  0  0  0  0  0  0  0
   -1.2740   -6.0127   32.0756 O   0  0  0  0  0  0  0  0  0  0  0  0
   -0.9486   -5.5784   35.7588 C   0  0  0  0  0  0  0  0  0  0  0  0
   -0.8563   -7.0591   35.9863 O   0  0  0  0  0  0  0  0  0  0  0  0
    3.3889   -6.7947   28.2614 C   0  0  0  0  0  0  0  0  0  0  0  0
    3.9242   -7.6267   27.2160 N   0  0  0  0  0  0  0  0  0  0  0  0
   -1.4237   -8.2288   33.1042 C   0  0  1  0  0  0  0  0  0  0  0  0
   -2.2793   -7.7070   34.1136 O   0  0  0  0  0  0  0  0  0  0  0  0
   -2.2849   -3.4914   36.1412 C   0  0  0  0  0  0  0  0  0  0  0  0
   -5.8119   -4.8277   35.6329 C   0  0  0  0  0  0  0  0  0  0  0  0
  1  2  1  6  0  0  0
  1  6  1  0  0  0  0
  1 21  1  0  0  0  0
  3  4  1  1  0  0  0
  3  8  1  0  0  0  0
  3 28  1  0  0  0  0
  5  9  1  0  0  0  0
  5 25  1  0  0  0  0
  5 29  1  6  0  0  0
  6  7  1  1  0  0  0
  6 11  1  0  0  0  0
  8 12  1  0  0  0  0
  9 10  1  6  0  0  0
  9 14  1  0  0  0  0
 11 16  1  0  0  0  0
 12 13  1  6  0  0  0
 12 17  1  0  0  0  0
 14 15  1  1  0  0  0
 14 18  1  0  0  0  0
 15 31  1  0  0  0  0
 16 20  1  0  0  0  0
 17  2  1  6  0  0  0
 17 22  1  0  0  0  0
 18 19  1  1  0  0  0
 18 24  1  0  0  0  0
 18 30  1  0  0  0  0
 20 21  1  0  0  0  0
 20 26  1  1  0  0  0
 22 23  1  1  0  0  0
 22 28  1  0  0  0  0
 24 25  1  0  0  0  0
 26 27  1  0  0  0  0
 28 29  1  1  0  0  0
M  END
>  <CHROM.1>
-167.42052538,-169.70735976,-118.62026343,-162.06355277,-66.33530891,84.92101582
-1.19979001,-6.91266601,32.30195971,0.06121837,1.08745311,-0.15493151

>  <Name>
2et3_lig

>  <RI>
0

>  <Rbt.Current_Directory>
/home/itssahil/PROJECTS/Mol_Feturizer/New_Systems/rnas/2et3

>  <Rbt.Executable>
rbdock ($Id: //depot/dev/client3/rdock/2013.1/src/exe/rbdock.cxx#4 $)

>  <Rbt.Library>
libRbt.so (2013.1, Build901 2013/11/27)

>  <Rbt.Parameter_File>
/export/apps/rDock/src/rDock_2013.1_src/data/scripts/dock_solv.prm

>  <Rbt.Receptor>
prm/pocket_docking_7.prm

>  <SCORE>
-29.7579

>  <SCORE.INTER>
-20.5515

>  <SCORE.INTER.CONST>
1

>  <SCORE.INTER.POLAR>
-1.68124

>  <SCORE.INTER.ROT>
6

>  <SCORE.INTER.SOLV>
12.7892

>  <SCORE.INTER.VDW>
-19.9599

>  <SCORE.INTER.norm>
-0.662953

>  <SCORE.INTRA>
-9.20641

>  <SCORE.INTRA.DIHEDRAL>
-15.3842

>  <SCORE.INTRA.DIHEDRAL.0>
22.2484

>  <SCORE.INTRA.POLAR>
0

>  <SCORE.INTRA.POLAR.0>
0

>  <SCORE.INTRA.REPUL>
0

>  <SCORE.INTRA.REPUL.0>
0

>  <SCORE.INTRA.SOLV>
-2.57938

>  <SCORE.INTRA.SOLV.lig_0>
-75.7198

>  <SCORE.INTRA.VDW>
-0.224636

>  <SCORE.INTRA.VDW.0>
-3.34171

>  <SCORE.INTRA.norm>
-0.296981

>  <SCORE.RESTR>
0

>  <SCORE.RESTR.CAVITY>
0

>  <SCORE.RESTR.norm>
0

>  <SCORE.SYSTEM>
0

>  <SCORE.SYSTEM.CONST>
0

>  <SCORE.SYSTEM.DIHEDRAL>
0

>  <SCORE.SYSTEM.SOLV>
0

>  <SCORE.SYSTEM.norm>
0

>  <SCORE.heavy>
31

>  <SCORE.norm>
-0.959934

>  <RMSD>
2.272

$$$$
2et3_lig
 OpenBabel11021811423D
libRbt.so/2013.1/901 2013/11/27
 31 33  0  0  0  0  0  0  0  0999 V2000
    0.6782   -6.4163   29.1472 C   0  0  2  0  0  0  0  0  0  0  0  0
    0.0123   -7.7047   29.0948 O   0  0  0  0  0  0  0  0  0  0  0  0
   -1.4916  -10.0893   32.3132 C   0  0  2  0  0  0  0  0  0  0  0  0
   -1.5002  -10.8927   33.4965 N   0  0  0  0  0  0  0  0  0  0  0  0
   -3.1972   -8.0670   33.5884 C   0  0  2  0  0  0  0  0  0  0  0  0
    0.0720   -5.4766   28.0994 C   0  0  2  0  0  0  0  0  0  0  0  0
   -1.3361   -5.3809   28.3328 N   0  0  0  0  0  0  0  0  0  0  0  0
   -0.6309  -10.7897   31.2129 C   0  0  0  0  0  0  0  0  0  0  0  0
   -3.6486   -6.8579   34.4370 C   0  0  2  0  0  0  0  0  0  0  0  0
   -3.1045   -5.6813   33.8819 O   0  0  0  0  0  0  0  0  0  0  0  0
    0.3904   -5.9911   26.6540 C   0  0  0  0  0  0  0  0  0  0  0  0
   -0.6086   -9.9087   29.9105 C   0  0  2  0  0  0  0  0  0  0  0  0
    0.2013  -10.5639   28.8710 N   0  0  0  0  0  0  0  0  0  0  0  0
   -3.1533   -7.0920   35.9225 C   0  0  1  0  0  0  0  0  0  0  0  0
   -3.5109   -5.9362   36.8086 N   0  0  0  0  0  0  0  0  0  0  0  0
    1.9419   -6.0329   26.4873 C   0  0  0  0  0  0  0  0  0  0  0  0
   -0.0301   -8.4813   30.2490 C   0  0  2  0  0  0  0  0  0  0  0  0
   -3.7864   -8.4603   36.5147 C   0  0  1  0  0  0  0  0  0  0  0  0
   -5.1960   -8.3905   36.5746 O   0  0  0  0  0  0  0  0  0  0  0  0
    2.5466   -6.9917   27.6053 C   0  0  2  0  0  0  0  0  0  0  0  0
    2.1434   -6.5946   28.9532 O   0  0  0  0  0  0  0  0  0  0  0  0
   -0.9175   -7.8023   31.3622 C   0  0  2  0  0  0  0  0  0  0  0  0
   -0.4140   -6.5089   31.6807 O   0  0  0  0  0  0  0  0  0  0  0  0
   -3.4109   -9.6456   35.5726 C   0  0  0  0  0  0  0  0  0  0  0  0
   -3.7688   -9.3247   34.1507 O   0  0  0  0  0  0  0  0  0  0  0  0
    4.0490   -7.1377   27.5476 C   0  0  0  0  0  0  0  0  0  0  0  0
    4.4884   -8.3806   28.1255 N   0  0  0  0  0  0  0  0  0  0  0  0
   -0.9291   -8.6959   32.6520 C   0  0  1  0  0  0  0  0  0  0  0  0
   -1.7393   -8.0709   33.6400 O   0  0  0  0  0  0  0  0  0  0  0  0
   -3.3916   -8.8424   37.9478 C   0  0  0  0  0  0  0  0  0  0  0  0
   -2.4374   -4.9820   37.1328 C   0  0  0  0  0  0  0  0  0  0  0  0
  1  2  1  6  0  0  0
  1  6  1  0  0  0  0
  1 21  1  0  0  0  0
  3  4  1  1  0  0  0
  3  8  1  0  0  0  0
  3 28  1  0  0  0  0
  5  9  1  0  0  0  0
  5 25  1  0  0  0  0
  5 29  1  1  0  0  0
  6  7  1  1  0  0  0
  6 11  1  0  0  0  0
  8 12  1  0  0  0  0
  9 10  1  6  0  0  0
  9 14  1  0  0  0  0
 11 16  1  0  0  0  0
 12 13  1  6  0  0  0
 12 17  1  0  0  0  0
 14 15  1  1  0  0  0
 14 18  1  0  0  0  0
 15 31  1  0  0  0  0
 16 20  1  0  0  0  0
 17  2  1  6  0  0  0
 17 22  1  0  0  0  0
 18 19  1  6  0  0  0
 18 24  1  0  0  0  0
 18 30  1  0  0  0  0
 20 21  1  0  0  0  0
 20 26  1  1  0  0  0
 22 23  1  1  0  0  0
 22 28  1  0  0  0  0
 24 25  1  0  0  0  0
 26 27  1  0  0  0  0
 28 29  1  1  0  0  0
M  END
>  <CHROM.1>
-152.87007095,-157.08175773,-101.98866982,-171.84669486,-154.69478903,-44.96087520
-1.04150990,-7.76256708,31.90900062,0.15406713,0.98693400,-0.09246857

>  <Name>
2et3_lig

>  <RI>
0

>  <Rbt.Current_Directory>
/home/itssahil/PROJECTS/Mol_Feturizer/New_Systems/rnas/2et3

>  <Rbt.Executable>
rbdock ($Id: //depot/dev/client3/rdock/2013.1/src/exe/rbdock.cxx#4 $)

>  <Rbt.Library>
libRbt.so (2013.1, Build901 2013/11/27)

>  <Rbt.Parameter_File>
/export/apps/rDock/src/rDock_2013.1_src/data/scripts/dock_solv.prm

>  <Rbt.Receptor>
prm/pocket_docking_3.prm

>  <SCORE>
-24.7735

>  <SCORE.INTER>
-18.4756

>  <SCORE.INTER.CONST>
1

>  <SCORE.INTER.POLAR>
-0.916402

>  <SCORE.INTER.ROT>
6

>  <SCORE.INTER.SOLV>
17.1659

>  <SCORE.INTER.VDW>
-22.5843

>  <SCORE.INTER.norm>
-0.595986

>  <SCORE.INTRA>
-6.29798

>  <SCORE.INTRA.DIHEDRAL>
-12.4789

>  <SCORE.INTRA.DIHEDRAL.0>
22.2484

>  <SCORE.INTRA.POLAR>
0

>  <SCORE.INTRA.POLAR.0>
0

>  <SCORE.INTRA.REPUL>
0

>  <SCORE.INTRA.REPUL.0>
0

>  <SCORE.INTRA.SOLV>
-1.16491

>  <SCORE.INTRA.SOLV.lig_0>
-75.7198

>  <SCORE.INTRA.VDW>
0.523912

>  <SCORE.INTRA.VDW.0>
-3.34171

>  <SCORE.INTRA.norm>
-0.203161

>  <SCORE.RESTR>
0

>  <SCORE.RESTR.CAVITY>
0

>  <SCORE.RESTR.norm>
0

>  <SCORE.SYSTEM>
0

>  <SCORE.SYSTEM.CONST>
0

>  <SCORE.SYSTEM.DIHEDRAL>
0

>  <SCORE.SYSTEM.SOLV>
0

>  <SCORE.SYSTEM.norm>
0

>  <SCORE.heavy>
31

>  <SCORE.norm>
-0.799147

>  <RMSD>
2.289

$$$$
2et3_lig
 OpenBabel11021811423D
libRbt.so/2013.1/901 2013/11/27
 31 33  0  0  0  0  0  0  0  0999 V2000
   -0.1715   -6.0723   29.6513 C   0  0  2  0  0  0  0  0  0  0  0  0
   -1.0186   -7.2425   29.7900 O   0  0  0  0  0  0  0  0  0  0  0  0
   -1.9544   -9.8585   33.0438 C   0  0  2  0  0  0  0  0  0  0  0  0
   -1.7687  -10.6815   34.1987 N   0  0  0  0  0  0  0  0  0  0  0  0
   -1.9126   -7.9699   35.8443 C   0  0  2  0  0  0  0  0  0  0  0  0
   -0.6361   -5.2351   28.4548 C   0  0  2  0  0  0  0  0  0  0  0  0
   -2.0146   -4.9008   28.6398 N   0  0  0  0  0  0  0  0  0  0  0  0
   -1.1109  -10.4262   31.8571 C   0  0  0  0  0  0  0  0  0  0  0  0
   -3.1510   -7.5648   36.6739 C   0  0  2  0  0  0  0  0  0  0  0  0
   -4.1973   -8.4712   36.4054 O   0  0  0  0  0  0  0  0  0  0  0  0
   -0.3992   -6.0153   27.1167 C   0  0  0  0  0  0  0  0  0  0  0  0
   -1.3022   -9.5221   30.5848 C   0  0  2  0  0  0  0  0  0  0  0  0
   -0.5092  -10.0524   29.4642 N   0  0  0  0  0  0  0  0  0  0  0  0
   -3.5400   -6.0820   36.2778 C   0  0  1  0  0  0  0  0  0  0  0  0
   -4.7676   -5.6236   37.0069 N   0  0  0  0  0  0  0  0  0  0  0  0
    1.1293   -6.3070   26.9921 C   0  0  0  0  0  0  0  0  0  0  0  0
   -0.8719   -8.0424   30.9195 C   0  0  2  0  0  0  0  0  0  0  0  0
   -2.3063   -5.0784   36.5852 C   0  0  1  0  0  0  0  0  0  0  0  0
   -1.9972   -5.0511   37.9633 O   0  0  0  0  0  0  0  0  0  0  0  0
    1.5896   -7.1514   28.2608 C   0  0  2  0  0  0  0  0  0  0  0  0
    1.2515   -6.4893   29.5196 O   0  0  0  0  0  0  0  0  0  0  0  0
   -1.7382   -7.4994   32.1205 C   0  0  2  0  0  0  0  0  0  0  0  0
   -1.3679   -6.1614   32.4372 O   0  0  0  0  0  0  0  0  0  0  0  0
   -1.0393   -5.5800   35.8258 C   0  0  0  0  0  0  0  0  0  0  0  0
   -0.7871   -7.0303   36.1186 O   0  0  0  0  0  0  0  0  0  0  0  0
    3.0545   -7.5203   28.2593 C   0  0  0  0  0  0  0  0  0  0  0  0
    3.8992   -6.3571   28.3331 N   0  0  0  0  0  0  0  0  0  0  0  0
   -1.5359   -8.4145   33.3790 C   0  0  1  0  0  0  0  0  0  0  0  0
   -2.3298   -7.9131   34.4475 O   0  0  0  0  0  0  0  0  0  0  0  0
   -2.5167   -3.5973   36.2421 C   0  0  0  0  0  0  0  0  0  0  0  0
   -5.7231   -4.7924   36.2557 C   0  0  0  0  0  0  0  0  0  0  0  0
  1  2  1  6  0  0  0
  1  6  1  0  0  0  0
  1 21  1  0  0  0  0
  3  4  1  1  0  0  0
  3  8  1  0  0  0  0
  3 28  1  0  0  0  0
  5  9  1  0  0  0  0
  5 25  1  0  0  0  0
  5 29  1  6  0  0  0
  6  7  1  1  0  0  0
  6 11  1  0  0  0  0
  8 12  1  0  0  0  0
  9 10  1  6  0  0  0
  9 14  1  0  0  0  0
 11 16  1  0  0  0  0
 12 13  1  6  0  0  0
 12 17  1  0  0  0  0
 14 15  1  1  0  0  0
 14 18  1  0  0  0  0
 15 31  1  0  0  0  0
 16 20  1  0  0  0  0
 17  2  1  6  0  0  0
 17 22  1  0  0  0  0
 18 19  1  1  0  0  0
 18 24  1  0  0  0  0
 18 30  1  0  0  0  0
 20 21  1  0  0  0  0
 20 26  1  6  0  0  0
 22 23  1  1  0  0  0
 22 28  1  0  0  0  0
 24 25  1  0  0  0  0
 26 27  1  0  0  0  0
 28 29  1  1  0  0  0
M  END
>  <CHROM.1>
-171.80553580,-169.99524747,-141.57231003,-152.63290138,64.09041856,94.57377551
-1.29451633,-7.03277001,32.58284677,-0.08102268,1.11023004,0.00975217

>  <Name>
2et3_lig

>  <RI>
3.50789e+07

>  <Rbt.Current_Directory>
/home/itssahil/PROJECTS/Mol_Feturizer/New_Systems/rnas/2et3

>  <Rbt.Executable>
rbdock ($Id: //depot/dev/client3/rdock/2013.1/src/exe/rbdock.cxx#4 $)

>  <Rbt.Library>
libRbt.so (2013.1, Build901 2013/11/27)

>  <Rbt.Parameter_File>
/export/apps/rDock/src/rDock_2013.1_src/data/scripts/dock_solv.prm

>  <Rbt.Receptor>
prm/pocket_docking_4.prm

>  <SCORE>
-25.1213

>  <SCORE.INTER>
-17.5327

>  <SCORE.INTER.CONST>
1

>  <SCORE.INTER.POLAR>
-1.62628

>  <SCORE.INTER.ROT>
6

>  <SCORE.INTER.SOLV>
18.4328

>  <SCORE.INTER.VDW>
-20.0118

>  <SCORE.INTER.norm>
-0.56557

>  <SCORE.INTRA>
-7.58857

>  <SCORE.INTRA.DIHEDRAL>
-12.8027

>  <SCORE.INTRA.DIHEDRAL.0>
22.2484

>  <SCORE.INTRA.POLAR>
0

>  <SCORE.INTRA.POLAR.0>
0

>  <SCORE.INTRA.REPUL>
0

>  <SCORE.INTRA.REPUL.0>
0

>  <SCORE.INTRA.SOLV>
-1.56346

>  <SCORE.INTRA.SOLV.lig_0>
-75.7198

>  <SCORE.INTRA.VDW>
-0.40548

>  <SCORE.INTRA.VDW.0>
-3.34171

>  <SCORE.INTRA.norm>
-0.244793

>  <SCORE.RESTR>
0

>  <SCORE.RESTR.CAVITY>
0

>  <SCORE.RESTR.norm>
0

>  <SCORE.SYSTEM>
0

>  <SCORE.SYSTEM.CONST>
0

>  <SCORE.SYSTEM.DIHEDRAL>
0

>  <SCORE.SYSTEM.SOLV>
0

>  <SCORE.SYSTEM.norm>
0

>  <SCORE.heavy>
31

>  <SCORE.norm>
-0.810363

>  <RMSD>
2.290

$$$$
2et3_lig
 OpenBabel11021811423D
libRbt.so/2013.1/901 2013/11/27
 31 33  0  0  0  0  0  0  0  0999 V2000
    0.5082   -8.1711   28.2415 C   0  0  2  0  0  0  0  0  0  0  0  0
    0.2868   -7.9066   29.6512 O   0  0  0  0  0  0  0  0  0  0  0  0
   -1.3083  -11.1433   31.9503 C   0  0  2  0  0  0  0  0  0  0  0  0
   -1.3538  -12.2548   32.8493 N   0  0  0  0  0  0  0  0  0  0  0  0
   -1.6474  -10.2942   35.0668 C   0  0  2  0  0  0  0  0  0  0  0  0
    1.9736   -7.8968   27.8867 C   0  0  2  0  0  0  0  0  0  0  0  0
    2.8052   -8.6928   28.7358 N   0  0  0  0  0  0  0  0  0  0  0  0
   -0.3685  -11.4821   30.7486 C   0  0  0  0  0  0  0  0  0  0  0  0
   -3.0875  -10.7856   35.3318 C   0  0  2  0  0  0  0  0  0  0  0  0
   -3.4764  -11.6468   34.2852 O   0  0  0  0  0  0  0  0  0  0  0  0
    2.2923   -6.3687   28.0237 C   0  0  0  0  0  0  0  0  0  0  0  0
   -0.3054  -10.2617   29.7588 C   0  0  2  0  0  0  0  0  0  0  0  0
    0.5790  -10.5755   28.6253 N   0  0  0  0  0  0  0  0  0  0  0  0
   -4.0268   -9.5146   35.4286 C   0  0  1  0  0  0  0  0  0  0  0  0
   -5.4591   -9.9058   35.6393 N   0  0  0  0  0  0  0  0  0  0  0  0
    1.3598   -5.5912   27.0426 C   0  0  0  0  0  0  0  0  0  0  0  0
    0.2083   -8.9846   30.5281 C   0  0  2  0  0  0  0  0  0  0  0  0
   -3.5352   -8.5451   36.6295 C   0  0  1  0  0  0  0  0  0  0  0  0
   -3.6190   -9.1945   37.8811 O   0  0  0  0  0  0  0  0  0  0  0  0
   -0.1533   -5.9174   27.4153 C   0  0  2  0  0  0  0  0  0  0  0  0
   -0.4257   -7.3538   27.4195 O   0  0  0  0  0  0  0  0  0  0  0  0
   -0.7582   -8.6705   31.7344 C   0  0  2  0  0  0  0  0  0  0  0  0
   -0.3141   -7.5170   32.4415 O   0  0  0  0  0  0  0  0  0  0  0  0
   -2.0418   -8.1600   36.3951 C   0  0  0  0  0  0  0  0  0  0  0  0
   -1.2087   -9.3875   36.1670 O   0  0  0  0  0  0  0  0  0  0  0  0
   -1.1693   -5.2111   26.5490 C   0  0  0  0  0  0  0  0  0  0  0  0
   -2.5034   -5.3430   27.0730 N   0  0  0  0  0  0  0  0  0  0  0  0
   -0.8094   -9.8991   32.7091 C   0  0  1  0  0  0  0  0  0  0  0  0
   -1.6905   -9.5993   33.7848 O   0  0  0  0  0  0  0  0  0  0  0  0
   -4.3354   -7.2538   36.8484 C   0  0  0  0  0  0  0  0  0  0  0  0
   -6.3909   -9.6673   34.5244 C   0  0  0  0  0  0  0  0  0  0  0  0
  1  2  1  1  0  0  0
  1  6  1  0  0  0  0
  1 21  1  0  0  0  0
  3  4  1  1  0  0  0
  3  8  1  0  0  0  0
  3 28  1  0  0  0  0
  5  9  1  0  0  0  0
  5 25  1  0  0  0  0
  5 29  1  6  0  0  0
  6  7  1  1  0  0  0
  6 11  1  0  0  0  0
  8 12  1  0  0  0  0
  9 10  1  6  0  0  0
  9 14  1  0  0  0  0
 11 16  1  0  0  0  0
 12 13  1  6  0  0  0
 12 17  1  0  0  0  0
 14 15  1  1  0  0  0
 14 18  1  0  0  0  0
 15 31  1  0  0  0  0
 16 20  1  0  0  0  0
 17  2  1  6  0  0  0
 17 22  1  0  0  0  0
 18 19  1  1  0  0  0
 18 24  1  0  0  0  0
 18 30  1  0  0  0  0
 20 21  1  0  0  0  0
 20 26  1  6  0  0  0
 22 23  1  1  0  0  0
 22 28  1  0  0  0  0
 24 25  1  0  0  0  0
 26 27  1  0  0  0  0
 28 29  1  1  0  0  0
M  END
>  <CHROM.1>
-102.32747980,-127.48201712,-110.67342795,-27.29107830,-169.45142590,80.56036010
-1.31537904,-8.80578339,31.89550750,-0.86529294,-0.82574813,2.42366079

>  <Name>
2et3_lig

>  <RI>
0

>  <Rbt.Current_Directory>
/home/itssahil/PROJECTS/Mol_Feturizer/New_Systems/rnas/2et3

>  <Rbt.Executable>
rbdock ($Id: //depot/dev/client3/rdock/2013.1/src/exe/rbdock.cxx#4 $)

>  <Rbt.Library>
libRbt.so (2013.1, Build901 2013/11/27)

>  <Rbt.Parameter_File>
/export/apps/rDock/src/rDock_2013.1_src/data/scripts/dock_solv.prm

>  <Rbt.Receptor>
prm/blind_docking_100.prm

>  <SCORE>
-13.474

>  <SCORE.INTER>
-19.5682

>  <SCORE.INTER.CONST>
1

>  <SCORE.INTER.POLAR>
0

>  <SCORE.INTER.ROT>
6

>  <SCORE.INTER.SOLV>
22.5134

>  <SCORE.INTER.VDW>
-28.1499

>  <SCORE.INTER.norm>
-0.631231

>  <SCORE.INTRA>
5.47327

>  <SCORE.INTRA.DIHEDRAL>
-1.93895

>  <SCORE.INTRA.DIHEDRAL.0>
22.2484

>  <SCORE.INTRA.POLAR>
0

>  <SCORE.INTRA.POLAR.0>
0

>  <SCORE.INTRA.REPUL>
0

>  <SCORE.INTRA.REPUL.0>
0

>  <SCORE.INTRA.SOLV>
2.81644

>  <SCORE.INTRA.SOLV.lig_0>
-75.7198

>  <SCORE.INTRA.VDW>
5.03453

>  <SCORE.INTRA.VDW.0>
-3.34171

>  <SCORE.INTRA.norm>
0.176557

>  <SCORE.RESTR>
0.620884

>  <SCORE.RESTR.CAVITY>
0.620884

>  <SCORE.RESTR.norm>
0.0200285

>  <SCORE.SYSTEM>
0

>  <SCORE.SYSTEM.CONST>
0

>  <SCORE.SYSTEM.DIHEDRAL>
0

>  <SCORE.SYSTEM.SOLV>
0

>  <SCORE.SYSTEM.norm>
0

>  <SCORE.heavy>
31

>  <SCORE.norm>
-0.434645

>  <RMSD>
2.312

$$$$
2et3_lig
 OpenBabel11021811423D
libRbt.so/2013.1/901 2013/11/27
 31 33  0  0  0  0  0  0  0  0999 V2000
    0.7058   -6.3643   28.9726 C   0  0  2  0  0  0  0  0  0  0  0  0
    0.0208   -7.6432   28.9368 O   0  0  0  0  0  0  0  0  0  0  0  0
   -1.5407  -10.0420   32.1170 C   0  0  2  0  0  0  0  0  0  0  0  0
   -1.5767  -10.8190   33.3172 N   0  0  0  0  0  0  0  0  0  0  0  0
   -3.1919   -7.3065   32.9616 C   0  0  2  0  0  0  0  0  0  0  0  0
    0.2544   -5.5013   27.7895 C   0  0  2  0  0  0  0  0  0  0  0  0
   -1.1689   -5.3677   27.8393 N   0  0  0  0  0  0  0  0  0  0  0  0
   -0.5750  -10.7144   31.0886 C   0  0  0  0  0  0  0  0  0  0  0  0
   -3.9121   -6.8975   34.2654 C   0  0  2  0  0  0  0  0  0  0  0  0
   -3.0560   -6.0692   35.0199 O   0  0  0  0  0  0  0  0  0  0  0  0
    0.7345   -6.1323   26.4379 C   0  0  0  0  0  0  0  0  0  0  0  0
   -0.5225   -9.8618   29.7683 C   0  0  2  0  0  0  0  0  0  0  0  0
    0.3862  -10.4907   28.7964 N   0  0  0  0  0  0  0  0  0  0  0  0
   -4.2927   -8.2201   35.0482 C   0  0  1  0  0  0  0  0  0  0  0  0
   -4.9579   -7.9112   36.3562 N   0  0  0  0  0  0  0  0  0  0  0  0
    2.2933   -6.2091   26.4677 C   0  0  0  0  0  0  0  0  0  0  0  0
   -0.0484   -8.3961   30.1053 C   0  0  2  0  0  0  0  0  0  0  0  0
   -5.2606   -9.1492   34.1406 C   0  0  1  0  0  0  0  0  0  0  0  0
   -6.4794   -8.4952   33.8539 O   0  0  0  0  0  0  0  0  0  0  0  0
    2.7341   -7.0856   27.7215 C   0  0  2  0  0  0  0  0  0  0  0  0
    2.1791   -6.5781   28.9751 O   0  0  0  0  0  0  0  0  0  0  0  0
   -1.0403   -7.7464   31.1455 C   0  0  2  0  0  0  0  0  0  0  0  0
   -0.6321   -6.4192   31.4614 O   0  0  0  0  0  0  0  0  0  0  0  0
   -4.5534   -9.4487   32.7828 C   0  0  0  0  0  0  0  0  0  0  0  0
   -4.0822   -8.1768   32.1402 O   0  0  0  0  0  0  0  0  0  0  0  0
    4.2284   -7.2570   27.8610 C   0  0  0  0  0  0  0  0  0  0  0  0
    4.7840   -8.0160   26.7716 N   0  0  0  0  0  0  0  0  0  0  0  0
   -1.0806   -8.6112   32.4541 C   0  0  1  0  0  0  0  0  0  0  0  0
   -1.9848   -8.0136   33.3754 O   0  0  0  0  0  0  0  0  0  0  0  0
   -5.7118  -10.4830   34.7514 C   0  0  0  0  0  0  0  0  0  0  0  0
   -4.2046   -8.2231   37.5824 C   0  0  0  0  0  0  0  0  0  0  0  0
  1  2  1  6  0  0  0
  1  6  1  0  0  0  0
  1 21  1  0  0  0  0
  3  4  1  1  0  0  0
  3  8  1  0  0  0  0
  3 28  1  0  0  0  0
  5  9  1  0  0  0  0
  5 25  1  0  0  0  0
  5 29  1  1  0  0  0
  6  7  1  6  0  0  0
  6 11  1  0  0  0  0
  8 12  1  0  0  0  0
  9 10  1  1  0  0  0
  9 14  1  0  0  0  0
 11 16  1  0  0  0  0
 12 13  1  6  0  0  0
 12 17  1  0  0  0  0
 14 15  1  1  0  0  0
 14 18  1  0  0  0  0
 15 31  1  0  0  0  0
 16 20  1  0  0  0  0
 17  2  1  6  0  0  0
 17 22  1  0  0  0  0
 18 19  1  6  0  0  0
 18 24  1  0  0  0  0
 18 30  1  0  0  0  0
 20 21  1  0  0  0  0
 20 26  1  1  0  0  0
 22 23  1  1  0  0  0
 22 28  1  0  0  0  0
 24 25  1  0  0  0  0
 26 27  1  0  0  0  0
 28 29  1  1  0  0  0
M  END
>  <CHROM.1>
-159.99714184,176.74692464,-111.15504068,-166.82563621,-65.52457556,-86.66391003
-1.36663622,-7.97334930,31.33516731,0.31863957,0.78428771,-0.23425315

>  <Name>
2et3_lig

>  <RI>
0

>  <Rbt.Current_Directory>
/home/itssahil/PROJECTS/Mol_Feturizer/New_Systems/rnas/2et3

>  <Rbt.Executable>
rbdock ($Id: //depot/dev/client3/rdock/2013.1/src/exe/rbdock.cxx#4 $)

>  <Rbt.Library>
libRbt.so (2013.1, Build901 2013/11/27)

>  <Rbt.Parameter_File>
/export/apps/rDock/src/rDock_2013.1_src/data/scripts/dock_solv.prm

>  <Rbt.Receptor>
prm/pocket_docking_3.prm

>  <SCORE>
-26.2712

>  <SCORE.INTER>
-18.4852

>  <SCORE.INTER.CONST>
1

>  <SCORE.INTER.POLAR>
-0.938083

>  <SCORE.INTER.ROT>
6

>  <SCORE.INTER.SOLV>
14.6967

>  <SCORE.INTER.VDW>
-21.6954

>  <SCORE.INTER.norm>
-0.596296

>  <SCORE.INTRA>
-7.78599

>  <SCORE.INTRA.DIHEDRAL>
-15.2287

>  <SCORE.INTRA.DIHEDRAL.0>
22.2484

>  <SCORE.INTRA.POLAR>
0

>  <SCORE.INTRA.POLAR.0>
0

>  <SCORE.INTRA.REPUL>
0

>  <SCORE.INTRA.REPUL.0>
0

>  <SCORE.INTRA.SOLV>
-1.52574

>  <SCORE.INTRA.SOLV.lig_0>
-75.7198

>  <SCORE.INTRA.VDW>
0.591216

>  <SCORE.INTRA.VDW.0>
-3.34171

>  <SCORE.INTRA.norm>
-0.251161

>  <SCORE.RESTR>
0

>  <SCORE.RESTR.CAVITY>
0

>  <SCORE.RESTR.norm>
0

>  <SCORE.SYSTEM>
0

>  <SCORE.SYSTEM.CONST>
0

>  <SCORE.SYSTEM.DIHEDRAL>
0

>  <SCORE.SYSTEM.SOLV>
0

>  <SCORE.SYSTEM.norm>
0

>  <SCORE.heavy>
31

>  <SCORE.norm>
-0.847457

>  <RMSD>
2.329

$$$$
2et3_lig
 OpenBabel11021811423D
libRbt.so/2013.1/901 2013/11/27
 31 33  0  0  0  0  0  0  0  0999 V2000
    1.0432   -6.6108   29.0615 C   0  0  2  0  0  0  0  0  0  0  0  0
    0.0217   -7.6410   29.0260 O   0  0  0  0  0  0  0  0  0  0  0  0
   -1.9142   -9.9643   32.0527 C   0  0  2  0  0  0  0  0  0  0  0  0
   -2.0807  -10.7783   33.2169 N   0  0  0  0  0  0  0  0  0  0  0  0
   -3.3073   -7.1442   32.9663 C   0  0  2  0  0  0  0  0  0  0  0  0
    0.8136   -5.6138   27.9207 C   0  0  2  0  0  0  0  0  0  0  0  0
   -0.5101   -5.0841   28.0374 N   0  0  0  0  0  0  0  0  0  0  0  0
   -0.9979  -10.7038   31.0253 C   0  0  0  0  0  0  0  0  0  0  0  0
   -3.9266   -6.5813   34.2645 C   0  0  2  0  0  0  0  0  0  0  0  0
   -2.9585   -5.8039   34.9330 O   0  0  0  0  0  0  0  0  0  0  0  0
    1.0449   -6.3065   26.5343 C   0  0  0  0  0  0  0  0  0  0  0  0
   -0.8021   -9.8119   29.7450 C   0  0  2  0  0  0  0  0  0  0  0  0
    0.0607  -10.5039   28.7743 N   0  0  0  0  0  0  0  0  0  0  0  0
   -4.4100   -7.8051   35.1451 C   0  0  1  0  0  0  0  0  0  0  0  0
   -4.9849   -7.3471   36.4523 N   0  0  0  0  0  0  0  0  0  0  0  0
    2.5174   -6.8229   26.4923 C   0  0  0  0  0  0  0  0  0  0  0  0
   -0.1739   -8.4260   30.1586 C   0  0  2  0  0  0  0  0  0  0  0  0
   -5.5059   -8.6800   34.3345 C   0  0  1  0  0  0  0  0  0  0  0  0
   -6.6609   -7.9189   34.0478 O   0  0  0  0  0  0  0  0  0  0  0  0
    2.7356   -7.8324   27.7039 C   0  0  2  0  0  0  0  0  0  0  0  0
    2.3938   -7.2333   28.9929 O   0  0  0  0  0  0  0  0  0  0  0  0
   -1.1193   -7.7063   31.1960 C   0  0  2  0  0  0  0  0  0  0  0  0
   -0.5718   -6.4493   31.5806 O   0  0  0  0  0  0  0  0  0  0  0  0
   -4.8904   -9.1362   32.9756 C   0  0  0  0  0  0  0  0  0  0  0  0
   -4.3164   -7.9637   32.2350 O   0  0  0  0  0  0  0  0  0  0  0  0
    4.1234   -8.4250   27.7722 C   0  0  0  0  0  0  0  0  0  0  0  0
    5.1416   -7.4277   27.5713 N   0  0  0  0  0  0  0  0  0  0  0  0
   -1.3040   -8.6112   32.4645 C   0  0  1  0  0  0  0  0  0  0  0  0
   -2.1642   -7.9489   33.3836 O   0  0  0  0  0  0  0  0  0  0  0  0
   -6.0678   -9.9180   35.0468 C   0  0  0  0  0  0  0  0  0  0  0  0
   -4.5294   -8.0441   37.6667 C   0  0  0  0  0  0  0  0  0  0  0  0
  1  2  1  6  0  0  0
  1  6  1  0  0  0  0
  1 21  1  0  0  0  0
  3  4  1  1  0  0  0
  3  8  1  0  0  0  0
  3 28  1  0  0  0  0
  5  9  1  0  0  0  0
  5 25  1  0  0  0  0
  5 29  1  1  0  0  0
  6  7  1  6  0  0  0
  6 11  1  0  0  0  0
  8 12  1  0  0  0  0
  9 10  1  1  0  0  0
  9 14  1  0  0  0  0
 11 16  1  0  0  0  0
 12 13  1  6  0  0  0
 12 17  1  0  0  0  0
 14 15  1  1  0  0  0
 14 18  1  0  0  0  0
 15 31  1  0  0  0  0
 16 20  1  0  0  0  0
 17  2  1  6  0  0  0
 17 22  1  0  0  0  0
 18 19  1  6  0  0  0
 18 24  1  0  0  0  0
 18 30  1  0  0  0  0
 20 21  1  0  0  0  0
 20 26  1  1  0  0  0
 22 23  1  1  0  0  0
 22 28  1  0  0  0  0
 24 25  1  0  0  0  0
 26 27  1  0  0  0  0
 28 29  1  1  0  0  0
M  END
>  <CHROM.1>
-162.93800994,-178.22897205,-132.85813396,-155.01996062,44.83655270,-83.49503969
-1.42315660,-7.92664732,31.41561200,0.08406897,0.79082285,-0.00187809

>  <Name>
2et3_lig

>  <RI>
3.50789e+07

>  <Rbt.Current_Directory>
/home/itssahil/PROJECTS/Mol_Feturizer/New_Systems/rnas/2et3

>  <Rbt.Executable>
rbdock ($Id: //depot/dev/client3/rdock/2013.1/src/exe/rbdock.cxx#4 $)

>  <Rbt.Library>
libRbt.so (2013.1, Build901 2013/11/27)

>  <Rbt.Parameter_File>
/export/apps/rDock/src/rDock_2013.1_src/data/scripts/dock_solv.prm

>  <Rbt.Receptor>
prm/pocket_docking_4.prm

>  <SCORE>
-21.4847

>  <SCORE.INTER>
-14.612

>  <SCORE.INTER.CONST>
1

>  <SCORE.INTER.POLAR>
-0.938083

>  <SCORE.INTER.ROT>
6

>  <SCORE.INTER.SOLV>
17.2456

>  <SCORE.INTER.VDW>
-19.9629

>  <SCORE.INTER.norm>
-0.471355

>  <SCORE.INTRA>
-6.87271

>  <SCORE.INTRA.DIHEDRAL>
-13.8919

>  <SCORE.INTRA.DIHEDRAL.0>
22.2484

>  <SCORE.INTRA.POLAR>
0

>  <SCORE.INTRA.POLAR.0>
0

>  <SCORE.INTRA.REPUL>
0

>  <SCORE.INTRA.REPUL.0>
0

>  <SCORE.INTRA.SOLV>
-0.435514

>  <SCORE.INTRA.SOLV.lig_0>
-75.7198

>  <SCORE.INTRA.VDW>
0.290976

>  <SCORE.INTRA.VDW.0>
-3.34171

>  <SCORE.INTRA.norm>
-0.2217

>  <SCORE.RESTR>
0

>  <SCORE.RESTR.CAVITY>
0

>  <SCORE.RESTR.norm>
0

>  <SCORE.SYSTEM>
0

>  <SCORE.SYSTEM.CONST>
0

>  <SCORE.SYSTEM.DIHEDRAL>
0

>  <SCORE.SYSTEM.SOLV>
0

>  <SCORE.SYSTEM.norm>
0

>  <SCORE.heavy>
31

>  <SCORE.norm>
-0.693056

>  <RMSD>
2.343

$$$$
2et3_lig
 OpenBabel11021811423D
libRbt.so/2013.1/901 2013/11/27
 31 33  0  0  0  0  0  0  0  0999 V2000
   -0.0541   -5.8844   29.3139 C   0  0  2  0  0  0  0  0  0  0  0  0
   -0.7279   -7.1643   29.4319 O   0  0  0  0  0  0  0  0  0  0  0  0
   -1.7275   -9.5778   32.8205 C   0  0  2  0  0  0  0  0  0  0  0  0
   -1.5698  -10.3068   34.0408 N   0  0  0  0  0  0  0  0  0  0  0  0
   -2.0630   -7.7696   35.4868 C   0  0  2  0  0  0  0  0  0  0  0  0
   -0.5082   -5.1757   28.0333 C   0  0  2  0  0  0  0  0  0  0  0  0
   -1.9328   -5.0498   28.0623 N   0  0  0  0  0  0  0  0  0  0  0  0
   -0.8014  -10.1922   31.7218 C   0  0  0  0  0  0  0  0  0  0  0  0
   -3.3325   -7.2163   36.1708 C   0  0  2  0  0  0  0  0  0  0  0  0
   -4.4559   -7.9153   35.6832 O   0  0  0  0  0  0  0  0  0  0  0  0
   -0.0174   -5.9621   26.7699 C   0  0  0  0  0  0  0  0  0  0  0  0
   -0.9619   -9.3910   30.3782 C   0  0  2  0  0  0  0  0  0  0  0  0
   -0.0912   -9.9655   29.3402 N   0  0  0  0  0  0  0  0  0  0  0  0
   -3.4206   -5.6670   35.8562 C   0  0  1  0  0  0  0  0  0  0  0  0
   -4.6563   -5.0566   36.4472 N   0  0  0  0  0  0  0  0  0  0  0  0
    1.5419   -6.0207   26.8133 C   0  0  0  0  0  0  0  0  0  0  0  0
   -0.6086   -7.8738   30.6233 C   0  0  2  0  0  0  0  0  0  0  0  0
   -2.1049   -4.9061   36.4163 C   0  0  1  0  0  0  0  0  0  0  0  0
   -2.0050   -5.0190   37.8209 O   0  0  0  0  0  0  0  0  0  0  0  0
    1.9853   -6.7342   28.1657 C   0  0  2  0  0  0  0  0  0  0  0  0
    1.4209   -6.0831   29.3467 O   0  0  0  0  0  0  0  0  0  0  0  0
   -1.5573   -7.2840   31.7369 C   0  0  2  0  0  0  0  0  0  0  0  0
   -1.2573   -5.9119   31.9716 O   0  0  0  0  0  0  0  0  0  0  0  0
   -0.8331   -5.5638   35.7970 C   0  0  0  0  0  0  0  0  0  0  0  0
   -0.8580   -7.0515   35.9938 O   0  0  0  0  0  0  0  0  0  0  0  0
    3.4804   -6.8739   28.3294 C   0  0  0  0  0  0  0  0  0  0  0  0
    4.0490   -7.7425   27.3324 N   0  0  0  0  0  0  0  0  0  0  0  0
   -1.3846   -8.0966   33.0681 C   0  0  1  0  0  0  0  0  0  0  0  0
   -2.2524   -7.5547   34.0563 O   0  0  0  0  0  0  0  0  0  0  0  0
   -2.0268   -3.3919   36.1783 C   0  0  0  0  0  0  0  0  0  0  0  0
   -5.8144   -4.8874   35.5538 C   0  0  0  0  0  0  0  0  0  0  0  0
  1  2  1  6  0  0  0
  1  6  1  0  0  0  0
  1 21  1  0  0  0  0
  3  4  1  1  0  0  0
  3  8  1  0  0  0  0
  3 28  1  0  0  0  0
  5  9  1  0  0  0  0
  5 25  1  0  0  0  0
  5 29  1  6  0  0  0
  6  7  1  1  0  0  0
  6 11  1  0  0  0  0
  8 12  1  0  0  0  0
  9 10  1  6  0  0  0
  9 14  1  0  0  0  0
 11 16  1  0  0  0  0
 12 13  1  6  0  0  0
 12 17  1  0  0  0  0
 14 15  1  1  0  0  0
 14 18  1  0  0  0  0
 15 31  1  0  0  0  0
 16 20  1  0  0  0  0
 17  2  1  6  0  0  0
 17 22  1  0  0  0  0
 18 19  1  1  0  0  0
 18 24  1  0  0  0  0
 18 30  1  0  0  0  0
 20 21  1  0  0  0  0
 20 26  1  1  0  0  0
 22 23  1  1  0  0  0
 22 28  1  0  0  0  0
 24 25  1  0  0  0  0
 26 27  1  0  0  0  0
 28 29  1  1  0  0  0
M  END
>  <CHROM.1>
-170.41975621,-170.95574179,-97.63568109,-160.34070767,-64.85185858,79.61652500
-1.13016092,-6.85851859,32.26173247,0.05181151,1.08726987,-0.16596877

>  <Name>
2et3_lig

>  <RI>
2.5794e+07

>  <Rbt.Current_Directory>
/home/itssahil/PROJECTS/Mol_Feturizer/New_Systems/rnas/2et3

>  <Rbt.Executable>
rbdock ($Id: //depot/dev/client3/rdock/2013.1/src/exe/rbdock.cxx#4 $)

>  <Rbt.Library>
libRbt.so (2013.1, Build901 2013/11/27)

>  <Rbt.Parameter_File>
/export/apps/rDock/src/rDock_2013.1_src/data/scripts/dock_solv.prm

>  <Rbt.Receptor>
prm/pocket_docking_5.prm

>  <SCORE>
-29.9145

>  <SCORE.INTER>
-20.1037

>  <SCORE.INTER.CONST>
1

>  <SCORE.INTER.POLAR>
-1.65931

>  <SCORE.INTER.ROT>
6

>  <SCORE.INTER.SOLV>
13.2023

>  <SCORE.INTER.VDW>
-19.8722

>  <SCORE.INTER.norm>
-0.648506

>  <SCORE.INTRA>
-9.81085

>  <SCORE.INTRA.DIHEDRAL>
-16.8665

>  <SCORE.INTRA.DIHEDRAL.0>
22.2484

>  <SCORE.INTRA.POLAR>
0

>  <SCORE.INTRA.POLAR.0>
0

>  <SCORE.INTRA.REPUL>
0

>  <SCORE.INTRA.REPUL.0>
0

>  <SCORE.INTRA.SOLV>
-2.5018

>  <SCORE.INTRA.SOLV.lig_0>
-75.7198

>  <SCORE.INTRA.VDW>
-0.126697

>  <SCORE.INTRA.VDW.0>
-3.34171

>  <SCORE.INTRA.norm>
-0.316479

>  <SCORE.RESTR>
0

>  <SCORE.RESTR.CAVITY>
0

>  <SCORE.RESTR.norm>
0

>  <SCORE.SYSTEM>
0

>  <SCORE.SYSTEM.CONST>
0

>  <SCORE.SYSTEM.DIHEDRAL>
0

>  <SCORE.SYSTEM.SOLV>
0

>  <SCORE.SYSTEM.norm>
0

>  <SCORE.heavy>
31

>  <SCORE.norm>
-0.964985

>  <RMSD>
2.349

$$$$
2et3_lig
 OpenBabel11021811423D
libRbt.so/2013.1/901 2013/11/27
 31 33  0  0  0  0  0  0  0  0999 V2000
    0.7562   -6.3621   28.9831 C   0  0  2  0  0  0  0  0  0  0  0  0
    0.0662   -7.6384   28.9509 O   0  0  0  0  0  0  0  0  0  0  0  0
   -1.6353   -9.9168   32.1477 C   0  0  2  0  0  0  0  0  0  0  0  0
   -1.7202  -10.6669   33.3625 N   0  0  0  0  0  0  0  0  0  0  0  0
   -3.2415   -7.1620   32.9086 C   0  0  2  0  0  0  0  0  0  0  0  0
    0.2991   -5.4959   27.8045 C   0  0  2  0  0  0  0  0  0  0  0  0
   -1.1233   -5.3570   27.8652 N   0  0  0  0  0  0  0  0  0  0  0  0
   -0.6735  -10.6423   31.1524 C   0  0  0  0  0  0  0  0  0  0  0  0
   -3.9194   -6.6199   34.1862 C   0  0  2  0  0  0  0  0  0  0  0  0
   -3.0303   -5.7402   34.8372 O   0  0  0  0  0  0  0  0  0  0  0  0
    0.7667   -6.1270   26.4486 C   0  0  0  0  0  0  0  0  0  0  0  0
   -0.5672   -9.8197   29.8163 C   0  0  2  0  0  0  0  0  0  0  0  0
    0.3380  -10.4987   28.8755 N   0  0  0  0  0  0  0  0  0  0  0  0
   -4.2989   -7.8564   35.0994 C   0  0  1  0  0  0  0  0  0  0  0  0
   -4.9233   -7.4145   36.3893 N   0  0  0  0  0  0  0  0  0  0  0  0
    2.3254   -6.2095   26.4665 C   0  0  0  0  0  0  0  0  0  0  0  0
   -0.0505   -8.3639   30.1329 C   0  0  2  0  0  0  0  0  0  0  0  0
   -5.3055   -8.8488   34.3085 C   0  0  1  0  0  0  0  0  0  0  0  0
   -6.5214   -8.2027   33.9930 O   0  0  0  0  0  0  0  0  0  0  0  0
    2.7723   -7.0893   27.7159 C   0  0  2  0  0  0  0  0  0  0  0  0
    2.2286   -6.5814   28.9743 O   0  0  0  0  0  0  0  0  0  0  0  0
   -1.0395   -7.6599   31.1399 C   0  0  2  0  0  0  0  0  0  0  0  0
   -0.5929   -6.3407   31.4368 O   0  0  0  0  0  0  0  0  0  0  0  0
   -4.6403   -9.2867   32.9670 C   0  0  0  0  0  0  0  0  0  0  0  0
   -4.1673   -8.0892   32.1958 O   0  0  0  0  0  0  0  0  0  0  0  0
    4.2670   -7.2664   27.8440 C   0  0  0  0  0  0  0  0  0  0  0  0
    4.8222   -7.9628   26.7132 N   0  0  0  0  0  0  0  0  0  0  0  0
   -1.1338   -8.4953   32.4648 C   0  0  1  0  0  0  0  0  0  0  0  0
   -2.0346   -7.8488   33.3558 O   0  0  0  0  0  0  0  0  0  0  0  0
   -5.7604  -10.1112   35.0534 C   0  0  0  0  0  0  0  0  0  0  0  0
   -4.4711   -8.0869   37.6188 C   0  0  0  0  0  0  0  0  0  0  0  0
  1  2  1  6  0  0  0
  1  6  1  0  0  0  0
  1 21  1  0  0  0  0
  3  4  1  1  0  0  0
  3  8  1  0  0  0  0
  3 28  1  0  0  0  0
  5  9  1  0  0  0  0
  5 25  1  0  0  0  0
  5 29  1  1  0  0  0
  6  7  1  6  0  0  0
  6 11  1  0  0  0  0
  8 12  1  0  0  0  0
  9 10  1  1  0  0  0
  9 14  1  0  0  0  0
 11 16  1  0  0  0  0
 12 13  1  6  0  0  0
 12 17  1  0  0  0  0
 14 15  1  1  0  0  0
 14 18  1  0  0  0  0
 15 31  1  0  0  0  0
 16 20  1  0  0  0  0
 17  2  1  6  0  0  0
 17 22  1  0  0  0  0
 18 19  1  6  0  0  0
 18 24  1  0  0  0  0
 18 30  1  0  0  0  0
 20 21  1  0  0  0  0
 20 26  1  1  0  0  0
 22 23  1  1  0  0  0
 22 28  1  0  0  0  0
 24 25  1  0  0  0  0
 26 27  1  0  0  0  0
 28 29  1  1  0  0  0
M  END
>  <CHROM.1>
-157.07914820,179.64220573,-136.19915146,-168.76477715,-62.36171676,-83.81584212
-1.38799419,-7.84736370,31.36393136,0.27349257,0.78959882,-0.21051522

>  <Name>
2et3_lig

>  <RI>
0

>  <Rbt.Current_Directory>
/home/itssahil/PROJECTS/Mol_Feturizer/New_Systems/rnas/2et3

>  <Rbt.Executable>
rbdock ($Id: //depot/dev/client3/rdock/2013.1/src/exe/rbdock.cxx#4 $)

>  <Rbt.Library>
libRbt.so (2013.1, Build901 2013/11/27)

>  <Rbt.Parameter_File>
/export/apps/rDock/src/rDock_2013.1_src/data/scripts/dock_solv.prm

>  <Rbt.Receptor>
prm/pocket_docking_3.prm

>  <SCORE>
-26.6291

>  <SCORE.INTER>
-18.8

>  <SCORE.INTER.CONST>
1

>  <SCORE.INTER.POLAR>
-0.938083

>  <SCORE.INTER.ROT>
6

>  <SCORE.INTER.SOLV>
14.2783

>  <SCORE.INTER.VDW>
-21.7658

>  <SCORE.INTER.norm>
-0.606451

>  <SCORE.INTRA>
-7.83088

>  <SCORE.INTRA.DIHEDRAL>
-15.7454

>  <SCORE.INTRA.DIHEDRAL.0>
22.2484

>  <SCORE.INTRA.POLAR>
0

>  <SCORE.INTRA.POLAR.0>
0

>  <SCORE.INTRA.REPUL>
0

>  <SCORE.INTRA.REPUL.0>
0

>  <SCORE.INTRA.SOLV>
-1.44878

>  <SCORE.INTRA.SOLV.lig_0>
-75.7198

>  <SCORE.INTRA.VDW>
0.766192

>  <SCORE.INTRA.VDW.0>
-3.34171

>  <SCORE.INTRA.norm>
-0.252609

>  <SCORE.RESTR>
0.00177358

>  <SCORE.RESTR.CAVITY>
0.00177358

>  <SCORE.RESTR.norm>
5.72124e-05

>  <SCORE.SYSTEM>
0

>  <SCORE.SYSTEM.CONST>
0

>  <SCORE.SYSTEM.DIHEDRAL>
0

>  <SCORE.SYSTEM.SOLV>
0

>  <SCORE.SYSTEM.norm>
0

>  <SCORE.heavy>
31

>  <SCORE.norm>
-0.859002

>  <RMSD>
2.353

$$$$
2et3_lig
 OpenBabel11021811423D
libRbt.so/2013.1/901 2013/11/27
 31 33  0  0  0  0  0  0  0  0999 V2000
    0.8117   -8.1868   28.4213 C   0  0  2  0  0  0  0  0  0  0  0  0
    0.9169   -8.0359   29.8609 O   0  0  0  0  0  0  0  0  0  0  0  0
   -1.7837  -10.7419   31.7820 C   0  0  2  0  0  0  0  0  0  0  0  0
   -2.2480  -11.8021   32.6222 N   0  0  0  0  0  0  0  0  0  0  0  0
   -1.6850   -8.9282   35.0015 C   0  0  2  0  0  0  0  0  0  0  0  0
    1.9827   -7.4721   27.7384 C   0  0  2  0  0  0  0  0  0  0  0  0
    3.2057   -7.9982   28.2614 N   0  0  0  0  0  0  0  0  0  0  0  0
   -0.7953  -11.3153   30.7160 C   0  0  0  0  0  0  0  0  0  0  0  0
   -2.9258   -9.3647   35.8111 C   0  0  2  0  0  0  0  0  0  0  0  0
   -3.1885  -10.7247   35.5473 O   0  0  0  0  0  0  0  0  0  0  0  0
    1.8760   -5.9231   27.9496 C   0  0  0  0  0  0  0  0  0  0  0  0
   -0.2726  -10.1546   29.7927 C   0  0  2  0  0  0  0  0  0  0  0  0
    0.6593  -10.6895   28.7871 N   0  0  0  0  0  0  0  0  0  0  0  0
   -4.1369   -8.4376   35.3859 C   0  0  1  0  0  0  0  0  0  0  0  0
   -5.4003   -8.8261   36.0943 N   0  0  0  0  0  0  0  0  0  0  0  0
    0.5295   -5.4421   27.3233 C   0  0  0  0  0  0  0  0  0  0  0  0
    0.4331   -9.0552   30.6758 C   0  0  2  0  0  0  0  0  0  0  0  0
   -3.7871   -6.8853   35.6890 C   0  0  1  0  0  0  0  0  0  0  0  0
   -3.5859   -6.6640   37.0695 O   0  0  0  0  0  0  0  0  0  0  0  0
   -0.6656   -6.2211   28.0301 C   0  0  2  0  0  0  0  0  0  0  0  0
   -0.5041   -7.6720   27.9525 O   0  0  0  0  0  0  0  0  0  0  0  0
   -0.5879   -8.4985   31.7415 C   0  0  2  0  0  0  0  0  0  0  0  0
    0.0288   -7.5003   32.5484 O   0  0  0  0  0  0  0  0  0  0  0  0
   -2.4656   -6.5069   34.9514 C   0  0  0  0  0  0  0  0  0  0  0  0
   -1.3805   -7.4932   35.2714 O   0  0  0  0  0  0  0  0  0  0  0  0
   -2.0371   -5.8359   27.5277 C   0  0  0  0  0  0  0  0  0  0  0  0
   -3.0791   -6.5564   28.2109 N   0  0  0  0  0  0  0  0  0  0  0  0
   -1.0991   -9.6703   32.6513 C   0  0  1  0  0  0  0  0  0  0  0  0
   -2.0228   -9.1499   33.5997 O   0  0  0  0  0  0  0  0  0  0  0  0
   -4.8573   -5.8494   35.3186 C   0  0  0  0  0  0  0  0  0  0  0  0
   -6.2738   -9.8021   35.4217 C   0  0  0  0  0  0  0  0  0  0  0  0
  1  2  1  1  0  0  0
  1  6  1  0  0  0  0
  1 21  1  0  0  0  0
  3  4  1  1  0  0  0
  3  8  1  0  0  0  0
  3 28  1  0  0  0  0
  5  9  1  0  0  0  0
  5 25  1  0  0  0  0
  5 29  1  6  0  0  0
  6  7  1  1  0  0  0
  6 11  1  0  0  0  0
  8 12  1  0  0  0  0
  9 10  1  6  0  0  0
  9 14  1  0  0  0  0
 11 16  1  0  0  0  0
 12 13  1  6  0  0  0
 12 17  1  0  0  0  0
 14 15  1  1  0  0  0
 14 18  1  0  0  0  0
 15 31  1  0  0  0  0
 16 20  1  0  0  0  0
 17  2  1  6  0  0  0
 17 22  1  0  0  0  0
 18 19  1  1  0  0  0
 18 24  1  0  0  0  0
 18 30  1  0  0  0  0
 20 21  1  0  0  0  0
 20 26  1  6  0  0  0
 22 23  1  1  0  0  0
 22 28  1  0  0  0  0
 24 25  1  0  0  0  0
 26 27  1  0  0  0  0
 28 29  1  1  0  0  0
M  END
>  <CHROM.1>
-148.73947679,-140.06985765,-91.49599744,-5.05957479,-179.26598499,135.76574315
-1.45061673,-8.29105568,31.90953637,-0.46343432,-0.95598452,2.71711321

>  <Name>
2et3_lig

>  <RI>
0

>  <Rbt.Current_Directory>
/home/itssahil/PROJECTS/Mol_Feturizer/New_Systems/rnas/2et3

>  <Rbt.Executable>
rbdock ($Id: //depot/dev/client3/rdock/2013.1/src/exe/rbdock.cxx#4 $)

>  <Rbt.Library>
libRbt.so (2013.1, Build901 2013/11/27)

>  <Rbt.Parameter_File>
/export/apps/rDock/src/rDock_2013.1_src/data/scripts/dock_solv.prm

>  <Rbt.Receptor>
prm/pocket_docking_3.prm

>  <SCORE>
-13.0407

>  <SCORE.INTER>
-17.6702

>  <SCORE.INTER.CONST>
1

>  <SCORE.INTER.POLAR>
-1.11787

>  <SCORE.INTER.ROT>
6

>  <SCORE.INTER.SOLV>
15.7531

>  <SCORE.INTER.VDW>
-20.9049

>  <SCORE.INTER.norm>
-0.570006

>  <SCORE.INTRA>
4.62701

>  <SCORE.INTRA.DIHEDRAL>
0.85142

>  <SCORE.INTRA.DIHEDRAL.0>
22.2484

>  <SCORE.INTRA.POLAR>
0

>  <SCORE.INTRA.POLAR.0>
0

>  <SCORE.INTRA.REPUL>
0

>  <SCORE.INTRA.REPUL.0>
0

>  <SCORE.INTRA.SOLV>
0.082546

>  <SCORE.INTRA.SOLV.lig_0>
-75.7198

>  <SCORE.INTRA.VDW>
4.16003

>  <SCORE.INTRA.VDW.0>
-3.34171

>  <SCORE.INTRA.norm>
0.149258

>  <SCORE.RESTR>
0.00246571

>  <SCORE.RESTR.CAVITY>
0.00246571

>  <SCORE.RESTR.norm>
7.95389e-05

>  <SCORE.SYSTEM>
0

>  <SCORE.SYSTEM.CONST>
0

>  <SCORE.SYSTEM.DIHEDRAL>
0

>  <SCORE.SYSTEM.SOLV>
0

>  <SCORE.SYSTEM.norm>
0

>  <SCORE.heavy>
31

>  <SCORE.norm>
-0.420668

>  <RMSD>
2.354

$$$$
2et3_lig
 OpenBabel11021811423D
libRbt.so/2013.1/901 2013/11/27
 31 33  0  0  0  0  0  0  0  0999 V2000
    0.9481   -6.4036   28.9730 C   0  0  2  0  0  0  0  0  0  0  0  0
    0.1832   -7.6364   28.9385 O   0  0  0  0  0  0  0  0  0  0  0  0
   -1.6057   -9.8834   32.1098 C   0  0  2  0  0  0  0  0  0  0  0  0
   -1.7209  -10.6369   33.3200 N   0  0  0  0  0  0  0  0  0  0  0  0
   -3.1309   -7.0721   32.8704 C   0  0  2  0  0  0  0  0  0  0  0  0
    0.5350   -5.5044   27.8029 C   0  0  2  0  0  0  0  0  0  0  0  0
   -0.8762   -5.2816   27.8750 N   0  0  0  0  0  0  0  0  0  0  0  0
   -0.6560  -10.6300   31.1184 C   0  0  0  0  0  0  0  0  0  0  0  0
   -3.7829   -6.4863   34.1422 C   0  0  2  0  0  0  0  0  0  0  0  0
   -2.8533   -5.6437   34.7858 O   0  0  0  0  0  0  0  0  0  0  0  0
    0.9546   -6.1536   26.4399 C   0  0  0  0  0  0  0  0  0  0  0  0
   -0.5165   -9.8039   29.7875 C   0  0  2  0  0  0  0  0  0  0  0  0
    0.3776  -10.5027   28.8505 N   0  0  0  0  0  0  0  0  0  0  0  0
   -4.2214   -7.6946   35.0667 C   0  0  1  0  0  0  0  0  0  0  0  0
   -4.8247   -7.2113   36.3517 N   0  0  0  0  0  0  0  0  0  0  0  0
    2.5057   -6.3288   26.4458 C   0  0  0  0  0  0  0  0  0  0  0  0
    0.0371   -8.3643   30.1157 C   0  0  2  0  0  0  0  0  0  0  0  0
   -5.2736   -8.6454   34.2840 C   0  0  1  0  0  0  0  0  0  0  0  0
   -6.4572   -7.9452   33.9612 O   0  0  0  0  0  0  0  0  0  0  0  0
    2.9084   -7.2414   27.6867 C   0  0  2  0  0  0  0  0  0  0  0  0
    2.4048   -6.7099   28.9520 O   0  0  0  0  0  0  0  0  0  0  0  0
   -0.9404   -7.6386   31.1185 C   0  0  2  0  0  0  0  0  0  0  0  0
   -0.4605   -6.3336   31.4258 O   0  0  0  0  0  0  0  0  0  0  0  0
   -4.6293   -9.1272   32.9475 C   0  0  0  0  0  0  0  0  0  0  0  0
   -4.0993   -7.9608   32.1655 O   0  0  0  0  0  0  0  0  0  0  0  0
    4.3908   -7.5077   27.8026 C   0  0  0  0  0  0  0  0  0  0  0  0
    4.8967   -8.2233   26.6608 N   0  0  0  0  0  0  0  0  0  0  0  0
   -1.0682   -8.4777   32.4382 C   0  0  1  0  0  0  0  0  0  0  0  0
   -1.9583   -7.8113   33.3253 O   0  0  0  0  0  0  0  0  0  0  0  0
   -5.7885   -9.8776   35.0404 C   0  0  0  0  0  0  0  0  0  0  0  0
   -4.5032   -7.9708   37.5715 C   0  0  0  0  0  0  0  0  0  0  0  0
  1  2  1  6  0  0  0
  1  6  1  0  0  0  0
  1 21  1  0  0  0  0
  3  4  1  1  0  0  0
  3  8  1  0  0  0  0
  3 28  1  0  0  0  0
  5  9  1  0  0  0  0
  5 25  1  0  0  0  0
  5 29  1  1  0  0  0
  6  7  1  6  0  0  0
  6 11  1  0  0  0  0
  8 12  1  0  0  0  0
  9 10  1  1  0  0  0
  9 14  1  0  0  0  0
 11 16  1  0  0  0  0
 12 13  1  6  0  0  0
 12 17  1  0  0  0  0
 14 15  1  1  0  0  0
 14 18  1  0  0  0  0
 15 31  1  0  0  0  0
 16 20  1  0  0  0  0
 17  2  1  6  0  0  0
 17 22  1  0  0  0  0
 18 19  1  6  0  0  0
 18 24  1  0  0  0  0
 18 30  1  0  0  0  0
 20 21  1  0  0  0  0
 20 26  1  1  0  0  0
 22 23  1  1  0  0  0
 22 28  1  0  0  0  0
 24 25  1  0  0  0  0
 26 27  1  0  0  0  0
 28 29  1  1  0  0  0
M  END
>  <CHROM.1>
-157.37438206,-178.57790412,-141.70503219,-166.59684945,-62.09524661,-84.79965117
-1.29179146,-7.81254855,31.33695978,0.22693883,0.78970033,-0.18651389

>  <Name>
2et3_lig

>  <RI>
0

>  <Rbt.Current_Directory>
/home/itssahil/PROJECTS/Mol_Feturizer/New_Systems/rnas/2et3

>  <Rbt.Executable>
rbdock ($Id: //depot/dev/client3/rdock/2013.1/src/exe/rbdock.cxx#4 $)

>  <Rbt.Library>
libRbt.so (2013.1, Build901 2013/11/27)

>  <Rbt.Parameter_File>
/export/apps/rDock/src/rDock_2013.1_src/data/scripts/dock_solv.prm

>  <Rbt.Receptor>
prm/pocket_docking_3.prm

>  <SCORE>
-26.5078

>  <SCORE.INTER>
-18.744

>  <SCORE.INTER.CONST>
1

>  <SCORE.INTER.POLAR>
-0.938083

>  <SCORE.INTER.ROT>
6

>  <SCORE.INTER.SOLV>
14.5148

>  <SCORE.INTER.VDW>
-21.8073

>  <SCORE.INTER.norm>
-0.604644

>  <SCORE.INTRA>
-7.76386

>  <SCORE.INTRA.DIHEDRAL>
-15.5118

>  <SCORE.INTRA.DIHEDRAL.0>
22.2484

>  <SCORE.INTRA.POLAR>
0

>  <SCORE.INTRA.POLAR.0>
0

>  <SCORE.INTRA.REPUL>
0

>  <SCORE.INTRA.REPUL.0>
0

>  <SCORE.INTRA.SOLV>
-1.53088

>  <SCORE.INTRA.SOLV.lig_0>
-75.7198

>  <SCORE.INTRA.VDW>
0.757467

>  <SCORE.INTRA.VDW.0>
-3.34171

>  <SCORE.INTRA.norm>
-0.250447

>  <SCORE.RESTR>
0

>  <SCORE.RESTR.CAVITY>
0

>  <SCORE.RESTR.norm>
0

>  <SCORE.SYSTEM>
0

>  <SCORE.SYSTEM.CONST>
0

>  <SCORE.SYSTEM.DIHEDRAL>
0

>  <SCORE.SYSTEM.SOLV>
0

>  <SCORE.SYSTEM.norm>
0

>  <SCORE.heavy>
31

>  <SCORE.norm>
-0.855092

>  <RMSD>
2.364

$$$$
2et3_lig
 OpenBabel11021811423D
libRbt.so/2013.1/901 2013/11/27
 31 33  0  0  0  0  0  0  0  0999 V2000
    0.1118   -6.2505   29.0008 C   0  0  2  0  0  0  0  0  0  0  0  0
   -0.5255   -7.5529   28.9404 O   0  0  0  0  0  0  0  0  0  0  0  0
   -1.7721   -9.6950   32.4281 C   0  0  2  0  0  0  0  0  0  0  0  0
   -1.7018  -10.5457   33.5757 N   0  0  0  0  0  0  0  0  0  0  0  0
   -2.1251   -6.6618   33.7495 C   0  0  2  0  0  0  0  0  0  0  0  0
   -0.2341   -5.4456   27.7435 C   0  0  2  0  0  0  0  0  0  0  0  0
   -1.6578   -5.3599   27.6340 N   0  0  0  0  0  0  0  0  0  0  0  0
   -1.4069  -10.5138   31.1482 C   0  0  0  0  0  0  0  0  0  0  0  0
   -2.5667   -6.4451   35.2136 C   0  0  2  0  0  0  0  0  0  0  0  0
   -1.4323   -6.1362   35.9922 O   0  0  0  0  0  0  0  0  0  0  0  0
    0.4100   -6.1063   26.4770 C   0  0  0  0  0  0  0  0  0  0  0  0
   -1.4731   -9.5838   29.8818 C   0  0  2  0  0  0  0  0  0  0  0  0
   -1.1295  -10.3502   28.6734 N   0  0  0  0  0  0  0  0  0  0  0  0
   -3.2789   -7.7694   35.7097 C   0  0  1  0  0  0  0  0  0  0  0  0
   -3.6998   -7.6612   37.1450 N   0  0  0  0  0  0  0  0  0  0  0  0
    1.9579   -6.1276   26.6779 C   0  0  0  0  0  0  0  0  0  0  0  0
   -0.4869   -8.3676   30.0683 C   0  0  2  0  0  0  0  0  0  0  0  0
   -4.5636   -8.0967   34.7791 C   0  0  1  0  0  0  0  0  0  0  0  0
   -5.5326   -7.0721   34.8621 O   0  0  0  0  0  0  0  0  0  0  0  0
    2.2858   -6.9440   28.0049 C   0  0  2  0  0  0  0  0  0  0  0  0
    1.5818   -6.4126   29.1708 O   0  0  0  0  0  0  0  0  0  0  0  0
   -0.8795   -7.5637   31.3673 C   0  0  2  0  0  0  0  0  0  0  0  0
   -0.0024   -6.4573   31.5528 O   0  0  0  0  0  0  0  0  0  0  0  0
   -4.1042   -8.1942   33.2915 C   0  0  0  0  0  0  0  0  0  0  0  0
   -3.3107   -6.9810   32.9026 O   0  0  0  0  0  0  0  0  0  0  0  0
    3.7605   -7.0582   28.3116 C   0  0  0  0  0  0  0  0  0  0  0  0
    4.4713   -7.7531   27.2706 N   0  0  0  0  0  0  0  0  0  0  0  0
   -0.8094   -8.5077   32.6187 C   0  0  1  0  0  0  0  0  0  0  0  0
   -1.1733   -7.7671   33.7773 O   0  0  0  0  0  0  0  0  0  0  0  0
   -5.3605   -9.3634   35.1196 C   0  0  0  0  0  0  0  0  0  0  0  0
   -3.4190   -8.8152   38.0154 C   0  0  0  0  0  0  0  0  0  0  0  0
  1  2  1  6  0  0  0
  1  6  1  0  0  0  0
  1 21  1  0  0  0  0
  3  4  1  1  0  0  0
  3  8  1  0  0  0  0
  3 28  1  0  0  0  0
  5  9  1  0  0  0  0
  5 25  1  0  0  0  0
  5 29  1  1  0  0  0
  6  7  1  6  0  0  0
  6 11  1  0  0  0  0
  8 12  1  0  0  0  0
  9 10  1  1  0  0  0
  9 14  1  0  0  0  0
 11 16  1  0  0  0  0
 12 13  1  6  0  0  0
 12 17  1  0  0  0  0
 14 15  1  1  0  0  0
 14 18  1  0  0  0  0
 15 31  1  0  0  0  0
 16 20  1  0  0  0  0
 17  2  1  6  0  0  0
 17 22  1  0  0  0  0
 18 19  1  1  0  0  0
 18 24  1  0  0  0  0
 18 30  1  0  0  0  0
 20 21  1  0  0  0  0
 20 26  1  1  0  0  0
 22 23  1  1  0  0  0
 22 28  1  0  0  0  0
 24 25  1  0  0  0  0
 26 27  1  0  0  0  0
 28 29  1  1  0  0  0
M  END
>  <CHROM.1>
-171.32336311,162.49794757,-135.24166888,168.60059590,-61.39395080,-89.05612680
-1.24062948,-7.64632306,31.68785472,-0.51739165,0.88745269,0.77761337

>  <Name>
2et3_lig

>  <RI>
0

>  <Rbt.Current_Directory>
/home/itssahil/PROJECTS/Mol_Feturizer/New_Systems/rnas/2et3

>  <Rbt.Executable>
rbdock ($Id: //depot/dev/client3/rdock/2013.1/src/exe/rbdock.cxx#4 $)

>  <Rbt.Library>
libRbt.so (2013.1, Build901 2013/11/27)

>  <Rbt.Parameter_File>
/export/apps/rDock/src/rDock_2013.1_src/data/scripts/dock_solv.prm

>  <Rbt.Receptor>
prm/pocket_docking_3.prm

>  <SCORE>
-24.8286

>  <SCORE.INTER>
-19.7542

>  <SCORE.INTER.CONST>
1

>  <SCORE.INTER.POLAR>
-1.57058

>  <SCORE.INTER.ROT>
6

>  <SCORE.INTER.SOLV>
13.6234

>  <SCORE.INTER.VDW>
-20.0753

>  <SCORE.INTER.norm>
-0.637232

>  <SCORE.INTRA>
-5.07439

>  <SCORE.INTRA.DIHEDRAL>
-15.2498

>  <SCORE.INTRA.DIHEDRAL.0>
22.2484

>  <SCORE.INTRA.POLAR>
0

>  <SCORE.INTRA.POLAR.0>
0

>  <SCORE.INTRA.REPUL>
0

>  <SCORE.INTRA.REPUL.0>
0

>  <SCORE.INTRA.SOLV>
-1.73139

>  <SCORE.INTRA.SOLV.lig_0>
-75.7198

>  <SCORE.INTRA.VDW>
3.41622

>  <SCORE.INTRA.VDW.0>
-3.34171

>  <SCORE.INTRA.norm>
-0.16369

>  <SCORE.RESTR>
0

>  <SCORE.RESTR.CAVITY>
0

>  <SCORE.RESTR.norm>
0

>  <SCORE.SYSTEM>
0

>  <SCORE.SYSTEM.CONST>
0

>  <SCORE.SYSTEM.DIHEDRAL>
0

>  <SCORE.SYSTEM.SOLV>
0

>  <SCORE.SYSTEM.norm>
0

>  <SCORE.heavy>
31

>  <SCORE.norm>
-0.800922

>  <RMSD>
2.371

$$$$
2et3_lig
 OpenBabel11021811423D
libRbt.so/2013.1/901 2013/11/27
 31 33  0  0  0  0  0  0  0  0999 V2000
    0.5889   -6.3617   28.9576 C   0  0  2  0  0  0  0  0  0  0  0  0
   -0.0547   -7.6623   28.9384 O   0  0  0  0  0  0  0  0  0  0  0  0
   -1.7088   -9.9301   32.1675 C   0  0  2  0  0  0  0  0  0  0  0  0
   -1.7780  -10.6655   33.3922 N   0  0  0  0  0  0  0  0  0  0  0  0
   -3.3255   -7.1303   32.8882 C   0  0  2  0  0  0  0  0  0  0  0  0
    0.1264   -5.5368   27.7517 C   0  0  2  0  0  0  0  0  0  0  0  0
   -1.3009   -5.4478   27.7803 N   0  0  0  0  0  0  0  0  0  0  0  0
   -0.7347  -10.6504   31.1804 C   0  0  0  0  0  0  0  0  0  0  0  0
   -4.0055   -6.5749   34.1589 C   0  0  2  0  0  0  0  0  0  0  0  0
   -3.1005   -5.7247   34.8271 O   0  0  0  0  0  0  0  0  0  0  0  0
    0.6446   -6.1784   26.4193 C   0  0  0  0  0  0  0  0  0  0  0  0
   -0.6457   -9.8436   29.8334 C   0  0  2  0  0  0  0  0  0  0  0  0
    0.2711  -10.5177   28.9003 N   0  0  0  0  0  0  0  0  0  0  0  0
   -4.4339   -7.8042   35.0602 C   0  0  1  0  0  0  0  0  0  0  0  0
   -5.0635   -7.3505   36.3434 N   0  0  0  0  0  0  0  0  0  0  0  0
    2.2046   -6.2047   26.4709 C   0  0  0  0  0  0  0  0  0  0  0  0
   -0.1562   -8.3742   30.1300 C   0  0  2  0  0  0  0  0  0  0  0  0
   -5.4576   -8.7629   34.2498 C   0  0  1  0  0  0  0  0  0  0  0  0
   -6.6495   -8.0800   33.9206 O   0  0  0  0  0  0  0  0  0  0  0  0
    2.6558   -7.0421   27.7476 C   0  0  2  0  0  0  0  0  0  0  0  0
    2.0679   -6.5282   28.9835 O   0  0  0  0  0  0  0  0  0  0  0  0
   -1.1571   -7.6758   31.1292 C   0  0  2  0  0  0  0  0  0  0  0  0
   -0.7352   -6.3447   31.4080 O   0  0  0  0  0  0  0  0  0  0  0  0
   -4.7864   -9.2135   32.9157 C   0  0  0  0  0  0  0  0  0  0  0  0
   -4.2676   -8.0266   32.1575 O   0  0  0  0  0  0  0  0  0  0  0  0
    4.1528   -7.1628   27.9099 C   0  0  0  0  0  0  0  0  0  0  0  0
    4.7458   -7.9325   26.8480 N   0  0  0  0  0  0  0  0  0  0  0  0
   -1.2339   -8.4953   32.4651 C   0  0  1  0  0  0  0  0  0  0  0  0
   -2.1456   -7.8543   33.3489 O   0  0  0  0  0  0  0  0  0  0  0  0
   -5.9597  -10.0151   34.9816 C   0  0  0  0  0  0  0  0  0  0  0  0
   -4.5962   -7.9919   37.5837 C   0  0  0  0  0  0  0  0  0  0  0  0
  1  2  1  6  0  0  0
  1  6  1  0  0  0  0
  1 21  1  0  0  0  0
  3  4  1  1  0  0  0
  3  8  1  0  0  0  0
  3 28  1  0  0  0  0
  5  9  1  0  0  0  0
  5 25  1  0  0  0  0
  5 29  1  1  0  0  0
  6  7  1  6  0  0  0
  6 11  1  0  0  0  0
  8 12  1  0  0  0  0
  9 10  1  1  0  0  0
  9 14  1  0  0  0  0
 11 16  1  0  0  0  0
 12 13  1  6  0  0  0
 12 17  1  0  0  0  0
 14 15  1  1  0  0  0
 14 18  1  0  0  0  0
 15 31  1  0  0  0  0
 16 20  1  0  0  0  0
 17  2  1  6  0  0  0
 17 22  1  0  0  0  0
 18 19  1  6  0  0  0
 18 24  1  0  0  0  0
 18 30  1  0  0  0  0
 20 21  1  0  0  0  0
 20 26  1  1  0  0  0
 22 23  1  1  0  0  0
 22 28  1  0  0  0  0
 24 25  1  0  0  0  0
 26 27  1  0  0  0  0
 28 29  1  1  0  0  0
M  END
>  <CHROM.1>
-157.84938970,-178.79896136,-133.01276025,-169.90262474,-65.91295799,-87.45764229
-1.50533499,-7.82475129,31.35198148,0.29941512,0.77648598,-0.25671914

>  <Name>
2et3_lig

>  <RI>
3.50789e+07

>  <Rbt.Current_Directory>
/home/itssahil/PROJECTS/Mol_Feturizer/New_Systems/rnas/2et3

>  <Rbt.Executable>
rbdock ($Id: //depot/dev/client3/rdock/2013.1/src/exe/rbdock.cxx#4 $)

>  <Rbt.Library>
libRbt.so (2013.1, Build901 2013/11/27)

>  <Rbt.Parameter_File>
/export/apps/rDock/src/rDock_2013.1_src/data/scripts/dock_solv.prm

>  <Rbt.Receptor>
prm/pocket_docking_4.prm

>  <SCORE>
-26.7112

>  <SCORE.INTER>
-19.0029

>  <SCORE.INTER.CONST>
1

>  <SCORE.INTER.POLAR>
-0.938083

>  <SCORE.INTER.ROT>
6

>  <SCORE.INTER.SOLV>
13.8754

>  <SCORE.INTER.VDW>
-21.7668

>  <SCORE.INTER.norm>
-0.612998

>  <SCORE.INTRA>
-7.70824

>  <SCORE.INTRA.DIHEDRAL>
-15.1557

>  <SCORE.INTRA.DIHEDRAL.0>
22.2484

>  <SCORE.INTRA.POLAR>
0

>  <SCORE.INTRA.POLAR.0>
0

>  <SCORE.INTRA.REPUL>
0

>  <SCORE.INTRA.REPUL.0>
0

>  <SCORE.INTRA.SOLV>
-1.82262

>  <SCORE.INTRA.SOLV.lig_0>
-75.7198

>  <SCORE.INTRA.VDW>
0.78091

>  <SCORE.INTRA.VDW.0>
-3.34171

>  <SCORE.INTRA.norm>
-0.248653

>  <SCORE.RESTR>
0

>  <SCORE.RESTR.CAVITY>
0

>  <SCORE.RESTR.norm>
0

>  <SCORE.SYSTEM>
0

>  <SCORE.SYSTEM.CONST>
0

>  <SCORE.SYSTEM.DIHEDRAL>
0

>  <SCORE.SYSTEM.SOLV>
0

>  <SCORE.SYSTEM.norm>
0

>  <SCORE.heavy>
31

>  <SCORE.norm>
-0.86165

>  <RMSD>
2.376

$$$$
2et3_lig
 OpenBabel11021811423D
libRbt.so/2013.1/901 2013/11/27
 31 33  0  0  0  0  0  0  0  0999 V2000
   -0.0695   -5.9191   29.3195 C   0  0  2  0  0  0  0  0  0  0  0  0
   -0.7284   -7.2077   29.4273 O   0  0  0  0  0  0  0  0  0  0  0  0
   -1.7868   -9.5633   32.8386 C   0  0  2  0  0  0  0  0  0  0  0  0
   -1.6461  -10.2878   34.0638 N   0  0  0  0  0  0  0  0  0  0  0  0
   -2.0419   -7.7105   35.4932 C   0  0  2  0  0  0  0  0  0  0  0  0
   -0.5298   -5.2068   28.0432 C   0  0  2  0  0  0  0  0  0  0  0  0
   -1.9559   -5.0979   28.0707 N   0  0  0  0  0  0  0  0  0  0  0  0
   -0.8856  -10.2146   31.7406 C   0  0  0  0  0  0  0  0  0  0  0  0
   -3.2986   -7.1321   36.1802 C   0  0  2  0  0  0  0  0  0  0  0  0
   -4.4344   -7.8257   35.7140 O   0  0  0  0  0  0  0  0  0  0  0  0
   -0.0277   -5.9783   26.7751 C   0  0  0  0  0  0  0  0  0  0  0  0
   -1.0273   -9.4189   30.3916 C   0  0  2  0  0  0  0  0  0  0  0  0
   -0.1799  -10.0281   29.3541 N   0  0  0  0  0  0  0  0  0  0  0  0
   -3.3721   -5.5870   35.8423 C   0  0  1  0  0  0  0  0  0  0  0  0
   -4.5952   -4.9534   36.4351 N   0  0  0  0  0  0  0  0  0  0  0  0
    1.5321   -6.0187   26.8208 C   0  0  0  0  0  0  0  0  0  0  0  0
   -0.6257   -7.9117   30.6235 C   0  0  2  0  0  0  0  0  0  0  0  0
   -2.0427   -4.8327   36.3783 C   0  0  1  0  0  0  0  0  0  0  0  0
   -1.9308   -4.9249   37.7834 O   0  0  0  0  0  0  0  0  0  0  0  0
    1.9816   -6.7366   28.1689 C   0  0  2  0  0  0  0  0  0  0  0  0
    1.4077   -6.1006   29.3535 O   0  0  0  0  0  0  0  0  0  0  0  0
   -1.5501   -7.2842   31.7368 C   0  0  2  0  0  0  0  0  0  0  0  0
   -1.2063   -5.9204   31.9597 O   0  0  0  0  0  0  0  0  0  0  0  0
   -0.7842   -5.5144   35.7576 C   0  0  0  0  0  0  0  0  0  0  0  0
   -0.8241   -6.9985   35.9778 O   0  0  0  0  0  0  0  0  0  0  0  0
    3.4781   -6.8598   28.3342 C   0  0  0  0  0  0  0  0  0  0  0  0
    4.0554   -7.7329   27.3462 N   0  0  0  0  0  0  0  0  0  0  0  0
   -1.3966   -8.0918   33.0734 C   0  0  1  0  0  0  0  0  0  0  0  0
   -2.2424   -7.5156   34.0613 O   0  0  0  0  0  0  0  0  0  0  0  0
   -1.9497   -3.3234   36.1160 C   0  0  0  0  0  0  0  0  0  0  0  0
   -5.8013   -4.9043   35.5919 C   0  0  0  0  0  0  0  0  0  0  0  0
  1  2  1  6  0  0  0
  1  6  1  0  0  0  0
  1 21  1  0  0  0  0
  3  4  1  1  0  0  0
  3  8  1  0  0  0  0
  3 28  1  0  0  0  0
  5  9  1  0  0  0  0
  5 25  1  0  0  0  0
  5 29  1  6  0  0  0
  6  7  1  6  0  0  0
  6 11  1  0  0  0  0
  8 12  1  0  0  0  0
  9 10  1  6  0  0  0
  9 14  1  0  0  0  0
 11 16  1  0  0  0  0
 12 13  1  6  0  0  0
 12 17  1  0  0  0  0
 14 15  1  1  0  0  0
 14 18  1  0  0  0  0
 15 31  1  0  0  0  0
 16 20  1  0  0  0  0
 17  2  1  6  0  0  0
 17 22  1  0  0  0  0
 18 19  1  1  0  0  0
 18 24  1  0  0  0  0
 18 30  1  0  0  0  0
 20 21  1  0  0  0  0
 20 26  1  1  0  0  0
 22 23  1  1  0  0  0
 22 28  1  0  0  0  0
 24 25  1  0  0  0  0
 26 27  1  0  0  0  0
 28 29  1  1  0  0  0
M  END
>  <CHROM.1>
-169.10952552,-170.41700584,-91.80331015,-163.33781230,-65.85792139,80.49498651
-1.12708502,-6.84242133,32.26197776,-0.05125541,1.09181466,-0.05921491

>  <Name>
2et3_lig

>  <RI>
2.5794e+07

>  <Rbt.Current_Directory>
/home/itssahil/PROJECTS/Mol_Feturizer/New_Systems/rnas/2et3

>  <Rbt.Executable>
rbdock ($Id: //depot/dev/client3/rdock/2013.1/src/exe/rbdock.cxx#4 $)

>  <Rbt.Library>
libRbt.so (2013.1, Build901 2013/11/27)

>  <Rbt.Parameter_File>
/export/apps/rDock/src/rDock_2013.1_src/data/scripts/dock_solv.prm

>  <Rbt.Receptor>
prm/pocket_docking_5.prm

>  <SCORE>
-30.1058

>  <SCORE.INTER>
-20.2892

>  <SCORE.INTER.CONST>
1

>  <SCORE.INTER.POLAR>
-1.68986

>  <SCORE.INTER.ROT>
6

>  <SCORE.INTER.SOLV>
12.5986

>  <SCORE.INTER.VDW>
-19.6928

>  <SCORE.INTER.norm>
-0.654491

>  <SCORE.INTRA>
-9.81658

>  <SCORE.INTRA.DIHEDRAL>
-17.1505

>  <SCORE.INTRA.DIHEDRAL.0>
22.2484

>  <SCORE.INTRA.POLAR>
0

>  <SCORE.INTRA.POLAR.0>
0

>  <SCORE.INTRA.REPUL>
0

>  <SCORE.INTRA.REPUL.0>
0

>  <SCORE.INTRA.SOLV>
-2.57716

>  <SCORE.INTRA.SOLV.lig_0>
-75.7198

>  <SCORE.INTRA.VDW>
0.0472326

>  <SCORE.INTRA.VDW.0>
-3.34171

>  <SCORE.INTRA.norm>
-0.316664

>  <SCORE.RESTR>
0

>  <SCORE.RESTR.CAVITY>
0

>  <SCORE.RESTR.norm>
0

>  <SCORE.SYSTEM>
0

>  <SCORE.SYSTEM.CONST>
0

>  <SCORE.SYSTEM.DIHEDRAL>
0

>  <SCORE.SYSTEM.SOLV>
0

>  <SCORE.SYSTEM.norm>
0

>  <SCORE.heavy>
31

>  <SCORE.norm>
-0.971154

>  <RMSD>
2.387

$$$$
2et3_lig
 OpenBabel11021811423D
libRbt.so/2013.1/901 2013/11/27
 31 33  0  0  0  0  0  0  0  0999 V2000
   -0.0674   -5.9283   29.3047 C   0  0  2  0  0  0  0  0  0  0  0  0
   -0.7454   -7.2076   29.4043 O   0  0  0  0  0  0  0  0  0  0  0  0
   -1.8627   -9.5497   32.8062 C   0  0  2  0  0  0  0  0  0  0  0  0
   -1.7408  -10.2797   34.0301 N   0  0  0  0  0  0  0  0  0  0  0  0
   -2.0852   -7.6914   35.4645 C   0  0  2  0  0  0  0  0  0  0  0  0
   -0.5125   -5.2038   28.0299 C   0  0  2  0  0  0  0  0  0  0  0  0
   -1.9369   -5.0742   28.0525 N   0  0  0  0  0  0  0  0  0  0  0  0
   -0.9707  -10.2162   31.7098 C   0  0  0  0  0  0  0  0  0  0  0  0
   -3.3235   -7.0740   36.1509 C   0  0  2  0  0  0  0  0  0  0  0  0
   -4.4797   -7.7358   35.6888 O   0  0  0  0  0  0  0  0  0  0  0  0
   -0.0169   -5.9770   26.7602 C   0  0  0  0  0  0  0  0  0  0  0  0
   -1.0917   -9.4147   30.3622 C   0  0  2  0  0  0  0  0  0  0  0  0
   -0.2529  -10.0382   29.3263 N   0  0  0  0  0  0  0  0  0  0  0  0
   -3.3523   -5.5287   35.8072 C   0  0  1  0  0  0  0  0  0  0  0  0
   -4.5555   -4.8574   36.3991 N   0  0  0  0  0  0  0  0  0  0  0  0
    1.5420   -6.0404   26.8115 C   0  0  0  0  0  0  0  0  0  0  0  0
   -0.6610   -7.9163   30.5992 C   0  0  2  0  0  0  0  0  0  0  0  0
   -2.0007   -4.8115   36.3387 C   0  0  1  0  0  0  0  0  0  0  0  0
   -1.8897   -4.9017   37.7440 O   0  0  0  0  0  0  0  0  0  0  0  0
    1.9759   -6.7706   28.1581 C   0  0  2  0  0  0  0  0  0  0  0  0
    1.4068   -6.1315   29.3434 O   0  0  0  0  0  0  0  0  0  0  0  0
   -1.5768   -7.2732   31.7107 C   0  0  2  0  0  0  0  0  0  0  0  0
   -1.2067   -5.9170   31.9381 O   0  0  0  0  0  0  0  0  0  0  0  0
   -0.7635   -5.5321   35.7191 C   0  0  0  0  0  0  0  0  0  0  0  0
   -0.8465   -7.0136   35.9449 O   0  0  0  0  0  0  0  0  0  0  0  0
    3.4698   -6.9163   28.3283 C   0  0  0  0  0  0  0  0  0  0  0  0
    4.0455   -7.7527   27.3082 N   0  0  0  0  0  0  0  0  0  0  0  0
   -1.4442   -8.0868   33.0459 C   0  0  1  0  0  0  0  0  0  0  0  0
   -2.2818   -7.4962   34.0322 O   0  0  0  0  0  0  0  0  0  0  0  0
   -1.8639   -3.3066   36.0705 C   0  0  0  0  0  0  0  0  0  0  0  0
   -5.8045   -4.9110   35.6211 C   0  0  0  0  0  0  0  0  0  0  0  0
  1  2  1  6  0  0  0
  1  6  1  0  0  0  0
  1 21  1  0  0  0  0
  3  4  1  1  0  0  0
  3  8  1  0  0  0  0
  3 28  1  0  0  0  0
  5  9  1  0  0  0  0
  5 25  1  0  0  0  0
  5 29  1  6  0  0  0
  6  7  1  6  0  0  0
  6 11  1  0  0  0  0
  8 12  1  0  0  0  0
  9 10  1  6  0  0  0
  9 14  1  0  0  0  0
 11 16  1  0  0  0  0
 12 13  1  6  0  0  0
 12 17  1  0  0  0  0
 14 15  1  1  0  0  0
 14 18  1  0  0  0  0
 15 31  1  0  0  0  0
 16 20  1  0  0  0  0
 17  2  1  6  0  0  0
 17 22  1  0  0  0  0
 18 19  1  1  0  0  0
 18 24  1  0  0  0  0
 18 30  1  0  0  0  0
 20 21  1  0  0  0  0
 20 26  1  1  0  0  0
 22 23  1  1  0  0  0
 22 28  1  0  0  0  0
 24 25  1  0  0  0  0
 26 27  1  0  0  0  0
 28 29  1  1  0  0  0
M  END
>  <CHROM.1>
-168.90862864,-171.24884143,-85.00574564,-163.70851724,-63.65257875,80.90010260
-1.14013075,-6.83444566,32.23750231,-0.12770227,1.08859130,0.02143009

>  <Name>
2et3_lig

>  <RI>
0

>  <Rbt.Current_Directory>
/home/itssahil/PROJECTS/Mol_Feturizer/New_Systems/rnas/2et3

>  <Rbt.Executable>
rbdock ($Id: //depot/dev/client3/rdock/2013.1/src/exe/rbdock.cxx#4 $)

>  <Rbt.Library>
libRbt.so (2013.1, Build901 2013/11/27)

>  <Rbt.Parameter_File>
/export/apps/rDock/src/rDock_2013.1_src/data/scripts/dock_solv.prm

>  <Rbt.Receptor>
prm/pocket_docking_6.prm

>  <SCORE>
-29.9846

>  <SCORE.INTER>
-20.1725

>  <SCORE.INTER.CONST>
1

>  <SCORE.INTER.POLAR>
-1.70547

>  <SCORE.INTER.ROT>
6

>  <SCORE.INTER.SOLV>
12.0155

>  <SCORE.INTER.VDW>
-19.3686

>  <SCORE.INTER.norm>
-0.650724

>  <SCORE.INTRA>
-9.81213

>  <SCORE.INTRA.DIHEDRAL>
-17.4654

>  <SCORE.INTRA.DIHEDRAL.0>
22.2484

>  <SCORE.INTRA.POLAR>
0

>  <SCORE.INTRA.POLAR.0>
0

>  <SCORE.INTRA.REPUL>
0

>  <SCORE.INTRA.REPUL.0>
0

>  <SCORE.INTRA.SOLV>
-2.5601

>  <SCORE.INTRA.SOLV.lig_0>
-75.7198

>  <SCORE.INTRA.VDW>
0.200611

>  <SCORE.INTRA.VDW.0>
-3.34171

>  <SCORE.INTRA.norm>
-0.31652

>  <SCORE.RESTR>
0

>  <SCORE.RESTR.CAVITY>
0

>  <SCORE.RESTR.norm>
0

>  <SCORE.SYSTEM>
0

>  <SCORE.SYSTEM.CONST>
0

>  <SCORE.SYSTEM.DIHEDRAL>
0

>  <SCORE.SYSTEM.SOLV>
0

>  <SCORE.SYSTEM.norm>
0

>  <SCORE.heavy>
31

>  <SCORE.norm>
-0.967245

>  <RMSD>
2.407

$$$$
2et3_lig
 OpenBabel11021811423D
libRbt.so/2013.1/901 2013/11/27
 31 33  0  0  0  0  0  0  0  0999 V2000
    0.3701   -8.3587   28.5045 C   0  0  2  0  0  0  0  0  0  0  0  0
    0.8034   -8.4855   29.8838 O   0  0  0  0  0  0  0  0  0  0  0  0
   -1.9795  -11.2074   31.6596 C   0  0  2  0  0  0  0  0  0  0  0  0
   -2.4777  -12.2884   32.4525 N   0  0  0  0  0  0  0  0  0  0  0  0
   -1.8418   -9.2924   34.8858 C   0  0  2  0  0  0  0  0  0  0  0  0
    1.5036   -7.7706   27.6573 C   0  0  2  0  0  0  0  0  0  0  0  0
    2.6583   -8.6027   27.7997 N   0  0  0  0  0  0  0  0  0  0  0  0
   -0.9840  -11.7604   30.5895 C   0  0  0  0  0  0  0  0  0  0  0  0
   -3.0876   -9.5473   35.7626 C   0  0  2  0  0  0  0  0  0  0  0  0
   -3.4285  -10.9135   35.6861 O   0  0  0  0  0  0  0  0  0  0  0  0
    1.7940   -6.2911   28.0840 C   0  0  0  0  0  0  0  0  0  0  0  0
   -0.4241  -10.5770   29.7182 C   0  0  2  0  0  0  0  0  0  0  0  0
    0.5145  -11.0927   28.7089 N   0  0  0  0  0  0  0  0  0  0  0  0
   -4.2553   -8.6183   35.2333 C   0  0  1  0  0  0  0  0  0  0  0  0
   -5.5231   -8.8380   36.0037 N   0  0  0  0  0  0  0  0  0  0  0  0
    0.4901   -5.4609   27.8661 C   0  0  0  0  0  0  0  0  0  0  0  0
    0.2868   -9.5244   30.6526 C   0  0  2  0  0  0  0  0  0  0  0  0
   -3.8163   -7.0616   35.3219 C   0  0  1  0  0  0  0  0  0  0  0  0
   -3.5753   -6.6709   36.6578 O   0  0  0  0  0  0  0  0  0  0  0  0
   -0.6758   -6.1108   28.7339 C   0  0  2  0  0  0  0  0  0  0  0  0
   -0.8643   -7.5294   28.4351 O   0  0  0  0  0  0  0  0  0  0  0  0
   -0.7415   -8.9875   31.7213 C   0  0  2  0  0  0  0  0  0  0  0  0
   -0.1201   -8.0315   32.5744 O   0  0  0  0  0  0  0  0  0  0  0  0
   -2.4917   -6.8591   34.5232 C   0  0  0  0  0  0  0  0  0  0  0  0
   -1.4550   -7.8536   34.9577 O   0  0  0  0  0  0  0  0  0  0  0  0
   -1.9993   -5.3903   28.6290 C   0  0  0  0  0  0  0  0  0  0  0  0
   -2.9941   -5.9702   29.4926 N   0  0  0  0  0  0  0  0  0  0  0  0
   -1.2899  -10.1817   32.5789 C   0  0  1  0  0  0  0  0  0  0  0  0
   -2.2197   -9.6785   33.5306 O   0  0  0  0  0  0  0  0  0  0  0  0
   -4.8364   -6.0255   34.8306 C   0  0  0  0  0  0  0  0  0  0  0  0
   -6.5142   -9.7556   35.4174 C   0  0  0  0  0  0  0  0  0  0  0  0
  1  2  1  1  0  0  0
  1  6  1  0  0  0  0
  1 21  1  0  0  0  0
  3  4  1  1  0  0  0
  3  8  1  0  0  0  0
  3 28  1  0  0  0  0
  5  9  1  0  0  0  0
  5 25  1  0  0  0  0
  5 29  1  6  0  0  0
  6  7  1  1  0  0  0
  6 11  1  0  0  0  0
  8 12  1  0  0  0  0
  9 10  1  6  0  0  0
  9 14  1  0  0  0  0
 11 16  1  0  0  0  0
 12 13  1  6  0  0  0
 12 17  1  0  0  0  0
 14 15  1  1  0  0  0
 14 18  1  0  0  0  0
 15 31  1  0  0  0  0
 16 20  1  0  0  0  0
 17  2  1  6  0  0  0
 17 22  1  0  0  0  0
 18 19  1  1  0  0  0
 18 24  1  0  0  0  0
 18 30  1  0  0  0  0
 20 21  1  0  0  0  0
 20 26  1  6  0  0  0
 22 23  1  1  0  0  0
 22 28  1  0  0  0  0
 24 25  1  0  0  0  0
 26 27  1  0  0  0  0
 28 29  1  1  0  0  0
M  END
>  <CHROM.1>
-148.50310277,-150.13441757,-96.73291730,13.92270960,-176.53793613,146.93238330
-1.60597985,-8.52633602,31.93491303,-0.35355453,-0.94967534,2.83903219

>  <Name>
2et3_lig

>  <RI>
0

>  <Rbt.Current_Directory>
/home/itssahil/PROJECTS/Mol_Feturizer/New_Systems/rnas/2et3

>  <Rbt.Executable>
rbdock ($Id: //depot/dev/client3/rdock/2013.1/src/exe/rbdock.cxx#4 $)

>  <Rbt.Library>
libRbt.so (2013.1, Build901 2013/11/27)

>  <Rbt.Parameter_File>
/export/apps/rDock/src/rDock_2013.1_src/data/scripts/dock_solv.prm

>  <Rbt.Receptor>
prm/pocket_docking_2.prm

>  <SCORE>
-11.3176

>  <SCORE.INTER>
-12.6786

>  <SCORE.INTER.CONST>
1

>  <SCORE.INTER.POLAR>
-0.742348

>  <SCORE.INTER.ROT>
6

>  <SCORE.INTER.SOLV>
14.3825

>  <SCORE.INTER.VDW>
-18.3721

>  <SCORE.INTER.norm>
-0.408986

>  <SCORE.INTRA>
0.621219

>  <SCORE.INTRA.DIHEDRAL>
-3.36707

>  <SCORE.INTRA.DIHEDRAL.0>
22.2484

>  <SCORE.INTRA.POLAR>
0

>  <SCORE.INTRA.POLAR.0>
0

>  <SCORE.INTRA.REPUL>
0

>  <SCORE.INTRA.REPUL.0>
0

>  <SCORE.INTRA.SOLV>
-0.0582841

>  <SCORE.INTRA.SOLV.lig_0>
-75.7198

>  <SCORE.INTRA.VDW>
2.3339

>  <SCORE.INTRA.VDW.0>
-3.34171

>  <SCORE.INTRA.norm>
0.0200393

>  <SCORE.RESTR>
0.739771

>  <SCORE.RESTR.CAVITY>
0.739771

>  <SCORE.RESTR.norm>
0.0238636

>  <SCORE.SYSTEM>
0

>  <SCORE.SYSTEM.CONST>
0

>  <SCORE.SYSTEM.DIHEDRAL>
0

>  <SCORE.SYSTEM.SOLV>
0

>  <SCORE.SYSTEM.norm>
0

>  <SCORE.heavy>
31

>  <SCORE.norm>
-0.365083

>  <RMSD>
2.419

$$$$
2et3_lig
 OpenBabel11021811423D
libRbt.so/2013.1/901 2013/11/27
 31 33  0  0  0  0  0  0  0  0999 V2000
   -0.0227   -5.9442   29.2942 C   0  0  2  0  0  0  0  0  0  0  0  0
   -0.6673   -7.2414   29.3843 O   0  0  0  0  0  0  0  0  0  0  0  0
   -1.8453   -9.5170   32.8106 C   0  0  2  0  0  0  0  0  0  0  0  0
   -1.7431  -10.2342   34.0438 N   0  0  0  0  0  0  0  0  0  0  0  0
   -2.0416   -7.6268   35.4449 C   0  0  2  0  0  0  0  0  0  0  0  0
   -0.4912   -5.2195   28.0279 C   0  0  2  0  0  0  0  0  0  0  0  0
   -1.9184   -5.1268   28.0570 N   0  0  0  0  0  0  0  0  0  0  0  0
   -0.9639  -10.2158   31.7258 C   0  0  0  0  0  0  0  0  0  0  0  0
   -3.2935   -7.0195   36.1154 C   0  0  2  0  0  0  0  0  0  0  0  0
   -4.4377   -7.6957   35.6442 O   0  0  0  0  0  0  0  0  0  0  0  0
    0.0191   -5.9678   26.7492 C   0  0  0  0  0  0  0  0  0  0  0  0
   -1.0633   -9.4286   30.3680 C   0  0  2  0  0  0  0  0  0  0  0  0
   -0.2344  -10.0825   29.3429 N   0  0  0  0  0  0  0  0  0  0  0  0
   -3.3350   -5.4762   35.7643 C   0  0  1  0  0  0  0  0  0  0  0  0
   -4.5515   -4.8151   36.3405 N   0  0  0  0  0  0  0  0  0  0  0  0
    1.5792   -5.9917   26.7941 C   0  0  0  0  0  0  0  0  0  0  0  0
   -0.6019   -7.9368   30.5881 C   0  0  2  0  0  0  0  0  0  0  0  0
   -1.9967   -4.7423   36.3066 C   0  0  1  0  0  0  0  0  0  0  0  0
   -1.8996   -4.8250   37.7135 O   0  0  0  0  0  0  0  0  0  0  0  0
    2.0370   -6.7231   28.1321 C   0  0  2  0  0  0  0  0  0  0  0  0
    1.4564   -6.1098   29.3255 O   0  0  0  0  0  0  0  0  0  0  0  0
   -1.5077   -7.2608   31.6883 C   0  0  2  0  0  0  0  0  0  0  0  0
   -1.1098   -5.9100   31.9002 O   0  0  0  0  0  0  0  0  0  0  0  0
   -0.7456   -5.4524   35.7033 C   0  0  0  0  0  0  0  0  0  0  0  0
   -0.8152   -6.9336   35.9351 O   0  0  0  0  0  0  0  0  0  0  0  0
    3.5348   -6.8319   28.2955 C   0  0  0  0  0  0  0  0  0  0  0  0
    4.1159   -7.7200   27.3232 N   0  0  0  0  0  0  0  0  0  0  0  0
   -1.3968   -8.0604   33.0338 C   0  0  1  0  0  0  0  0  0  0  0  0
   -2.2251   -7.4401   34.0097 O   0  0  0  0  0  0  0  0  0  0  0  0
   -1.8732   -3.2372   36.0329 C   0  0  0  0  0  0  0  0  0  0  0  0
   -5.7928   -4.8897   35.5520 C   0  0  0  0  0  0  0  0  0  0  0  0
  1  2  1  6  0  0  0
  1  6  1  0  0  0  0
  1 21  1  0  0  0  0
  3  4  1  1  0  0  0
  3  8  1  0  0  0  0
  3 28  1  0  0  0  0
  5  9  1  0  0  0  0
  5 25  1  0  0  0  0
  5 29  1  6  0  0  0
  6  7  1  6  0  0  0
  6 11  1  0  0  0  0
  8 12  1  0  0  0  0
  9 10  1  6  0  0  0
  9 14  1  0  0  0  0
 11 16  1  0  0  0  0
 12 13  1  6  0  0  0
 12 17  1  0  0  0  0
 14 15  1  1  0  0  0
 14 18  1  0  0  0  0
 15 31  1  0  0  0  0
 16 20  1  0  0  0  0
 17  2  1  6  0  0  0
 17 22  1  0  0  0  0
 18 19  1  1  0  0  0
 18 24  1  0  0  0  0
 18 30  1  0  0  0  0
 20 21  1  0  0  0  0
 20 26  1  1  0  0  0
 22 23  1  1  0  0  0
 22 28  1  0  0  0  0
 24 25  1  0  0  0  0
 26 27  1  0  0  0  0
 28 29  1  1  0  0  0
M  END
>  <CHROM.1>
-166.56740737,-169.18550679,-84.78937225,-166.99465365,-67.78612075,80.59645322
-1.10553153,-6.80578806,32.21890448,-0.16520819,1.08119273,0.05851686

>  <Name>
2et3_lig

>  <RI>
0

>  <Rbt.Current_Directory>
/home/itssahil/PROJECTS/Mol_Feturizer/New_Systems/rnas/2et3

>  <Rbt.Executable>
rbdock ($Id: //depot/dev/client3/rdock/2013.1/src/exe/rbdock.cxx#4 $)

>  <Rbt.Library>
libRbt.so (2013.1, Build901 2013/11/27)

>  <Rbt.Parameter_File>
/export/apps/rDock/src/rDock_2013.1_src/data/scripts/dock_solv.prm

>  <Rbt.Receptor>
prm/pocket_docking_6.prm

>  <SCORE>
-30.0155

>  <SCORE.INTER>
-20.3349

>  <SCORE.INTER.CONST>
1

>  <SCORE.INTER.POLAR>
-1.72023

>  <SCORE.INTER.ROT>
6

>  <SCORE.INTER.SOLV>
12.2114

>  <SCORE.INTER.VDW>
-19.493

>  <SCORE.INTER.norm>
-0.655964

>  <SCORE.INTRA>
-9.68059

>  <SCORE.INTRA.DIHEDRAL>
-17.3475

>  <SCORE.INTRA.DIHEDRAL.0>
22.2484

>  <SCORE.INTRA.POLAR>
0

>  <SCORE.INTRA.POLAR.0>
0

>  <SCORE.INTRA.REPUL>
0

>  <SCORE.INTRA.REPUL.0>
0

>  <SCORE.INTRA.SOLV>
-2.62392

>  <SCORE.INTRA.SOLV.lig_0>
-75.7198

>  <SCORE.INTRA.VDW>
0.30514

>  <SCORE.INTRA.VDW.0>
-3.34171

>  <SCORE.INTRA.norm>
-0.312277

>  <SCORE.RESTR>
0

>  <SCORE.RESTR.CAVITY>
0

>  <SCORE.RESTR.norm>
0

>  <SCORE.SYSTEM>
0

>  <SCORE.SYSTEM.CONST>
0

>  <SCORE.SYSTEM.DIHEDRAL>
0

>  <SCORE.SYSTEM.SOLV>
0

>  <SCORE.SYSTEM.norm>
0

>  <SCORE.heavy>
31

>  <SCORE.norm>
-0.968241

>  <RMSD>
2.426

$$$$
2et3_lig
 OpenBabel11021811423D
libRbt.so/2013.1/901 2013/11/27
 31 33  0  0  0  0  0  0  0  0999 V2000
    0.8295   -6.9254   29.2182 C   0  0  2  0  0  0  0  0  0  0  0  0
   -0.1347   -8.0073   29.1396 O   0  0  0  0  0  0  0  0  0  0  0  0
   -1.7729  -10.3341   32.3347 C   0  0  2  0  0  0  0  0  0  0  0  0
   -1.8379  -11.2616   33.4215 N   0  0  0  0  0  0  0  0  0  0  0  0
   -2.4052   -7.6249   33.8712 C   0  0  2  0  0  0  0  0  0  0  0  0
    0.5306   -5.8851   28.1334 C   0  0  2  0  0  0  0  0  0  0  0  0
   -0.8182   -5.4360   28.2913 N   0  0  0  0  0  0  0  0  0  0  0  0
   -1.3078  -11.0774   31.0411 C   0  0  0  0  0  0  0  0  0  0  0  0
   -2.1070   -6.5591   34.9487 C   0  0  2  0  0  0  0  0  0  0  0  0
   -0.9190   -5.8817   34.6050 O   0  0  0  0  0  0  0  0  0  0  0  0
    0.7810   -6.4917   26.7104 C   0  0  0  0  0  0  0  0  0  0  0  0
   -1.2250  -10.0630   29.8423 C   0  0  2  0  0  0  0  0  0  0  0  0
   -0.7868  -10.7582   28.6215 N   0  0  0  0  0  0  0  0  0  0  0  0
   -1.9817   -7.2973   36.3438 C   0  0  1  0  0  0  0  0  0  0  0  0
   -1.6444   -6.3363   37.4445 N   0  0  0  0  0  0  0  0  0  0  0  0
    2.2788   -6.9232   26.6262 C   0  0  0  0  0  0  0  0  0  0  0  0
   -0.2283   -8.8965   30.2063 C   0  0  2  0  0  0  0  0  0  0  0  0
   -3.3590   -8.0758   36.6911 C   0  0  1  0  0  0  0  0  0  0  0  0
   -4.4405   -7.1757   36.8162 O   0  0  0  0  0  0  0  0  0  0  0  0
    2.5678   -7.9802   27.7812 C   0  0  2  0  0  0  0  0  0  0  0  0
    2.2109   -7.4682   29.1031 O   0  0  0  0  0  0  0  0  0  0  0  0
   -0.7230   -8.1684   31.5151 C   0  0  2  0  0  0  0  0  0  0  0  0
    0.1621   -7.1075   31.8600 O   0  0  0  0  0  0  0  0  0  0  0  0
   -3.6950   -9.0609   35.5292 C   0  0  0  0  0  0  0  0  0  0  0  0
   -3.6645   -8.3499   34.2077 O   0  0  0  0  0  0  0  0  0  0  0  0
    3.9866   -8.4982   27.8040 C   0  0  0  0  0  0  0  0  0  0  0  0
    4.9427   -7.4330   27.9566 N   0  0  0  0  0  0  0  0  0  0  0  0
   -0.8009   -9.1959   32.6985 C   0  0  1  0  0  0  0  0  0  0  0  0
   -1.2551   -8.5225   33.8662 O   0  0  0  0  0  0  0  0  0  0  0  0
   -3.3980   -8.8586   38.0107 C   0  0  0  0  0  0  0  0  0  0  0  0
   -2.3892   -5.0666   37.4785 C   0  0  0  0  0  0  0  0  0  0  0  0
  1  2  1  6  0  0  0
  1  6  1  0  0  0  0
  1 21  1  0  0  0  0
  3  4  1  1  0  0  0
  3  8  1  0  0  0  0
  3 28  1  0  0  0  0
  5  9  1  0  0  0  0
  5 25  1  0  0  0  0
  5 29  1  1  0  0  0
  6  7  1  6  0  0  0
  6 11  1  0  0  0  0
  8 12  1  0  0  0  0
  9 10  1  6  0  0  0
  9 14  1  0  0  0  0
 11 16  1  0  0  0  0
 12 13  1  6  0  0  0
 12 17  1  0  0  0  0
 14 15  1  1  0  0  0
 14 18  1  0  0  0  0
 15 31  1  0  0  0  0
 16 20  1  0  0  0  0
 17  2  1  6  0  0  0
 17 22  1  0  0  0  0
 18 19  1  1  0  0  0
 18 24  1  0  0  0  0
 18 30  1  0  0  0  0
 20 21  1  0  0  0  0
 20 26  1  1  0  0  0
 22 23  1  1  0  0  0
 22 28  1  0  0  0  0
 24 25  1  0  0  0  0
 26 27  1  0  0  0  0
 28 29  1  1  0  0  0
M  END
>  <CHROM.1>
-165.89257729,-148.60533206,44.73852677,-174.24535975,58.23641619,-73.10579838
-0.74204278,-7.93591472,32.04582829,-0.57877154,0.94429830,0.67726439

>  <Name>
2et3_lig

>  <RI>
0

>  <Rbt.Current_Directory>
/home/itssahil/PROJECTS/Mol_Feturizer/New_Systems/rnas/2et3

>  <Rbt.Executable>
rbdock ($Id: //depot/dev/client3/rdock/2013.1/src/exe/rbdock.cxx#4 $)

>  <Rbt.Library>
libRbt.so (2013.1, Build901 2013/11/27)

>  <Rbt.Parameter_File>
/export/apps/rDock/src/rDock_2013.1_src/data/scripts/dock_solv.prm

>  <Rbt.Receptor>
prm/pocket_docking_3.prm

>  <SCORE>
-20.6792

>  <SCORE.INTER>
-14.2663

>  <SCORE.INTER.CONST>
1

>  <SCORE.INTER.POLAR>
-1.16141

>  <SCORE.INTER.ROT>
6

>  <SCORE.INTER.SOLV>
17.63

>  <SCORE.INTER.VDW>
-19.1162

>  <SCORE.INTER.norm>
-0.460204

>  <SCORE.INTRA>
-6.51707

>  <SCORE.INTRA.DIHEDRAL>
-16.1253

>  <SCORE.INTRA.DIHEDRAL.0>
22.2484

>  <SCORE.INTRA.POLAR>
0

>  <SCORE.INTRA.POLAR.0>
0

>  <SCORE.INTRA.REPUL>
0

>  <SCORE.INTRA.REPUL.0>
0

>  <SCORE.INTRA.SOLV>
-1.30849

>  <SCORE.INTRA.SOLV.lig_0>
-75.7198

>  <SCORE.INTRA.VDW>
2.19981

>  <SCORE.INTRA.VDW.0>
-3.34171

>  <SCORE.INTRA.norm>
-0.210228

>  <SCORE.RESTR>
0.104192

>  <SCORE.RESTR.CAVITY>
0.104192

>  <SCORE.RESTR.norm>
0.00336104

>  <SCORE.SYSTEM>
0

>  <SCORE.SYSTEM.CONST>
0

>  <SCORE.SYSTEM.DIHEDRAL>
0

>  <SCORE.SYSTEM.SOLV>
0

>  <SCORE.SYSTEM.norm>
0

>  <SCORE.heavy>
31

>  <SCORE.norm>
-0.667071

>  <RMSD>
2.437

$$$$
2et3_lig
 OpenBabel11021811423D
libRbt.so/2013.1/901 2013/11/27
 31 33  0  0  0  0  0  0  0  0999 V2000
   -0.0297   -5.9610   29.2906 C   0  0  2  0  0  0  0  0  0  0  0  0
   -0.6783   -7.2560   29.3817 O   0  0  0  0  0  0  0  0  0  0  0  0
   -1.8688   -9.5315   32.8038 C   0  0  2  0  0  0  0  0  0  0  0  0
   -1.7714  -10.2463   34.0388 N   0  0  0  0  0  0  0  0  0  0  0  0
   -2.0948   -7.6436   35.4336 C   0  0  2  0  0  0  0  0  0  0  0  0
   -0.5010   -5.2330   28.0272 C   0  0  2  0  0  0  0  0  0  0  0  0
   -1.9277   -5.1355   28.0624 N   0  0  0  0  0  0  0  0  0  0  0  0
   -0.9771  -10.2281   31.7259 C   0  0  0  0  0  0  0  0  0  0  0  0
   -3.3696   -7.0709   36.0915 C   0  0  2  0  0  0  0  0  0  0  0  0
   -4.4907   -7.7730   35.6032 O   0  0  0  0  0  0  0  0  0  0  0  0
    0.0014   -5.9814   26.7454 C   0  0  0  0  0  0  0  0  0  0  0  0
   -1.0712   -9.4434   30.3663 C   0  0  2  0  0  0  0  0  0  0  0  0
   -0.2326  -10.0953   29.3476 N   0  0  0  0  0  0  0  0  0  0  0  0
   -3.4453   -5.5274   35.7470 C   0  0  1  0  0  0  0  0  0  0  0  0
   -4.6848   -4.8996   36.3112 N   0  0  0  0  0  0  0  0  0  0  0  0
    1.5616   -6.0106   26.7838 C   0  0  0  0  0  0  0  0  0  0  0  0
   -0.6177   -7.9493   30.5870 C   0  0  2  0  0  0  0  0  0  0  0  0
   -2.1324   -4.7631   36.3090 C   0  0  1  0  0  0  0  0  0  0  0  0
   -2.0503   -4.8502   37.7166 O   0  0  0  0  0  0  0  0  0  0  0  0
    2.0225   -6.7453   28.1189 C   0  0  2  0  0  0  0  0  0  0  0  0
    1.4490   -6.1317   29.3154 O   0  0  0  0  0  0  0  0  0  0  0  0
   -1.5337   -7.2756   31.6801 C   0  0  2  0  0  0  0  0  0  0  0  0
   -1.1431   -5.9228   31.8926 O   0  0  0  0  0  0  0  0  0  0  0  0
   -0.8567   -5.4388   35.7179 C   0  0  0  0  0  0  0  0  0  0  0  0
   -0.8922   -6.9225   35.9420 O   0  0  0  0  0  0  0  0  0  0  0  0
    3.5205   -6.8595   28.2758 C   0  0  0  0  0  0  0  0  0  0  0  0
    4.1050   -7.6814   27.2489 N   0  0  0  0  0  0  0  0  0  0  0  0
   -1.4281   -8.0726   33.0276 C   0  0  1  0  0  0  0  0  0  0  0  0
   -2.2656   -7.4545   33.9971 O   0  0  0  0  0  0  0  0  0  0  0  0
   -2.0431   -3.2540   36.0438 C   0  0  0  0  0  0  0  0  0  0  0  0
   -4.9925   -5.1746   37.7247 C   0  0  0  0  0  0  0  0  0  0  0  0
  1  2  1  6  0  0  0
  1  6  1  0  0  0  0
  1 21  1  0  0  0  0
  3  4  1  1  0  0  0
  3  8  1  0  0  0  0
  3 28  1  0  0  0  0
  5  9  1  0  0  0  0
  5 25  1  0  0  0  0
  5 29  1  6  0  0  0
  6  7  1  6  0  0  0
  6 11  1  0  0  0  0
  8 12  1  0  0  0  0
  9 10  1  6  0  0  0
  9 14  1  0  0  0  0
 11 16  1  0  0  0  0
 12 13  1  6  0  0  0
 12 17  1  0  0  0  0
 14 15  1  1  0  0  0
 14 18  1  0  0  0  0
 15 31  1  0  0  0  0
 16 20  1  0  0  0  0
 17  2  1  6  0  0  0
 17 22  1  0  0  0  0
 18 19  1  1  0  0  0
 18 24  1  0  0  0  0
 18 30  1  0  0  0  0
 20 21  1  0  0  0  0
 20 26  1  1  0  0  0
 22 23  1  1  0  0  0
 22 28  1  0  0  0  0
 24 25  1  0  0  0  0
 26 27  1  0  0  0  0
 28 29  1  1  0  0  0
M  END
>  <CHROM.1>
-166.14977728,-167.76615996,48.62001613,-166.50786927,-64.15135195,80.27230283
-1.12374892,-6.83399458,32.28511075,-0.25590045,1.08246757,0.16600260

>  <Name>
2et3_lig

>  <RI>
0

>  <Rbt.Current_Directory>
/home/itssahil/PROJECTS/Mol_Feturizer/New_Systems/rnas/2et3

>  <Rbt.Executable>
rbdock ($Id: //depot/dev/client3/rdock/2013.1/src/exe/rbdock.cxx#4 $)

>  <Rbt.Library>
libRbt.so (2013.1, Build901 2013/11/27)

>  <Rbt.Parameter_File>
/export/apps/rDock/src/rDock_2013.1_src/data/scripts/dock_solv.prm

>  <Rbt.Receptor>
prm/pocket_docking_7.prm

>  <SCORE>
-30.0915

>  <SCORE.INTER>
-21.7439

>  <SCORE.INTER.CONST>
1

>  <SCORE.INTER.POLAR>
-1.72917

>  <SCORE.INTER.ROT>
6

>  <SCORE.INTER.SOLV>
12.5229

>  <SCORE.INTER.VDW>
-20.5063

>  <SCORE.INTER.norm>
-0.701417

>  <SCORE.INTRA>
-8.3476

>  <SCORE.INTRA.DIHEDRAL>
-17.6124

>  <SCORE.INTRA.DIHEDRAL.0>
22.2484

>  <SCORE.INTRA.POLAR>
0

>  <SCORE.INTRA.POLAR.0>
0

>  <SCORE.INTRA.REPUL>
0

>  <SCORE.INTRA.REPUL.0>
0

>  <SCORE.INTRA.SOLV>
-2.37895

>  <SCORE.INTRA.SOLV.lig_0>
-75.7198

>  <SCORE.INTRA.VDW>
1.6481

>  <SCORE.INTRA.VDW.0>
-3.34171

>  <SCORE.INTRA.norm>
-0.269277

>  <SCORE.RESTR>
0

>  <SCORE.RESTR.CAVITY>
0

>  <SCORE.RESTR.norm>
0

>  <SCORE.SYSTEM>
0

>  <SCORE.SYSTEM.CONST>
0

>  <SCORE.SYSTEM.DIHEDRAL>
0

>  <SCORE.SYSTEM.SOLV>
0

>  <SCORE.SYSTEM.norm>
0

>  <SCORE.heavy>
31

>  <SCORE.norm>
-0.970694

>  <RMSD>
2.446

$$$$
2et3_lig
 OpenBabel11021811423D
libRbt.so/2013.1/901 2013/11/27
 31 33  0  0  0  0  0  0  0  0999 V2000
    0.3809   -8.3458   28.4791 C   0  0  2  0  0  0  0  0  0  0  0  0
    0.8083   -8.4814   29.8593 O   0  0  0  0  0  0  0  0  0  0  0  0
   -1.7885  -11.4884   31.4470 C   0  0  2  0  0  0  0  0  0  0  0  0
   -2.2243  -12.6178   32.2086 N   0  0  0  0  0  0  0  0  0  0  0  0
   -2.6540  -10.7174   34.5115 C   0  0  2  0  0  0  0  0  0  0  0  0
    1.5160   -7.7474   27.6414 C   0  0  2  0  0  0  0  0  0  0  0  0
    2.6731   -8.5764   27.7829 N   0  0  0  0  0  0  0  0  0  0  0  0
   -0.6648  -11.9300   30.4548 C   0  0  0  0  0  0  0  0  0  0  0  0
   -4.1735  -10.5322   34.7182 C   0  0  2  0  0  0  0  0  0  0  0  0
   -4.8545  -11.0629   33.6033 O   0  0  0  0  0  0  0  0  0  0  0  0
    1.7991   -6.2701   28.0803 C   0  0  0  0  0  0  0  0  0  0  0  0
   -0.1732  -10.6921   29.6188 C   0  0  2  0  0  0  0  0  0  0  0  0
    0.8857  -11.1027   28.6830 N   0  0  0  0  0  0  0  0  0  0  0  0
   -4.4563   -8.9850   34.8996 C   0  0  1  0  0  0  0  0  0  0  0  0
   -5.9219   -8.7104   35.0600 N   0  0  0  0  0  0  0  0  0  0  0  0
    0.4932   -5.4431   27.8627 C   0  0  0  0  0  0  0  0  0  0  0  0
    0.3516   -9.5708   30.5954 C   0  0  2  0  0  0  0  0  0  0  0  0
   -3.6426   -8.4130   36.1780 C   0  0  1  0  0  0  0  0  0  0  0  0
   -4.0632   -9.0344   37.3748 O   0  0  0  0  0  0  0  0  0  0  0  0
   -0.6743   -6.1035   28.7203 C   0  0  2  0  0  0  0  0  0  0  0  0
   -0.8562   -7.5206   28.4102 O   0  0  0  0  0  0  0  0  0  0  0  0
   -0.8028   -9.1488   31.5839 C   0  0  2  0  0  0  0  0  0  0  0  0
   -0.3506   -8.1330   32.4735 O   0  0  0  0  0  0  0  0  0  0  0  0
   -2.1240   -8.7188   35.9943 C   0  0  0  0  0  0  0  0  0  0  0  0
   -1.9109  -10.1717   35.6840 O   0  0  0  0  0  0  0  0  0  0  0  0
   -1.9999   -5.3870   28.6147 C   0  0  0  0  0  0  0  0  0  0  0  0
   -2.9857   -5.9528   29.4979 N   0  0  0  0  0  0  0  0  0  0  0  0
   -1.2809  -10.3961   32.4071 C   0  0  1  0  0  0  0  0  0  0  0  0
   -2.3255   -9.9970   33.2862 O   0  0  0  0  0  0  0  0  0  0  0  0
   -3.7976   -6.9171   36.4846 C   0  0  0  0  0  0  0  0  0  0  0  0
   -6.7339   -9.7559   35.7048 C   0  0  0  0  0  0  0  0  0  0  0  0
  1  2  1  1  0  0  0
  1  6  1  0  0  0  0
  1 21  1  0  0  0  0
  3  4  1  1  0  0  0
  3  8  1  0  0  0  0
  3 28  1  0  0  0  0
  5  9  1  0  0  0  0
  5 25  1  0  0  0  0
  5 29  1  6  0  0  0
  6  7  1  1  0  0  0
  6 11  1  0  0  0  0
  8 12  1  0  0  0  0
  9 10  1  6  0  0  0
  9 14  1  0  0  0  0
 11 16  1  0  0  0  0
 12 13  1  6  0  0  0
 12 17  1  0  0  0  0
 14 15  1  1  0  0  0
 14 18  1  0  0  0  0
 15 31  1  0  0  0  0
 16 20  1  0  0  0  0
 17  2  1  6  0  0  0
 17 22  1  0  0  0  0
 18 19  1  1  0  0  0
 18 24  1  0  0  0  0
 18 30  1  0  0  0  0
 20 21  1  0  0  0  0
 20 26  1  6  0  0  0
 22 23  1  1  0  0  0
 22 28  1  0  0  0  0
 24 25  1  0  0  0  0
 26 27  1  0  0  0  0
 28 29  1  1  0  0  0
M  END
>  <CHROM.1>
-144.89648448,-148.76143771,30.75529777,18.57583900,-174.87102199,83.60528080
-1.68953178,-8.96046470,31.91628580,-0.48078594,-0.90475505,2.79627974

>  <Name>
2et3_lig

>  <RI>
0

>  <Rbt.Current_Directory>
/home/itssahil/PROJECTS/Mol_Feturizer/New_Systems/rnas/2et3

>  <Rbt.Executable>
rbdock ($Id: //depot/dev/client3/rdock/2013.1/src/exe/rbdock.cxx#4 $)

>  <Rbt.Library>
libRbt.so (2013.1, Build901 2013/11/27)

>  <Rbt.Parameter_File>
/export/apps/rDock/src/rDock_2013.1_src/data/scripts/dock_solv.prm

>  <Rbt.Receptor>
prm/pocket_docking_2.prm

>  <SCORE>
-5.82745

>  <SCORE.INTER>
-8.69874

>  <SCORE.INTER.CONST>
1

>  <SCORE.INTER.POLAR>
0

>  <SCORE.INTER.ROT>
6

>  <SCORE.INTER.SOLV>
14.7492

>  <SCORE.INTER.VDW>
-18.3156

>  <SCORE.INTER.norm>
-0.280605

>  <SCORE.INTRA>
2.41491

>  <SCORE.INTRA.DIHEDRAL>
-5.03936

>  <SCORE.INTRA.DIHEDRAL.0>
22.2484

>  <SCORE.INTRA.POLAR>
0

>  <SCORE.INTRA.POLAR.0>
0

>  <SCORE.INTRA.REPUL>
0

>  <SCORE.INTRA.REPUL.0>
0

>  <SCORE.INTRA.SOLV>
1.01654

>  <SCORE.INTRA.SOLV.lig_0>
-75.7198

>  <SCORE.INTRA.VDW>
4.42632

>  <SCORE.INTRA.VDW.0>
-3.34171

>  <SCORE.INTRA.norm>
0.0779004

>  <SCORE.RESTR>
0.456383

>  <SCORE.RESTR.CAVITY>
0.456383

>  <SCORE.RESTR.norm>
0.014722

>  <SCORE.SYSTEM>
0

>  <SCORE.SYSTEM.CONST>
0

>  <SCORE.SYSTEM.DIHEDRAL>
0

>  <SCORE.SYSTEM.SOLV>
0

>  <SCORE.SYSTEM.norm>
0

>  <SCORE.heavy>
31

>  <SCORE.norm>
-0.187982

>  <RMSD>
2.465

$$$$
2et3_lig
 OpenBabel11021811423D
libRbt.so/2013.1/901 2013/11/27
 31 33  0  0  0  0  0  0  0  0999 V2000
   -0.0409   -5.9950   29.2537 C   0  0  2  0  0  0  0  0  0  0  0  0
   -0.7141   -7.2784   29.3309 O   0  0  0  0  0  0  0  0  0  0  0  0
   -1.9219   -9.6157   32.7050 C   0  0  2  0  0  0  0  0  0  0  0  0
   -1.8319  -10.3480   33.9302 N   0  0  0  0  0  0  0  0  0  0  0  0
   -2.2048   -7.7821   35.3589 C   0  0  2  0  0  0  0  0  0  0  0  0
   -0.4674   -5.2620   27.9774 C   0  0  2  0  0  0  0  0  0  0  0  0
   -1.8925   -5.1395   27.9763 N   0  0  0  0  0  0  0  0  0  0  0  0
   -1.0118  -10.2878   31.6270 C   0  0  0  0  0  0  0  0  0  0  0  0
   -3.3858   -7.0427   36.0254 C   0  0  2  0  0  0  0  0  0  0  0  0
   -4.5950   -7.5785   35.5363 O   0  0  0  0  0  0  0  0  0  0  0  0
    0.0541   -6.0221   26.7102 C   0  0  0  0  0  0  0  0  0  0  0  0
   -1.0978   -9.4838   30.2782 C   0  0  2  0  0  0  0  0  0  0  0  0
   -0.2418  -10.1126   29.2596 N   0  0  0  0  0  0  0  0  0  0  0  0
   -3.2471   -5.5011   35.6920 C   0  0  1  0  0  0  0  0  0  0  0  0
   -4.3858   -4.7113   36.2651 N   0  0  0  0  0  0  0  0  0  0  0  0
    1.6121   -6.0784   26.7880 C   0  0  0  0  0  0  0  0  0  0  0  0
   -0.6607   -7.9891   30.5264 C   0  0  2  0  0  0  0  0  0  0  0  0
   -1.8393   -4.9310   36.2546 C   0  0  1  0  0  0  0  0  0  0  0  0
   -1.7664   -5.0391   37.6612 O   0  0  0  0  0  0  0  0  0  0  0  0
    2.0262   -6.8178   28.1358 C   0  0  2  0  0  0  0  0  0  0  0  0
    1.4335   -6.1914   29.3163 O   0  0  0  0  0  0  0  0  0  0  0  0
   -1.5951   -7.3402   31.6189 C   0  0  2  0  0  0  0  0  0  0  0  0
   -1.2196   -5.9872   31.8559 O   0  0  0  0  0  0  0  0  0  0  0  0
   -0.6715   -5.7731   35.6541 C   0  0  0  0  0  0  0  0  0  0  0  0
   -0.9123   -7.2391   35.8680 O   0  0  0  0  0  0  0  0  0  0  0  0
    3.5176   -6.9578   28.3308 C   0  0  0  0  0  0  0  0  0  0  0  0
    4.1122   -7.7983   27.3250 N   0  0  0  0  0  0  0  0  0  0  0  0
   -1.4974   -8.1564   32.9555 C   0  0  1  0  0  0  0  0  0  0  0  0
   -2.3514   -7.5605   33.9244 O   0  0  0  0  0  0  0  0  0  0  0  0
   -1.5417   -3.4471   35.9996 C   0  0  0  0  0  0  0  0  0  0  0  0
   -4.7117   -4.9361   37.6833 C   0  0  0  0  0  0  0  0  0  0  0  0
  1  2  1  6  0  0  0
  1  6  1  0  0  0  0
  1 21  1  0  0  0  0
  3  4  1  1  0  0  0
  3  8  1  0  0  0  0
  3 28  1  0  0  0  0
  5  9  1  0  0  0  0
  5 25  1  0  0  0  0
  5 29  1  6  0  0  0
  6  7  1  6  0  0  0
  6 11  1  0  0  0  0
  8 12  1  0  0  0  0
  9 10  1  6  0  0  0
  9 14  1  0  0  0  0
 11 16  1  0  0  0  0
 12 13  1  6  0  0  0
 12 17  1  0  0  0  0
 14 15  1  1  0  0  0
 14 18  1  0  0  0  0
 15 31  1  0  0  0  0
 16 20  1  0  0  0  0
 17  2  1  6  0  0  0
 17 22  1  0  0  0  0
 18 19  1  1  0  0  0
 18 24  1  0  0  0  0
 18 30  1  0  0  0  0
 20 21  1  0  0  0  0
 20 26  1  1  0  0  0
 22 23  1  1  0  0  0
 22 28  1  0  0  0  0
 24 25  1  0  0  0  0
 26 27  1  0  0  0  0
 28 29  1  1  0  0  0
M  END
>  <CHROM.1>
-168.13105110,-175.90642968,49.53794035,-164.60266391,-64.47940428,79.52545397
-1.07867469,-6.89441547,32.23590053,-0.34113180,1.08332975,0.25841778

>  <Name>
2et3_lig

>  <RI>
3.50789e+07

>  <Rbt.Current_Directory>
/home/itssahil/PROJECTS/Mol_Feturizer/New_Systems/rnas/2et3

>  <Rbt.Executable>
rbdock ($Id: //depot/dev/client3/rdock/2013.1/src/exe/rbdock.cxx#4 $)

>  <Rbt.Library>
libRbt.so (2013.1, Build901 2013/11/27)

>  <Rbt.Parameter_File>
/export/apps/rDock/src/rDock_2013.1_src/data/scripts/dock_solv.prm

>  <Rbt.Receptor>
prm/pocket_docking_4.prm

>  <SCORE>
-28.9666

>  <SCORE.INTER>
-20.0731

>  <SCORE.INTER.CONST>
1

>  <SCORE.INTER.POLAR>
-1.65674

>  <SCORE.INTER.ROT>
6

>  <SCORE.INTER.SOLV>
12.0995

>  <SCORE.INTER.VDW>
-19.4928

>  <SCORE.INTER.norm>
-0.64752

>  <SCORE.INTRA>
-8.89353

>  <SCORE.INTRA.DIHEDRAL>
-18.3559

>  <SCORE.INTRA.DIHEDRAL.0>
22.2484

>  <SCORE.INTRA.POLAR>
0

>  <SCORE.INTRA.POLAR.0>
0

>  <SCORE.INTRA.REPUL>
0

>  <SCORE.INTRA.REPUL.0>
0

>  <SCORE.INTRA.SOLV>
-2.48653

>  <SCORE.INTRA.SOLV.lig_0>
-75.7198

>  <SCORE.INTRA.VDW>
1.52769

>  <SCORE.INTRA.VDW.0>
-3.34171

>  <SCORE.INTRA.norm>
-0.286888

>  <SCORE.RESTR>
0

>  <SCORE.RESTR.CAVITY>
0

>  <SCORE.RESTR.norm>
0

>  <SCORE.SYSTEM>
0

>  <SCORE.SYSTEM.CONST>
0

>  <SCORE.SYSTEM.DIHEDRAL>
0

>  <SCORE.SYSTEM.SOLV>
0

>  <SCORE.SYSTEM.norm>
0

>  <SCORE.heavy>
31

>  <SCORE.norm>
-0.934408

>  <RMSD>
2.467

$$$$
2et3_lig
 OpenBabel11021811423D
libRbt.so/2013.1/901 2013/11/27
 31 33  0  0  0  0  0  0  0  0999 V2000
   -0.1242   -5.8346   29.4257 C   0  0  2  0  0  0  0  0  0  0  0  0
   -0.8087   -7.1103   29.5269 O   0  0  0  0  0  0  0  0  0  0  0  0
   -1.8678   -9.4829   32.9263 C   0  0  2  0  0  0  0  0  0  0  0  0
   -1.7246  -10.2261   34.1398 N   0  0  0  0  0  0  0  0  0  0  0  0
   -2.0433   -7.6718   35.6069 C   0  0  2  0  0  0  0  0  0  0  0  0
   -0.6031   -5.0872   28.1765 C   0  0  2  0  0  0  0  0  0  0  0  0
   -2.0250   -4.9476   28.2456 N   0  0  0  0  0  0  0  0  0  0  0  0
   -1.0013  -10.1419   31.8051 C   0  0  0  0  0  0  0  0  0  0  0  0
   -3.2772   -7.0753   36.3192 C   0  0  2  0  0  0  0  0  0  0  0  0
   -4.4358   -7.7280   35.8500 O   0  0  0  0  0  0  0  0  0  0  0  0
   -0.1532   -5.8443   26.8804 C   0  0  0  0  0  0  0  0  0  0  0  0
   -1.1458   -9.3257   30.4687 C   0  0  2  0  0  0  0  0  0  0  0  0
   -0.3311   -9.9421   29.4095 N   0  0  0  0  0  0  0  0  0  0  0  0
   -3.3124   -5.5218   36.0155 C   0  0  1  0  0  0  0  0  0  0  0  0
   -4.5122   -4.8689   36.6345 N   0  0  0  0  0  0  0  0  0  0  0  0
    1.4060   -5.9198   26.8821 C   0  0  0  0  0  0  0  0  0  0  0  0
   -0.7034   -7.8319   30.7124 C   0  0  2  0  0  0  0  0  0  0  0  0
   -1.9580   -4.8151   36.5539 C   0  0  1  0  0  0  0  0  0  0  0  0
   -1.8349   -4.9409   37.9555 O   0  0  0  0  0  0  0  0  0  0  0  0
    1.8759   -6.6740   28.2031 C   0  0  2  0  0  0  0  0  0  0  0  0
    1.3489   -6.0491   29.4152 O   0  0  0  0  0  0  0  0  0  0  0  0
   -1.5935   -7.1963   31.8489 C   0  0  2  0  0  0  0  0  0  0  0  0
   -1.2126   -5.8443   32.0828 O   0  0  0  0  0  0  0  0  0  0  0  0
   -0.7245   -5.5164   35.9056 C   0  0  0  0  0  0  0  0  0  0  0  0
   -0.8022   -7.0034   36.0942 O   0  0  0  0  0  0  0  0  0  0  0  0
    3.3731   -6.8332   28.3244 C   0  0  0  0  0  0  0  0  0  0  0  0
    3.9061   -7.6837   27.2927 N   0  0  0  0  0  0  0  0  0  0  0  0
   -1.4377   -8.0244   33.1726 C   0  0  1  0  0  0  0  0  0  0  0  0
   -2.2525   -7.4405   34.1818 O   0  0  0  0  0  0  0  0  0  0  0  0
   -1.8270   -3.3034   36.3232 C   0  0  0  0  0  0  0  0  0  0  0  0
   -5.7463   -4.8346   35.8321 C   0  0  0  0  0  0  0  0  0  0  0  0
  1  2  1  6  0  0  0
  1  6  1  0  0  0  0
  1 21  1  0  0  0  0
  3  4  1  1  0  0  0
  3  8  1  0  0  0  0
  3 28  1  0  0  0  0
  5  9  1  0  0  0  0
  5 25  1  0  0  0  0
  5 29  1  6  0  0  0
  6  7  1  1  0  0  0
  6 11  1  0  0  0  0
  8 12  1  0  0  0  0
  9 10  1  6  0  0  0
  9 14  1  0  0  0  0
 11 16  1  0  0  0  0
 12 13  1  6  0  0  0
 12 17  1  0  0  0  0
 14 15  1  1  0  0  0
 14 18  1  0  0  0  0
 15 31  1  0  0  0  0
 16 20  1  0  0  0  0
 17  2  1  6  0  0  0
 17 22  1  0  0  0  0
 18 19  1  1  0  0  0
 18 24  1  0  0  0  0
 18 30  1  0  0  0  0
 20 21  1  0  0  0  0
 20 26  1  1  0  0  0
 22 23  1  1  0  0  0
 22 28  1  0  0  0  0
 24 25  1  0  0  0  0
 26 27  1  0  0  0  0
 28 29  1  1  0  0  0
M  END
>  <CHROM.1>
-168.28602759,-169.98482250,-88.56793240,-163.55842042,-65.02368130,79.70414580
-1.16035649,-6.77576188,32.37348992,-0.10269075,1.11066137,0.00409070

>  <Name>
2et3_lig

>  <RI>
0

>  <Rbt.Current_Directory>
/home/itssahil/PROJECTS/Mol_Feturizer/New_Systems/rnas/2et3

>  <Rbt.Executable>
rbdock ($Id: //depot/dev/client3/rdock/2013.1/src/exe/rbdock.cxx#4 $)

>  <Rbt.Library>
libRbt.so (2013.1, Build901 2013/11/27)

>  <Rbt.Parameter_File>
/export/apps/rDock/src/rDock_2013.1_src/data/scripts/dock_solv.prm

>  <Rbt.Receptor>
prm/pocket_docking_6.prm

>  <SCORE>
-29.987

>  <SCORE.INTER>
-20.1983

>  <SCORE.INTER.CONST>
1

>  <SCORE.INTER.POLAR>
-1.60967

>  <SCORE.INTER.ROT>
6

>  <SCORE.INTER.SOLV>
11.9387

>  <SCORE.INTER.VDW>
-19.6795

>  <SCORE.INTER.norm>
-0.651558

>  <SCORE.INTRA>
-9.78871

>  <SCORE.INTRA.DIHEDRAL>
-17.3161

>  <SCORE.INTRA.DIHEDRAL.0>
22.2484

>  <SCORE.INTRA.POLAR>
0

>  <SCORE.INTRA.POLAR.0>
0

>  <SCORE.INTRA.REPUL>
0

>  <SCORE.INTRA.REPUL.0>
0

>  <SCORE.INTRA.SOLV>
-2.52475

>  <SCORE.INTRA.SOLV.lig_0>
-75.7198

>  <SCORE.INTRA.VDW>
0.13171

>  <SCORE.INTRA.VDW.0>
-3.34171

>  <SCORE.INTRA.norm>
-0.315765

>  <SCORE.RESTR>
0

>  <SCORE.RESTR.CAVITY>
0

>  <SCORE.RESTR.norm>
0

>  <SCORE.SYSTEM>
0

>  <SCORE.SYSTEM.CONST>
0

>  <SCORE.SYSTEM.DIHEDRAL>
0

>  <SCORE.SYSTEM.SOLV>
0

>  <SCORE.SYSTEM.norm>
0

>  <SCORE.heavy>
31

>  <SCORE.norm>
-0.967323

>  <RMSD>
2.482

$$$$
2et3_lig
 OpenBabel11021811423D
libRbt.so/2013.1/901 2013/11/27
 31 33  0  0  0  0  0  0  0  0999 V2000
   -0.1193   -5.9326   29.4281 C   0  0  2  0  0  0  0  0  0  0  0  0
   -0.7761   -7.2261   29.4684 O   0  0  0  0  0  0  0  0  0  0  0  0
   -1.7458   -9.7480   32.7860 C   0  0  2  0  0  0  0  0  0  0  0  0
   -1.5689  -10.5553   33.9532 N   0  0  0  0  0  0  0  0  0  0  0  0
   -3.4592   -8.0140   34.3317 C   0  0  2  0  0  0  0  0  0  0  0  0
   -0.6251   -5.1318   28.2235 C   0  0  2  0  0  0  0  0  0  0  0  0
   -2.0489   -5.0262   28.3114 N   0  0  0  0  0  0  0  0  0  0  0  0
   -0.9415  -10.3660   31.5971 C   0  0  0  0  0  0  0  0  0  0  0  0
   -4.1727   -6.7173   33.8900 C   0  0  2  0  0  0  0  0  0  0  0  0
   -3.8499   -6.4542   32.5428 O   0  0  0  0  0  0  0  0  0  0  0  0
   -0.1716   -5.8109   26.8861 C   0  0  0  0  0  0  0  0  0  0  0  0
   -1.1232   -9.4796   30.3109 C   0  0  2  0  0  0  0  0  0  0  0  0
   -0.3672  -10.0572   29.1882 N   0  0  0  0  0  0  0  0  0  0  0  0
   -3.6993   -5.5491   34.8482 C   0  0  1  0  0  0  0  0  0  0  0  0
   -4.3119   -4.2372   34.4578 N   0  0  0  0  0  0  0  0  0  0  0  0
    1.3888   -5.8533   26.8711 C   0  0  0  0  0  0  0  0  0  0  0  0
   -0.6378   -8.0095   30.6105 C   0  0  2  0  0  0  0  0  0  0  0  0
   -4.0728   -5.8992   36.3849 C   0  0  1  0  0  0  0  0  0  0  0  0
   -5.4698   -6.0130   36.5610 O   0  0  0  0  0  0  0  0  0  0  0  0
    1.8864   -6.6648   28.1472 C   0  0  2  0  0  0  0  0  0  0  0  0
    1.3578   -6.1150   29.3945 O   0  0  0  0  0  0  0  0  0  0  0  0
   -1.4655   -7.4152   31.8145 C   0  0  2  0  0  0  0  0  0  0  0  0
   -1.0450   -6.0849   32.0997 O   0  0  0  0  0  0  0  0  0  0  0  0
   -3.4346   -7.2709   36.7652 C   0  0  0  0  0  0  0  0  0  0  0  0
   -3.7931   -8.3195   35.7529 O   0  0  0  0  0  0  0  0  0  0  0  0
    3.3877   -6.7982   28.2479 C   0  0  0  0  0  0  0  0  0  0  0  0
    3.9239   -7.6182   27.1934 N   0  0  0  0  0  0  0  0  0  0  0  0
   -1.2733   -8.3131   33.0868 C   0  0  1  0  0  0  0  0  0  0  0  0
   -2.0322   -7.7654   34.1580 O   0  0  0  0  0  0  0  0  0  0  0  0
   -3.6666   -4.8694   37.4480 C   0  0  0  0  0  0  0  0  0  0  0  0
   -3.5729   -3.4142   33.4859 C   0  0  0  0  0  0  0  0  0  0  0  0
  1  2  1  6  0  0  0
  1  6  1  0  0  0  0
  1 21  1  0  0  0  0
  3  4  1  1  0  0  0
  3  8  1  0  0  0  0
  3 28  1  0  0  0  0
  5  9  1  0  0  0  0
  5 25  1  0  0  0  0
  5 29  1  1  0  0  0
  6  7  1  6  0  0  0
  6 11  1  0  0  0  0
  8 12  1  0  0  0  0
  9 10  1  6  0  0  0
  9 14  1  0  0  0  0
 11 16  1  0  0  0  0
 12 13  1  6  0  0  0
 12 17  1  0  0  0  0
 14 15  1  6  0  0  0
 14 18  1  0  0  0  0
 15 31  1  0  0  0  0
 16 20  1  0  0  0  0
 17  2  1  6  0  0  0
 17 22  1  0  0  0  0
 18 19  1  1  0  0  0
 18 24  1  0  0  0  0
 18 30  1  0  0  0  0
 20 21  1  0  0  0  0
 20 26  1  1  0  0  0
 22 23  1  1  0  0  0
 22 28  1  0  0  0  0
 24 25  1  0  0  0  0
 26 27  1  0  0  0  0
 28 29  1  1  0  0  0
M  END
>  <CHROM.1>
-168.69464286,-104.70024238,-89.74604790,-166.43251409,-66.89056969,-37.77148752
-1.55330477,-6.96933869,31.91305444,0.32091719,0.93466236,-0.45097918

>  <Name>
2et3_lig

>  <RI>
3.50789e+07

>  <Rbt.Current_Directory>
/home/itssahil/PROJECTS/Mol_Feturizer/New_Systems/rnas/2et3

>  <Rbt.Executable>
rbdock ($Id: //depot/dev/client3/rdock/2013.1/src/exe/rbdock.cxx#4 $)

>  <Rbt.Library>
libRbt.so (2013.1, Build901 2013/11/27)

>  <Rbt.Parameter_File>
/export/apps/rDock/src/rDock_2013.1_src/data/scripts/dock_solv.prm

>  <Rbt.Receptor>
prm/pocket_docking_4.prm

>  <SCORE>
-20.7908

>  <SCORE.INTER>
-14.9346

>  <SCORE.INTER.CONST>
1

>  <SCORE.INTER.POLAR>
-0.938083

>  <SCORE.INTER.ROT>
6

>  <SCORE.INTER.SOLV>
12.0621

>  <SCORE.INTER.VDW>
-18.4502

>  <SCORE.INTER.norm>
-0.481761

>  <SCORE.INTRA>
-5.85616

>  <SCORE.INTRA.DIHEDRAL>
-11.5889

>  <SCORE.INTRA.DIHEDRAL.0>
22.2484

>  <SCORE.INTRA.POLAR>
0

>  <SCORE.INTRA.POLAR.0>
0

>  <SCORE.INTRA.REPUL>
0

>  <SCORE.INTRA.REPUL.0>
0

>  <SCORE.INTRA.SOLV>
-2.15507

>  <SCORE.INTRA.SOLV.lig_0>
-75.7198

>  <SCORE.INTRA.VDW>
1.0158

>  <SCORE.INTRA.VDW.0>
-3.34171

>  <SCORE.INTRA.norm>
-0.188908

>  <SCORE.RESTR>
0

>  <SCORE.RESTR.CAVITY>
0

>  <SCORE.RESTR.norm>
0

>  <SCORE.SYSTEM>
0

>  <SCORE.SYSTEM.CONST>
0

>  <SCORE.SYSTEM.DIHEDRAL>
0

>  <SCORE.SYSTEM.SOLV>
0

>  <SCORE.SYSTEM.norm>
0

>  <SCORE.heavy>
31

>  <SCORE.norm>
-0.670669

>  <RMSD>
2.537

$$$$
2et3_lig
 OpenBabel11021811423D
libRbt.so/2013.1/901 2013/11/27
 31 33  0  0  0  0  0  0  0  0999 V2000
    0.3774   -8.1816   29.7501 C   0  0  2  0  0  0  0  0  0  0  0  0
   -0.7230   -9.1278   29.7448 O   0  0  0  0  0  0  0  0  0  0  0  0
   -1.6251  -12.9026   31.5458 C   0  0  2  0  0  0  0  0  0  0  0  0
   -1.5256  -14.0274   32.4235 N   0  0  0  0  0  0  0  0  0  0  0  0
   -3.1100  -12.0351   34.5513 C   0  0  2  0  0  0  0  0  0  0  0  0
    0.1295   -7.1043   30.8114 C   0  0  2  0  0  0  0  0  0  0  0  0
   -0.0551   -7.7448   32.0770 N   0  0  0  0  0  0  0  0  0  0  0  0
   -0.3133  -12.7783   30.7056 C   0  0  0  0  0  0  0  0  0  0  0  0
   -4.2507  -11.1667   35.1260 C   0  0  2  0  0  0  0  0  0  0  0  0
   -5.4610  -11.5287   34.4993 O   0  0  0  0  0  0  0  0  0  0  0  0
   -1.1049   -6.2230   30.4177 C   0  0  0  0  0  0  0  0  0  0  0  0
   -0.4104  -11.5383   29.7433 C   0  0  2  0  0  0  0  0  0  0  0  0
    0.8231  -11.4166   28.9500 N   0  0  0  0  0  0  0  0  0  0  0  0
   -3.8852   -9.6478   34.8680 C   0  0  1  0  0  0  0  0  0  0  0  0
   -4.9682   -8.7325   35.3559 N   0  0  0  0  0  0  0  0  0  0  0  0
   -0.7973   -5.5471   29.0447 C   0  0  0  0  0  0  0  0  0  0  0  0
   -0.6582  -10.2315   30.5903 C   0  0  2  0  0  0  0  0  0  0  0  0
   -2.4823   -9.2793   35.5887 C   0  0  1  0  0  0  0  0  0  0  0  0
   -2.5689   -9.4322   36.9904 O   0  0  0  0  0  0  0  0  0  0  0  0
   -0.5153   -6.6872   27.9699 C   0  0  2  0  0  0  0  0  0  0  0  0
    0.5491   -7.5960   28.3923 O   0  0  0  0  0  0  0  0  0  0  0  0
   -1.9858  -10.3886   31.4273 C   0  0  2  0  0  0  0  0  0  0  0  0
   -2.2308   -9.2164   32.1978 O   0  0  0  0  0  0  0  0  0  0  0  0
   -1.3743  -10.2496   35.0744 C   0  0  0  0  0  0  0  0  0  0  0  0
   -1.8187  -11.6771   35.2064 O   0  0  0  0  0  0  0  0  0  0  0  0
   -0.2186   -6.1689   26.5824 C   0  0  0  0  0  0  0  0  0  0  0  0
   -1.3112   -5.3937   26.0559 N   0  0  0  0  0  0  0  0  0  0  0  0
   -1.8709  -11.6307   32.3792 C   0  0  1  0  0  0  0  0  0  0  0  0
   -3.0789  -11.7594   33.1190 O   0  0  0  0  0  0  0  0  0  0  0  0
   -1.9754   -7.8402   35.4222 C   0  0  0  0  0  0  0  0  0  0  0  0
   -5.0512   -8.5055   36.8085 C   0  0  0  0  0  0  0  0  0  0  0  0
  1  2  1  6  0  0  0
  1  6  1  0  0  0  0
  1 21  1  0  0  0  0
  3  4  1  1  0  0  0
  3  8  1  0  0  0  0
  3 28  1  0  0  0  0
  5  9  1  0  0  0  0
  5 25  1  0  0  0  0
  5 29  1  6  0  0  0
  6  7  1  1  0  0  0
  6 11  1  0  0  0  0
  8 12  1  0  0  0  0
  9 10  1  6  0  0  0
  9 14  1  0  0  0  0
 11 16  1  0  0  0  0
 12 13  1  1  0  0  0
 12 17  1  0  0  0  0
 14 15  1  1  0  0  0
 14 18  1  0  0  0  0
 15 31  1  0  0  0  0
 16 20  1  0  0  0  0
 17  2  1  6  0  0  0
 17 22  1  0  0  0  0
 18 19  1  1  0  0  0
 18 24  1  0  0  0  0
 18 30  1  0  0  0  0
 20 21  1  0  0  0  0
 20 26  1  6  0  0  0
 22 23  1  1  0  0  0
 22 28  1  0  0  0  0
 24 25  1  0  0  0  0
 26 27  1  0  0  0  0
 28 29  1  6  0  0  0
M  END
>  <CHROM.1>
-88.76555554,140.30486737,76.55544874,-108.41922570,-59.86544844,104.09494141
-1.74772958,-9.53642002,32.08335657,-0.58203871,-1.09441477,2.94480739

>  <Name>
2et3_lig

>  <RI>
0

>  <Rbt.Current_Directory>
/home/itssahil/PROJECTS/Mol_Feturizer/New_Systems/rnas/2et3

>  <Rbt.Executable>
rbdock ($Id: //depot/dev/client3/rdock/2013.1/src/exe/rbdock.cxx#4 $)

>  <Rbt.Library>
libRbt.so (2013.1, Build901 2013/11/27)

>  <Rbt.Parameter_File>
/export/apps/rDock/src/rDock_2013.1_src/data/scripts/dock_solv.prm

>  <Rbt.Receptor>
prm/blind_docking_100.prm

>  <SCORE>
0.883277

>  <SCORE.INTER>
-3.9078

>  <SCORE.INTER.CONST>
1

>  <SCORE.INTER.POLAR>
0

>  <SCORE.INTER.ROT>
6

>  <SCORE.INTER.SOLV>
23.1324

>  <SCORE.INTER.VDW>
-17.916

>  <SCORE.INTER.norm>
-0.126058

>  <SCORE.INTRA>
3.10994

>  <SCORE.INTRA.DIHEDRAL>
-0.62217

>  <SCORE.INTRA.DIHEDRAL.0>
22.2484

>  <SCORE.INTRA.POLAR>
0

>  <SCORE.INTRA.POLAR.0>
0

>  <SCORE.INTRA.REPUL>
0

>  <SCORE.INTRA.REPUL.0>
0

>  <SCORE.INTRA.SOLV>
1.35555

>  <SCORE.INTRA.SOLV.lig_0>
-75.7198

>  <SCORE.INTRA.VDW>
2.74325

>  <SCORE.INTRA.VDW.0>
-3.34171

>  <SCORE.INTRA.norm>
0.100321

>  <SCORE.RESTR>
1.68114

>  <SCORE.RESTR.CAVITY>
1.68114

>  <SCORE.RESTR.norm>
0.0542303

>  <SCORE.SYSTEM>
0

>  <SCORE.SYSTEM.CONST>
0

>  <SCORE.SYSTEM.DIHEDRAL>
0

>  <SCORE.SYSTEM.SOLV>
0

>  <SCORE.SYSTEM.norm>
0

>  <SCORE.heavy>
31

>  <SCORE.norm>
0.0284928

>  <RMSD>
2.563

$$$$
2et3_lig
 OpenBabel11021811423D
libRbt.so/2013.1/901 2013/11/27
 31 33  0  0  0  0  0  0  0  0999 V2000
    0.8183   -6.2506   28.9796 C   0  0  2  0  0  0  0  0  0  0  0  0
    0.0781   -7.4981   29.0268 O   0  0  0  0  0  0  0  0  0  0  0  0
   -1.2423   -9.6836   32.4599 C   0  0  2  0  0  0  0  0  0  0  0  0
   -1.1828  -10.4593   33.6601 N   0  0  0  0  0  0  0  0  0  0  0  0
   -2.5746   -7.2085   33.6889 C   0  0  2  0  0  0  0  0  0  0  0  0
    0.3669   -5.4257   27.7696 C   0  0  2  0  0  0  0  0  0  0  0  0
   -1.0470   -5.2267   27.8550 N   0  0  0  0  0  0  0  0  0  0  0  0
   -0.5690  -10.4753   31.2928 C   0  0  0  0  0  0  0  0  0  0  0  0
   -2.7425   -6.1358   34.7874 C   0  0  2  0  0  0  0  0  0  0  0  0
   -1.8678   -5.0634   34.5167 O   0  0  0  0  0  0  0  0  0  0  0  0
    0.7763   -6.1411   26.4369 C   0  0  0  0  0  0  0  0  0  0  0  0
   -0.6220   -9.6260   29.9704 C   0  0  2  0  0  0  0  0  0  0  0  0
    0.0114  -10.3671   28.8681 N   0  0  0  0  0  0  0  0  0  0  0  0
   -2.4290   -6.8136   36.1835 C   0  0  1  0  0  0  0  0  0  0  0  0
   -2.5236   -5.8248   37.3070 N   0  0  0  0  0  0  0  0  0  0  0  0
    2.3305   -6.2855   26.4241 C   0  0  0  0  0  0  0  0  0  0  0  0
    0.1032   -8.2449   30.2010 C   0  0  2  0  0  0  0  0  0  0  0  0
   -3.4429   -8.0491   36.4465 C   0  0  1  0  0  0  0  0  0  0  0  0
   -4.7834   -7.6084   36.5134 O   0  0  0  0  0  0  0  0  0  0  0  0
    2.7729   -7.1201   27.7057 C   0  0  2  0  0  0  0  0  0  0  0  0
    2.2803   -6.5294   28.9489 O   0  0  0  0  0  0  0  0  0  0  0  0
   -0.5969   -7.4720   31.3845 C   0  0  2  0  0  0  0  0  0  0  0  0
    0.0410   -6.2186   31.6074 O   0  0  0  0  0  0  0  0  0  0  0  0
   -3.3352   -9.0583   35.2618 C   0  0  0  0  0  0  0  0  0  0  0  0
   -3.4978   -8.3509   33.9481 O   0  0  0  0  0  0  0  0  0  0  0  0
    4.2621   -7.3509   27.8091 C   0  0  0  0  0  0  0  0  0  0  0  0
    4.7589   -8.1389   26.7118 N   0  0  0  0  0  0  0  0  0  0  0  0
   -0.5356   -8.3350   32.6935 C   0  0  1  0  0  0  0  0  0  0  0  0
   -1.1775   -7.6250   33.7457 O   0  0  0  0  0  0  0  0  0  0  0  0
   -3.2619   -8.8264   37.7574 C   0  0  0  0  0  0  0  0  0  0  0  0
   -1.3540   -4.9616   37.5415 C   0  0  0  0  0  0  0  0  0  0  0  0
  1  2  1  6  0  0  0
  1  6  1  0  0  0  0
  1 21  1  0  0  0  0
  3  4  1  1  0  0  0
  3  8  1  0  0  0  0
  3 28  1  0  0  0  0
  5  9  1  0  0  0  0
  5 25  1  0  0  0  0
  5 29  1  1  0  0  0
  6  7  1  6  0  0  0
  6 11  1  0  0  0  0
  8 12  1  0  0  0  0
  9 10  1  6  0  0  0
  9 14  1  0  0  0  0
 11 16  1  0  0  0  0
 12 13  1  6  0  0  0
 12 17  1  0  0  0  0
 14 15  1  1  0  0  0
 14 18  1  0  0  0  0
 15 31  1  0  0  0  0
 16 20  1  0  0  0  0
 17  2  1  6  0  0  0
 17 22  1  0  0  0  0
 18 19  1  6  0  0  0
 18 24  1  0  0  0  0
 18 30  1  0  0  0  0
 20 21  1  0  0  0  0
 20 26  1  1  0  0  0
 22 23  1  1  0  0  0
 22 28  1  0  0  0  0
 24 25  1  0  0  0  0
 26 27  1  0  0  0  0
 28 29  1  1  0  0  0
M  END
>  <CHROM.1>
-165.11703950,-163.35708631,-81.67030657,-173.45492410,-63.13193462,-60.97092794
-0.66689550,-7.47470674,31.89526788,-0.18385384,1.03613946,0.24653829

>  <Name>
2et3_lig

>  <RI>
3.50789e+07

>  <Rbt.Current_Directory>
/home/itssahil/PROJECTS/Mol_Feturizer/New_Systems/rnas/2et3

>  <Rbt.Executable>
rbdock ($Id: //depot/dev/client3/rdock/2013.1/src/exe/rbdock.cxx#4 $)

>  <Rbt.Library>
libRbt.so (2013.1, Build901 2013/11/27)

>  <Rbt.Parameter_File>
/export/apps/rDock/src/rDock_2013.1_src/data/scripts/dock_solv.prm

>  <Rbt.Receptor>
prm/pocket_docking_4.prm

>  <SCORE>
-31.1668

>  <SCORE.INTER>
-21.8866

>  <SCORE.INTER.CONST>
1

>  <SCORE.INTER.POLAR>
-1.56143

>  <SCORE.INTER.ROT>
6

>  <SCORE.INTER.SOLV>
16.1934

>  <SCORE.INTER.VDW>
-22.3841

>  <SCORE.INTER.norm>
-0.70602

>  <SCORE.INTRA>
-9.38672

>  <SCORE.INTRA.DIHEDRAL>
-19.1847

>  <SCORE.INTRA.DIHEDRAL.0>
22.2484

>  <SCORE.INTRA.POLAR>
0

>  <SCORE.INTRA.POLAR.0>
0

>  <SCORE.INTRA.REPUL>
0

>  <SCORE.INTRA.REPUL.0>
0

>  <SCORE.INTRA.SOLV>
-1.58145

>  <SCORE.INTRA.SOLV.lig_0>
-75.7198

>  <SCORE.INTRA.VDW>
0.99634

>  <SCORE.INTRA.VDW.0>
-3.34171

>  <SCORE.INTRA.norm>
-0.302797

>  <SCORE.RESTR>
0.106586

>  <SCORE.RESTR.CAVITY>
0.106586

>  <SCORE.RESTR.norm>
0.00343827

>  <SCORE.SYSTEM>
0

>  <SCORE.SYSTEM.CONST>
0

>  <SCORE.SYSTEM.DIHEDRAL>
0

>  <SCORE.SYSTEM.SOLV>
0

>  <SCORE.SYSTEM.norm>
0

>  <SCORE.heavy>
31

>  <SCORE.norm>
-1.00538

>  <RMSD>
2.635

$$$$
2et3_lig
 OpenBabel11021811423D
libRbt.so/2013.1/901 2013/11/27
 31 33  0  0  0  0  0  0  0  0999 V2000
   -1.5534   -6.1775   29.5284 C   0  0  2  0  0  0  0  0  0  0  0  0
   -2.5726   -7.1290   29.1258 O   0  0  0  0  0  0  0  0  0  0  0  0
   -4.4007  -10.3396   31.2836 C   0  0  2  0  0  0  0  0  0  0  0  0
   -4.5258  -11.5487   32.0374 N   0  0  0  0  0  0  0  0  0  0  0  0
   -4.2949  -10.0367   34.3927 C   0  0  2  0  0  0  0  0  0  0  0  0
   -1.6651   -4.9076   28.6780 C   0  0  2  0  0  0  0  0  0  0  0  0
   -2.9907   -4.3863   28.8087 N   0  0  0  0  0  0  0  0  0  0  0  0
   -3.7551  -10.6542   29.8957 C   0  0  0  0  0  0  0  0  0  0  0  0
   -5.0990   -9.3435   35.5145 C   0  0  2  0  0  0  0  0  0  0  0  0
   -6.3546   -8.9550   35.0037 O   0  0  0  0  0  0  0  0  0  0  0  0
   -1.3038   -5.2161   27.1847 C   0  0  0  0  0  0  0  0  0  0  0  0
   -3.6055   -9.3285   29.0631 C   0  0  2  0  0  0  0  0  0  0  0  0
   -2.9974   -9.6193   27.7549 N   0  0  0  0  0  0  0  0  0  0  0  0
   -4.2588   -8.1005   36.0206 C   0  0  1  0  0  0  0  0  0  0  0  0
   -4.9922   -7.3391   37.0842 N   0  0  0  0  0  0  0  0  0  0  0  0
    0.1628   -5.7491   27.1430 C   0  0  0  0  0  0  0  0  0  0  0  0
   -2.7262   -8.2963   29.8681 C   0  0  2  0  0  0  0  0  0  0  0  0
   -2.8197   -8.5884   36.5816 C   0  0  1  0  0  0  0  0  0  0  0  0
   -2.9659   -9.4460   37.6945 O   0  0  0  0  0  0  0  0  0  0  0  0
    0.2561   -7.0494   28.0570 C   0  0  2  0  0  0  0  0  0  0  0  0
   -0.2063   -6.8020   29.4217 O   0  0  0  0  0  0  0  0  0  0  0  0
   -3.4019   -8.0016   31.2625 C   0  0  2  0  0  0  0  0  0  0  0  0
   -2.6249   -7.0676   32.0053 O   0  0  0  0  0  0  0  0  0  0  0  0
   -2.0802   -9.3860   35.4633 C   0  0  0  0  0  0  0  0  0  0  0  0
   -2.9642  -10.4663   34.9117 O   0  0  0  0  0  0  0  0  0  0  0  0
    1.6271   -7.6824   28.0930 C   0  0  0  0  0  0  0  0  0  0  0  0
    2.5496   -6.9159   28.8889 N   0  0  0  0  0  0  0  0  0  0  0  0
   -3.5442   -9.3351   32.0773 C   0  0  1  0  0  0  0  0  0  0  0  0
   -4.1612   -9.0497   33.3267 O   0  0  0  0  0  0  0  0  0  0  0  0
   -1.8726   -7.4975   37.0997 C   0  0  0  0  0  0  0  0  0  0  0  0
   -4.8802   -5.8711   37.0567 C   0  0  0  0  0  0  0  0  0  0  0  0
  1  2  1  6  0  0  0
  1  6  1  0  0  0  0
  1 21  1  0  0  0  0
  3  4  1  1  0  0  0
  3  8  1  0  0  0  0
  3 28  1  0  0  0  0
  5  9  1  0  0  0  0
  5 25  1  0  0  0  0
  5 29  1  6  0  0  0
  6  7  1  6  0  0  0
  6 11  1  0  0  0  0
  8 12  1  0  0  0  0
  9 10  1  6  0  0  0
  9 14  1  0  0  0  0
 11 16  1  0  0  0  0
 12 13  1  6  0  0  0
 12 17  1  0  0  0  0
 14 15  1  1  0  0  0
 14 18  1  0  0  0  0
 15 31  1  0  0  0  0
 16 20  1  0  0  0  0
 17  2  1  6  0  0  0
 17 22  1  0  0  0  0
 18 19  1  1  0  0  0
 18 24  1  0  0  0  0
 18 30  1  0  0  0  0
 20 21  1  0  0  0  0
 20 26  1  1  0  0  0
 22 23  1  1  0  0  0
 22 28  1  0  0  0  0
 24 25  1  0  0  0  0
 26 27  1  0  0  0  0
 28 29  1  1  0  0  0
M  END
>  <CHROM.1>
-173.63582110,-176.22462601,-141.71783359,-165.68554228,74.10570542,67.40341208
-2.71561980,-8.07096772,31.99707655,-0.93312590,0.87251651,1.31066466

>  <Name>
2et3_lig

>  <RI>
2.5794e+07

>  <Rbt.Current_Directory>
/home/itssahil/PROJECTS/Mol_Feturizer/New_Systems/rnas/2et3

>  <Rbt.Executable>
rbdock ($Id: //depot/dev/client3/rdock/2013.1/src/exe/rbdock.cxx#4 $)

>  <Rbt.Library>
libRbt.so (2013.1, Build901 2013/11/27)

>  <Rbt.Parameter_File>
/export/apps/rDock/src/rDock_2013.1_src/data/scripts/dock_solv.prm

>  <Rbt.Receptor>
prm/pocket_docking_5.prm

>  <SCORE>
-26.4571

>  <SCORE.INTER>
-16.4748

>  <SCORE.INTER.CONST>
1

>  <SCORE.INTER.POLAR>
-0.926414

>  <SCORE.INTER.ROT>
6

>  <SCORE.INTER.SOLV>
13.3649

>  <SCORE.INTER.VDW>
-19.9501

>  <SCORE.INTER.norm>
-0.531445

>  <SCORE.INTRA>
-9.98228

>  <SCORE.INTRA.DIHEDRAL>
-19.05

>  <SCORE.INTRA.DIHEDRAL.0>
22.2484

>  <SCORE.INTRA.POLAR>
0

>  <SCORE.INTRA.POLAR.0>
0

>  <SCORE.INTRA.REPUL>
0

>  <SCORE.INTRA.REPUL.0>
0

>  <SCORE.INTRA.SOLV>
-1.95361

>  <SCORE.INTRA.SOLV.lig_0>
-75.7198

>  <SCORE.INTRA.VDW>
0.519539

>  <SCORE.INTRA.VDW.0>
-3.34171

>  <SCORE.INTRA.norm>
-0.322009

>  <SCORE.RESTR>
0

>  <SCORE.RESTR.CAVITY>
0

>  <SCORE.RESTR.norm>
0

>  <SCORE.SYSTEM>
0

>  <SCORE.SYSTEM.CONST>
0

>  <SCORE.SYSTEM.DIHEDRAL>
0

>  <SCORE.SYSTEM.SOLV>
0

>  <SCORE.SYSTEM.norm>
0

>  <SCORE.heavy>
31

>  <SCORE.norm>
-0.853454

>  <RMSD>
2.691

$$$$
2et3_lig
 OpenBabel11021811423D
libRbt.so/2013.1/901 2013/11/27
 31 33  0  0  0  0  0  0  0  0999 V2000
    0.6175   -6.2407   28.9603 C   0  0  2  0  0  0  0  0  0  0  0  0
   -0.1048   -7.4993   28.9871 O   0  0  0  0  0  0  0  0  0  0  0  0
   -1.4269   -9.6075   32.4676 C   0  0  2  0  0  0  0  0  0  0  0  0
   -1.3712  -10.3967   33.6590 N   0  0  0  0  0  0  0  0  0  0  0  0
   -2.4688   -6.9719   33.7373 C   0  0  2  0  0  0  0  0  0  0  0  0
    0.1975   -5.4283   27.7308 C   0  0  2  0  0  0  0  0  0  0  0  0
   -1.2215   -5.2507   27.7643 N   0  0  0  0  0  0  0  0  0  0  0  0
   -0.8744  -10.4382   31.2648 C   0  0  0  0  0  0  0  0  0  0  0  0
   -2.4933   -5.9505   34.8956 C   0  0  2  0  0  0  0  0  0  0  0  0
   -1.4838   -4.9899   34.6793 O   0  0  0  0  0  0  0  0  0  0  0  0
    0.6654   -6.1432   26.4172 C   0  0  0  0  0  0  0  0  0  0  0  0
   -0.9238   -9.5748   29.9513 C   0  0  2  0  0  0  0  0  0  0  0  0
   -0.4040  -10.3527   28.8154 N   0  0  0  0  0  0  0  0  0  0  0  0
   -2.2729   -6.7420   36.2491 C   0  0  1  0  0  0  0  0  0  0  0  0
   -2.2358   -5.8147   37.4270 N   0  0  0  0  0  0  0  0  0  0  0  0
    2.2211   -6.2637   26.4610 C   0  0  0  0  0  0  0  0  0  0  0  0
   -0.0823   -8.2568   30.1545 C   0  0  2  0  0  0  0  0  0  0  0  0
   -3.4420   -7.8451   36.4494 C   0  0  1  0  0  0  0  0  0  0  0  0
   -4.7121   -7.2351   36.5507 O   0  0  0  0  0  0  0  0  0  0  0  0
    2.6297   -7.0857   27.7618 C   0  0  2  0  0  0  0  0  0  0  0  0
    2.0837   -6.4971   28.9836 O   0  0  0  0  0  0  0  0  0  0  0  0
   -0.6622   -7.4429   31.3748 C   0  0  2  0  0  0  0  0  0  0  0  0
    0.0820   -6.2453   31.5738 O   0  0  0  0  0  0  0  0  0  0  0  0
   -3.4688   -8.7908   35.2091 C   0  0  0  0  0  0  0  0  0  0  0  0
   -3.5356   -7.9947   33.9384 O   0  0  0  0  0  0  0  0  0  0  0  0
    4.1176   -7.2930   27.9198 C   0  0  0  0  0  0  0  0  0  0  0  0
    4.6703   -8.0546   26.8307 N   0  0  0  0  0  0  0  0  0  0  0  0
   -0.6063   -8.3205   32.6744 C   0  0  1  0  0  0  0  0  0  0  0  0
   -1.1394   -7.5725   33.7605 O   0  0  0  0  0  0  0  0  0  0  0  0
   -3.3662   -8.7126   37.7132 C   0  0  0  0  0  0  0  0  0  0  0  0
   -0.9130   -5.3390   37.8652 C   0  0  0  0  0  0  0  0  0  0  0  0
  1  2  1  6  0  0  0
  1  6  1  0  0  0  0
  1 21  1  0  0  0  0
  3  4  1  1  0  0  0
  3  8  1  0  0  0  0
  3 28  1  0  0  0  0
  5  9  1  0  0  0  0
  5 25  1  0  0  0  0
  5 29  1  1  0  0  0
  6  7  1  6  0  0  0
  6 11  1  0  0  0  0
  8 12  1  0  0  0  0
  9 10  1  6  0  0  0
  9 14  1  0  0  0  0
 11 16  1  0  0  0  0
 12 13  1  6  0  0  0
 12 17  1  0  0  0  0
 14 15  1  1  0  0  0
 14 18  1  0  0  0  0
 15 31  1  0  0  0  0
 16 20  1  0  0  0  0
 17  2  1  6  0  0  0
 17 22  1  0  0  0  0
 18 19  1  1  0  0  0
 18 24  1  0  0  0  0
 18 30  1  0  0  0  0
 20 21  1  0  0  0  0
 20 26  1  1  0  0  0
 22 23  1  1  0  0  0
 22 28  1  0  0  0  0
 24 25  1  0  0  0  0
 26 27  1  0  0  0  0
 28 29  1  1  0  0  0
M  END
>  <CHROM.1>
-166.73645603,-164.49769198,-93.54139298,-179.78988286,-61.93230131,-65.18273116
-0.71943988,-7.40907646,31.91954884,-0.46247144,1.01202118,0.55469160

>  <Name>
2et3_lig

>  <RI>
2.5794e+07

>  <Rbt.Current_Directory>
/home/itssahil/PROJECTS/Mol_Feturizer/New_Systems/rnas/2et3

>  <Rbt.Executable>
rbdock ($Id: //depot/dev/client3/rdock/2013.1/src/exe/rbdock.cxx#4 $)

>  <Rbt.Library>
libRbt.so (2013.1, Build901 2013/11/27)

>  <Rbt.Parameter_File>
/export/apps/rDock/src/rDock_2013.1_src/data/scripts/dock_solv.prm

>  <Rbt.Receptor>
prm/pocket_docking_5.prm

>  <SCORE>
-32.3328

>  <SCORE.INTER>
-22.8602

>  <SCORE.INTER.CONST>
1

>  <SCORE.INTER.POLAR>
-1.63398

>  <SCORE.INTER.ROT>
6

>  <SCORE.INTER.SOLV>
15.3025

>  <SCORE.INTER.VDW>
-22.4944

>  <SCORE.INTER.norm>
-0.737426

>  <SCORE.INTRA>
-9.47259

>  <SCORE.INTRA.DIHEDRAL>
-19.2857

>  <SCORE.INTRA.DIHEDRAL.0>
22.2484

>  <SCORE.INTRA.POLAR>
0

>  <SCORE.INTRA.POLAR.0>
0

>  <SCORE.INTRA.REPUL>
0

>  <SCORE.INTRA.REPUL.0>
0

>  <SCORE.INTRA.SOLV>
-1.8985

>  <SCORE.INTRA.SOLV.lig_0>
-75.7198

>  <SCORE.INTRA.VDW>
1.1195

>  <SCORE.INTRA.VDW.0>
-3.34171

>  <SCORE.INTRA.norm>
-0.305568

>  <SCORE.RESTR>
0

>  <SCORE.RESTR.CAVITY>
0

>  <SCORE.RESTR.norm>
0

>  <SCORE.SYSTEM>
0

>  <SCORE.SYSTEM.CONST>
0

>  <SCORE.SYSTEM.DIHEDRAL>
0

>  <SCORE.SYSTEM.SOLV>
0

>  <SCORE.SYSTEM.norm>
0

>  <SCORE.heavy>
31

>  <SCORE.norm>
-1.04299

>  <RMSD>
2.719

$$$$
2et3_lig
 OpenBabel11021811423D
libRbt.so/2013.1/901 2013/11/27
 31 33  0  0  0  0  0  0  0  0999 V2000
    0.4203   -6.3869   29.0199 C   0  0  2  0  0  0  0  0  0  0  0  0
   -0.3294   -7.6263   28.9305 O   0  0  0  0  0  0  0  0  0  0  0  0
   -1.7673   -9.6726   32.4020 C   0  0  2  0  0  0  0  0  0  0  0  0
   -1.7814  -10.5491   33.5321 N   0  0  0  0  0  0  0  0  0  0  0  0
   -1.9881   -6.8771   33.8771 C   0  0  2  0  0  0  0  0  0  0  0  0
    0.0267   -5.4587   27.8658 C   0  0  2  0  0  0  0  0  0  0  0  0
   -1.3883   -5.2532   27.9081 N   0  0  0  0  0  0  0  0  0  0  0  0
   -1.5268  -10.5031   31.1002 C   0  0  0  0  0  0  0  0  0  0  0  0
   -1.6757   -6.0377   35.1354 C   0  0  2  0  0  0  0  0  0  0  0  0
   -0.4181   -5.4209   34.9727 O   0  0  0  0  0  0  0  0  0  0  0  0
    0.4879   -6.0638   26.4959 C   0  0  0  0  0  0  0  0  0  0  0  0
   -1.5011   -9.5460   29.8527 C   0  0  2  0  0  0  0  0  0  0  0  0
   -1.2743  -10.3234   28.6240 N   0  0  0  0  0  0  0  0  0  0  0  0
   -1.6987   -7.0072   36.3870 C   0  0  1  0  0  0  0  0  0  0  0  0
   -1.3572   -6.2779   37.6521 N   0  0  0  0  0  0  0  0  0  0  0  0
    2.0403   -6.2225   26.5365 C   0  0  0  0  0  0  0  0  0  0  0  0
   -0.3709   -8.4627   30.0422 C   0  0  2  0  0  0  0  0  0  0  0  0
   -3.1528   -7.7070   36.5266 C   0  0  1  0  0  0  0  0  0  0  0  0
   -4.1652   -6.7478   36.7512 O   0  0  0  0  0  0  0  0  0  0  0  0
    2.4219   -7.1662   27.7606 C   0  0  2  0  0  0  0  0  0  0  0  0
    1.8804   -6.6769   29.0274 O   0  0  0  0  0  0  0  0  0  0  0  0
   -0.6401   -7.6441   31.3632 C   0  0  2  0  0  0  0  0  0  0  0  0
    0.3683   -6.6566   31.5518 O   0  0  0  0  0  0  0  0  0  0  0  0
   -3.4911   -8.4497   35.1972 C   0  0  0  0  0  0  0  0  0  0  0  0
   -3.3199   -7.5331   34.0211 O   0  0  0  0  0  0  0  0  0  0  0  0
    3.9038   -7.4200   27.9068 C   0  0  0  0  0  0  0  0  0  0  0  0
    4.1776   -8.7749   28.3079 N   0  0  0  0  0  0  0  0  0  0  0  0
   -0.6640   -8.6153   32.5954 C   0  0  1  0  0  0  0  0  0  0  0  0
   -0.9149   -7.8600   33.7744 O   0  0  0  0  0  0  0  0  0  0  0  0
   -3.3380   -8.6930   37.6881 C   0  0  0  0  0  0  0  0  0  0  0  0
   -1.9281   -4.9318   37.8258 C   0  0  0  0  0  0  0  0  0  0  0  0
  1  2  1  6  0  0  0
  1  6  1  0  0  0  0
  1 21  1  0  0  0  0
  3  4  1  1  0  0  0
  3  8  1  0  0  0  0
  3 28  1  0  0  0  0
  5  9  1  0  0  0  0
  5 25  1  0  0  0  0
  5 29  1  1  0  0  0
  6  7  1  6  0  0  0
  6 11  1  0  0  0  0
  8 12  1  0  0  0  0
  9 10  1  6  0  0  0
  9 14  1  0  0  0  0
 11 16  1  0  0  0  0
 12 13  1  6  0  0  0
 12 17  1  0  0  0  0
 14 15  1  1  0  0  0
 14 18  1  0  0  0  0
 15 31  1  0  0  0  0
 16 20  1  0  0  0  0
 17  2  1  6  0  0  0
 17 22  1  0  0  0  0
 18 19  1  1  0  0  0
 18 24  1  0  0  0  0
 18 30  1  0  0  0  0
 20 21  1  0  0  0  0
 20 26  1  1  0  0  0
 22 23  1  1  0  0  0
 22 28  1  0  0  0  0
 24 25  1  0  0  0  0
 26 27  1  0  0  0  0
 28 29  1  1  0  0  0
M  END
>  <CHROM.1>
-164.47206376,-164.99010801,40.74837001,166.23438255,-141.80693371,-72.06887625
-0.74784753,-7.47899780,31.99779479,-0.75554975,0.95144965,0.85620761

>  <Name>
2et3_lig

>  <RI>
3.50789e+07

>  <Rbt.Current_Directory>
/home/itssahil/PROJECTS/Mol_Feturizer/New_Systems/rnas/2et3

>  <Rbt.Executable>
rbdock ($Id: //depot/dev/client3/rdock/2013.1/src/exe/rbdock.cxx#4 $)

>  <Rbt.Library>
libRbt.so (2013.1, Build901 2013/11/27)

>  <Rbt.Parameter_File>
/export/apps/rDock/src/rDock_2013.1_src/data/scripts/dock_solv.prm

>  <Rbt.Receptor>
prm/pocket_docking_4.prm

>  <SCORE>
-25.016

>  <SCORE.INTER>
-20.5438

>  <SCORE.INTER.CONST>
1

>  <SCORE.INTER.POLAR>
-1.58301

>  <SCORE.INTER.ROT>
6

>  <SCORE.INTER.SOLV>
17.3741

>  <SCORE.INTER.VDW>
-21.8105

>  <SCORE.INTER.norm>
-0.662703

>  <SCORE.INTRA>
-4.48351

>  <SCORE.INTRA.DIHEDRAL>
-14.4327

>  <SCORE.INTRA.DIHEDRAL.0>
22.2484

>  <SCORE.INTRA.POLAR>
0

>  <SCORE.INTRA.POLAR.0>
0

>  <SCORE.INTRA.REPUL>
0

>  <SCORE.INTRA.REPUL.0>
0

>  <SCORE.INTRA.SOLV>
-2.30003

>  <SCORE.INTRA.SOLV.lig_0>
-75.7198

>  <SCORE.INTRA.VDW>
3.88284

>  <SCORE.INTRA.VDW.0>
-3.34171

>  <SCORE.INTRA.norm>
-0.144629

>  <SCORE.RESTR>
0.0112719

>  <SCORE.RESTR.CAVITY>
0.0112719

>  <SCORE.RESTR.norm>
0.000363609

>  <SCORE.SYSTEM>
0

>  <SCORE.SYSTEM.CONST>
0

>  <SCORE.SYSTEM.DIHEDRAL>
0

>  <SCORE.SYSTEM.SOLV>
0

>  <SCORE.SYSTEM.norm>
0

>  <SCORE.heavy>
31

>  <SCORE.norm>
-0.806969

>  <RMSD>
2.732

$$$$
2et3_lig
 OpenBabel11021811423D
libRbt.so/2013.1/901 2013/11/27
 31 33  0  0  0  0  0  0  0  0999 V2000
   -1.9454   -5.9476   29.4523 C   0  0  2  0  0  0  0  0  0  0  0  0
   -2.7303   -7.1094   29.0776 O   0  0  0  0  0  0  0  0  0  0  0  0
   -4.0359  -10.4463   31.4157 C   0  0  2  0  0  0  0  0  0  0  0  0
   -3.9718  -11.6006   32.2577 N   0  0  0  0  0  0  0  0  0  0  0  0
   -4.2655   -9.9710   34.4329 C   0  0  2  0  0  0  0  0  0  0  0  0
   -2.3175   -4.7603   28.5577 C   0  0  2  0  0  0  0  0  0  0  0  0
   -3.7259   -4.5335   28.6632 N   0  0  0  0  0  0  0  0  0  0  0  0
   -3.2744  -10.7308   30.0810 C   0  0  0  0  0  0  0  0  0  0  0  0
   -5.0667   -9.2720   35.5532 C   0  0  2  0  0  0  0  0  0  0  0  0
   -6.3271   -8.8943   35.0463 O   0  0  0  0  0  0  0  0  0  0  0  0
   -1.8793   -5.0323   27.0781 C   0  0  0  0  0  0  0  0  0  0  0  0
   -3.3322   -9.4632   29.1520 C   0  0  2  0  0  0  0  0  0  0  0  0
   -2.6159   -9.7259   27.8936 N   0  0  0  0  0  0  0  0  0  0  0  0
   -4.2299   -8.0205   36.0436 C   0  0  1  0  0  0  0  0  0  0  0  0
   -4.9611   -7.2535   37.1047 N   0  0  0  0  0  0  0  0  0  0  0  0
   -0.3319   -5.2372   27.0627 C   0  0  0  0  0  0  0  0  0  0  0  0
   -2.7014   -8.2290   29.9039 C   0  0  2  0  0  0  0  0  0  0  0  0
   -2.7852   -8.4962   36.6005 C   0  0  1  0  0  0  0  0  0  0  0  0
   -2.9206   -9.3449   37.7217 O   0  0  0  0  0  0  0  0  0  0  0  0
    0.0280   -6.4560   28.0217 C   0  0  2  0  0  0  0  0  0  0  0  0
   -0.4941   -6.2696   29.3745 O   0  0  0  0  0  0  0  0  0  0  0  0
   -3.4890   -7.9691   31.2455 C   0  0  2  0  0  0  0  0  0  0  0  0
   -2.9373   -6.8548   31.9395 O   0  0  0  0  0  0  0  0  0  0  0  0
   -2.0480   -9.2999   35.4850 C   0  0  0  0  0  0  0  0  0  0  0  0
   -2.9296  -10.3894   34.9479 O   0  0  0  0  0  0  0  0  0  0  0  0
    1.5027   -6.7765   28.0869 C   0  0  0  0  0  0  0  0  0  0  0  0
    1.8169   -7.6246   29.2066 N   0  0  0  0  0  0  0  0  0  0  0  0
   -3.4217   -9.2442   32.1576 C   0  0  1  0  0  0  0  0  0  0  0  0
   -4.1428   -8.9927   33.3576 O   0  0  0  0  0  0  0  0  0  0  0  0
   -1.8406   -7.3961   37.1036 C   0  0  0  0  0  0  0  0  0  0  0  0
   -4.8845   -5.7843   37.0438 C   0  0  0  0  0  0  0  0  0  0  0  0
  1  2  1  6  0  0  0
  1  6  1  0  0  0  0
  1 21  1  0  0  0  0
  3  4  1  1  0  0  0
  3  8  1  0  0  0  0
  3 28  1  0  0  0  0
  5  9  1  0  0  0  0
  5 25  1  0  0  0  0
  5 29  1  6  0  0  0
  6  7  1  6  0  0  0
  6 11  1  0  0  0  0
  8 12  1  0  0  0  0
  9 10  1  6  0  0  0
  9 14  1  0  0  0  0
 11 16  1  0  0  0  0
 12 13  1  6  0  0  0
 12 17  1  0  0  0  0
 14 15  1  1  0  0  0
 14 18  1  0  0  0  0
 15 31  1  0  0  0  0
 16 20  1  0  0  0  0
 17  2  1  6  0  0  0
 17 22  1  0  0  0  0
 18 19  1  1  0  0  0
 18 24  1  0  0  0  0
 18 30  1  0  0  0  0
 20 21  1  0  0  0  0
 20 26  1  1  0  0  0
 22 23  1  1  0  0  0
 22 28  1  0  0  0  0
 24 25  1  0  0  0  0
 26 27  1  0  0  0  0
 28 29  1  1  0  0  0
M  END
>  <CHROM.1>
-169.76124106,177.63007176,-140.21721950,-166.75315913,164.66412345,60.41988136
-2.78914762,-7.96742946,32.02018765,-0.67981929,1.13163203,1.00053089

>  <Name>
2et3_lig

>  <RI>
2.5794e+07

>  <Rbt.Current_Directory>
/home/itssahil/PROJECTS/Mol_Feturizer/New_Systems/rnas/2et3

>  <Rbt.Executable>
rbdock ($Id: //depot/dev/client3/rdock/2013.1/src/exe/rbdock.cxx#4 $)

>  <Rbt.Library>
libRbt.so (2013.1, Build901 2013/11/27)

>  <Rbt.Parameter_File>
/export/apps/rDock/src/rDock_2013.1_src/data/scripts/dock_solv.prm

>  <Rbt.Receptor>
prm/pocket_docking_5.prm

>  <SCORE>
-26.0006

>  <SCORE.INTER>
-16.4262

>  <SCORE.INTER.CONST>
1

>  <SCORE.INTER.POLAR>
-0.938083

>  <SCORE.INTER.ROT>
6

>  <SCORE.INTER.SOLV>
11.5624

>  <SCORE.INTER.VDW>
-19.278

>  <SCORE.INTER.norm>
-0.529879

>  <SCORE.INTRA>
-9.57438

>  <SCORE.INTRA.DIHEDRAL>
-19.0923

>  <SCORE.INTRA.DIHEDRAL.0>
22.2484

>  <SCORE.INTRA.POLAR>
0

>  <SCORE.INTRA.POLAR.0>
0

>  <SCORE.INTRA.REPUL>
0

>  <SCORE.INTRA.REPUL.0>
0

>  <SCORE.INTRA.SOLV>
-1.98051

>  <SCORE.INTRA.SOLV.lig_0>
-75.7198

>  <SCORE.INTRA.VDW>
0.96201

>  <SCORE.INTRA.VDW.0>
-3.34171

>  <SCORE.INTRA.norm>
-0.308851

>  <SCORE.RESTR>
0

>  <SCORE.RESTR.CAVITY>
0

>  <SCORE.RESTR.norm>
0

>  <SCORE.SYSTEM>
0

>  <SCORE.SYSTEM.CONST>
0

>  <SCORE.SYSTEM.DIHEDRAL>
0

>  <SCORE.SYSTEM.SOLV>
0

>  <SCORE.SYSTEM.norm>
0

>  <SCORE.heavy>
31

>  <SCORE.norm>
-0.83873

>  <RMSD>
2.754

$$$$
2et3_lig
 OpenBabel11021811423D
libRbt.so/2013.1/901 2013/11/27
 31 33  0  0  0  0  0  0  0  0999 V2000
   -0.5112   -8.0445   28.9683 C   0  0  2  0  0  0  0  0  0  0  0  0
    0.4868   -8.6586   29.8245 O   0  0  0  0  0  0  0  0  0  0  0  0
   -1.9546  -11.5247   31.8569 C   0  0  2  0  0  0  0  0  0  0  0  0
   -2.3122  -12.6317   32.6890 N   0  0  0  0  0  0  0  0  0  0  0  0
   -2.1134  -10.6297   35.0757 C   0  0  2  0  0  0  0  0  0  0  0  0
    0.1482   -6.9806   28.0842 C   0  0  2  0  0  0  0  0  0  0  0  0
    1.2081   -7.5945   27.3454 N   0  0  0  0  0  0  0  0  0  0  0  0
   -1.0473  -12.0233   30.6863 C   0  0  0  0  0  0  0  0  0  0  0  0
   -3.6078  -10.7755   35.4378 C   0  0  2  0  0  0  0  0  0  0  0  0
   -4.2358  -11.5857   34.4695 O   0  0  0  0  0  0  0  0  0  0  0  0
    0.6616   -5.7854   28.9579 C   0  0  0  0  0  0  0  0  0  0  0  0
   -0.6417  -10.8107   29.7707 C   0  0  2  0  0  0  0  0  0  0  0  0
    0.2134  -11.2750   28.6667 N   0  0  0  0  0  0  0  0  0  0  0  0
   -4.2405   -9.3251   35.4924 C   0  0  1  0  0  0  0  0  0  0  0  0
   -5.7086   -9.3780   35.7934 N   0  0  0  0  0  0  0  0  0  0  0  0
   -0.5654   -5.1665   29.6983 C   0  0  0  0  0  0  0  0  0  0  0  0
    0.1064   -9.7243   30.6348 C   0  0  2  0  0  0  0  0  0  0  0  0
   -3.4798   -8.4238   36.6026 C   0  0  1  0  0  0  0  0  0  0  0  0
   -3.6291   -8.9689   37.8972 O   0  0  0  0  0  0  0  0  0  0  0  0
   -1.2473   -6.2996   30.5848 C   0  0  2  0  0  0  0  0  0  0  0  0
   -1.6098   -7.4765   29.7969 O   0  0  0  0  0  0  0  0  0  0  0  0
   -0.8329   -9.2436   31.8072 C   0  0  2  0  0  0  0  0  0  0  0  0
   -0.1772   -8.2582   32.5989 O   0  0  0  0  0  0  0  0  0  0  0  0
   -1.9548   -8.3916   36.2757 C   0  0  0  0  0  0  0  0  0  0  0  0
   -1.4239   -9.7834   36.0921 O   0  0  0  0  0  0  0  0  0  0  0  0
   -2.4460   -5.8289   31.3743 C   0  0  0  0  0  0  0  0  0  0  0  0
   -3.5546   -5.4986   30.5178 N   0  0  0  0  0  0  0  0  0  0  0  0
   -1.2279  -10.4662   32.7079 C   0  0  1  0  0  0  0  0  0  0  0  0
   -2.0796  -10.0139   33.7536 O   0  0  0  0  0  0  0  0  0  0  0  0
   -3.9653   -6.9776   36.7714 C   0  0  0  0  0  0  0  0  0  0  0  0
   -6.6202   -9.5807   34.6549 C   0  0  0  0  0  0  0  0  0  0  0  0
  1  2  1  1  0  0  0
  1  6  1  0  0  0  0
  1 21  1  0  0  0  0
  3  4  1  1  0  0  0
  3  8  1  0  0  0  0
  3 28  1  0  0  0  0
  5  9  1  0  0  0  0
  5 25  1  0  0  0  0
  5 29  1  6  0  0  0
  6  7  1  1  0  0  0
  6 11  1  0  0  0  0
  8 12  1  0  0  0  0
  9 10  1  6  0  0  0
  9 14  1  0  0  0  0
 11 16  1  0  0  0  0
 12 13  1  6  0  0  0
 12 17  1  0  0  0  0
 14 15  1  1  0  0  0
 14 18  1  0  0  0  0
 15 31  1  0  0  0  0
 16 20  1  0  0  0  0
 17  2  1  6  0  0  0
 17 22  1  0  0  0  0
 18 19  1  1  0  0  0
 18 24  1  0  0  0  0
 18 30  1  0  0  0  0
 20 21  1  0  0  0  0
 20 26  1  6  0  0  0
 22 23  1  1  0  0  0
 22 28  1  0  0  0  0
 24 25  1  0  0  0  0
 26 27  1  0  0  0  0
 28 29  1  1  0  0  0
M  END
>  <CHROM.1>
-175.20899108,-135.19999328,-85.00861687,50.95783576,68.03515325,90.93498068
-1.89924172,-8.93592024,32.46004065,0.40010633,1.03623661,-0.20204037

>  <Name>
2et3_lig

>  <RI>
0

>  <Rbt.Current_Directory>
/home/itssahil/PROJECTS/Mol_Feturizer/New_Systems/rnas/2et3

>  <Rbt.Executable>
rbdock ($Id: //depot/dev/client3/rdock/2013.1/src/exe/rbdock.cxx#4 $)

>  <Rbt.Library>
libRbt.so (2013.1, Build901 2013/11/27)

>  <Rbt.Parameter_File>
/export/apps/rDock/src/rDock_2013.1_src/data/scripts/dock_solv.prm

>  <Rbt.Receptor>
prm/pocket_docking_3.prm

>  <SCORE>
-18.3534

>  <SCORE.INTER>
-13.211

>  <SCORE.INTER.CONST>
1

>  <SCORE.INTER.POLAR>
-0.00393946

>  <SCORE.INTER.ROT>
6

>  <SCORE.INTER.SOLV>
15.4992

>  <SCORE.INTER.VDW>
-21.5606

>  <SCORE.INTER.norm>
-0.426162

>  <SCORE.INTRA>
-5.14233

>  <SCORE.INTRA.DIHEDRAL>
-10.9988

>  <SCORE.INTRA.DIHEDRAL.0>
22.2484

>  <SCORE.INTRA.POLAR>
0

>  <SCORE.INTRA.POLAR.0>
0

>  <SCORE.INTRA.REPUL>
0

>  <SCORE.INTRA.REPUL.0>
0

>  <SCORE.INTRA.SOLV>
0.200947

>  <SCORE.INTRA.SOLV.lig_0>
-75.7198

>  <SCORE.INTRA.VDW>
0.256581

>  <SCORE.INTRA.VDW.0>
-3.34171

>  <SCORE.INTRA.norm>
-0.165882

>  <SCORE.RESTR>
0

>  <SCORE.RESTR.CAVITY>
0

>  <SCORE.RESTR.norm>
0

>  <SCORE.SYSTEM>
0

>  <SCORE.SYSTEM.CONST>
0

>  <SCORE.SYSTEM.DIHEDRAL>
0

>  <SCORE.SYSTEM.SOLV>
0

>  <SCORE.SYSTEM.norm>
0

>  <SCORE.heavy>
31

>  <SCORE.norm>
-0.592044

>  <RMSD>
2.762

$$$$
2et3_lig
 OpenBabel11021811423D
libRbt.so/2013.1/901 2013/11/27
 31 33  0  0  0  0  0  0  0  0999 V2000
   -0.5770   -8.3482   29.0188 C   0  0  2  0  0  0  0  0  0  0  0  0
   -1.9301   -8.5353   29.5088 O   0  0  0  0  0  0  0  0  0  0  0  0
   -3.9701  -11.3836   31.9648 C   0  0  2  0  0  0  0  0  0  0  0  0
   -4.1765  -12.4071   32.9424 N   0  0  0  0  0  0  0  0  0  0  0  0
   -4.5021  -10.3762   34.9035 C   0  0  2  0  0  0  0  0  0  0  0  0
    0.2634   -7.6288   30.0792 C   0  0  2  0  0  0  0  0  0  0  0  0
    0.2143   -8.3867   31.2914 N   0  0  0  0  0  0  0  0  0  0  0  0
   -3.0251  -11.9182   30.8409 C   0  0  0  0  0  0  0  0  0  0  0  0
   -5.2702   -9.3890   35.8097 C   0  0  2  0  0  0  0  0  0  0  0  0
   -6.4725   -9.0225   35.1704 O   0  0  0  0  0  0  0  0  0  0  0  0
   -0.2536   -6.1640   30.2853 C   0  0  0  0  0  0  0  0  0  0  0  0
   -2.7854  -10.7961   29.7655 C   0  0  2  0  0  0  0  0  0  0  0  0
   -1.8954  -11.2945   28.7048 N   0  0  0  0  0  0  0  0  0  0  0  0
   -4.3361   -8.1373   36.0698 C   0  0  1  0  0  0  0  0  0  0  0  0
   -5.0263   -7.1025   36.9075 N   0  0  0  0  0  0  0  0  0  0  0  0
   -0.1338   -5.4134   28.9219 C   0  0  0  0  0  0  0  0  0  0  0  0
   -2.1646   -9.5238   30.4602 C   0  0  2  0  0  0  0  0  0  0  0  0
   -2.9613   -8.6041   36.7880 C   0  0  1  0  0  0  0  0  0  0  0  0
   -3.2123   -9.1796   38.0534 O   0  0  0  0  0  0  0  0  0  0  0  0
   -0.9914   -6.1979   27.8339 C   0  0  2  0  0  0  0  0  0  0  0  0
   -0.6029   -7.6035   27.7301 O   0  0  0  0  0  0  0  0  0  0  0  0
   -3.1391   -9.0103   31.5892 C   0  0  2  0  0  0  0  0  0  0  0  0
   -2.5986   -7.8580   32.2278 O   0  0  0  0  0  0  0  0  0  0  0  0
   -2.2669   -9.6867   35.9051 C   0  0  0  0  0  0  0  0  0  0  0  0
   -3.2289  -10.7869   35.5632 O   0  0  0  0  0  0  0  0  0  0  0  0
   -0.9774   -5.5652   26.4623 C   0  0  0  0  0  0  0  0  0  0  0  0
    0.3269   -5.6288   25.8570 N   0  0  0  0  0  0  0  0  0  0  0  0
   -3.3674  -10.1431   32.6507 C   0  0  1  0  0  0  0  0  0  0  0  0
   -4.2532   -9.6636   33.6551 O   0  0  0  0  0  0  0  0  0  0  0  0
   -1.9346   -7.5062   37.0978 C   0  0  0  0  0  0  0  0  0  0  0  0
   -4.8077   -5.6918   36.5463 C   0  0  0  0  0  0  0  0  0  0  0  0
  1  2  1  1  0  0  0
  1  6  1  0  0  0  0
  1 21  1  0  0  0  0
  3  4  1  1  0  0  0
  3  8  1  0  0  0  0
  3 28  1  0  0  0  0
  5  9  1  0  0  0  0
  5 25  1  0  0  0  0
  5 29  1  6  0  0  0
  6  7  1  1  0  0  0
  6 11  1  0  0  0  0
  8 12  1  0  0  0  0
  9 10  1  6  0  0  0
  9 14  1  0  0  0  0
 11 16  1  0  0  0  0
 12 13  1  6  0  0  0
 12 17  1  0  0  0  0
 14 15  1  1  0  0  0
 14 18  1  0  0  0  0
 15 31  1  0  0  0  0
 16 20  1  0  0  0  0
 17  2  1  6  0  0  0
 17 22  1  0  0  0  0
 18 19  1  1  0  0  0
 18 24  1  0  0  0  0
 18 30  1  0  0  0  0
 20 21  1  0  0  0  0
 20 26  1  6  0  0  0
 22 23  1  1  0  0  0
 22 28  1  0  0  0  0
 24 25  1  0  0  0  0
 26 27  1  0  0  0  0
 28 29  1  1  0  0  0
M  END
>  <CHROM.1>
-75.31644160,168.48372738,-140.35805115,-101.17926342,66.99034688,70.26441973
-2.59787152,-8.66257661,32.31620753,0.54787087,-1.09615412,-2.32829455

>  <Name>
2et3_lig

>  <RI>
0

>  <Rbt.Current_Directory>
/home/itssahil/PROJECTS/Mol_Feturizer/New_Systems/rnas/2et3

>  <Rbt.Executable>
rbdock ($Id: //depot/dev/client3/rdock/2013.1/src/exe/rbdock.cxx#4 $)

>  <Rbt.Library>
libRbt.so (2013.1, Build901 2013/11/27)

>  <Rbt.Parameter_File>
/export/apps/rDock/src/rDock_2013.1_src/data/scripts/dock_solv.prm

>  <Rbt.Receptor>
prm/pocket_docking_3.prm

>  <SCORE>
-15.6368

>  <SCORE.INTER>
-9.93194

>  <SCORE.INTER.CONST>
1

>  <SCORE.INTER.POLAR>
0

>  <SCORE.INTER.ROT>
6

>  <SCORE.INTER.SOLV>
18.4129

>  <SCORE.INTER.VDW>
-20.3589

>  <SCORE.INTER.norm>
-0.320385

>  <SCORE.INTRA>
-5.70482

>  <SCORE.INTRA.DIHEDRAL>
-13.2064

>  <SCORE.INTRA.DIHEDRAL.0>
22.2484

>  <SCORE.INTRA.POLAR>
0

>  <SCORE.INTRA.POLAR.0>
0

>  <SCORE.INTRA.REPUL>
0

>  <SCORE.INTRA.REPUL.0>
0

>  <SCORE.INTRA.SOLV>
1.36717

>  <SCORE.INTRA.SOLV.lig_0>
-75.7198

>  <SCORE.INTRA.VDW>
0.214783

>  <SCORE.INTRA.VDW.0>
-3.34171

>  <SCORE.INTRA.norm>
-0.184027

>  <SCORE.RESTR>
0

>  <SCORE.RESTR.CAVITY>
0

>  <SCORE.RESTR.norm>
0

>  <SCORE.SYSTEM>
0

>  <SCORE.SYSTEM.CONST>
0

>  <SCORE.SYSTEM.DIHEDRAL>
0

>  <SCORE.SYSTEM.SOLV>
0

>  <SCORE.SYSTEM.norm>
0

>  <SCORE.heavy>
31

>  <SCORE.norm>
-0.504412

>  <RMSD>
2.882

$$$$
2et3_lig
 OpenBabel11021811423D
libRbt.so/2013.1/901 2013/11/27
 31 33  0  0  0  0  0  0  0  0999 V2000
   -1.2871   -5.8816   28.8511 C   0  0  2  0  0  0  0  0  0  0  0  0
   -2.2460   -6.9411   28.5974 O   0  0  0  0  0  0  0  0  0  0  0  0
   -4.2818   -9.4656   31.3882 C   0  0  2  0  0  0  0  0  0  0  0  0
   -4.4840  -10.4499   32.4060 N   0  0  0  0  0  0  0  0  0  0  0  0
   -4.4596   -8.4753   34.2512 C   0  0  2  0  0  0  0  0  0  0  0  0
   -1.3437   -4.8496   27.7197 C   0  0  2  0  0  0  0  0  0  0  0  0
   -2.6855   -4.3661   27.6101 N   0  0  0  0  0  0  0  0  0  0  0  0
   -3.6053  -10.1303   30.1462 C   0  0  0  0  0  0  0  0  0  0  0  0
   -5.0048   -7.4295   35.2485 C   0  0  2  0  0  0  0  0  0  0  0  0
   -6.0951   -6.7588   34.6570 O   0  0  0  0  0  0  0  0  0  0  0  0
   -0.8395   -5.4816   26.3774 C   0  0  0  0  0  0  0  0  0  0  0  0
   -3.3710   -9.0529   29.0248 C   0  0  2  0  0  0  0  0  0  0  0  0
   -2.7336   -9.6740   27.8527 N   0  0  0  0  0  0  0  0  0  0  0  0
   -3.8257   -6.4353   35.6065 C   0  0  1  0  0  0  0  0  0  0  0  0
   -4.2839   -5.3539   36.5389 N   0  0  0  0  0  0  0  0  0  0  0  0
    0.6346   -5.9499   26.5880 C   0  0  0  0  0  0  0  0  0  0  0  0
   -2.4745   -7.8867   29.5928 C   0  0  2  0  0  0  0  0  0  0  0  0
   -2.5891   -7.2475   36.2659 C   0  0  1  0  0  0  0  0  0  0  0  0
   -2.9679   -7.8642   37.4790 O   0  0  0  0  0  0  0  0  0  0  0  0
    0.6676   -6.9975   27.7864 C   0  0  2  0  0  0  0  0  0  0  0  0
    0.0759   -6.4588   29.0099 O   0  0  0  0  0  0  0  0  0  0  0  0
   -3.1821   -7.2386   30.8447 C   0  0  2  0  0  0  0  0  0  0  0  0
   -2.3899   -6.1791   31.3717 O   0  0  0  0  0  0  0  0  0  0  0  0
   -2.1365   -8.3724   35.2843 C   0  0  0  0  0  0  0  0  0  0  0  0
   -3.3097   -9.2060   34.8584 O   0  0  0  0  0  0  0  0  0  0  0  0
    2.0413   -7.5489   28.0876 C   0  0  0  0  0  0  0  0  0  0  0  0
    2.7901   -6.6763   28.9534 N   0  0  0  0  0  0  0  0  0  0  0  0
   -3.4088   -8.3280   31.9509 C   0  0  1  0  0  0  0  0  0  0  0  0
   -4.0535   -7.7263   33.0670 O   0  0  0  0  0  0  0  0  0  0  0  0
   -1.3529   -6.4272   36.6589 C   0  0  0  0  0  0  0  0  0  0  0  0
   -5.0957   -5.7653   37.6964 C   0  0  0  0  0  0  0  0  0  0  0  0
  1  2  1  6  0  0  0
  1  6  1  0  0  0  0
  1 21  1  0  0  0  0
  3  4  1  1  0  0  0
  3  8  1  0  0  0  0
  3 28  1  0  0  0  0
  5  9  1  0  0  0  0
  5 25  1  0  0  0  0
  5 29  1  6  0  0  0
  6  7  1  6  0  0  0
  6 11  1  0  0  0  0
  8 12  1  0  0  0  0
  9 10  1  6  0  0  0
  9 14  1  0  0  0  0
 11 16  1  0  0  0  0
 12 13  1  6  0  0  0
 12 17  1  0  0  0  0
 14 15  1  1  0  0  0
 14 18  1  0  0  0  0
 15 31  1  0  0  0  0
 16 20  1  0  0  0  0
 17  2  1  6  0  0  0
 17 22  1  0  0  0  0
 18 19  1  1  0  0  0
 18 24  1  0  0  0  0
 18 30  1  0  0  0  0
 20 21  1  0  0  0  0
 20 26  1  1  0  0  0
 22 23  1  1  0  0  0
 22 28  1  0  0  0  0
 24 25  1  0  0  0  0
 26 27  1  0  0  0  0
 28 29  1  1  0  0  0
M  END
>  <CHROM.1>
-171.75985870,175.44039959,46.04495411,-171.30122629,84.07588697,57.13756083
-2.50191716,-7.30104063,31.72168186,-1.03911949,0.67300736,1.30250388

>  <Name>
2et3_lig

>  <RI>
3.50789e+07

>  <Rbt.Current_Directory>
/home/itssahil/PROJECTS/Mol_Feturizer/New_Systems/rnas/2et3

>  <Rbt.Executable>
rbdock ($Id: //depot/dev/client3/rdock/2013.1/src/exe/rbdock.cxx#4 $)

>  <Rbt.Library>
libRbt.so (2013.1, Build901 2013/11/27)

>  <Rbt.Parameter_File>
/export/apps/rDock/src/rDock_2013.1_src/data/scripts/dock_solv.prm

>  <Rbt.Receptor>
prm/pocket_docking_4.prm

>  <SCORE>
-19.477

>  <SCORE.INTER>
-11.873

>  <SCORE.INTER.CONST>
1

>  <SCORE.INTER.POLAR>
-0.818467

>  <SCORE.INTER.ROT>
6

>  <SCORE.INTER.SOLV>
14.8868

>  <SCORE.INTER.VDW>
-17.7493

>  <SCORE.INTER.norm>
-0.382998

>  <SCORE.INTRA>
-7.60408

>  <SCORE.INTRA.DIHEDRAL>
-19.2985

>  <SCORE.INTRA.DIHEDRAL.0>
22.2484

>  <SCORE.INTRA.POLAR>
0

>  <SCORE.INTRA.POLAR.0>
0

>  <SCORE.INTRA.REPUL>
0

>  <SCORE.INTRA.REPUL.0>
0

>  <SCORE.INTRA.SOLV>
-1.26599

>  <SCORE.INTRA.SOLV.lig_0>
-75.7198

>  <SCORE.INTRA.VDW>
2.67818

>  <SCORE.INTRA.VDW.0>
-3.34171

>  <SCORE.INTRA.norm>
-0.245293

>  <SCORE.RESTR>
0

>  <SCORE.RESTR.CAVITY>
0

>  <SCORE.RESTR.norm>
0

>  <SCORE.SYSTEM>
0

>  <SCORE.SYSTEM.CONST>
0

>  <SCORE.SYSTEM.DIHEDRAL>
0

>  <SCORE.SYSTEM.SOLV>
0

>  <SCORE.SYSTEM.norm>
0

>  <SCORE.heavy>
31

>  <SCORE.norm>
-0.628291

>  <RMSD>
2.882

$$$$
2et3_lig
 OpenBabel11021811423D
libRbt.so/2013.1/901 2013/11/27
 31 33  0  0  0  0  0  0  0  0999 V2000
    0.8293   -8.0924   28.4401 C   0  0  2  0  0  0  0  0  0  0  0  0
    0.9633   -7.8183   29.8589 O   0  0  0  0  0  0  0  0  0  0  0  0
   -2.1707   -9.9990   31.7899 C   0  0  2  0  0  0  0  0  0  0  0  0
   -2.8270  -10.8545   32.7296 N   0  0  0  0  0  0  0  0  0  0  0  0
   -3.4601   -8.6602   34.2122 C   0  0  2  0  0  0  0  0  0  0  0  0
    1.9771   -7.4272   27.6731 C   0  0  2  0  0  0  0  0  0  0  0  0
    3.2170   -7.8948   28.2117 N   0  0  0  0  0  0  0  0  0  0  0  0
   -1.0662  -10.8049   31.0331 C   0  0  0  0  0  0  0  0  0  0  0  0
   -4.5836   -7.6298   34.4602 C   0  0  2  0  0  0  0  0  0  0  0  0
   -5.2701   -7.4018   33.2498 O   0  0  0  0  0  0  0  0  0  0  0  0
    1.8569   -5.8669   27.7542 C   0  0  0  0  0  0  0  0  0  0  0  0
   -0.3330   -9.8695   30.0034 C   0  0  2  0  0  0  0  0  0  0  0  0
    0.7088  -10.6238   29.2883 N   0  0  0  0  0  0  0  0  0  0  0  0
   -3.9174   -6.3061   35.0178 C   0  0  1  0  0  0  0  0  0  0  0  0
   -4.9383   -5.2310   35.2430 N   0  0  0  0  0  0  0  0  0  0  0  0
    0.4920   -5.4541   27.1192 C   0  0  0  0  0  0  0  0  0  0  0  0
    0.2943   -8.6382   30.7631 C   0  0  2  0  0  0  0  0  0  0  0  0
   -3.1259   -6.6155   36.3968 C   0  0  1  0  0  0  0  0  0  0  0  0
   -4.0064   -7.0693   37.4039 O   0  0  0  0  0  0  0  0  0  0  0  0
   -0.6787   -6.1817   27.9160 C   0  0  2  0  0  0  0  0  0  0  0  0
   -0.5021   -7.6323   27.9584 O   0  0  0  0  0  0  0  0  0  0  0  0
   -0.8433   -7.8478   31.5174 C   0  0  2  0  0  0  0  0  0  0  0  0
   -0.2983   -6.7280   32.2080 O   0  0  0  0  0  0  0  0  0  0  0  0
   -2.0779   -7.7425   36.1414 C   0  0  0  0  0  0  0  0  0  0  0  0
   -2.7241   -8.9259   35.4820 O   0  0  0  0  0  0  0  0  0  0  0  0
   -2.0650   -5.8541   27.4131 C   0  0  0  0  0  0  0  0  0  0  0  0
   -3.0843   -6.5140   28.1860 N   0  0  0  0  0  0  0  0  0  0  0  0
   -1.5639   -8.7971   32.5380 C   0  0  1  0  0  0  0  0  0  0  0  0
   -2.5895   -8.0687   33.2019 O   0  0  0  0  0  0  0  0  0  0  0  0
   -2.4077   -5.4340   37.0630 C   0  0  0  0  0  0  0  0  0  0  0  0
   -4.6735   -3.9162   34.6353 C   0  0  0  0  0  0  0  0  0  0  0  0
  1  2  1  1  0  0  0
  1  6  1  0  0  0  0
  1 21  1  0  0  0  0
  3  4  1  1  0  0  0
  3  8  1  0  0  0  0
  3 28  1  0  0  0  0
  5  9  1  0  0  0  0
  5 25  1  0  0  0  0
  5 29  1  6  0  0  0
  6  7  1  1  0  0  0
  6 11  1  0  0  0  0
  8 12  1  0  0  0  0
  9 10  1  6  0  0  0
  9 14  1  0  0  0  0
 11 16  1  0  0  0  0
 12 13  1  1  0  0  0
 12 17  1  0  0  0  0
 14 15  1  1  0  0  0
 14 18  1  0  0  0  0
 15 31  1  0  0  0  0
 16 20  1  0  0  0  0
 17  2  1  6  0  0  0
 17 22  1  0  0  0  0
 18 19  1  1  0  0  0
 18 24  1  0  0  0  0
 18 30  1  0  0  0  0
 20 21  1  0  0  0  0
 20 26  1  6  0  0  0
 22 23  1  1  0  0  0
 22 28  1  0  0  0  0
 24 25  1  0  0  0  0
 26 27  1  0  0  0  0
 28 29  1  6  0  0  0
M  END
>  <CHROM.1>
-160.54936177,-169.10486879,-128.00761774,8.24082827,-178.71707533,59.29738694
-1.60032150,-7.58904481,31.81225204,-0.46559226,-0.96060306,2.50561689

>  <Name>
2et3_lig

>  <RI>
0

>  <Rbt.Current_Directory>
/home/itssahil/PROJECTS/Mol_Feturizer/New_Systems/rnas/2et3

>  <Rbt.Executable>
rbdock ($Id: //depot/dev/client3/rdock/2013.1/src/exe/rbdock.cxx#4 $)

>  <Rbt.Library>
libRbt.so (2013.1, Build901 2013/11/27)

>  <Rbt.Parameter_File>
/export/apps/rDock/src/rDock_2013.1_src/data/scripts/dock_solv.prm

>  <Rbt.Receptor>
prm/pocket_docking_3.prm

>  <SCORE>
-11.9795

>  <SCORE.INTER>
-9.91079

>  <SCORE.INTER.CONST>
1

>  <SCORE.INTER.POLAR>
-0.604166

>  <SCORE.INTER.ROT>
6

>  <SCORE.INTER.SOLV>
11.4118

>  <SCORE.INTER.VDW>
-15.9972

>  <SCORE.INTER.norm>
-0.319703

>  <SCORE.INTRA>
-2.09994

>  <SCORE.INTRA.DIHEDRAL>
-11.8079

>  <SCORE.INTRA.DIHEDRAL.0>
22.2484

>  <SCORE.INTRA.POLAR>
0

>  <SCORE.INTRA.POLAR.0>
0

>  <SCORE.INTRA.REPUL>
0

>  <SCORE.INTRA.REPUL.0>
0

>  <SCORE.INTRA.SOLV>
-0.0406051

>  <SCORE.INTRA.SOLV.lig_0>
-75.7198

>  <SCORE.INTRA.VDW>
3.82432

>  <SCORE.INTRA.VDW.0>
-3.34171

>  <SCORE.INTRA.norm>
-0.06774

>  <SCORE.RESTR>
0.0312331

>  <SCORE.RESTR.CAVITY>
0.0312331

>  <SCORE.RESTR.norm>
0.00100752

>  <SCORE.SYSTEM>
0

>  <SCORE.SYSTEM.CONST>
0

>  <SCORE.SYSTEM.DIHEDRAL>
0

>  <SCORE.SYSTEM.SOLV>
0

>  <SCORE.SYSTEM.norm>
0

>  <SCORE.heavy>
31

>  <SCORE.norm>
-0.386435

>  <RMSD>
2.946

$$$$
2et3_lig
 OpenBabel11021811423D
libRbt.so/2013.1/901 2013/11/27
 31 33  0  0  0  0  0  0  0  0999 V2000
   -0.3904   -8.2211   28.9183 C   0  0  2  0  0  0  0  0  0  0  0  0
    0.3199   -8.7089   30.0860 O   0  0  0  0  0  0  0  0  0  0  0  0
   -2.5206  -11.5439   31.5693 C   0  0  2  0  0  0  0  0  0  0  0  0
   -3.0618  -12.6268   32.3308 N   0  0  0  0  0  0  0  0  0  0  0  0
   -3.5832  -10.6463   34.5240 C   0  0  2  0  0  0  0  0  0  0  0  0
    0.5696   -7.4359   28.0182 C   0  0  2  0  0  0  0  0  0  0  0  0
    1.6729   -8.2815   27.6808 N   0  0  0  0  0  0  0  0  0  0  0  0
   -1.3501  -12.0675   30.6761 C   0  0  0  0  0  0  0  0  0  0  0  0
   -4.6365   -9.7107   35.1572 C   0  0  2  0  0  0  0  0  0  0  0  0
   -5.6847   -9.5122   34.2351 O   0  0  0  0  0  0  0  0  0  0  0  0
    1.0381   -6.1224   28.7329 C   0  0  0  0  0  0  0  0  0  0  0  0
   -0.7429  -10.8812   29.8412 C   0  0  2  0  0  0  0  0  0  0  0  0
    0.3605  -11.3691   28.9986 N   0  0  0  0  0  0  0  0  0  0  0  0
   -3.9180   -8.3511   35.5340 C   0  0  1  0  0  0  0  0  0  0  0  0
   -4.8845   -7.3626   36.1151 N   0  0  0  0  0  0  0  0  0  0  0  0
   -0.2269   -5.2581   29.0322 C   0  0  0  0  0  0  0  0  0  0  0  0
   -0.2384   -9.7518   30.8193 C   0  0  2  0  0  0  0  0  0  0  0  0
   -2.7116   -8.6261   36.5793 C   0  0  1  0  0  0  0  0  0  0  0  0
   -3.1953   -9.1665   37.7916 O   0  0  0  0  0  0  0  0  0  0  0  0
   -1.2181   -6.1082   29.9430 C   0  0  2  0  0  0  0  0  0  0  0  0
   -1.5558   -7.3971   29.3414 O   0  0  0  0  0  0  0  0  0  0  0  0
   -1.4402   -9.2465   31.7071 C   0  0  2  0  0  0  0  0  0  0  0  0
   -1.0067   -8.2222   32.5963 O   0  0  0  0  0  0  0  0  0  0  0  0
   -1.7257   -9.6636   35.9588 C   0  0  0  0  0  0  0  0  0  0  0  0
   -2.4669  -10.8798   35.4853 O   0  0  0  0  0  0  0  0  0  0  0  0
   -2.4849   -5.3793   30.3249 C   0  0  0  0  0  0  0  0  0  0  0  0
   -3.3739   -6.2153   31.0881 N   0  0  0  0  0  0  0  0  0  0  0  0
   -2.0335  -10.4433   32.5305 C   0  0  1  0  0  0  0  0  0  0  0  0
   -3.1191   -9.9693   33.3180 O   0  0  0  0  0  0  0  0  0  0  0  0
   -1.9000   -7.4064   37.0366 C   0  0  0  0  0  0  0  0  0  0  0  0
   -4.7547   -5.9619   35.6801 C   0  0  0  0  0  0  0  0  0  0  0  0
  1  2  1  1  0  0  0
  1  6  1  0  0  0  0
  1 21  1  0  0  0  0
  3  4  1  1  0  0  0
  3  8  1  0  0  0  0
  3 28  1  0  0  0  0
  5  9  1  0  0  0  0
  5 25  1  0  0  0  0
  5 29  1  6  0  0  0
  6  7  1  1  0  0  0
  6 11  1  0  0  0  0
  8 12  1  0  0  0  0
  9 10  1  6  0  0  0
  9 14  1  0  0  0  0
 11 16  1  0  0  0  0
 12 13  1  1  0  0  0
 12 17  1  0  0  0  0
 14 15  1  1  0  0  0
 14 18  1  0  0  0  0
 15 31  1  0  0  0  0
 16 20  1  0  0  0  0
 17  2  1  6  0  0  0
 17 22  1  0  0  0  0
 18 19  1  1  0  0  0
 18 24  1  0  0  0  0
 18 30  1  0  0  0  0
 20 21  1  0  0  0  0
 20 26  1  6  0  0  0
 22 23  1  1  0  0  0
 22 28  1  0  0  0  0
 24 25  1  0  0  0  0
 26 27  1  0  0  0  0
 28 29  1  6  0  0  0
M  END
>  <CHROM.1>
-161.36534131,172.79417883,-138.44075886,45.66987215,176.99347493,82.47122547
-1.96365178,-8.77993143,32.35643010,0.23032607,1.07320521,-0.11770329

>  <Name>
2et3_lig

>  <RI>
3.50789e+07

>  <Rbt.Current_Directory>
/home/itssahil/PROJECTS/Mol_Feturizer/New_Systems/rnas/2et3

>  <Rbt.Executable>
rbdock ($Id: //depot/dev/client3/rdock/2013.1/src/exe/rbdock.cxx#4 $)

>  <Rbt.Library>
libRbt.so (2013.1, Build901 2013/11/27)

>  <Rbt.Parameter_File>
/export/apps/rDock/src/rDock_2013.1_src/data/scripts/dock_solv.prm

>  <Rbt.Receptor>
prm/pocket_docking_4.prm

>  <SCORE>
-17.7666

>  <SCORE.INTER>
-10.0542

>  <SCORE.INTER.CONST>
1

>  <SCORE.INTER.POLAR>
0

>  <SCORE.INTER.ROT>
6

>  <SCORE.INTER.SOLV>
11.4928

>  <SCORE.INTER.VDW>
-18.1337

>  <SCORE.INTER.norm>
-0.32433

>  <SCORE.INTRA>
-7.71234

>  <SCORE.INTRA.DIHEDRAL>
-16.1196

>  <SCORE.INTRA.DIHEDRAL.0>
22.2484

>  <SCORE.INTRA.POLAR>
0

>  <SCORE.INTRA.POLAR.0>
0

>  <SCORE.INTRA.REPUL>
0.0512336

>  <SCORE.INTRA.REPUL.0>
0

>  <SCORE.INTRA.SOLV>
0.51065

>  <SCORE.INTRA.SOLV.lig_0>
-75.7198

>  <SCORE.INTRA.VDW>
-0.164012

>  <SCORE.INTRA.VDW.0>
-3.34171

>  <SCORE.INTRA.norm>
-0.248785

>  <SCORE.RESTR>
0

>  <SCORE.RESTR.CAVITY>
0

>  <SCORE.RESTR.norm>
0

>  <SCORE.SYSTEM>
0

>  <SCORE.SYSTEM.CONST>
0

>  <SCORE.SYSTEM.DIHEDRAL>
0

>  <SCORE.SYSTEM.SOLV>
0

>  <SCORE.SYSTEM.norm>
0

>  <SCORE.heavy>
31

>  <SCORE.norm>
-0.573115

>  <RMSD>
2.983

$$$$
2et3_lig
 OpenBabel11021811423D
libRbt.so/2013.1/901 2013/11/27
 31 33  0  0  0  0  0  0  0  0999 V2000
   -0.9218   -7.6723   28.4595 C   0  0  2  0  0  0  0  0  0  0  0  0
    0.0218   -7.6801   29.5621 O   0  0  0  0  0  0  0  0  0  0  0  0
   -1.0173  -11.3871   31.4289 C   0  0  2  0  0  0  0  0  0  0  0  0
   -0.9174  -12.5383   32.2717 N   0  0  0  0  0  0  0  0  0  0  0  0
   -2.1080  -10.8989   34.4484 C   0  0  2  0  0  0  0  0  0  0  0  0
   -0.4571   -6.6815   27.3868 C   0  0  2  0  0  0  0  0  0  0  0  0
    0.8667   -7.0384   26.9790 N   0  0  0  0  0  0  0  0  0  0  0  0
    0.1726  -11.3769   30.4159 C   0  0  0  0  0  0  0  0  0  0  0  0
   -3.5775  -10.9471   34.9216 C   0  0  2  0  0  0  0  0  0  0  0  0
   -4.3563  -11.5796   33.9307 O   0  0  0  0  0  0  0  0  0  0  0  0
   -0.5242   -5.2140   27.9322 C   0  0  0  0  0  0  0  0  0  0  0  0
    0.0757  -10.1092   29.4903 C   0  0  2  0  0  0  0  0  0  0  0  0
    1.1947  -10.0946   28.5346 N   0  0  0  0  0  0  0  0  0  0  0  0
   -4.0543   -9.4605   35.1855 C   0  0  1  0  0  0  0  0  0  0  0  0
   -5.4930   -9.4122   35.6058 N   0  0  0  0  0  0  0  0  0  0  0  0
   -2.0051   -4.9108   28.3214 C   0  0  0  0  0  0  0  0  0  0  0  0
    0.0854   -8.8059   30.3780 C   0  0  2  0  0  0  0  0  0  0  0  0
   -3.1238   -8.7662   36.3152 C   0  0  1  0  0  0  0  0  0  0  0  0
   -3.2284   -9.4402   37.5522 O   0  0  0  0  0  0  0  0  0  0  0  0
   -2.4699   -5.9717   29.4137 C   0  0  2  0  0  0  0  0  0  0  0  0
   -2.2855   -7.3497   28.9616 O   0  0  0  0  0  0  0  0  0  0  0  0
   -1.1240   -8.8471   31.3897 C   0  0  2  0  0  0  0  0  0  0  0  0
   -1.1362   -7.6761   32.1998 O   0  0  0  0  0  0  0  0  0  0  0  0
   -1.6328   -8.8373   35.8621 C   0  0  0  0  0  0  0  0  0  0  0  0
   -1.2610  -10.2418   35.4854 O   0  0  0  0  0  0  0  0  0  0  0  0
   -3.8890   -5.7815   29.8953 C   0  0  0  0  0  0  0  0  0  0  0  0
   -4.0778   -4.4930   30.5084 N   0  0  0  0  0  0  0  0  0  0  0  0
   -1.0111  -10.1184   32.3025 C   0  0  1  0  0  0  0  0  0  0  0  0
   -2.1130  -10.1412   33.2017 O   0  0  0  0  0  0  0  0  0  0  0  0
   -3.4463   -7.3105   36.6789 C   0  0  0  0  0  0  0  0  0  0  0  0
   -6.5062   -9.4815   34.5397 C   0  0  0  0  0  0  0  0  0  0  0  0
  1  2  1  1  0  0  0
  1  6  1  0  0  0  0
  1 21  1  0  0  0  0
  3  4  1  1  0  0  0
  3  8  1  0  0  0  0
  3 28  1  0  0  0  0
  5  9  1  0  0  0  0
  5 25  1  0  0  0  0
  5 29  1  6  0  0  0
  6  7  1  1  0  0  0
  6 11  1  0  0  0  0
  8 12  1  0  0  0  0
  9 10  1  6  0  0  0
  9 14  1  0  0  0  0
 11 16  1  0  0  0  0
 12 13  1  6  0  0  0
 12 17  1  0  0  0  0
 14 15  1  1  0  0  0
 14 18  1  0  0  0  0
 15 31  1  0  0  0  0
 16 20  1  0  0  0  0
 17  2  1  6  0  0  0
 17 22  1  0  0  0  0
 18 19  1  1  0  0  0
 18 24  1  0  0  0  0
 18 30  1  0  0  0  0
 20 21  1  0  0  0  0
 20 26  1  6  0  0  0
 22 23  1  1  0  0  0
 22 28  1  0  0  0  0
 24 25  1  0  0  0  0
 26 27  1  0  0  0  0
 28 29  1  1  0  0  0
M  END
>  <CHROM.1>
-156.49980094,-165.86343010,-81.36247954,44.46802266,-60.42594012,80.50565889
-1.96884983,-8.71884409,31.96641348,-1.03475794,-0.82958114,2.35478220

>  <Name>
2et3_lig

>  <RI>
3.50789e+07

>  <Rbt.Current_Directory>
/home/itssahil/PROJECTS/Mol_Feturizer/New_Systems/rnas/2et3

>  <Rbt.Executable>
rbdock ($Id: //depot/dev/client3/rdock/2013.1/src/exe/rbdock.cxx#4 $)

>  <Rbt.Library>
libRbt.so (2013.1, Build901 2013/11/27)

>  <Rbt.Parameter_File>
/export/apps/rDock/src/rDock_2013.1_src/data/scripts/dock_solv.prm

>  <Rbt.Receptor>
prm/pocket_docking_4.prm

>  <SCORE>
-20.5108

>  <SCORE.INTER>
-13.2866

>  <SCORE.INTER.CONST>
1

>  <SCORE.INTER.POLAR>
0

>  <SCORE.INTER.ROT>
6

>  <SCORE.INTER.SOLV>
15.3136

>  <SCORE.INTER.VDW>
-21.5623

>  <SCORE.INTER.norm>
-0.428601

>  <SCORE.INTRA>
-7.22413

>  <SCORE.INTRA.DIHEDRAL>
-15.4235

>  <SCORE.INTRA.DIHEDRAL.0>
22.2484

>  <SCORE.INTRA.POLAR>
0

>  <SCORE.INTRA.POLAR.0>
0

>  <SCORE.INTRA.REPUL>
0

>  <SCORE.INTRA.REPUL.0>
0

>  <SCORE.INTRA.SOLV>
-0.35679

>  <SCORE.INTRA.SOLV.lig_0>
-75.7198

>  <SCORE.INTRA.VDW>
0.666024

>  <SCORE.INTRA.VDW.0>
-3.34171

>  <SCORE.INTRA.norm>
-0.233036

>  <SCORE.RESTR>
0

>  <SCORE.RESTR.CAVITY>
0

>  <SCORE.RESTR.norm>
0

>  <SCORE.SYSTEM>
0

>  <SCORE.SYSTEM.CONST>
0

>  <SCORE.SYSTEM.DIHEDRAL>
0

>  <SCORE.SYSTEM.SOLV>
0

>  <SCORE.SYSTEM.norm>
0

>  <SCORE.heavy>
31

>  <SCORE.norm>
-0.661637

>  <RMSD>
2.985

$$$$
2et3_lig
 OpenBabel11021811423D
libRbt.so/2013.1/901 2013/11/27
 31 33  0  0  0  0  0  0  0  0999 V2000
   -1.3907   -5.3172   29.5627 C   0  0  2  0  0  0  0  0  0  0  0  0
   -2.0469   -6.6026   29.7152 O   0  0  0  0  0  0  0  0  0  0  0  0
   -2.3432   -9.3155   33.0105 C   0  0  2  0  0  0  0  0  0  0  0  0
   -1.9426  -10.1448   34.1047 N   0  0  0  0  0  0  0  0  0  0  0  0
   -2.1099   -7.7268   35.8377 C   0  0  2  0  0  0  0  0  0  0  0  0
   -2.0387   -4.5377   28.4134 C   0  0  2  0  0  0  0  0  0  0  0  0
   -3.4392   -4.4155   28.6777 N   0  0  0  0  0  0  0  0  0  0  0  0
   -1.6611   -9.8181   31.6974 C   0  0  0  0  0  0  0  0  0  0  0  0
   -3.1610   -7.1614   36.8182 C   0  0  2  0  0  0  0  0  0  0  0  0
   -4.4029   -7.7784   36.5625 O   0  0  0  0  0  0  0  0  0  0  0  0
   -1.7629   -5.2505   27.0455 C   0  0  0  0  0  0  0  0  0  0  0  0
   -2.0892   -8.9062   30.4899 C   0  0  2  0  0  0  0  0  0  0  0  0
   -1.4489   -9.3753   29.2506 N   0  0  0  0  0  0  0  0  0  0  0  0
   -3.2285   -5.5932   36.6104 C   0  0  1  0  0  0  0  0  0  0  0  0
   -4.2642   -4.9667   37.4956 N   0  0  0  0  0  0  0  0  0  0  0  0
   -0.2173   -5.3093   26.8347 C   0  0  0  0  0  0  0  0  0  0  0  0
   -1.6898   -7.4107   30.7907 C   0  0  2  0  0  0  0  0  0  0  0  0
   -1.7797   -4.9276   36.8963 C   0  0  1  0  0  0  0  0  0  0  0  0
   -1.3755   -5.1318   38.2343 O   0  0  0  0  0  0  0  0  0  0  0  0
    0.4315   -6.0978   28.0561 C   0  0  2  0  0  0  0  0  0  0  0  0
    0.0689   -5.5155   29.3471 O   0  0  0  0  0  0  0  0  0  0  0  0
   -2.3910   -6.9342   32.1207 C   0  0  2  0  0  0  0  0  0  0  0  0
   -2.0463   -5.5831   32.4094 O   0  0  0  0  0  0  0  0  0  0  0  0
   -0.7179   -5.6011   35.9730 C   0  0  0  0  0  0  0  0  0  0  0  0
   -0.7831   -7.0956   36.0949 O   0  0  0  0  0  0  0  0  0  0  0  0
    1.9324   -6.2446   27.9696 C   0  0  0  0  0  0  0  0  0  0  0  0
    2.4464   -7.1046   29.0031 N   0  0  0  0  0  0  0  0  0  0  0  0
   -1.9536   -7.8562   33.3127 C   0  0  1  0  0  0  0  0  0  0  0  0
   -2.6012   -7.4153   34.4999 O   0  0  0  0  0  0  0  0  0  0  0  0
   -1.6705   -3.4064   36.7237 C   0  0  0  0  0  0  0  0  0  0  0  0
   -5.5929   -4.7269   36.9081 C   0  0  0  0  0  0  0  0  0  0  0  0
  1  2  1  6  0  0  0
  1  6  1  0  0  0  0
  1 21  1  0  0  0  0
  3  4  1  1  0  0  0
  3  8  1  0  0  0  0
  3 28  1  0  0  0  0
  5  9  1  0  0  0  0
  5 25  1  0  0  0  0
  5 29  1  6  0  0  0
  6  7  1  1  0  0  0
  6 11  1  0  0  0  0
  8 12  1  0  0  0  0
  9 10  1  6  0  0  0
  9 14  1  0  0  0  0
 11 16  1  0  0  0  0
 12 13  1  6  0  0  0
 12 17  1  0  0  0  0
 14 15  1  1  0  0  0
 14 18  1  0  0  0  0
 15 31  1  0  0  0  0
 16 20  1  0  0  0  0
 17  2  1  6  0  0  0
 17 22  1  0  0  0  0
 18 19  1  1  0  0  0
 18 24  1  0  0  0  0
 18 30  1  0  0  0  0
 20 21  1  0  0  0  0
 20 26  1  6  0  0  0
 22 23  1  1  0  0  0
 22 28  1  0  0  0  0
 24 25  1  0  0  0  0
 26 27  1  0  0  0  0
 28 29  1  1  0  0  0
M  END
>  <CHROM.1>
-173.90083542,-175.47688662,-95.91830088,-159.25892457,-172.68827577,80.94000064
-1.78919638,-6.53859606,32.64285916,0.13711168,1.29891068,-0.17009159

>  <Name>
2et3_lig

>  <RI>
0

>  <Rbt.Current_Directory>
/home/itssahil/PROJECTS/Mol_Feturizer/New_Systems/rnas/2et3

>  <Rbt.Executable>
rbdock ($Id: //depot/dev/client3/rdock/2013.1/src/exe/rbdock.cxx#4 $)

>  <Rbt.Library>
libRbt.so (2013.1, Build901 2013/11/27)

>  <Rbt.Parameter_File>
/export/apps/rDock/src/rDock_2013.1_src/data/scripts/dock_solv.prm

>  <Rbt.Receptor>
prm/pocket_docking_7.prm

>  <SCORE>
-28.3706

>  <SCORE.INTER>
-18.3047

>  <SCORE.INTER.CONST>
1

>  <SCORE.INTER.POLAR>
-1.61965

>  <SCORE.INTER.ROT>
6

>  <SCORE.INTER.SOLV>
12.6288

>  <SCORE.INTER.VDW>
-18.6139

>  <SCORE.INTER.norm>
-0.590475

>  <SCORE.INTRA>
-10.0659

>  <SCORE.INTRA.DIHEDRAL>
-16.9475

>  <SCORE.INTRA.DIHEDRAL.0>
22.2484

>  <SCORE.INTRA.POLAR>
0

>  <SCORE.INTRA.POLAR.0>
0

>  <SCORE.INTRA.REPUL>
0

>  <SCORE.INTRA.REPUL.0>
0

>  <SCORE.INTRA.SOLV>
-2.52162

>  <SCORE.INTRA.SOLV.lig_0>
-75.7198

>  <SCORE.INTRA.VDW>
-0.331303

>  <SCORE.INTRA.VDW.0>
-3.34171

>  <SCORE.INTRA.norm>
-0.324706

>  <SCORE.RESTR>
0

>  <SCORE.RESTR.CAVITY>
0

>  <SCORE.RESTR.norm>
0

>  <SCORE.SYSTEM>
0

>  <SCORE.SYSTEM.CONST>
0

>  <SCORE.SYSTEM.DIHEDRAL>
0

>  <SCORE.SYSTEM.SOLV>
0

>  <SCORE.SYSTEM.norm>
0

>  <SCORE.heavy>
31

>  <SCORE.norm>
-0.915181

>  <RMSD>
3.001

$$$$
2et3_lig
 OpenBabel11021811423D
libRbt.so/2013.1/901 2013/11/27
 31 33  0  0  0  0  0  0  0  0999 V2000
   -1.2504   -7.5913   28.5619 C   0  0  2  0  0  0  0  0  0  0  0  0
   -0.2208   -7.5893   29.5846 O   0  0  0  0  0  0  0  0  0  0  0  0
   -1.0321  -11.3540   31.4487 C   0  0  2  0  0  0  0  0  0  0  0  0
   -0.8652  -12.4948   32.2950 N   0  0  0  0  0  0  0  0  0  0  0  0
   -2.1783  -10.9189   34.4647 C   0  0  2  0  0  0  0  0  0  0  0  0
   -0.9014   -6.5711   27.4730 C   0  0  2  0  0  0  0  0  0  0  0  0
    0.3943   -6.8838   26.9536 N   0  0  0  0  0  0  0  0  0  0  0  0
    0.1651  -11.2667   30.4480 C   0  0  0  0  0  0  0  0  0  0  0  0
   -3.6363  -10.9931   34.9691 C   0  0  2  0  0  0  0  0  0  0  0  0
   -4.4204  -11.6583   34.0041 O   0  0  0  0  0  0  0  0  0  0  0  0
   -0.9639   -5.1148   28.0480 C   0  0  0  0  0  0  0  0  0  0  0  0
   -0.0057  -10.0096   29.5187 C   0  0  2  0  0  0  0  0  0  0  0  0
    1.1198   -9.9225   28.5746 N   0  0  0  0  0  0  0  0  0  0  0  0
   -4.1416   -9.5139   35.2208 C   0  0  1  0  0  0  0  0  0  0  0  0
   -5.5721   -9.4919   35.6702 N   0  0  0  0  0  0  0  0  0  0  0  0
   -2.4161   -4.8600   28.5605 C   0  0  0  0  0  0  0  0  0  0  0  0
   -0.0915   -8.7072   30.4036 C   0  0  2  0  0  0  0  0  0  0  0  0
   -3.2045   -8.7815   36.3204 C   0  0  1  0  0  0  0  0  0  0  0  0
   -3.2681   -9.4387   37.5693 O   0  0  0  0  0  0  0  0  0  0  0  0
   -2.7619   -5.9505   29.6677 C   0  0  2  0  0  0  0  0  0  0  0  0
   -2.5773   -7.3155   29.1779 O   0  0  0  0  0  0  0  0  0  0  0  0
   -1.3060   -8.8267   31.4028 C   0  0  2  0  0  0  0  0  0  0  0  0
   -1.4041   -7.6578   32.2101 O   0  0  0  0  0  0  0  0  0  0  0  0
   -1.7218   -8.8256   35.8375 C   0  0  0  0  0  0  0  0  0  0  0  0
   -1.3255  -10.2269   35.4740 O   0  0  0  0  0  0  0  0  0  0  0  0
   -4.1419   -5.8084   30.2654 C   0  0  0  0  0  0  0  0  0  0  0  0
   -4.4153   -6.8397   31.2316 N   0  0  0  0  0  0  0  0  0  0  0  0
   -1.1189  -10.0864   32.3195 C   0  0  1  0  0  0  0  0  0  0  0  0
   -2.2263  -10.1807   33.2073 O   0  0  0  0  0  0  0  0  0  0  0  0
   -3.5528   -7.3281   36.6692 C   0  0  0  0  0  0  0  0  0  0  0  0
   -6.6054   -9.5813   34.6249 C   0  0  0  0  0  0  0  0  0  0  0  0
  1  2  1  1  0  0  0
  1  6  1  0  0  0  0
  1 21  1  0  0  0  0
  3  4  1  1  0  0  0
  3  8  1  0  0  0  0
  3 28  1  0  0  0  0
  5  9  1  0  0  0  0
  5 25  1  0  0  0  0
  5 29  1  6  0  0  0
  6  7  1  1  0  0  0
  6 11  1  0  0  0  0
  8 12  1  0  0  0  0
  9 10  1  6  0  0  0
  9 14  1  0  0  0  0
 11 16  1  0  0  0  0
 12 13  1  6  0  0  0
 12 17  1  0  0  0  0
 14 15  1  1  0  0  0
 14 18  1  0  0  0  0
 15 31  1  0  0  0  0
 16 20  1  0  0  0  0
 17  2  1  6  0  0  0
 17 22  1  0  0  0  0
 18 19  1  1  0  0  0
 18 24  1  0  0  0  0
 18 30  1  0  0  0  0
 20 21  1  0  0  0  0
 20 26  1  6  0  0  0
 22 23  1  1  0  0  0
 22 28  1  0  0  0  0
 24 25  1  0  0  0  0
 26 27  1  0  0  0  0
 28 29  1  1  0  0  0
M  END
>  <CHROM.1>
-158.71552640,-169.40487083,-82.20343963,50.96138902,178.39027229,81.39695927
-2.14033608,-8.76855076,32.05048521,1.06534626,0.79265782,-0.83226545

>  <Name>
2et3_lig

>  <RI>
0

>  <Rbt.Current_Directory>
/home/itssahil/PROJECTS/Mol_Feturizer/New_Systems/rnas/2et3

>  <Rbt.Executable>
rbdock ($Id: //depot/dev/client3/rdock/2013.1/src/exe/rbdock.cxx#4 $)

>  <Rbt.Library>
libRbt.so (2013.1, Build901 2013/11/27)

>  <Rbt.Parameter_File>
/export/apps/rDock/src/rDock_2013.1_src/data/scripts/dock_solv.prm

>  <Rbt.Receptor>
prm/pocket_docking_6.prm

>  <SCORE>
-20.9838

>  <SCORE.INTER>
-13.0345

>  <SCORE.INTER.CONST>
1

>  <SCORE.INTER.POLAR>
0

>  <SCORE.INTER.ROT>
6

>  <SCORE.INTER.SOLV>
14.953

>  <SCORE.INTER.VDW>
-21.274

>  <SCORE.INTER.norm>
-0.420469

>  <SCORE.INTRA>
-7.94925

>  <SCORE.INTRA.DIHEDRAL>
-16.7561

>  <SCORE.INTRA.DIHEDRAL.0>
22.2484

>  <SCORE.INTRA.POLAR>
0

>  <SCORE.INTRA.POLAR.0>
0

>  <SCORE.INTRA.REPUL>
0

>  <SCORE.INTRA.REPUL.0>
0

>  <SCORE.INTRA.SOLV>
0.947978

>  <SCORE.INTRA.SOLV.lig_0>
-75.7198

>  <SCORE.INTRA.VDW>
-0.0451845

>  <SCORE.INTRA.VDW.0>
-3.34171

>  <SCORE.INTRA.norm>
-0.256427

>  <SCORE.RESTR>
0

>  <SCORE.RESTR.CAVITY>
0

>  <SCORE.RESTR.norm>
0

>  <SCORE.SYSTEM>
0

>  <SCORE.SYSTEM.CONST>
0

>  <SCORE.SYSTEM.DIHEDRAL>
0

>  <SCORE.SYSTEM.SOLV>
0

>  <SCORE.SYSTEM.norm>
0

>  <SCORE.heavy>
31

>  <SCORE.norm>
-0.676896

>  <RMSD>
3.077

$$$$
2et3_lig
 OpenBabel11021811423D
libRbt.so/2013.1/901 2013/11/27
 31 33  0  0  0  0  0  0  0  0999 V2000
   -0.5976   -7.0507   29.2936 C   0  0  2  0  0  0  0  0  0  0  0  0
    0.4462   -7.5058   30.1933 O   0  0  0  0  0  0  0  0  0  0  0  0
   -1.1672  -11.3068   31.3137 C   0  0  2  0  0  0  0  0  0  0  0  0
   -1.2497  -12.6076   31.9026 N   0  0  0  0  0  0  0  0  0  0  0  0
   -1.9681  -10.9736   34.6321 C   0  0  2  0  0  0  0  0  0  0  0  0
   -0.3079   -5.6131   28.8489 C   0  0  2  0  0  0  0  0  0  0  0  0
    0.9918   -5.5731   28.2529 N   0  0  0  0  0  0  0  0  0  0  0  0
    0.0026  -11.2759   30.2780 C   0  0  0  0  0  0  0  0  0  0  0  0
   -3.4299  -11.1382   35.1031 C   0  0  2  0  0  0  0  0  0  0  0  0
   -4.1342  -11.9017   34.1494 O   0  0  0  0  0  0  0  0  0  0  0  0
   -0.4231   -4.6310   30.0645 C   0  0  0  0  0  0  0  0  0  0  0  0
    0.1063   -9.8461   29.6314 C   0  0  2  0  0  0  0  0  0  0  0  0
    1.2072   -9.8116   28.6554 N   0  0  0  0  0  0  0  0  0  0  0  0
   -4.0525   -9.6928   35.2767 C   0  0  1  0  0  0  0  0  0  0  0  0
   -5.4926   -9.7617   35.6892 N   0  0  0  0  0  0  0  0  0  0  0  0
   -1.8770   -4.7248   30.6249 C   0  0  0  0  0  0  0  0  0  0  0  0
    0.3318   -8.7708   30.7625 C   0  0  2  0  0  0  0  0  0  0  0  0
   -3.2045   -8.8450   36.3656 C   0  0  1  0  0  0  0  0  0  0  0  0
   -3.2532   -9.4518   37.6403 O   0  0  0  0  0  0  0  0  0  0  0  0
   -2.1600   -6.2325   31.0511 C   0  0  2  0  0  0  0  0  0  0  0  0
   -1.9256   -7.1715   29.9554 O   0  0  0  0  0  0  0  0  0  0  0  0
   -0.8622   -8.8283   31.7914 C   0  0  2  0  0  0  0  0  0  0  0  0
   -0.6802   -7.8613   32.8207 O   0  0  0  0  0  0  0  0  0  0  0  0
   -1.7098   -8.7955   35.9219 C   0  0  0  0  0  0  0  0  0  0  0  0
   -1.1987  -10.1763   35.6306 O   0  0  0  0  0  0  0  0  0  0  0  0
   -3.5357   -6.4629   31.6309 C   0  0  0  0  0  0  0  0  0  0  0  0
   -3.6172   -6.0334   33.0022 N   0  0  0  0  0  0  0  0  0  0  0  0
   -0.9508  -10.2615   32.4241 C   0  0  1  0  0  0  0  0  0  0  0  0
   -2.0366  -10.2950   33.3425 O   0  0  0  0  0  0  0  0  0  0  0  0
   -3.6714   -7.4091   36.6411 C   0  0  0  0  0  0  0  0  0  0  0  0
   -6.5009   -9.7097   34.6174 C   0  0  0  0  0  0  0  0  0  0  0  0
  1  2  1  1  0  0  0
  1  6  1  0  0  0  0
  1 21  1  0  0  0  0
  3  4  1  1  0  0  0
  3  8  1  0  0  0  0
  3 28  1  0  0  0  0
  5  9  1  0  0  0  0
  5 25  1  0  0  0  0
  5 29  1  6  0  0  0
  6  7  1  1  0  0  0
  6 11  1  0  0  0  0
  8 12  1  0  0  0  0
  9 10  1  6  0  0  0
  9 14  1  0  0  0  0
 11 16  1  0  0  0  0
 12 13  1  6  0  0  0
 12 17  1  0  0  0  0
 14 15  1  1  0  0  0
 14 18  1  0  0  0  0
 15 31  1  0  0  0  0
 16 20  1  0  0  0  0
 17  2  1  6  0  0  0
 17 22  1  0  0  0  0
 18 19  1  1  0  0  0
 18 24  1  0  0  0  0
 18 30  1  0  0  0  0
 20 21  1  0  0  0  0
 20 26  1  6  0  0  0
 22 23  1  1  0  0  0
 22 28  1  0  0  0  0
 24 25  1  0  0  0  0
 26 27  1  0  0  0  0
 28 29  1  1  0  0  0
M  END
>  <CHROM.1>
176.92661228,-163.33420341,-93.80841266,53.10368974,-78.45324664,100.34456269
-1.85639106,-8.70564644,32.54216308,0.68717306,0.92961956,-0.35504031

>  <Name>
2et3_lig

>  <RI>
0

>  <Rbt.Current_Directory>
/home/itssahil/PROJECTS/Mol_Feturizer/New_Systems/rnas/2et3

>  <Rbt.Executable>
rbdock ($Id: //depot/dev/client3/rdock/2013.1/src/exe/rbdock.cxx#4 $)

>  <Rbt.Library>
libRbt.so (2013.1, Build901 2013/11/27)

>  <Rbt.Parameter_File>
/export/apps/rDock/src/rDock_2013.1_src/data/scripts/dock_solv.prm

>  <Rbt.Receptor>
prm/pocket_docking_3.prm

>  <SCORE>
-18.3258

>  <SCORE.INTER>
-11.9125

>  <SCORE.INTER.CONST>
1

>  <SCORE.INTER.POLAR>
-0.283652

>  <SCORE.INTER.ROT>
6

>  <SCORE.INTER.SOLV>
18.0685

>  <SCORE.INTER.VDW>
-20.619

>  <SCORE.INTER.norm>
-0.384274

>  <SCORE.INTRA>
-6.42223

>  <SCORE.INTRA.DIHEDRAL>
-13.2918

>  <SCORE.INTRA.DIHEDRAL.0>
22.2484

>  <SCORE.INTRA.POLAR>
0

>  <SCORE.INTRA.POLAR.0>
0

>  <SCORE.INTRA.REPUL>
0

>  <SCORE.INTRA.REPUL.0>
0

>  <SCORE.INTRA.SOLV>
-0.0227325

>  <SCORE.INTRA.SOLV.lig_0>
-75.7198

>  <SCORE.INTRA.VDW>
0.235038

>  <SCORE.INTRA.VDW.0>
-3.34171

>  <SCORE.INTRA.norm>
-0.207169

>  <SCORE.RESTR>
0.00892664

>  <SCORE.RESTR.CAVITY>
0.00892664

>  <SCORE.RESTR.norm>
0.000287956

>  <SCORE.SYSTEM>
0

>  <SCORE.SYSTEM.CONST>
0

>  <SCORE.SYSTEM.DIHEDRAL>
0

>  <SCORE.SYSTEM.SOLV>
0

>  <SCORE.SYSTEM.norm>
0

>  <SCORE.heavy>
31

>  <SCORE.norm>
-0.591155

>  <RMSD>
3.131

$$$$
2et3_lig
 OpenBabel11021811423D
libRbt.so/2013.1/901 2013/11/27
 31 33  0  0  0  0  0  0  0  0999 V2000
    0.0139   -8.0806   28.4891 C   0  0  2  0  0  0  0  0  0  0  0  0
    0.9115   -8.6289   29.4891 O   0  0  0  0  0  0  0  0  0  0  0  0
   -1.8460  -10.7649   31.9670 C   0  0  2  0  0  0  0  0  0  0  0  0
   -2.3373  -11.7149   32.9166 N   0  0  0  0  0  0  0  0  0  0  0  0
   -2.1720   -7.8994   33.5683 C   0  0  2  0  0  0  0  0  0  0  0  0
    0.7761   -7.1013   27.5899 C   0  0  2  0  0  0  0  0  0  0  0  0
    1.8930   -7.7851   27.0146 N   0  0  0  0  0  0  0  0  0  0  0  0
   -1.1964  -11.5191   30.7623 C   0  0  0  0  0  0  0  0  0  0  0  0
   -2.4793   -7.3922   34.9945 C   0  0  2  0  0  0  0  0  0  0  0  0
   -1.2637   -7.1992   35.6827 O   0  0  0  0  0  0  0  0  0  0  0  0
    1.2213   -5.8412   28.4079 C   0  0  0  0  0  0  0  0  0  0  0  0
   -0.6453  -10.4818   29.7167 C   0  0  2  0  0  0  0  0  0  0  0  0
   -0.0319  -11.1872   28.5802 N   0  0  0  0  0  0  0  0  0  0  0  0
   -3.3960   -8.4679   35.7082 C   0  0  1  0  0  0  0  0  0  0  0  0
   -3.7049   -8.0742   37.1218 N   0  0  0  0  0  0  0  0  0  0  0  0
   -0.0619   -5.1507   28.9676 C   0  0  0  0  0  0  0  0  0  0  0  0
    0.4043   -9.5351   30.4158 C   0  0  2  0  0  0  0  0  0  0  0  0
   -4.7712   -8.6716   34.8770 C   0  0  1  0  0  0  0  0  0  0  0  0
   -5.5254   -7.4781   34.8309 O   0  0  0  0  0  0  0  0  0  0  0  0
   -0.8479   -6.1984   29.8727 C   0  0  2  0  0  0  0  0  0  0  0  0
   -1.1512   -7.4345   29.1533 O   0  0  0  0  0  0  0  0  0  0  0  0
   -0.2799   -8.7912   31.6267 C   0  0  2  0  0  0  0  0  0  0  0  0
    0.6508   -7.9270   32.2707 O   0  0  0  0  0  0  0  0  0  0  0  0
   -4.4256   -9.0700   33.4089 C   0  0  0  0  0  0  0  0  0  0  0  0
   -3.4436   -8.1023   32.8156 O   0  0  0  0  0  0  0  0  0  0  0  0
   -2.1105   -5.6517   30.4962 C   0  0  0  0  0  0  0  0  0  0  0  0
   -3.0608   -5.2319   29.5000 N   0  0  0  0  0  0  0  0  0  0  0  0
   -0.8245   -9.8415   32.6574 C   0  0  1  0  0  0  0  0  0  0  0  0
   -1.4433   -9.1520   33.7367 O   0  0  0  0  0  0  0  0  0  0  0  0
   -5.7694   -9.6977   35.4307 C   0  0  0  0  0  0  0  0  0  0  0  0
   -4.5004   -6.8509   37.3191 C   0  0  0  0  0  0  0  0  0  0  0  0
  1  2  1  1  0  0  0
  1  6  1  0  0  0  0
  1 21  1  0  0  0  0
  3  4  1  1  0  0  0
  3  8  1  0  0  0  0
  3 28  1  0  0  0  0
  5  9  1  0  0  0  0
  5 25  1  0  0  0  0
  5 29  1  1  0  0  0
  6  7  1  1  0  0  0
  6 11  1  0  0  0  0
  8 12  1  0  0  0  0
  9 10  1  1  0  0  0
  9 14  1  0  0  0  0
 11 16  1  0  0  0  0
 12 13  1  6  0  0  0
 12 17  1  0  0  0  0
 14 15  1  1  0  0  0
 14 18  1  0  0  0  0
 15 31  1  0  0  0  0
 16 20  1  0  0  0  0
 17  2  1  6  0  0  0
 17 22  1  0  0  0  0
 18 19  1  6  0  0  0
 18 24  1  0  0  0  0
 18 30  1  0  0  0  0
 20 21  1  0  0  0  0
 20 26  1  6  0  0  0
 22 23  1  1  0  0  0
 22 28  1  0  0  0  0
 24 25  1  0  0  0  0
 26 27  1  0  0  0  0
 28 29  1  1  0  0  0
M  END
>  <CHROM.1>
179.40914480,-171.32418887,64.40071649,37.81391990,60.93589553,-85.98852284
-1.67481123,-8.26862998,31.95375587,-0.23347715,-0.98290281,2.93937802

>  <Name>
2et3_lig

>  <RI>
0

>  <Rbt.Current_Directory>
/home/itssahil/PROJECTS/Mol_Feturizer/New_Systems/rnas/2et3

>  <Rbt.Executable>
rbdock ($Id: //depot/dev/client3/rdock/2013.1/src/exe/rbdock.cxx#4 $)

>  <Rbt.Library>
libRbt.so (2013.1, Build901 2013/11/27)

>  <Rbt.Parameter_File>
/export/apps/rDock/src/rDock_2013.1_src/data/scripts/dock_solv.prm

>  <Rbt.Receptor>
prm/pocket_docking_2.prm

>  <SCORE>
-10.7653

>  <SCORE.INTER>
-6.97078

>  <SCORE.INTER.CONST>
1

>  <SCORE.INTER.POLAR>
-0.681314

>  <SCORE.INTER.ROT>
6

>  <SCORE.INTER.SOLV>
13.9199

>  <SCORE.INTER.VDW>
-14.6161

>  <SCORE.INTER.norm>
-0.224864

>  <SCORE.INTRA>
-5.87582

>  <SCORE.INTRA.DIHEDRAL>
-16.6783

>  <SCORE.INTRA.DIHEDRAL.0>
22.2484

>  <SCORE.INTRA.POLAR>
0

>  <SCORE.INTRA.POLAR.0>
0

>  <SCORE.INTRA.REPUL>
0.000477215

>  <SCORE.INTRA.REPUL.0>
0

>  <SCORE.INTRA.SOLV>
-0.0836365

>  <SCORE.INTRA.SOLV.lig_0>
-75.7198

>  <SCORE.INTRA.VDW>
2.50275

>  <SCORE.INTRA.VDW.0>
-3.34171

>  <SCORE.INTRA.norm>
-0.189543

>  <SCORE.RESTR>
2.08132

>  <SCORE.RESTR.CAVITY>
2.08132

>  <SCORE.RESTR.norm>
0.0671393

>  <SCORE.SYSTEM>
0

>  <SCORE.SYSTEM.CONST>
0

>  <SCORE.SYSTEM.DIHEDRAL>
0

>  <SCORE.SYSTEM.SOLV>
0

>  <SCORE.SYSTEM.norm>
0

>  <SCORE.heavy>
31

>  <SCORE.norm>
-0.347267

>  <RMSD>
3.139

$$$$
2et3_lig
 OpenBabel11021811423D
libRbt.so/2013.1/901 2013/11/27
 31 33  0  0  0  0  0  0  0  0999 V2000
   -0.2965   -8.2158   29.2453 C   0  0  2  0  0  0  0  0  0  0  0  0
    0.2523   -8.2975   30.5863 O   0  0  0  0  0  0  0  0  0  0  0  0
   -2.8637  -10.4821   32.5418 C   0  0  2  0  0  0  0  0  0  0  0  0
   -3.5392  -11.2491   33.5422 N   0  0  0  0  0  0  0  0  0  0  0  0
   -4.4792   -8.8902   34.6445 C   0  0  2  0  0  0  0  0  0  0  0  0
    0.8301   -7.9574   28.2391 C   0  0  2  0  0  0  0  0  0  0  0  0
    1.8084   -8.9922   28.3740 N   0  0  0  0  0  0  0  0  0  0  0  0
   -1.6128  -11.2703   32.0357 C   0  0  0  0  0  0  0  0  0  0  0  0
   -5.6116   -7.8472   34.7685 C   0  0  2  0  0  0  0  0  0  0  0  0
   -6.2980   -7.7694   33.5392 O   0  0  0  0  0  0  0  0  0  0  0  0
    1.4492   -6.5357   28.4649 C   0  0  0  0  0  0  0  0  0  0  0  0
   -0.8585  -10.4302   30.9411 C   0  0  2  0  0  0  0  0  0  0  0  0
    0.3209  -11.1681   30.4615 N   0  0  0  0  0  0  0  0  0  0  0  0
   -4.9572   -6.4614   35.1666 C   0  0  1  0  0  0  0  0  0  0  0  0
   -5.9874   -5.3758   35.2627 N   0  0  0  0  0  0  0  0  0  0  0  0
    0.3169   -5.4792   28.2688 C   0  0  0  0  0  0  0  0  0  0  0  0
   -0.4350   -9.0364   31.5448 C   0  0  2  0  0  0  0  0  0  0  0  0
   -4.1655   -6.5994   36.5729 C   0  0  1  0  0  0  0  0  0  0  0  0
   -5.0438   -6.9386   37.6260 O   0  0  0  0  0  0  0  0  0  0  0  0
   -0.8511   -5.7893   29.3053 C   0  0  2  0  0  0  0  0  0  0  0  0
   -1.3449   -7.1604   29.1900 O   0  0  0  0  0  0  0  0  0  0  0  0
   -1.7169   -8.2673   32.0478 C   0  0  2  0  0  0  0  0  0  0  0  0
   -1.3570   -7.0026   32.5942 O   0  0  0  0  0  0  0  0  0  0  0  0
   -3.1078   -7.7399   36.4529 C   0  0  0  0  0  0  0  0  0  0  0  0
   -3.7432   -8.9981   35.9373 O   0  0  0  0  0  0  0  0  0  0  0  0
   -2.0115   -4.8247   29.2353 C   0  0  0  0  0  0  0  0  0  0  0  0
   -2.9750   -5.0705   30.2760 N   0  0  0  0  0  0  0  0  0  0  0  0
   -2.4564   -9.1210   33.1370 C   0  0  1  0  0  0  0  0  0  0  0  0
   -3.6119   -8.4147   33.5721 O   0  0  0  0  0  0  0  0  0  0  0  0
   -3.4582   -5.3416   37.0956 C   0  0  0  0  0  0  0  0  0  0  0  0
   -5.7109   -4.1226   34.5408 C   0  0  0  0  0  0  0  0  0  0  0  0
  1  2  1  1  0  0  0
  1  6  1  0  0  0  0
  1 21  1  0  0  0  0
  3  4  1  1  0  0  0
  3  8  1  0  0  0  0
  3 28  1  0  0  0  0
  5  9  1  0  0  0  0
  5 25  1  0  0  0  0
  5 29  1  6  0  0  0
  6  7  1  1  0  0  0
  6 11  1  0  0  0  0
  8 12  1  0  0  0  0
  9 10  1  6  0  0  0
  9 14  1  0  0  0  0
 11 16  1  0  0  0  0
 12 13  1  1  0  0  0
 12 17  1  0  0  0  0
 14 15  1  1  0  0  0
 14 18  1  0  0  0  0
 15 31  1  0  0  0  0
 16 20  1  0  0  0  0
 17  2  1  6  0  0  0
 17 22  1  0  0  0  0
 18 19  1  1  0  0  0
 18 24  1  0  0  0  0
 18 30  1  0  0  0  0
 20 21  1  0  0  0  0
 20 26  1  6  0  0  0
 22 23  1  1  0  0  0
 22 28  1  0  0  0  0
 24 25  1  0  0  0  0
 26 27  1  0  0  0  0
 28 29  1  6  0  0  0
M  END
>  <CHROM.1>
-154.05532907,-178.91168347,-130.00444660,46.56572713,-174.34655113,63.77136950
-2.39947485,-7.74524420,32.46194206,-0.21368539,-0.90563342,2.74171548

>  <Name>
2et3_lig

>  <RI>
2.5794e+07

>  <Rbt.Current_Directory>
/home/itssahil/PROJECTS/Mol_Feturizer/New_Systems/rnas/2et3

>  <Rbt.Executable>
rbdock ($Id: //depot/dev/client3/rdock/2013.1/src/exe/rbdock.cxx#4 $)

>  <Rbt.Library>
libRbt.so (2013.1, Build901 2013/11/27)

>  <Rbt.Parameter_File>
/export/apps/rDock/src/rDock_2013.1_src/data/scripts/dock_solv.prm

>  <Rbt.Receptor>
prm/pocket_docking_5.prm

>  <SCORE>
-13.4942

>  <SCORE.INTER>
-5.92361

>  <SCORE.INTER.CONST>
1

>  <SCORE.INTER.POLAR>
0

>  <SCORE.INTER.ROT>
6

>  <SCORE.INTER.SOLV>
11.5409

>  <SCORE.INTER.VDW>
-15.396

>  <SCORE.INTER.norm>
-0.191084

>  <SCORE.INTRA>
-7.57063

>  <SCORE.INTRA.DIHEDRAL>
-17.1064

>  <SCORE.INTRA.DIHEDRAL.0>
22.2484

>  <SCORE.INTRA.POLAR>
0

>  <SCORE.INTRA.POLAR.0>
0

>  <SCORE.INTRA.REPUL>
0

>  <SCORE.INTRA.REPUL.0>
0

>  <SCORE.INTRA.SOLV>
1.13066

>  <SCORE.INTRA.SOLV.lig_0>
-75.7198

>  <SCORE.INTRA.VDW>
0.417249

>  <SCORE.INTRA.VDW.0>
-3.34171

>  <SCORE.INTRA.norm>
-0.244214

>  <SCORE.RESTR>
0

>  <SCORE.RESTR.CAVITY>
0

>  <SCORE.RESTR.norm>
0

>  <SCORE.SYSTEM>
0

>  <SCORE.SYSTEM.CONST>
0

>  <SCORE.SYSTEM.DIHEDRAL>
0

>  <SCORE.SYSTEM.SOLV>
0

>  <SCORE.SYSTEM.norm>
0

>  <SCORE.heavy>
31

>  <SCORE.norm>
-0.435298

>  <RMSD>
3.160

$$$$
2et3_lig
 OpenBabel11021811423D
libRbt.so/2013.1/901 2013/11/27
 31 33  0  0  0  0  0  0  0  0999 V2000
   -0.5892   -7.5384   28.1905 C   0  0  2  0  0  0  0  0  0  0  0  0
    0.3439   -7.4042   29.2939 O   0  0  0  0  0  0  0  0  0  0  0  0
   -1.5707   -9.8300   32.2530 C   0  0  2  0  0  0  0  0  0  0  0  0
   -1.7404  -10.6284   33.4275 N   0  0  0  0  0  0  0  0  0  0  0  0
   -2.1371   -8.0094   34.9482 C   0  0  2  0  0  0  0  0  0  0  0  0
   -0.1904   -6.5885   27.0561 C   0  0  2  0  0  0  0  0  0  0  0  0
    1.1592   -6.8727   26.6765 N   0  0  0  0  0  0  0  0  0  0  0  0
   -0.5196  -10.5024   31.3121 C   0  0  0  0  0  0  0  0  0  0  0  0
   -3.5188   -7.4966   35.4104 C   0  0  2  0  0  0  0  0  0  0  0  0
   -4.5238   -8.2421   34.7605 O   0  0  0  0  0  0  0  0  0  0  0  0
   -0.3693   -5.0974   27.5033 C   0  0  0  0  0  0  0  0  0  0  0  0
   -0.3200   -9.6265   30.0214 C   0  0  2  0  0  0  0  0  0  0  0  0
    0.6696  -10.2553   29.1320 N   0  0  0  0  0  0  0  0  0  0  0  0
   -3.6094   -5.9551   35.0603 C   0  0  1  0  0  0  0  0  0  0  0  0
   -4.9448   -5.3850   35.4352 N   0  0  0  0  0  0  0  0  0  0  0  0
   -1.8715   -4.8795   27.8674 C   0  0  0  0  0  0  0  0  0  0  0  0
    0.1446   -8.1772   30.4341 C   0  0  2  0  0  0  0  0  0  0  0  0
   -2.4286   -5.1398   35.8117 C   0  0  1  0  0  0  0  0  0  0  0  0
   -2.5521   -5.2340   37.2158 O   0  0  0  0  0  0  0  0  0  0  0  0
   -2.2655   -5.8978   29.0260 C   0  0  2  0  0  0  0  0  0  0  0  0
   -1.9768   -7.2851   28.6663 O   0  0  0  0  0  0  0  0  0  0  0  0
   -0.9341   -7.5272   31.3835 C   0  0  2  0  0  0  0  0  0  0  0  0
   -0.5355   -6.2146   31.7657 O   0  0  0  0  0  0  0  0  0  0  0  0
   -1.0513   -5.7561   35.4155 C   0  0  0  0  0  0  0  0  0  0  0  0
   -1.0554   -7.2415   35.6302 O   0  0  0  0  0  0  0  0  0  0  0  0
   -3.6983   -5.7818   29.4899 C   0  0  0  0  0  0  0  0  0  0  0  0
   -4.0955   -6.9119   30.2880 N   0  0  0  0  0  0  0  0  0  0  0  0
   -1.1206   -8.4153   32.6636 C   0  0  1  0  0  0  0  0  0  0  0  0
   -2.1012   -7.8169   33.5025 O   0  0  0  0  0  0  0  0  0  0  0  0
   -2.3664   -3.6264   35.5644 C   0  0  0  0  0  0  0  0  0  0  0  0
   -5.9834   -5.3662   34.3916 C   0  0  0  0  0  0  0  0  0  0  0  0
  1  2  1  1  0  0  0
  1  6  1  0  0  0  0
  1 21  1  0  0  0  0
  3  4  1  1  0  0  0
  3  8  1  0  0  0  0
  3 28  1  0  0  0  0
  5  9  1  0  0  0  0
  5 25  1  0  0  0  0
  5 29  1  6  0  0  0
  6  7  1  1  0  0  0
  6 11  1  0  0  0  0
  8 12  1  0  0  0  0
  9 10  1  6  0  0  0
  9 14  1  0  0  0  0
 11 16  1  0  0  0  0
 12 13  1  6  0  0  0
 12 17  1  0  0  0  0
 14 15  1  1  0  0  0
 14 18  1  0  0  0  0
 15 31  1  0  0  0  0
 16 20  1  0  0  0  0
 17  2  1  6  0  0  0
 17 22  1  0  0  0  0
 18 19  1  1  0  0  0
 18 24  1  0  0  0  0
 18 30  1  0  0  0  0
 20 21  1  0  0  0  0
 20 26  1  6  0  0  0
 22 23  1  1  0  0  0
 22 28  1  0  0  0  0
 24 25  1  0  0  0  0
 26 27  1  0  0  0  0
 28 29  1  1  0  0  0
M  END
>  <CHROM.1>
179.31931238,-166.34073459,-92.96076913,39.68307282,165.99648584,86.28622987
-1.81412379,-7.09895120,31.96296026,0.81772090,1.02844248,-1.05111389

>  <Name>
2et3_lig

>  <RI>
3.50789e+07

>  <Rbt.Current_Directory>
/home/itssahil/PROJECTS/Mol_Feturizer/New_Systems/rnas/2et3

>  <Rbt.Executable>
rbdock ($Id: //depot/dev/client3/rdock/2013.1/src/exe/rbdock.cxx#4 $)

>  <Rbt.Library>
libRbt.so (2013.1, Build901 2013/11/27)

>  <Rbt.Parameter_File>
/export/apps/rDock/src/rDock_2013.1_src/data/scripts/dock_solv.prm

>  <Rbt.Receptor>
prm/pocket_docking_4.prm

>  <SCORE>
-14.4237

>  <SCORE.INTER>
-7.30472

>  <SCORE.INTER.CONST>
1

>  <SCORE.INTER.POLAR>
-0.848528

>  <SCORE.INTER.ROT>
6

>  <SCORE.INTER.SOLV>
10.9725

>  <SCORE.INTER.VDW>
-13.2989

>  <SCORE.INTER.norm>
-0.235636

>  <SCORE.INTRA>
-7.11896

>  <SCORE.INTRA.DIHEDRAL>
-15.1337

>  <SCORE.INTRA.DIHEDRAL.0>
22.2484

>  <SCORE.INTRA.POLAR>
0

>  <SCORE.INTRA.POLAR.0>
0

>  <SCORE.INTRA.REPUL>
0

>  <SCORE.INTRA.REPUL.0>
0

>  <SCORE.INTRA.SOLV>
0.751614

>  <SCORE.INTRA.SOLV.lig_0>
-75.7198

>  <SCORE.INTRA.VDW>
0.0720825

>  <SCORE.INTRA.VDW.0>
-3.34171

>  <SCORE.INTRA.norm>
-0.229644

>  <SCORE.RESTR>
0

>  <SCORE.RESTR.CAVITY>
0

>  <SCORE.RESTR.norm>
0

>  <SCORE.SYSTEM>
0

>  <SCORE.SYSTEM.CONST>
0

>  <SCORE.SYSTEM.DIHEDRAL>
0

>  <SCORE.SYSTEM.SOLV>
0

>  <SCORE.SYSTEM.norm>
0

>  <SCORE.heavy>
31

>  <SCORE.norm>
-0.46528

>  <RMSD>
3.306

$$$$
2et3_lig
 OpenBabel11021811423D
libRbt.so/2013.1/901 2013/11/27
 31 33  0  0  0  0  0  0  0  0999 V2000
    0.2857   -7.9960   28.8274 C   0  0  2  0  0  0  0  0  0  0  0  0
    0.8602   -7.7717   30.1411 O   0  0  0  0  0  0  0  0  0  0  0  0
   -2.2349   -9.2781   32.6821 C   0  0  2  0  0  0  0  0  0  0  0  0
   -2.8699   -9.8339   33.8369 N   0  0  0  0  0  0  0  0  0  0  0  0
   -3.4221   -7.3110   34.6880 C   0  0  2  0  0  0  0  0  0  0  0  0
    1.2890   -7.5821   27.7454 C   0  0  2  0  0  0  0  0  0  0  0  0
    2.5044   -8.3085   27.9486 N   0  0  0  0  0  0  0  0  0  0  0  0
   -1.1702  -10.2839   32.1370 C   0  0  0  0  0  0  0  0  0  0  0  0
   -4.3495   -6.0854   34.8415 C   0  0  2  0  0  0  0  0  0  0  0  0
   -5.1075   -5.9353   33.6619 O   0  0  0  0  0  0  0  0  0  0  0  0
    1.5222   -6.0330   27.7799 C   0  0  0  0  0  0  0  0  0  0  0  0
   -0.4604   -9.6771   30.8717 C   0  0  2  0  0  0  0  0  0  0  0  0
    0.5438  -10.6204   30.3546 N   0  0  0  0  0  0  0  0  0  0  0  0
   -3.4421   -4.8190   35.1237 C   0  0  1  0  0  0  0  0  0  0  0  0
   -4.2640   -3.5701   35.2399 N   0  0  0  0  0  0  0  0  0  0  0  0
    0.1514   -5.3326   27.5208 C   0  0  0  0  0  0  0  0  0  0  0  0
    0.2118   -8.3024   31.2524 C   0  0  2  0  0  0  0  0  0  0  0  0
   -2.5767   -5.0401   36.4750 C   0  0  1  0  0  0  0  0  0  0  0  0
   -3.4141   -5.1855   37.6034 O   0  0  0  0  0  0  0  0  0  0  0  0
   -0.8780   -5.8027   28.6406 C   0  0  2  0  0  0  0  0  0  0  0  0
   -1.0013   -7.2581   28.7042 O   0  0  0  0  0  0  0  0  0  0  0  0
   -0.8862   -7.3115   31.8004 C   0  0  2  0  0  0  0  0  0  0  0  0
   -0.3003   -6.0608   32.1472 O   0  0  0  0  0  0  0  0  0  0  0  0
   -1.7389   -6.3486   36.3357 C   0  0  0  0  0  0  0  0  0  0  0  0
   -2.6154   -7.4969   35.9287 O   0  0  0  0  0  0  0  0  0  0  0  0
   -2.2499   -5.1824   28.5185 C   0  0  0  0  0  0  0  0  0  0  0  0
   -2.9126   -5.5839   27.3054 N   0  0  0  0  0  0  0  0  0  0  0  0
   -1.5839   -7.9343   33.0603 C   0  0  1  0  0  0  0  0  0  0  0  0
   -2.5742   -7.0301   33.5345 O   0  0  0  0  0  0  0  0  0  0  0  0
   -1.6290   -3.9042   36.8839 C   0  0  0  0  0  0  0  0  0  0  0  0
   -4.8800   -3.0548   34.0057 C   0  0  0  0  0  0  0  0  0  0  0  0
  1  2  1  1  0  0  0
  1  6  1  0  0  0  0
  1 21  1  0  0  0  0
  3  4  1  1  0  0  0
  3  8  1  0  0  0  0
  3 28  1  0  0  0  0
  5  9  1  0  0  0  0
  5 25  1  0  0  0  0
  5 29  1  6  0  0  0
  6  7  1  1  0  0  0
  6 11  1  0  0  0  0
  8 12  1  0  0  0  0
  9 10  1  6  0  0  0
  9 14  1  0  0  0  0
 11 16  1  0  0  0  0
 12 13  1  1  0  0  0
 12 17  1  0  0  0  0
 14 15  1  1  0  0  0
 14 18  1  0  0  0  0
 15 31  1  0  0  0  0
 16 20  1  0  0  0  0
 17  2  1  6  0  0  0
 17 22  1  0  0  0  0
 18 19  1  1  0  0  0
 18 24  1  0  0  0  0
 18 30  1  0  0  0  0
 20 21  1  0  0  0  0
 20 26  1  6  0  0  0
 22 23  1  1  0  0  0
 22 28  1  0  0  0  0
 24 25  1  0  0  0  0
 26 27  1  0  0  0  0
 28 29  1  6  0  0  0
M  END
>  <CHROM.1>
-168.59694844,-179.48104947,-70.54331897,34.05530665,64.49689499,58.92906016
-1.60833109,-6.80829398,32.15131216,-0.54718024,-1.02021501,2.24291366

>  <Name>
2et3_lig

>  <RI>
3.50789e+07

>  <Rbt.Current_Directory>
/home/itssahil/PROJECTS/Mol_Feturizer/New_Systems/rnas/2et3

>  <Rbt.Executable>
rbdock ($Id: //depot/dev/client3/rdock/2013.1/src/exe/rbdock.cxx#4 $)

>  <Rbt.Library>
libRbt.so (2013.1, Build901 2013/11/27)

>  <Rbt.Parameter_File>
/export/apps/rDock/src/rDock_2013.1_src/data/scripts/dock_solv.prm

>  <Rbt.Receptor>
prm/pocket_docking_4.prm

>  <SCORE>
-15.1715

>  <SCORE.INTER>
-8.3896

>  <SCORE.INTER.CONST>
1

>  <SCORE.INTER.POLAR>
-0.691826

>  <SCORE.INTER.ROT>
6

>  <SCORE.INTER.SOLV>
10.9275

>  <SCORE.INTER.VDW>
-14.5295

>  <SCORE.INTER.norm>
-0.270632

>  <SCORE.INTRA>
-6.78757

>  <SCORE.INTRA.DIHEDRAL>
-18.452

>  <SCORE.INTRA.DIHEDRAL.0>
22.2484

>  <SCORE.INTRA.POLAR>
0

>  <SCORE.INTRA.POLAR.0>
0

>  <SCORE.INTRA.REPUL>
0

>  <SCORE.INTRA.REPUL.0>
0

>  <SCORE.INTRA.SOLV>
0.241555

>  <SCORE.INTRA.SOLV.lig_0>
-75.7198

>  <SCORE.INTRA.VDW>
2.31765

>  <SCORE.INTRA.VDW.0>
-3.34171

>  <SCORE.INTRA.norm>
-0.218954

>  <SCORE.RESTR>
0.00566849

>  <SCORE.RESTR.CAVITY>
0.00566849

>  <SCORE.RESTR.norm>
0.000182854

>  <SCORE.SYSTEM>
0

>  <SCORE.SYSTEM.CONST>
0

>  <SCORE.SYSTEM.DIHEDRAL>
0

>  <SCORE.SYSTEM.SOLV>
0

>  <SCORE.SYSTEM.norm>
0

>  <SCORE.heavy>
31

>  <SCORE.norm>
-0.489403

>  <RMSD>
3.553

$$$$
2et3_lig
 OpenBabel11021811423D
libRbt.so/2013.1/901 2013/11/27
 31 33  0  0  0  0  0  0  0  0999 V2000
   -0.3986   -7.8338   28.4980 C   0  0  2  0  0  0  0  0  0  0  0  0
    0.6508   -8.0845   29.4686 O   0  0  0  0  0  0  0  0  0  0  0  0
   -1.5848  -10.0658   32.5318 C   0  0  2  0  0  0  0  0  0  0  0  0
   -1.8622  -10.8577   33.6900 N   0  0  0  0  0  0  0  0  0  0  0  0
   -2.5953   -7.2812   33.5762 C   0  0  2  0  0  0  0  0  0  0  0  0
    0.0637   -6.7678   27.4988 C   0  0  2  0  0  0  0  0  0  0  0  0
    1.2828   -7.2080   26.8936 N   0  0  0  0  0  0  0  0  0  0  0  0
   -0.8578  -10.9426   31.4618 C   0  0  0  0  0  0  0  0  0  0  0  0
   -2.6112   -6.1060   34.5784 C   0  0  2  0  0  0  0  0  0  0  0  0
   -1.4295   -5.3534   34.4190 O   0  0  0  0  0  0  0  0  0  0  0  0
    0.2337   -5.3844   28.2148 C   0  0  0  0  0  0  0  0  0  0  0  0
   -0.5409  -10.0774   30.1875 C   0  0  2  0  0  0  0  0  0  0  0  0
    0.1445  -10.8986   29.1768 N   0  0  0  0  0  0  0  0  0  0  0  0
   -2.7326   -6.7101   36.0370 C   0  0  1  0  0  0  0  0  0  0  0  0
   -2.7078   -5.6334   37.0805 N   0  0  0  0  0  0  0  0  0  0  0  0
   -1.1490   -4.9780   28.8145 C   0  0  0  0  0  0  0  0  0  0  0  0
    0.3492   -8.8417   30.5968 C   0  0  2  0  0  0  0  0  0  0  0  0
   -4.0922   -7.5802   36.1714 C   0  0  1  0  0  0  0  0  0  0  0  0
   -5.2378   -6.7762   35.9802 O   0  0  0  0  0  0  0  0  0  0  0  0
   -1.6177   -6.1156   29.8250 C   0  0  2  0  0  0  0  0  0  0  0  0
   -1.6511   -7.4353   29.1969 O   0  0  0  0  0  0  0  0  0  0  0  0
   -0.4098   -7.9792   31.6775 C   0  0  2  0  0  0  0  0  0  0  0  0
    0.3759   -6.8545   32.0590 O   0  0  0  0  0  0  0  0  0  0  0  0
   -4.1010   -8.6859   35.0710 C   0  0  0  0  0  0  0  0  0  0  0  0
   -3.8415   -8.0883   33.7188 O   0  0  0  0  0  0  0  0  0  0  0  0
   -2.9430   -5.8392   30.4951 C   0  0  0  0  0  0  0  0  0  0  0  0
   -4.0241   -5.7970   29.5458 N   0  0  0  0  0  0  0  0  0  0  0  0
   -0.7186   -8.8591   32.9395 C   0  0  1  0  0  0  0  0  0  0  0  0
   -1.4086   -8.0664   33.8980 O   0  0  0  0  0  0  0  0  0  0  0  0
   -4.3544   -8.2500   37.5272 C   0  0  0  0  0  0  0  0  0  0  0  0
   -1.3903   -5.0953   37.4584 C   0  0  0  0  0  0  0  0  0  0  0  0
  1  2  1  1  0  0  0
  1  6  1  0  0  0  0
  1 21  1  0  0  0  0
  3  4  1  1  0  0  0
  3  8  1  0  0  0  0
  3 28  1  0  0  0  0
  5  9  1  0  0  0  0
  5 25  1  0  0  0  0
  5 29  1  1  0  0  0
  6  7  1  1  0  0  0
  6 11  1  0  0  0  0
  8 12  1  0  0  0  0
  9 10  1  1  0  0  0
  9 14  1  0  0  0  0
 11 16  1  0  0  0  0
 12 13  1  6  0  0  0
 12 17  1  0  0  0  0
 14 15  1  1  0  0  0
 14 18  1  0  0  0  0
 15 31  1  0  0  0  0
 16 20  1  0  0  0  0
 17  2  1  6  0  0  0
 17 22  1  0  0  0  0
 18 19  1  6  0  0  0
 18 24  1  0  0  0  0
 18 30  1  0  0  0  0
 20 21  1  0  0  0  0
 20 26  1  6  0  0  0
 22 23  1  1  0  0  0
 22 28  1  0  0  0  0
 24 25  1  0  0  0  0
 26 27  1  0  0  0  0
 28 29  1  1  0  0  0
M  END
>  <CHROM.1>
168.82355357,-152.76326637,-80.39131182,42.53814425,64.06737105,-69.09242380
-1.66153572,-7.54026012,32.23859764,0.33359138,1.14430057,-0.43098042

>  <Name>
2et3_lig

>  <RI>
3.50789e+07

>  <Rbt.Current_Directory>
/home/itssahil/PROJECTS/Mol_Feturizer/New_Systems/rnas/2et3

>  <Rbt.Executable>
rbdock ($Id: //depot/dev/client3/rdock/2013.1/src/exe/rbdock.cxx#4 $)

>  <Rbt.Library>
libRbt.so (2013.1, Build901 2013/11/27)

>  <Rbt.Parameter_File>
/export/apps/rDock/src/rDock_2013.1_src/data/scripts/dock_solv.prm

>  <Rbt.Receptor>
prm/pocket_docking_4.prm

>  <SCORE>
-14.144

>  <SCORE.INTER>
-6.94097

>  <SCORE.INTER.CONST>
1

>  <SCORE.INTER.POLAR>
-0.297019

>  <SCORE.INTER.ROT>
6

>  <SCORE.INTER.SOLV>
12.337

>  <SCORE.INTER.VDW>
-15.3496

>  <SCORE.INTER.norm>
-0.223902

>  <SCORE.INTRA>
-7.20361

>  <SCORE.INTRA.DIHEDRAL>
-16.2309

>  <SCORE.INTRA.DIHEDRAL.0>
22.2484

>  <SCORE.INTRA.POLAR>
0

>  <SCORE.INTRA.POLAR.0>
0

>  <SCORE.INTRA.REPUL>
0

>  <SCORE.INTRA.REPUL.0>
0

>  <SCORE.INTRA.SOLV>
-0.0156205

>  <SCORE.INTRA.SOLV.lig_0>
-75.7198

>  <SCORE.INTRA.VDW>
0.919662

>  <SCORE.INTRA.VDW.0>
-3.34171

>  <SCORE.INTRA.norm>
-0.232375

>  <SCORE.RESTR>
0.000600946

>  <SCORE.RESTR.CAVITY>
0.000600946

>  <SCORE.RESTR.norm>
1.93853e-05

>  <SCORE.SYSTEM>
0

>  <SCORE.SYSTEM.CONST>
0

>  <SCORE.SYSTEM.DIHEDRAL>
0

>  <SCORE.SYSTEM.SOLV>
0

>  <SCORE.SYSTEM.norm>
0

>  <SCORE.heavy>
31

>  <SCORE.norm>
-0.456258

>  <RMSD>
3.615

$$$$
2et3_lig
 OpenBabel11021811423D
libRbt.so/2013.1/901 2013/11/27
 31 33  0  0  0  0  0  0  0  0999 V2000
   -0.9896   -5.2454   28.5960 C   0  0  2  0  0  0  0  0  0  0  0  0
   -1.5820   -6.4571   29.1318 O   0  0  0  0  0  0  0  0  0  0  0  0
   -1.6764   -8.0315   33.1091 C   0  0  2  0  0  0  0  0  0  0  0  0
   -1.2092   -8.5026   34.3761 N   0  0  0  0  0  0  0  0  0  0  0  0
   -3.1357   -5.9895   34.5170 C   0  0  2  0  0  0  0  0  0  0  0  0
   -1.5690   -4.9556   27.2072 C   0  0  2  0  0  0  0  0  0  0  0  0
   -2.9930   -4.8738   27.3151 N   0  0  0  0  0  0  0  0  0  0  0  0
   -1.0948   -8.9308   31.9710 C   0  0  0  0  0  0  0  0  0  0  0  0
   -3.7500   -4.5892   34.7351 C   0  0  2  0  0  0  0  0  0  0  0  0
   -3.8107   -3.9187   33.4961 O   0  0  0  0  0  0  0  0  0  0  0  0
   -1.1233   -6.0590   26.1877 C   0  0  0  0  0  0  0  0  0  0  0  0
   -1.5965   -8.4145   30.5728 C   0  0  2  0  0  0  0  0  0  0  0  0
   -1.0510   -9.2581   29.4974 N   0  0  0  0  0  0  0  0  0  0  0  0
   -2.8449   -3.8164   35.7793 C   0  0  1  0  0  0  0  0  0  0  0  0
   -3.3465   -2.4229   36.0146 N   0  0  0  0  0  0  0  0  0  0  0  0
    0.4362   -6.0508   26.1186 C   0  0  0  0  0  0  0  0  0  0  0  0
   -1.1592   -6.9122   30.3774 C   0  0  2  0  0  0  0  0  0  0  0  0
   -2.7880   -4.6282   37.1799 C   0  0  1  0  0  0  0  0  0  0  0  0
   -4.0689   -4.7306   37.7668 O   0  0  0  0  0  0  0  0  0  0  0  0
    1.0100   -6.3248   27.5782 C   0  0  2  0  0  0  0  0  0  0  0  0
    0.4929   -5.3771   28.5639 O   0  0  0  0  0  0  0  0  0  0  0  0
   -1.7589   -6.0320   31.5408 C   0  0  2  0  0  0  0  0  0  0  0  0
   -1.3788   -4.6690   31.3813 O   0  0  0  0  0  0  0  0  0  0  0  0
   -2.2742   -6.0761   36.9096 C   0  0  0  0  0  0  0  0  0  0  0  0
   -3.0695   -6.7235   35.8137 O   0  0  0  0  0  0  0  0  0  0  0  0
    2.5183   -6.3613   27.6524 C   0  0  0  0  0  0  0  0  0  0  0  0
    2.9799   -6.8190   28.9366 N   0  0  0  0  0  0  0  0  0  0  0  0
   -1.2491   -6.5629   32.9266 C   0  0  1  0  0  0  0  0  0  0  0  0
   -1.8060   -5.7617   33.9617 O   0  0  0  0  0  0  0  0  0  0  0  0
   -1.9352   -4.0173   38.3001 C   0  0  0  0  0  0  0  0  0  0  0  0
   -3.0110   -1.4089   35.0010 C   0  0  0  0  0  0  0  0  0  0  0  0
  1  2  1  6  0  0  0
  1  6  1  0  0  0  0
  1 21  1  0  0  0  0
  3  4  1  1  0  0  0
  3  8  1  0  0  0  0
  3 28  1  0  0  0  0
  5  9  1  0  0  0  0
  5 25  1  0  0  0  0
  5 29  1  1  0  0  0
  6  7  1  1  0  0  0
  6 11  1  0  0  0  0
  8 12  1  0  0  0  0
  9 10  1  6  0  0  0
  9 14  1  0  0  0  0
 11 16  1  0  0  0  0
 12 13  1  6  0  0  0
 12 17  1  0  0  0  0
 14 15  1  1  0  0  0
 14 18  1  0  0  0  0
 15 31  1  0  0  0  0
 16 20  1  0  0  0  0
 17  2  1  6  0  0  0
 17 22  1  0  0  0  0
 18 19  1  1  0  0  0
 18 24  1  0  0  0  0
 18 30  1  0  0  0  0
 20 21  1  0  0  0  0
 20 26  1  6  0  0  0
 22 23  1  6  0  0  0
 22 28  1  0  0  0  0
 24 25  1  0  0  0  0
 26 27  1  0  0  0  0
 28 29  1  1  0  0  0
M  END
>  <CHROM.1>
178.36111464,-140.21444188,-79.26626774,-163.59815376,-170.79441638,-36.41844191
-1.58966140,-5.77446991,32.05348577,0.69195418,1.14007869,-0.94439977

>  <Name>
2et3_lig

>  <RI>
2.5794e+07

>  <Rbt.Current_Directory>
/home/itssahil/PROJECTS/Mol_Feturizer/New_Systems/rnas/2et3

>  <Rbt.Executable>
rbdock ($Id: //depot/dev/client3/rdock/2013.1/src/exe/rbdock.cxx#4 $)

>  <Rbt.Library>
libRbt.so (2013.1, Build901 2013/11/27)

>  <Rbt.Parameter_File>
/export/apps/rDock/src/rDock_2013.1_src/data/scripts/dock_solv.prm

>  <Rbt.Receptor>
prm/pocket_docking_5.prm

>  <SCORE>
-20.2754

>  <SCORE.INTER>
-13.8442

>  <SCORE.INTER.CONST>
1

>  <SCORE.INTER.POLAR>
-1.06114

>  <SCORE.INTER.ROT>
6

>  <SCORE.INTER.SOLV>
17.4595

>  <SCORE.INTER.VDW>
-19.1121

>  <SCORE.INTER.norm>
-0.446587

>  <SCORE.INTRA>
-6.43297

>  <SCORE.INTRA.DIHEDRAL>
-12.4577

>  <SCORE.INTRA.DIHEDRAL.0>
22.2484

>  <SCORE.INTRA.POLAR>
0

>  <SCORE.INTRA.POLAR.0>
0

>  <SCORE.INTRA.REPUL>
0

>  <SCORE.INTRA.REPUL.0>
0

>  <SCORE.INTRA.SOLV>
-1.61869

>  <SCORE.INTRA.SOLV.lig_0>
-75.7198

>  <SCORE.INTRA.VDW>
0.605213

>  <SCORE.INTRA.VDW.0>
-3.34171

>  <SCORE.INTRA.norm>
-0.207515

>  <SCORE.RESTR>
0.00177274

>  <SCORE.RESTR.CAVITY>
0.00177274

>  <SCORE.RESTR.norm>
5.71851e-05

>  <SCORE.SYSTEM>
0

>  <SCORE.SYSTEM.CONST>
0

>  <SCORE.SYSTEM.DIHEDRAL>
0

>  <SCORE.SYSTEM.SOLV>
0

>  <SCORE.SYSTEM.norm>
0

>  <SCORE.heavy>
31

>  <SCORE.norm>
-0.654045

>  <RMSD>
3.859

$$$$
2et3_lig
 OpenBabel11021811423D
libRbt.so/2013.1/901 2013/11/27
 31 33  0  0  0  0  0  0  0  0999 V2000
    2.9753   -8.4553   28.6340 C   0  0  2  0  0  0  0  0  0  0  0  0
    1.5272   -8.5315   28.5762 O   0  0  0  0  0  0  0  0  0  0  0  0
   -1.7122   -9.1313   31.3061 C   0  0  2  0  0  0  0  0  0  0  0  0
   -2.4032   -9.4361   32.5207 N   0  0  0  0  0  0  0  0  0  0  0  0
   -1.9981   -6.5752   33.3137 C   0  0  2  0  0  0  0  0  0  0  0  0
    3.4391   -7.0629   28.1929 C   0  0  2  0  0  0  0  0  0  0  0  0
    2.8006   -6.0862   29.0203 N   0  0  0  0  0  0  0  0  0  0  0  0
   -0.8935  -10.3795   30.8439 C   0  0  0  0  0  0  0  0  0  0  0  0
   -2.7767   -5.2413   33.3046 C   0  0  2  0  0  0  0  0  0  0  0  0
   -3.8691   -5.3557   32.4204 O   0  0  0  0  0  0  0  0  0  0  0  0
    3.1242   -6.8374   26.6746 C   0  0  0  0  0  0  0  0  0  0  0  0
   -0.1230  -10.0505   29.5130 C   0  0  2  0  0  0  0  0  0  0  0  0
    0.6502  -11.2230   29.0737 N   0  0  0  0  0  0  0  0  0  0  0  0
   -1.7774   -4.0960   32.8612 C   0  0  1  0  0  0  0  0  0  0  0  0
   -2.4675   -2.7670   32.7801 N   0  0  0  0  0  0  0  0  0  0  0  0
    3.8847   -7.9280   25.8567 C   0  0  0  0  0  0  0  0  0  0  0  0
    0.8266   -8.8132   29.7453 C   0  0  2  0  0  0  0  0  0  0  0  0
   -0.5307   -4.0105   33.8917 C   0  0  1  0  0  0  0  0  0  0  0  0
   -0.9627   -3.6755   35.1942 O   0  0  0  0  0  0  0  0  0  0  0  0
    3.4056   -9.3620   26.3554 C   0  0  2  0  0  0  0  0  0  0  0  0
    3.5735   -9.5318   27.7977 O   0  0  0  0  0  0  0  0  0  0  0  0
   -0.0277   -7.5723   30.2123 C   0  0  2  0  0  0  0  0  0  0  0  0
    0.8111   -6.4413   30.4245 O   0  0  0  0  0  0  0  0  0  0  0  0
    0.1646   -5.4049   33.9677 C   0  0  0  0  0  0  0  0  0  0  0  0
   -0.8411   -6.4825   34.2506 O   0  0  0  0  0  0  0  0  0  0  0  0
    4.0544  -10.5172   25.6298 C   0  0  0  0  0  0  0  0  0  0  0  0
    3.8203  -10.4571   24.2109 N   0  0  0  0  0  0  0  0  0  0  0  0
   -0.7897   -7.9199   31.5392 C   0  0  1  0  0  0  0  0  0  0  0  0
   -1.5588   -6.7923   31.9396 O   0  0  0  0  0  0  0  0  0  0  0  0
    0.5425   -2.9545   33.5941 C   0  0  0  0  0  0  0  0  0  0  0  0
   -3.2606   -2.3503   33.9487 C   0  0  0  0  0  0  0  0  0  0  0  0
  1  2  1  6  0  0  0
  1  6  1  0  0  0  0
  1 21  1  0  0  0  0
  3  4  1  1  0  0  0
  3  8  1  0  0  0  0
  3 28  1  0  0  0  0
  5  9  1  0  0  0  0
  5 25  1  0  0  0  0
  5 29  1  6  0  0  0
  6  7  1  1  0  0  0
  6 11  1  0  0  0  0
  8 12  1  0  0  0  0
  9 10  1  6  0  0  0
  9 14  1  0  0  0  0
 11 16  1  0  0  0  0
 12 13  1  1  0  0  0
 12 17  1  0  0  0  0
 14 15  1  1  0  0  0
 14 18  1  0  0  0  0
 15 31  1  0  0  0  0
 16 20  1  0  0  0  0
 17  2  1  6  0  0  0
 17 22  1  0  0  0  0
 18 19  1  1  0  0  0
 18 24  1  0  0  0  0
 18 30  1  0  0  0  0
 20 21  1  0  0  0  0
 20 26  1  6  0  0  0
 22 23  1  1  0  0  0
 22 28  1  0  0  0  0
 24 25  1  0  0  0  0
 26 27  1  0  0  0  0
 28 29  1  6  0  0  0
M  END
>  <CHROM.1>
-120.23740042,179.25724351,50.74495208,-126.03258505,-57.94337260,82.14931391
0.29486768,-7.10930583,30.60005000,-0.81811764,0.72271768,0.40374191

>  <Name>
2et3_lig

>  <RI>
3.86414e+07

>  <Rbt.Current_Directory>
/home/itssahil/PROJECTS/Mol_Feturizer/New_Systems/rnas/2et3

>  <Rbt.Executable>
rbdock ($Id: //depot/dev/client3/rdock/2013.1/src/exe/rbdock.cxx#4 $)

>  <Rbt.Library>
libRbt.so (2013.1, Build901 2013/11/27)

>  <Rbt.Parameter_File>
/export/apps/rDock/src/rDock_2013.1_src/data/scripts/dock_solv.prm

>  <Rbt.Receptor>
prm/pocket_docking_8.prm

>  <SCORE>
-18.8709

>  <SCORE.INTER>
-17.7078

>  <SCORE.INTER.CONST>
1

>  <SCORE.INTER.POLAR>
-2.03363

>  <SCORE.INTER.ROT>
6

>  <SCORE.INTER.SOLV>
21.9639

>  <SCORE.INTER.VDW>
-19.9477

>  <SCORE.INTER.norm>
-0.571218

>  <SCORE.INTRA>
-1.1631

>  <SCORE.INTRA.DIHEDRAL>
-5.7007

>  <SCORE.INTRA.DIHEDRAL.0>
22.2484

>  <SCORE.INTRA.POLAR>
0

>  <SCORE.INTRA.POLAR.0>
0

>  <SCORE.INTRA.REPUL>
0.00269359

>  <SCORE.INTRA.REPUL.0>
0

>  <SCORE.INTRA.SOLV>
-0.0914066

>  <SCORE.INTRA.SOLV.lig_0>
-75.7198

>  <SCORE.INTRA.VDW>
1.71948

>  <SCORE.INTRA.VDW.0>
-3.34171

>  <SCORE.INTRA.norm>
-0.0375194

>  <SCORE.RESTR>
0

>  <SCORE.RESTR.CAVITY>
0

>  <SCORE.RESTR.norm>
0

>  <SCORE.SYSTEM>
0

>  <SCORE.SYSTEM.CONST>
0

>  <SCORE.SYSTEM.DIHEDRAL>
0

>  <SCORE.SYSTEM.SOLV>
0

>  <SCORE.SYSTEM.norm>
0

>  <SCORE.heavy>
31

>  <SCORE.norm>
-0.608737

>  <RMSD>
3.953

$$$$
2et3_lig
 OpenBabel11021811423D
libRbt.so/2013.1/901 2013/11/27
 31 33  0  0  0  0  0  0  0  0999 V2000
   -1.5264   -5.5492   29.1815 C   0  0  2  0  0  0  0  0  0  0  0  0
   -2.7025   -6.3987   29.2171 O   0  0  0  0  0  0  0  0  0  0  0  0
   -4.6985   -8.0116   32.6406 C   0  0  2  0  0  0  0  0  0  0  0  0
   -4.9271   -8.8008   33.8113 N   0  0  0  0  0  0  0  0  0  0  0  0
   -3.8597   -6.7094   35.3588 C   0  0  2  0  0  0  0  0  0  0  0  0
   -1.5128   -4.7371   27.8820 C   0  0  2  0  0  0  0  0  0  0  0  0
   -2.7330   -3.9958   27.7946 N   0  0  0  0  0  0  0  0  0  0  0  0
   -4.4513   -8.9519   31.4172 C   0  0  0  0  0  0  0  0  0  0  0  0
   -4.1403   -5.4609   36.2237 C   0  0  2  0  0  0  0  0  0  0  0  0
   -5.3362   -4.8582   35.7820 O   0  0  0  0  0  0  0  0  0  0  0  0
   -1.3148   -5.6829   26.6484 C   0  0  0  0  0  0  0  0  0  0  0  0
   -4.1902   -8.0922   30.1265 C   0  0  2  0  0  0  0  0  0  0  0  0
   -3.9562   -8.9733   28.9713 N   0  0  0  0  0  0  0  0  0  0  0  0
   -2.9023   -4.4835   36.0859 C   0  0  1  0  0  0  0  0  0  0  0  0
   -3.1138   -3.2175   36.8614 N   0  0  0  0  0  0  0  0  0  0  0  0
    0.0495   -6.4218   26.8205 C   0  0  0  0  0  0  0  0  0  0  0  0
   -2.9513   -7.1462   30.3645 C   0  0  2  0  0  0  0  0  0  0  0  0
   -1.5491   -5.2198   36.5863 C   0  0  1  0  0  0  0  0  0  0  0  0
   -1.6283   -5.5667   37.9533 O   0  0  0  0  0  0  0  0  0  0  0  0
    0.0180   -7.2322   28.1906 C   0  0  2  0  0  0  0  0  0  0  0  0
   -0.2984   -6.3769   29.3332 O   0  0  0  0  0  0  0  0  0  0  0  0
   -3.2302   -6.2128   31.6049 C   0  0  2  0  0  0  0  0  0  0  0  0
   -2.1238   -5.3465   31.8355 O   0  0  0  0  0  0  0  0  0  0  0  0
   -1.3552   -6.5375   35.7741 C   0  0  0  0  0  0  0  0  0  0  0  0
   -2.6027   -7.3712   35.8135 O   0  0  0  0  0  0  0  0  0  0  0  0
    1.2791   -8.0133   28.4756 C   0  0  0  0  0  0  0  0  0  0  0  0
    2.3346   -7.1656   28.9645 N   0  0  0  0  0  0  0  0  0  0  0  0
   -3.4898   -7.0876   32.8814 C   0  0  1  0  0  0  0  0  0  0  0  0
   -3.7461   -6.2288   33.9860 O   0  0  0  0  0  0  0  0  0  0  0  0
   -0.2485   -4.4090   36.5035 C   0  0  0  0  0  0  0  0  0  0  0  0
   -3.3166   -1.9819   36.0867 C   0  0  0  0  0  0  0  0  0  0  0  0
  1  2  1  6  0  0  0
  1  6  1  0  0  0  0
  1 21  1  0  0  0  0
  3  4  1  1  0  0  0
  3  8  1  0  0  0  0
  3 28  1  0  0  0  0
  5  9  1  0  0  0  0
  5 25  1  0  0  0  0
  5 29  1  6  0  0  0
  6  7  1  6  0  0  0
  6 11  1  0  0  0  0
  8 12  1  0  0  0  0
  9 10  1  6  0  0  0
  9 14  1  0  0  0  0
 11 16  1  0  0  0  0
 12 13  1  6  0  0  0
 12 17  1  0  0  0  0
 14 15  1  1  0  0  0
 14 18  1  0  0  0  0
 15 31  1  0  0  0  0
 16 20  1  0  0  0  0
 17  2  1  6  0  0  0
 17 22  1  0  0  0  0
 18 19  1  1  0  0  0
 18 24  1  0  0  0  0
 18 30  1  0  0  0  0
 20 21  1  0  0  0  0
 20 26  1  1  0  0  0
 22 23  1  1  0  0  0
 22 28  1  0  0  0  0
 24 25  1  0  0  0  0
 26 27  1  0  0  0  0
 28 29  1  1  0  0  0
M  END
>  <CHROM.1>
-175.33406522,-179.85936827,-110.44972323,-174.49019833,78.14356464,67.72374831
-2.38877335,-6.18045805,32.27703416,-1.28915199,0.58435871,1.23292407

>  <Name>
2et3_lig

>  <RI>
2.5794e+07

>  <Rbt.Current_Directory>
/home/itssahil/PROJECTS/Mol_Feturizer/New_Systems/rnas/2et3

>  <Rbt.Executable>
rbdock ($Id: //depot/dev/client3/rdock/2013.1/src/exe/rbdock.cxx#4 $)

>  <Rbt.Library>
libRbt.so (2013.1, Build901 2013/11/27)

>  <Rbt.Parameter_File>
/export/apps/rDock/src/rDock_2013.1_src/data/scripts/dock_solv.prm

>  <Rbt.Receptor>
prm/pocket_docking_5.prm

>  <SCORE>
-17.7097

>  <SCORE.INTER>
-7.68551

>  <SCORE.INTER.CONST>
1

>  <SCORE.INTER.POLAR>
-0.938083

>  <SCORE.INTER.ROT>
6

>  <SCORE.INTER.SOLV>
9.99261

>  <SCORE.INTER.VDW>
-12.9276

>  <SCORE.INTER.norm>
-0.24792

>  <SCORE.INTRA>
-10.0272

>  <SCORE.INTRA.DIHEDRAL>
-19.3246

>  <SCORE.INTRA.DIHEDRAL.0>
22.2484

>  <SCORE.INTRA.POLAR>
0

>  <SCORE.INTRA.POLAR.0>
0

>  <SCORE.INTRA.REPUL>
0

>  <SCORE.INTRA.REPUL.0>
0

>  <SCORE.INTRA.SOLV>
-2.14814

>  <SCORE.INTRA.SOLV.lig_0>
-75.7198

>  <SCORE.INTRA.VDW>
0.709191

>  <SCORE.INTRA.VDW.0>
-3.34171

>  <SCORE.INTRA.norm>
-0.323457

>  <SCORE.RESTR>
0.00295323

>  <SCORE.RESTR.CAVITY>
0.00295323

>  <SCORE.RESTR.norm>
9.52656e-05

>  <SCORE.SYSTEM>
0

>  <SCORE.SYSTEM.CONST>
0

>  <SCORE.SYSTEM.DIHEDRAL>
0

>  <SCORE.SYSTEM.SOLV>
0

>  <SCORE.SYSTEM.norm>
0

>  <SCORE.heavy>
31

>  <SCORE.norm>
-0.571281

>  <RMSD>
4.039

$$$$
2et3_lig
 OpenBabel11021811423D
libRbt.so/2013.1/901 2013/11/27
 31 33  0  0  0  0  0  0  0  0999 V2000
    0.1387   -5.6154   30.1101 C   0  0  2  0  0  0  0  0  0  0  0  0
   -0.3569   -6.8843   30.6106 O   0  0  0  0  0  0  0  0  0  0  0  0
   -2.3901   -7.7387   34.2769 C   0  0  2  0  0  0  0  0  0  0  0  0
   -3.3960   -7.6997   35.2930 N   0  0  0  0  0  0  0  0  0  0  0  0
   -4.6687   -9.8570   34.0373 C   0  0  2  0  0  0  0  0  0  0  0  0
   -0.8007   -5.0852   29.0216 C   0  0  2  0  0  0  0  0  0  0  0  0
   -2.1200   -4.9876   29.5656 N   0  0  0  0  0  0  0  0  0  0  0  0
   -1.7937   -6.3081   34.0777 C   0  0  0  0  0  0  0  0  0  0  0  0
   -4.8065  -11.3950   34.0709 C   0  0  2  0  0  0  0  0  0  0  0  0
   -3.6144  -11.9496   34.5808 O   0  0  0  0  0  0  0  0  0  0  0  0
   -0.7564   -6.0147   27.7609 C   0  0  0  0  0  0  0  0  0  0  0  0
   -0.6923   -6.3397   32.9556 C   0  0  2  0  0  0  0  0  0  0  0  0
   -0.1277   -4.9943   32.7638 N   0  0  0  0  0  0  0  0  0  0  0  0
   -5.1034  -11.8908   32.5968 C   0  0  1  0  0  0  0  0  0  0  0  0
   -5.2056  -13.3855   32.5309 N   0  0  0  0  0  0  0  0  0  0  0  0
    0.7100   -6.0333   27.2261 C   0  0  0  0  0  0  0  0  0  0  0  0
   -1.3225   -6.8751   31.6129 C   0  0  2  0  0  0  0  0  0  0  0  0
   -6.4689  -11.2175   32.0439 C   0  0  1  0  0  0  0  0  0  0  0  0
   -7.5832  -11.6023   32.8221 O   0  0  0  0  0  0  0  0  0  0  0  0
    1.6660   -6.5596   28.3852 C   0  0  2  0  0  0  0  0  0  0  0  0
    1.5324   -5.7762   29.6123 O   0  0  0  0  0  0  0  0  0  0  0  0
   -1.9168   -8.3173   31.8468 C   0  0  2  0  0  0  0  0  0  0  0  0
   -2.4884   -8.8218   30.6441 O   0  0  0  0  0  0  0  0  0  0  0  0
   -6.3438   -9.6650   32.1316 C   0  0  0  0  0  0  0  0  0  0  0  0
   -5.9227   -9.2454   33.5097 O   0  0  0  0  0  0  0  0  0  0  0  0
    3.1226   -6.6448   27.9940 C   0  0  0  0  0  0  0  0  0  0  0  0
    3.3409   -7.6131   26.9516 N   0  0  0  0  0  0  0  0  0  0  0  0
   -3.0115   -8.2660   32.9698 C   0  0  1  0  0  0  0  0  0  0  0  0
   -3.5294   -9.5755   33.1706 O   0  0  0  0  0  0  0  0  0  0  0  0
   -6.8931  -11.5852   30.6155 C   0  0  0  0  0  0  0  0  0  0  0  0
   -3.9604  -14.1333   32.2892 C   0  0  0  0  0  0  0  0  0  0  0  0
  1  2  1  6  0  0  0
  1  6  1  0  0  0  0
  1 21  1  0  0  0  0
  3  4  1  1  0  0  0
  3  8  1  0  0  0  0
  3 28  1  0  0  0  0
  5  9  1  0  0  0  0
  5 25  1  0  0  0  0
  5 29  1  6  0  0  0
  6  7  1  1  0  0  0
  6 11  1  0  0  0  0
  8 12  1  0  0  0  0
  9 10  1  6  0  0  0
  9 14  1  0  0  0  0
 11 16  1  0  0  0  0
 12 13  1  6  0  0  0
 12 17  1  0  0  0  0
 14 15  1  1  0  0  0
 14 18  1  0  0  0  0
 15 31  1  0  0  0  0
 16 20  1  0  0  0  0
 17  2  1  6  0  0  0
 17 22  1  0  0  0  0
 18 19  1  1  0  0  0
 18 24  1  0  0  0  0
 18 30  1  0  0  0  0
 20 21  1  0  0  0  0
 20 26  1  6  0  0  0
 22 23  1  6  0  0  0
 22 28  1  0  0  0  0
 24 25  1  0  0  0  0
 26 27  1  0  0  0  0
 28 29  1  1  0  0  0
M  END
>  <CHROM.1>
-84.56806704,-174.77413383,-89.07252811,-68.56204499,-64.40920921,66.82780347
-2.43836546,-8.49455832,31.55556489,0.00306887,0.80337421,0.91630722

>  <Name>
2et3_lig

>  <RI>
3.86414e+07

>  <Rbt.Current_Directory>
/home/itssahil/PROJECTS/Mol_Feturizer/New_Systems/rnas/2et3

>  <Rbt.Executable>
rbdock ($Id: //depot/dev/client3/rdock/2013.1/src/exe/rbdock.cxx#4 $)

>  <Rbt.Library>
libRbt.so (2013.1, Build901 2013/11/27)

>  <Rbt.Parameter_File>
/export/apps/rDock/src/rDock_2013.1_src/data/scripts/dock_solv.prm

>  <Rbt.Receptor>
prm/pocket_docking_8.prm

>  <SCORE>
-26.8174

>  <SCORE.INTER>
-19.2302

>  <SCORE.INTER.CONST>
1

>  <SCORE.INTER.POLAR>
-1.78661

>  <SCORE.INTER.ROT>
6

>  <SCORE.INTER.SOLV>
10.1188

>  <SCORE.INTER.VDW>
-17.8377

>  <SCORE.INTER.norm>
-0.620329

>  <SCORE.INTRA>
-7.58724

>  <SCORE.INTRA.DIHEDRAL>
-18.1775

>  <SCORE.INTRA.DIHEDRAL.0>
22.2484

>  <SCORE.INTRA.POLAR>
0

>  <SCORE.INTRA.POLAR.0>
0

>  <SCORE.INTRA.REPUL>
0

>  <SCORE.INTRA.REPUL.0>
0

>  <SCORE.INTRA.SOLV>
0.733826

>  <SCORE.INTRA.SOLV.lig_0>
-75.7198

>  <SCORE.INTRA.VDW>
1.13459

>  <SCORE.INTRA.VDW.0>
-3.34171

>  <SCORE.INTRA.norm>
-0.24475

>  <SCORE.RESTR>
0

>  <SCORE.RESTR.CAVITY>
0

>  <SCORE.RESTR.norm>
0

>  <SCORE.SYSTEM>
0

>  <SCORE.SYSTEM.CONST>
0

>  <SCORE.SYSTEM.DIHEDRAL>
0

>  <SCORE.SYSTEM.SOLV>
0

>  <SCORE.SYSTEM.norm>
0

>  <SCORE.heavy>
31

>  <SCORE.norm>
-0.865078

>  <RMSD>
4.068

$$$$
2et3_lig
 OpenBabel11021811423D
libRbt.so/2013.1/901 2013/11/27
 31 33  0  0  0  0  0  0  0  0999 V2000
    0.3719   -6.0156   29.6631 C   0  0  2  0  0  0  0  0  0  0  0  0
   -0.0025   -7.3352   30.1371 O   0  0  0  0  0  0  0  0  0  0  0  0
   -1.9321   -8.3477   33.8192 C   0  0  2  0  0  0  0  0  0  0  0  0
   -2.9471   -8.4262   34.8238 N   0  0  0  0  0  0  0  0  0  0  0  0
   -3.8111  -10.8076   33.6923 C   0  0  2  0  0  0  0  0  0  0  0  0
   -0.5875   -5.5721   28.5534 C   0  0  2  0  0  0  0  0  0  0  0  0
   -1.9242   -5.6186   29.0606 N   0  0  0  0  0  0  0  0  0  0  0  0
   -1.5654   -6.8503   33.5635 C   0  0  0  0  0  0  0  0  0  0  0  0
   -3.7107  -12.3466   33.7760 C   0  0  2  0  0  0  0  0  0  0  0  0
   -2.4353  -12.6955   34.2659 O   0  0  0  0  0  0  0  0  0  0  0  0
   -0.4124   -6.4763   27.2857 C   0  0  0  0  0  0  0  0  0  0  0  0
   -0.4557   -6.7539   32.4534 C   0  0  2  0  0  0  0  0  0  0  0  0
   -0.1071   -5.3453   32.2084 N   0  0  0  0  0  0  0  0  0  0  0  0
   -3.9655  -12.9319   32.3271 C   0  0  1  0  0  0  0  0  0  0  0  0
   -3.8392  -14.4261   32.3090 N   0  0  0  0  0  0  0  0  0  0  0  0
    1.0620   -6.3361   26.7926 C   0  0  0  0  0  0  0  0  0  0  0  0
   -0.9729   -7.4372   31.1297 C   0  0  2  0  0  0  0  0  0  0  0  0
   -5.4316  -12.4936   31.7959 C   0  0  1  0  0  0  0  0  0  0  0  0
   -6.4538  -13.0168   32.6187 O   0  0  0  0  0  0  0  0  0  0  0  0
    2.0356   -6.7748   27.9734 C   0  0  2  0  0  0  0  0  0  0  0  0
    1.7878   -6.0248   29.2036 O   0  0  0  0  0  0  0  0  0  0  0  0
   -1.3362   -8.9442   31.4206 C   0  0  2  0  0  0  0  0  0  0  0  0
   -1.8026   -9.5820   30.2359 O   0  0  0  0  0  0  0  0  0  0  0  0
   -5.5436  -10.9381   31.8333 C   0  0  0  0  0  0  0  0  0  0  0  0
   -5.1569  -10.4125   33.1850 O   0  0  0  0  0  0  0  0  0  0  0  0
    3.5032   -6.7036   27.6230 C   0  0  0  0  0  0  0  0  0  0  0  0
    3.8679   -7.6928   26.6429 N   0  0  0  0  0  0  0  0  0  0  0  0
   -2.4425   -9.0202   32.5308 C   0  0  1  0  0  0  0  0  0  0  0  0
   -2.7507  -10.3856   32.7836 O   0  0  0  0  0  0  0  0  0  0  0  0
   -5.8306  -12.9701   30.3926 C   0  0  0  0  0  0  0  0  0  0  0  0
   -2.4860  -14.9833   32.1464 C   0  0  0  0  0  0  0  0  0  0  0  0
  1  2  1  6  0  0  0
  1  6  1  0  0  0  0
  1 21  1  0  0  0  0
  3  4  1  1  0  0  0
  3  8  1  0  0  0  0
  3 28  1  0  0  0  0
  5  9  1  0  0  0  0
  5 25  1  0  0  0  0
  5 29  1  6  0  0  0
  6  7  1  1  0  0  0
  6 11  1  0  0  0  0
  8 12  1  0  0  0  0
  9 10  1  6  0  0  0
  9 14  1  0  0  0  0
 11 16  1  0  0  0  0
 12 13  1  6  0  0  0
 12 17  1  0  0  0  0
 14 15  1  1  0  0  0
 14 18  1  0  0  0  0
 15 31  1  0  0  0  0
 16 20  1  0  0  0  0
 17  2  1  6  0  0  0
 17 22  1  0  0  0  0
 18 19  1  1  0  0  0
 18 24  1  0  0  0  0
 18 30  1  0  0  0  0
 20 21  1  0  0  0  0
 20 26  1  6  0  0  0
 22 23  1  6  0  0  0
 22 28  1  0  0  0  0
 24 25  1  0  0  0  0
 26 27  1  0  0  0  0
 28 29  1  1  0  0  0
M  END
>  <CHROM.1>
-85.76565396,-174.60607775,-84.90017211,-63.64752100,-68.33074998,64.35449055
-1.80337948,-9.19498796,31.17567898,0.23035086,0.89815355,0.67820614

>  <Name>
2et3_lig

>  <RI>
0

>  <Rbt.Current_Directory>
/home/itssahil/PROJECTS/Mol_Feturizer/New_Systems/rnas/2et3

>  <Rbt.Executable>
rbdock ($Id: //depot/dev/client3/rdock/2013.1/src/exe/rbdock.cxx#4 $)

>  <Rbt.Library>
libRbt.so (2013.1, Build901 2013/11/27)

>  <Rbt.Parameter_File>
/export/apps/rDock/src/rDock_2013.1_src/data/scripts/dock_solv.prm

>  <Rbt.Receptor>
prm/pocket_docking_7.prm

>  <SCORE>
-25.4136

>  <SCORE.INTER>
-18.3145

>  <SCORE.INTER.CONST>
1

>  <SCORE.INTER.POLAR>
-1.78661

>  <SCORE.INTER.ROT>
6

>  <SCORE.INTER.SOLV>
9.76831

>  <SCORE.INTER.VDW>
-17.1104

>  <SCORE.INTER.norm>
-0.59079

>  <SCORE.INTRA>
-7.09906

>  <SCORE.INTRA.DIHEDRAL>
-18.3444

>  <SCORE.INTRA.DIHEDRAL.0>
22.2484

>  <SCORE.INTRA.POLAR>
0

>  <SCORE.INTRA.POLAR.0>
0

>  <SCORE.INTRA.REPUL>
0

>  <SCORE.INTRA.REPUL.0>
0

>  <SCORE.INTRA.SOLV>
0.876974

>  <SCORE.INTRA.SOLV.lig_0>
-75.7198

>  <SCORE.INTRA.VDW>
1.63463

>  <SCORE.INTRA.VDW.0>
-3.34171

>  <SCORE.INTRA.norm>
-0.229002

>  <SCORE.RESTR>
0

>  <SCORE.RESTR.CAVITY>
0

>  <SCORE.RESTR.norm>
0

>  <SCORE.SYSTEM>
0

>  <SCORE.SYSTEM.CONST>
0

>  <SCORE.SYSTEM.DIHEDRAL>
0

>  <SCORE.SYSTEM.SOLV>
0

>  <SCORE.SYSTEM.norm>
0

>  <SCORE.heavy>
31

>  <SCORE.norm>
-0.819792

>  <RMSD>
4.162

$$$$
2et3_lig
 OpenBabel11021811423D
libRbt.so/2013.1/901 2013/11/27
 31 33  0  0  0  0  0  0  0  0999 V2000
    0.2050   -7.3740   29.2579 C   0  0  2  0  0  0  0  0  0  0  0  0
    0.4460   -6.5690   30.4412 O   0  0  0  0  0  0  0  0  0  0  0  0
   -1.6128   -6.3023   34.1824 C   0  0  2  0  0  0  0  0  0  0  0  0
   -2.6866   -6.1428   35.1135 N   0  0  0  0  0  0  0  0  0  0  0  0
   -2.8478   -8.7785   35.2786 C   0  0  2  0  0  0  0  0  0  0  0  0
    1.5138   -7.5609   28.4829 C   0  0  2  0  0  0  0  0  0  0  0  0
    2.4836   -8.1424   29.3591 N   0  0  0  0  0  0  0  0  0  0  0  0
   -1.4712   -5.0056   33.3218 C   0  0  0  0  0  0  0  0  0  0  0  0
   -2.9891  -10.2830   35.5983 C   0  0  2  0  0  0  0  0  0  0  0  0
   -1.7083  -10.8211   35.8402 O   0  0  0  0  0  0  0  0  0  0  0  0
    2.0026   -6.1922   27.8972 C   0  0  0  0  0  0  0  0  0  0  0  0
   -0.2978   -5.1753   32.2886 C   0  0  2  0  0  0  0  0  0  0  0  0
   -0.1606   -3.9567   31.4751 N   0  0  0  0  0  0  0  0  0  0  0  0
   -3.6974  -10.9795   34.3654 C   0  0  1  0  0  0  0  0  0  0  0  0
   -3.8324  -12.4584   34.5740 N   0  0  0  0  0  0  0  0  0  0  0  0
    0.8954   -5.6551   26.9368 C   0  0  0  0  0  0  0  0  0  0  0  0
   -0.5790   -6.4272   31.3719 C   0  0  2  0  0  0  0  0  0  0  0  0
   -5.1553  -10.3208   34.1117 C   0  0  1  0  0  0  0  0  0  0  0  0
   -6.0082  -10.5179   35.2204 O   0  0  0  0  0  0  0  0  0  0  0  0
   -0.4581   -5.4987   27.7603 C   0  0  2  0  0  0  0  0  0  0  0  0
   -0.8516   -6.7419   28.4212 O   0  0  0  0  0  0  0  0  0  0  0  0
   -0.7189   -7.7174   32.2685 C   0  0  2  0  0  0  0  0  0  0  0  0
   -0.9698   -8.8618   31.4592 O   0  0  0  0  0  0  0  0  0  0  0  0
   -4.9916   -8.7829   33.9080 C   0  0  0  0  0  0  0  0  0  0  0  0
   -4.1923   -8.1833   35.0279 O   0  0  0  0  0  0  0  0  0  0  0  0
   -1.6165   -4.9664   26.9500 C   0  0  0  0  0  0  0  0  0  0  0  0
   -2.7811   -4.7411   27.7654 N   0  0  0  0  0  0  0  0  0  0  0  0
   -1.8922   -7.5286   33.2932 C   0  0  1  0  0  0  0  0  0  0  0  0
   -1.9973   -8.6982   34.0960 O   0  0  0  0  0  0  0  0  0  0  0  0
   -5.9712  -10.8767   32.9366 C   0  0  0  0  0  0  0  0  0  0  0  0
   -2.8825  -13.3265   33.8582 C   0  0  0  0  0  0  0  0  0  0  0  0
  1  2  1  1  0  0  0
  1  6  1  0  0  0  0
  1 21  1  0  0  0  0
  3  4  1  1  0  0  0
  3  8  1  0  0  0  0
  3 28  1  0  0  0  0
  5  9  1  0  0  0  0
  5 25  1  0  0  0  0
  5 29  1  6  0  0  0
  6  7  1  1  0  0  0
  6 11  1  0  0  0  0
  8 12  1  0  0  0  0
  9 10  1  6  0  0  0
  9 14  1  0  0  0  0
 11 16  1  0  0  0  0
 12 13  1  6  0  0  0
 12 17  1  0  0  0  0
 14 15  1  1  0  0  0
 14 18  1  0  0  0  0
 15 31  1  0  0  0  0
 16 20  1  0  0  0  0
 17  2  1  6  0  0  0
 17 22  1  0  0  0  0
 18 19  1  1  0  0  0
 18 24  1  0  0  0  0
 18 30  1  0  0  0  0
 20 21  1  0  0  0  0
 20 26  1  6  0  0  0
 22 23  1  6  0  0  0
 22 28  1  0  0  0  0
 24 25  1  0  0  0  0
 26 27  1  0  0  0  0
 28 29  1  1  0  0  0
M  END
>  <CHROM.1>
-171.81653707,164.01435482,-102.73271973,-161.19552419,-175.23358466,50.08484863
-1.79232387,-7.92884378,32.04880065,-0.31188621,-1.04039005,-2.86807207

>  <Name>
2et3_lig

>  <RI>
3.50789e+07

>  <Rbt.Current_Directory>
/home/itssahil/PROJECTS/Mol_Feturizer/New_Systems/rnas/2et3

>  <Rbt.Executable>
rbdock ($Id: //depot/dev/client3/rdock/2013.1/src/exe/rbdock.cxx#4 $)

>  <Rbt.Library>
libRbt.so (2013.1, Build901 2013/11/27)

>  <Rbt.Parameter_File>
/export/apps/rDock/src/rDock_2013.1_src/data/scripts/dock_solv.prm

>  <Rbt.Receptor>
prm/pocket_docking_4.prm

>  <SCORE>
-25.55

>  <SCORE.INTER>
-17.6981

>  <SCORE.INTER.CONST>
1

>  <SCORE.INTER.POLAR>
-0.975656

>  <SCORE.INTER.ROT>
6

>  <SCORE.INTER.SOLV>
19.1836

>  <SCORE.INTER.VDW>
-22.5411

>  <SCORE.INTER.norm>
-0.570907

>  <SCORE.INTRA>
-7.85189

>  <SCORE.INTRA.DIHEDRAL>
-17.4345

>  <SCORE.INTRA.DIHEDRAL.0>
22.2484

>  <SCORE.INTRA.POLAR>
0

>  <SCORE.INTRA.POLAR.0>
0

>  <SCORE.INTRA.REPUL>
0

>  <SCORE.INTRA.REPUL.0>
0

>  <SCORE.INTRA.SOLV>
-1.15599

>  <SCORE.INTRA.SOLV.lig_0>
-75.7198

>  <SCORE.INTRA.VDW>
1.44337

>  <SCORE.INTRA.VDW.0>
-3.34171

>  <SCORE.INTRA.norm>
-0.253287

>  <SCORE.RESTR>
0

>  <SCORE.RESTR.CAVITY>
0

>  <SCORE.RESTR.norm>
0

>  <SCORE.SYSTEM>
0

>  <SCORE.SYSTEM.CONST>
0

>  <SCORE.SYSTEM.DIHEDRAL>
0

>  <SCORE.SYSTEM.SOLV>
0

>  <SCORE.SYSTEM.norm>
0

>  <SCORE.heavy>
31

>  <SCORE.norm>
-0.824194

>  <RMSD>
4.179

$$$$
2et3_lig
 OpenBabel11021811423D
libRbt.so/2013.1/901 2013/11/27
 31 33  0  0  0  0  0  0  0  0999 V2000
    0.2076   -7.3941   29.3655 C   0  0  2  0  0  0  0  0  0  0  0  0
    0.4601   -6.5026   30.4825 O   0  0  0  0  0  0  0  0  0  0  0  0
   -1.4615   -6.3328   34.3015 C   0  0  2  0  0  0  0  0  0  0  0  0
   -2.4942   -6.1648   35.2766 N   0  0  0  0  0  0  0  0  0  0  0  0
   -2.8280   -8.7974   35.2861 C   0  0  2  0  0  0  0  0  0  0  0  0
    1.3850   -7.3440   28.3860 C   0  0  2  0  0  0  0  0  0  0  0  0
    2.5829   -7.6723   29.0955 N   0  0  0  0  0  0  0  0  0  0  0  0
   -1.2685   -4.9990   33.5104 C   0  0  0  0  0  0  0  0  0  0  0  0
   -2.9837  -10.3087   35.5641 C   0  0  2  0  0  0  0  0  0  0  0  0
   -1.7065  -10.8691   35.7722 O   0  0  0  0  0  0  0  0  0  0  0  0
    1.4747   -5.9328   27.7108 C   0  0  0  0  0  0  0  0  0  0  0  0
   -0.1402   -5.1771   32.4296 C   0  0  2  0  0  0  0  0  0  0  0  0
    0.0452   -3.9235   31.6813 N   0  0  0  0  0  0  0  0  0  0  0  0
   -3.7174  -10.9605   34.3216 C   0  0  1  0  0  0  0  0  0  0  0  0
   -3.8680  -12.4431   34.4891 N   0  0  0  0  0  0  0  0  0  0  0  0
    0.1402   -5.6799   26.9416 C   0  0  0  0  0  0  0  0  0  0  0  0
   -0.5250   -6.3551   31.4545 C   0  0  2  0  0  0  0  0  0  0  0  0
   -5.1704  -10.2771   34.1076 C   0  0  1  0  0  0  0  0  0  0  0  0
   -6.0104  -10.4961   35.2220 O   0  0  0  0  0  0  0  0  0  0  0  0
   -1.0663   -5.7668   27.9768 C   0  0  2  0  0  0  0  0  0  0  0  0
   -1.0784   -7.0323   28.7087 O   0  0  0  0  0  0  0  0  0  0  0  0
   -0.7148   -7.6846   32.2818 C   0  0  2  0  0  0  0  0  0  0  0  0
   -1.0596   -8.7636   31.4188 O   0  0  0  0  0  0  0  0  0  0  0  0
   -4.9903   -8.7360   33.9462 C   0  0  0  0  0  0  0  0  0  0  0  0
   -4.1683   -8.1790   35.0717 O   0  0  0  0  0  0  0  0  0  0  0  0
   -2.4252   -5.5223   27.3641 C   0  0  0  0  0  0  0  0  0  0  0  0
   -2.8271   -6.6045   26.5045 N   0  0  0  0  0  0  0  0  0  0  0  0
   -1.8421   -7.4871   33.3552 C   0  0  1  0  0  0  0  0  0  0  0  0
   -1.9929   -8.6929   34.0945 O   0  0  0  0  0  0  0  0  0  0  0  0
   -6.0092  -10.7886   32.9285 C   0  0  0  0  0  0  0  0  0  0  0  0
   -2.9411  -13.3014   33.7326 C   0  0  0  0  0  0  0  0  0  0  0  0
  1  2  1  1  0  0  0
  1  6  1  0  0  0  0
  1 21  1  0  0  0  0
  3  4  1  1  0  0  0
  3  8  1  0  0  0  0
  3 28  1  0  0  0  0
  5  9  1  0  0  0  0
  5 25  1  0  0  0  0
  5 29  1  6  0  0  0
  6  7  1  1  0  0  0
  6 11  1  0  0  0  0
  8 12  1  0  0  0  0
  9 10  1  6  0  0  0
  9 14  1  0  0  0  0
 11 16  1  0  0  0  0
 12 13  1  6  0  0  0
 12 17  1  0  0  0  0
 14 15  1  1  0  0  0
 14 18  1  0  0  0  0
 15 31  1  0  0  0  0
 16 20  1  0  0  0  0
 17  2  1  6  0  0  0
 17 22  1  0  0  0  0
 18 19  1  1  0  0  0
 18 24  1  0  0  0  0
 18 30  1  0  0  0  0
 20 21  1  0  0  0  0
 20 26  1  6  0  0  0
 22 23  1  6  0  0  0
 22 28  1  0  0  0  0
 24 25  1  0  0  0  0
 26 27  1  0  0  0  0
 28 29  1  1  0  0  0
M  END
>  <CHROM.1>
176.90721733,166.61859766,-102.88004504,-170.75228899,70.13989756,51.18536153
-1.86258478,-7.98080364,32.04588695,0.63152176,-0.94820862,-1.80389246

>  <Name>
2et3_lig

>  <RI>
2.5794e+07

>  <Rbt.Current_Directory>
/home/itssahil/PROJECTS/Mol_Feturizer/New_Systems/rnas/2et3

>  <Rbt.Executable>
rbdock ($Id: //depot/dev/client3/rdock/2013.1/src/exe/rbdock.cxx#4 $)

>  <Rbt.Library>
libRbt.so (2013.1, Build901 2013/11/27)

>  <Rbt.Parameter_File>
/export/apps/rDock/src/rDock_2013.1_src/data/scripts/dock_solv.prm

>  <Rbt.Receptor>
prm/pocket_docking_5.prm

>  <SCORE>
-25.431

>  <SCORE.INTER>
-16.9809

>  <SCORE.INTER.CONST>
1

>  <SCORE.INTER.POLAR>
-1.18802

>  <SCORE.INTER.ROT>
6

>  <SCORE.INTER.SOLV>
18.6512

>  <SCORE.INTER.VDW>
-21.1776

>  <SCORE.INTER.norm>
-0.547772

>  <SCORE.INTRA>
-8.45004

>  <SCORE.INTRA.DIHEDRAL>
-19.057

>  <SCORE.INTRA.DIHEDRAL.0>
22.2484

>  <SCORE.INTRA.POLAR>
0

>  <SCORE.INTRA.POLAR.0>
0

>  <SCORE.INTRA.REPUL>
0

>  <SCORE.INTRA.REPUL.0>
0

>  <SCORE.INTRA.SOLV>
-1.12333

>  <SCORE.INTRA.SOLV.lig_0>
-75.7198

>  <SCORE.INTRA.VDW>
1.64015

>  <SCORE.INTRA.VDW.0>
-3.34171

>  <SCORE.INTRA.norm>
-0.272582

>  <SCORE.RESTR>
0

>  <SCORE.RESTR.CAVITY>
0

>  <SCORE.RESTR.norm>
0

>  <SCORE.SYSTEM>
0

>  <SCORE.SYSTEM.CONST>
0

>  <SCORE.SYSTEM.DIHEDRAL>
0

>  <SCORE.SYSTEM.SOLV>
0

>  <SCORE.SYSTEM.norm>
0

>  <SCORE.heavy>
31

>  <SCORE.norm>
-0.820354

>  <RMSD>
4.191

$$$$
2et3_lig
 OpenBabel11021811423D
libRbt.so/2013.1/901 2013/11/27
 31 33  0  0  0  0  0  0  0  0999 V2000
    0.1552   -7.3777   29.4314 C   0  0  2  0  0  0  0  0  0  0  0  0
    0.4220   -6.4952   30.5522 O   0  0  0  0  0  0  0  0  0  0  0  0
   -1.4601   -6.3179   34.3905 C   0  0  2  0  0  0  0  0  0  0  0  0
   -2.4837   -6.1521   35.3756 N   0  0  0  0  0  0  0  0  0  0  0  0
   -2.8457   -8.8041   35.3673 C   0  0  2  0  0  0  0  0  0  0  0  0
    1.2995   -7.2865   28.4161 C   0  0  2  0  0  0  0  0  0  0  0  0
    2.5267   -7.5954   29.0830 N   0  0  0  0  0  0  0  0  0  0  0  0
   -1.2856   -4.9872   33.5899 C   0  0  0  0  0  0  0  0  0  0  0  0
   -3.0012  -10.3190   35.6254 C   0  0  2  0  0  0  0  0  0  0  0  0
   -1.7277  -10.8747   35.8662 O   0  0  0  0  0  0  0  0  0  0  0  0
    1.3346   -5.8647   27.7582 C   0  0  0  0  0  0  0  0  0  0  0  0
   -0.1676   -5.1631   32.4980 C   0  0  2  0  0  0  0  0  0  0  0  0
    0.0003   -3.9125   31.7407 N   0  0  0  0  0  0  0  0  0  0  0  0
   -3.6937  -10.9620   34.3549 C   0  0  1  0  0  0  0  0  0  0  0  0
   -3.8409  -12.4470   34.5030 N   0  0  0  0  0  0  0  0  0  0  0  0
   -0.0293   -5.6337   27.0349 C   0  0  0  0  0  0  0  0  0  0  0  0
   -0.5538   -6.3496   31.5338 C   0  0  2  0  0  0  0  0  0  0  0  0
   -5.1433  -10.2842   34.1042 C   0  0  1  0  0  0  0  0  0  0  0  0
   -6.0152  -10.5189   35.1906 O   0  0  0  0  0  0  0  0  0  0  0  0
   -1.1999   -5.7631   28.1062 C   0  0  2  0  0  0  0  0  0  0  0  0
   -1.1591   -7.0381   28.8204 O   0  0  0  0  0  0  0  0  0  0  0  0
   -0.7247   -7.6757   32.3706 C   0  0  2  0  0  0  0  0  0  0  0  0
   -1.0705   -8.7621   31.5175 O   0  0  0  0  0  0  0  0  0  0  0  0
   -4.9672   -8.7406   33.9637 C   0  0  0  0  0  0  0  0  0  0  0  0
   -4.1824   -8.1907   35.1190 O   0  0  0  0  0  0  0  0  0  0  0  0
   -2.5829   -5.5431   27.5399 C   0  0  0  0  0  0  0  0  0  0  0  0
   -2.9598   -6.5895   26.6263 N   0  0  0  0  0  0  0  0  0  0  0  0
   -1.8420   -7.4804   33.4549 C   0  0  1  0  0  0  0  0  0  0  0  0
   -1.9758   -8.6831   34.2025 O   0  0  0  0  0  0  0  0  0  0  0  0
   -5.9435  -10.7881   32.8953 C   0  0  0  0  0  0  0  0  0  0  0  0
   -2.9673  -13.2939   33.6737 C   0  0  0  0  0  0  0  0  0  0  0  0
  1  2  1  1  0  0  0
  1  6  1  0  0  0  0
  1 21  1  0  0  0  0
  3  4  1  1  0  0  0
  3  8  1  0  0  0  0
  3 28  1  0  0  0  0
  5  9  1  0  0  0  0
  5 25  1  0  0  0  0
  5 29  1  6  0  0  0
  6  7  1  1  0  0  0
  6 11  1  0  0  0  0
  8 12  1  0  0  0  0
  9 10  1  6  0  0  0
  9 14  1  0  0  0  0
 11 16  1  0  0  0  0
 12 13  1  6  0  0  0
 12 17  1  0  0  0  0
 14 15  1  1  0  0  0
 14 18  1  0  0  0  0
 15 31  1  0  0  0  0
 16 20  1  0  0  0  0
 17  2  1  6  0  0  0
 17 22  1  0  0  0  0
 18 19  1  1  0  0  0
 18 24  1  0  0  0  0
 18 30  1  0  0  0  0
 20 21  1  0  0  0  0
 20 26  1  6  0  0  0
 22 23  1  6  0  0  0
 22 28  1  0  0  0  0
 24 25  1  0  0  0  0
 26 27  1  0  0  0  0
 28 29  1  1  0  0  0
M  END
>  <CHROM.1>
174.77093490,164.56779344,-108.24247264,-169.72619563,67.24956579,54.12678369
-1.89749996,-7.97166656,32.10771338,0.66056340,-0.94562466,-1.76450633

>  <Name>
2et3_lig

>  <RI>
2.5794e+07

>  <Rbt.Current_Directory>
/home/itssahil/PROJECTS/Mol_Feturizer/New_Systems/rnas/2et3

>  <Rbt.Executable>
rbdock ($Id: //depot/dev/client3/rdock/2013.1/src/exe/rbdock.cxx#4 $)

>  <Rbt.Library>
libRbt.so (2013.1, Build901 2013/11/27)

>  <Rbt.Parameter_File>
/export/apps/rDock/src/rDock_2013.1_src/data/scripts/dock_solv.prm

>  <Rbt.Receptor>
prm/pocket_docking_5.prm

>  <SCORE>
-25.4659

>  <SCORE.INTER>
-16.7729

>  <SCORE.INTER.CONST>
1

>  <SCORE.INTER.POLAR>
-1.16471

>  <SCORE.INTER.ROT>
6

>  <SCORE.INTER.SOLV>
17.6747

>  <SCORE.INTER.VDW>
-20.7911

>  <SCORE.INTER.norm>
-0.541061

>  <SCORE.INTRA>
-8.69298

>  <SCORE.INTRA.DIHEDRAL>
-18.8788

>  <SCORE.INTRA.DIHEDRAL.0>
22.2484

>  <SCORE.INTRA.POLAR>
0

>  <SCORE.INTRA.POLAR.0>
0

>  <SCORE.INTRA.REPUL>
0

>  <SCORE.INTRA.REPUL.0>
0

>  <SCORE.INTRA.SOLV>
-1.14531

>  <SCORE.INTRA.SOLV.lig_0>
-75.7198

>  <SCORE.INTRA.VDW>
1.31908

>  <SCORE.INTRA.VDW.0>
-3.34171

>  <SCORE.INTRA.norm>
-0.280419

>  <SCORE.RESTR>
0

>  <SCORE.RESTR.CAVITY>
0

>  <SCORE.RESTR.norm>
0

>  <SCORE.SYSTEM>
0

>  <SCORE.SYSTEM.CONST>
0

>  <SCORE.SYSTEM.DIHEDRAL>
0

>  <SCORE.SYSTEM.SOLV>
0

>  <SCORE.SYSTEM.norm>
0

>  <SCORE.heavy>
31

>  <SCORE.norm>
-0.82148

>  <RMSD>
4.225

$$$$
2et3_lig
 OpenBabel11021811423D
libRbt.so/2013.1/901 2013/11/27
 31 33  0  0  0  0  0  0  0  0999 V2000
    0.1609   -7.3740   29.3966 C   0  0  2  0  0  0  0  0  0  0  0  0
    0.4194   -6.4797   30.5099 O   0  0  0  0  0  0  0  0  0  0  0  0
   -1.4390   -6.3348   34.3610 C   0  0  2  0  0  0  0  0  0  0  0  0
   -2.4575   -6.1822   35.3535 N   0  0  0  0  0  0  0  0  0  0  0  0
   -2.7688   -8.8275   35.3571 C   0  0  2  0  0  0  0  0  0  0  0  0
    1.3433   -7.3441   28.4223 C   0  0  2  0  0  0  0  0  0  0  0  0
    2.5337   -7.6836   29.1392 N   0  0  0  0  0  0  0  0  0  0  0  0
   -1.2818   -4.9994   33.5647 C   0  0  0  0  0  0  0  0  0  0  0  0
   -2.9259  -10.3431   35.6097 C   0  0  2  0  0  0  0  0  0  0  0  0
   -1.6492  -10.9082   35.8074 O   0  0  0  0  0  0  0  0  0  0  0  0
    1.4540   -5.9378   27.7399 C   0  0  0  0  0  0  0  0  0  0  0  0
   -0.1694   -5.1607   32.4649 C   0  0  2  0  0  0  0  0  0  0  0  0
   -0.0178   -3.9056   31.7116 N   0  0  0  0  0  0  0  0  0  0  0  0
   -3.6613  -10.9730   34.3570 C   0  0  1  0  0  0  0  0  0  0  0  0
   -3.8133  -12.4581   34.4996 N   0  0  0  0  0  0  0  0  0  0  0  0
    0.1263   -5.6724   26.9631 C   0  0  0  0  0  0  0  0  0  0  0  0
   -0.5512   -6.3468   31.4984 C   0  0  2  0  0  0  0  0  0  0  0  0
   -5.1136  -10.2846   34.1556 C   0  0  1  0  0  0  0  0  0  0  0  0
   -5.9530  -10.5215   35.2668 O   0  0  0  0  0  0  0  0  0  0  0  0
   -1.0859   -5.7385   27.9931 C   0  0  2  0  0  0  0  0  0  0  0  0
   -1.1174   -6.9996   28.7318 O   0  0  0  0  0  0  0  0  0  0  0  0
   -0.7046   -7.6777   32.3309 C   0  0  2  0  0  0  0  0  0  0  0  0
   -1.0461   -8.7639   31.4757 O   0  0  0  0  0  0  0  0  0  0  0  0
   -4.9320   -8.7412   34.0201 C   0  0  0  0  0  0  0  0  0  0  0  0
   -4.1086   -8.2041   35.1542 O   0  0  0  0  0  0  0  0  0  0  0  0
   -2.4388   -5.4802   27.3727 C   0  0  0  0  0  0  0  0  0  0  0  0
   -3.4928   -5.5195   28.3521 N   0  0  0  0  0  0  0  0  0  0  0  0
   -1.8165   -7.4970   33.4232 C   0  0  1  0  0  0  0  0  0  0  0  0
   -1.9344   -8.7038   34.1668 O   0  0  0  0  0  0  0  0  0  0  0  0
   -5.9538  -10.7753   32.9686 C   0  0  0  0  0  0  0  0  0  0  0  0
   -2.8965  -13.3047   33.7179 C   0  0  0  0  0  0  0  0  0  0  0  0
  1  2  1  1  0  0  0
  1  6  1  0  0  0  0
  1 21  1  0  0  0  0
  3  4  1  1  0  0  0
  3  8  1  0  0  0  0
  3 28  1  0  0  0  0
  5  9  1  0  0  0  0
  5 25  1  0  0  0  0
  5 29  1  6  0  0  0
  6  7  1  1  0  0  0
  6 11  1  0  0  0  0
  8 12  1  0  0  0  0
  9 10  1  6  0  0  0
  9 14  1  0  0  0  0
 11 16  1  0  0  0  0
 12 13  1  6  0  0  0
 12 17  1  0  0  0  0
 14 15  1  1  0  0  0
 14 18  1  0  0  0  0
 15 31  1  0  0  0  0
 16 20  1  0  0  0  0
 17  2  1  6  0  0  0
 17 22  1  0  0  0  0
 18 19  1  1  0  0  0
 18 24  1  0  0  0  0
 18 30  1  0  0  0  0
 20 21  1  0  0  0  0
 20 26  1  6  0  0  0
 22 23  1  6  0  0  0
 22 28  1  0  0  0  0
 24 25  1  0  0  0  0
 26 27  1  0  0  0  0
 28 29  1  1  0  0  0
M  END
>  <CHROM.1>
178.90856376,164.54379575,-103.46218450,-170.55604002,-178.57848190,52.48672679
-1.87156230,-7.94742077,32.14555419,0.44971376,-1.02616125,-1.99312888

>  <Name>
2et3_lig

>  <RI>
3.50789e+07

>  <Rbt.Current_Directory>
/home/itssahil/PROJECTS/Mol_Feturizer/New_Systems/rnas/2et3

>  <Rbt.Executable>
rbdock ($Id: //depot/dev/client3/rdock/2013.1/src/exe/rbdock.cxx#4 $)

>  <Rbt.Library>
libRbt.so (2013.1, Build901 2013/11/27)

>  <Rbt.Parameter_File>
/export/apps/rDock/src/rDock_2013.1_src/data/scripts/dock_solv.prm

>  <Rbt.Receptor>
prm/pocket_docking_4.prm

>  <SCORE>
-26.2256

>  <SCORE.INTER>
-17.3088

>  <SCORE.INTER.CONST>
1

>  <SCORE.INTER.POLAR>
-1.13022

>  <SCORE.INTER.ROT>
6

>  <SCORE.INTER.SOLV>
16.2473

>  <SCORE.INTER.VDW>
-20.7876

>  <SCORE.INTER.norm>
-0.558349

>  <SCORE.INTRA>
-8.91674

>  <SCORE.INTRA.DIHEDRAL>
-19.259

>  <SCORE.INTRA.DIHEDRAL.0>
22.2484

>  <SCORE.INTRA.POLAR>
0

>  <SCORE.INTRA.POLAR.0>
0

>  <SCORE.INTRA.REPUL>
0

>  <SCORE.INTRA.REPUL.0>
0

>  <SCORE.INTRA.SOLV>
-1.62431

>  <SCORE.INTRA.SOLV.lig_0>
-75.7198

>  <SCORE.INTRA.VDW>
1.52489

>  <SCORE.INTRA.VDW.0>
-3.34171

>  <SCORE.INTRA.norm>
-0.287637

>  <SCORE.RESTR>
0

>  <SCORE.RESTR.CAVITY>
0

>  <SCORE.RESTR.norm>
0

>  <SCORE.SYSTEM>
0

>  <SCORE.SYSTEM.CONST>
0

>  <SCORE.SYSTEM.DIHEDRAL>
0

>  <SCORE.SYSTEM.SOLV>
0

>  <SCORE.SYSTEM.norm>
0

>  <SCORE.heavy>
31

>  <SCORE.norm>
-0.845986

>  <RMSD>
4.246

$$$$
2et3_lig
 OpenBabel11021811423D
libRbt.so/2013.1/901 2013/11/27
 31 33  0  0  0  0  0  0  0  0999 V2000
   -0.5591   -7.0250   30.3017 C   0  0  2  0  0  0  0  0  0  0  0  0
    0.3784   -7.9499   30.9115 O   0  0  0  0  0  0  0  0  0  0  0  0
   -1.3050  -11.6566   29.5950 C   0  0  2  0  0  0  0  0  0  0  0  0
   -1.4459  -13.0633   29.3780 N   0  0  0  0  0  0  0  0  0  0  0  0
   -2.5674  -12.2222   33.1166 C   0  0  2  0  0  0  0  0  0  0  0  0
    0.0332   -5.6117   30.3014 C   0  0  2  0  0  0  0  0  0  0  0  0
    1.2942   -5.6457   29.6269 N   0  0  0  0  0  0  0  0  0  0  0  0
    0.0012  -11.1499   28.9027 C   0  0  0  0  0  0  0  0  0  0  0  0
   -3.8192  -13.1203   33.2271 C   0  0  2  0  0  0  0  0  0  0  0  0
   -3.6553  -14.2384   32.3836 O   0  0  0  0  0  0  0  0  0  0  0  0
    0.1698   -5.0759   31.7676 C   0  0  0  0  0  0  0  0  0  0  0  0
    0.1690   -9.6050   29.1436 C   0  0  2  0  0  0  0  0  0  0  0  0
    1.3983   -9.1229   28.4938 N   0  0  0  0  0  0  0  0  0  0  0  0
   -5.0794  -12.2535   32.8180 C   0  0  1  0  0  0  0  0  0  0  0  0
   -6.3391  -13.0665   32.8526 N   0  0  0  0  0  0  0  0  0  0  0  0
   -1.2543   -5.0487   32.4063 C   0  0  0  0  0  0  0  0  0  0  0  0
    0.2080   -9.3139   30.6929 C   0  0  2  0  0  0  0  0  0  0  0  0
   -5.2202  -10.9723   33.7990 C   0  0  1  0  0  0  0  0  0  0  0  0
   -5.4324  -11.3708   35.1375 O   0  0  0  0  0  0  0  0  0  0  0  0
   -1.8562   -6.5220   32.3666 C   0  0  2  0  0  0  0  0  0  0  0  0
   -1.8640   -7.0813   31.0159 O   0  0  0  0  0  0  0  0  0  0  0  0
   -1.1207   -9.8380   31.3622 C   0  0  2  0  0  0  0  0  0  0  0  0
   -1.1079   -9.5814   32.7628 O   0  0  0  0  0  0  0  0  0  0  0  0
   -3.8963  -10.1483   33.7548 C   0  0  0  0  0  0  0  0  0  0  0  0
   -2.7126  -11.0355   34.0085 O   0  0  0  0  0  0  0  0  0  0  0  0
   -3.2341   -6.6432   32.9736 C   0  0  0  0  0  0  0  0  0  0  0  0
   -3.2440   -6.2559   34.3599 N   0  0  0  0  0  0  0  0  0  0  0  0
   -1.2715  -11.3793   31.1098 C   0  0  1  0  0  0  0  0  0  0  0  0
   -2.4774  -11.8308   31.7141 O   0  0  0  0  0  0  0  0  0  0  0  0
   -6.3898  -10.0167   33.5264 C   0  0  0  0  0  0  0  0  0  0  0  0
   -7.1448  -13.1085   31.6209 C   0  0  0  0  0  0  0  0  0  0  0  0
  1  2  1  1  0  0  0
  1  6  1  0  0  0  0
  1 21  1  0  0  0  0
  3  4  1  1  0  0  0
  3  8  1  0  0  0  0
  3 28  1  0  0  0  0
  5  9  1  0  0  0  0
  5 25  1  0  0  0  0
  5 29  1  6  0  0  0
  6  7  1  1  0  0  0
  6 11  1  0  0  0  0
  8 12  1  0  0  0  0
  9 10  1  6  0  0  0
  9 14  1  0  0  0  0
 11 16  1  0  0  0  0
 12 13  1  6  0  0  0
 12 17  1  0  0  0  0
 14 15  1  1  0  0  0
 14 18  1  0  0  0  0
 15 31  1  0  0  0  0
 16 20  1  0  0  0  0
 17  2  1  6  0  0  0
 17 22  1  0  0  0  0
 18 19  1  1  0  0  0
 18 24  1  0  0  0  0
 18 30  1  0  0  0  0
 20 21  1  0  0  0  0
 20 26  1  6  0  0  0
 22 23  1  1  0  0  0
 22 28  1  0  0  0  0
 24 25  1  0  0  0  0
 26 27  1  0  0  0  0
 28 29  1  1  0  0  0
M  END
>  <CHROM.1>
-162.81191111,-158.98522400,-124.50897806,55.03502686,-60.08007850,154.22568887
-2.26678470,-9.73004114,31.82006524,0.61894838,0.68360725,0.32521116

>  <Name>
2et3_lig

>  <RI>
2.5794e+07

>  <Rbt.Current_Directory>
/home/itssahil/PROJECTS/Mol_Feturizer/New_Systems/rnas/2et3

>  <Rbt.Executable>
rbdock ($Id: //depot/dev/client3/rdock/2013.1/src/exe/rbdock.cxx#4 $)

>  <Rbt.Library>
libRbt.so (2013.1, Build901 2013/11/27)

>  <Rbt.Parameter_File>
/export/apps/rDock/src/rDock_2013.1_src/data/scripts/dock_solv.prm

>  <Rbt.Receptor>
prm/pocket_docking_5.prm

>  <SCORE>
-18.0625

>  <SCORE.INTER>
-10.3342

>  <SCORE.INTER.CONST>
1

>  <SCORE.INTER.POLAR>
-1.38063

>  <SCORE.INTER.ROT>
6

>  <SCORE.INTER.SOLV>
16.2617

>  <SCORE.INTER.VDW>
-15.3079

>  <SCORE.INTER.norm>
-0.333361

>  <SCORE.INTRA>
-7.72831

>  <SCORE.INTRA.DIHEDRAL>
-14.658

>  <SCORE.INTRA.DIHEDRAL.0>
22.2484

>  <SCORE.INTRA.POLAR>
0

>  <SCORE.INTRA.POLAR.0>
0

>  <SCORE.INTRA.REPUL>
0

>  <SCORE.INTRA.REPUL.0>
0

>  <SCORE.INTRA.SOLV>
-0.890063

>  <SCORE.INTRA.SOLV.lig_0>
-75.7198

>  <SCORE.INTRA.VDW>
0.0457144

>  <SCORE.INTRA.VDW.0>
-3.34171

>  <SCORE.INTRA.norm>
-0.2493

>  <SCORE.RESTR>
0

>  <SCORE.RESTR.CAVITY>
0

>  <SCORE.RESTR.norm>
0

>  <SCORE.SYSTEM>
0

>  <SCORE.SYSTEM.CONST>
0

>  <SCORE.SYSTEM.DIHEDRAL>
0

>  <SCORE.SYSTEM.SOLV>
0

>  <SCORE.SYSTEM.norm>
0

>  <SCORE.heavy>
31

>  <SCORE.norm>
-0.582661

>  <RMSD>
4.265

$$$$
2et3_lig
 OpenBabel11021811423D
libRbt.so/2013.1/901 2013/11/27
 31 33  0  0  0  0  0  0  0  0999 V2000
    0.1095   -7.3736   29.4705 C   0  0  2  0  0  0  0  0  0  0  0  0
    0.4133   -6.5277   30.6100 O   0  0  0  0  0  0  0  0  0  0  0  0
   -1.4151   -6.3749   34.4752 C   0  0  2  0  0  0  0  0  0  0  0  0
   -2.4227   -6.2066   35.4762 N   0  0  0  0  0  0  0  0  0  0  0  0
   -2.8444   -8.8576   35.4229 C   0  0  2  0  0  0  0  0  0  0  0  0
    1.2291   -7.2632   28.4300 C   0  0  2  0  0  0  0  0  0  0  0  0
    2.4691   -7.6040   29.0564 N   0  0  0  0  0  0  0  0  0  0  0  0
   -1.2292   -5.0359   33.6912 C   0  0  0  0  0  0  0  0  0  0  0  0
   -3.0129  -10.3745   35.6605 C   0  0  2  0  0  0  0  0  0  0  0  0
   -1.7445  -10.9440   35.8954 O   0  0  0  0  0  0  0  0  0  0  0  0
    1.2629   -5.8228   27.8140 C   0  0  0  0  0  0  0  0  0  0  0  0
   -0.1287   -5.2142   32.5822 C   0  0  2  0  0  0  0  0  0  0  0  0
    0.0498   -3.9558   31.8405 N   0  0  0  0  0  0  0  0  0  0  0  0
   -3.7092  -10.9946   34.3808 C   0  0  1  0  0  0  0  0  0  0  0  0
   -3.8690  -12.4802   34.5089 N   0  0  0  0  0  0  0  0  0  0  0  0
   -0.1160   -5.5568   27.1323 C   0  0  0  0  0  0  0  0  0  0  0  0
   -0.5470   -6.3803   31.6066 C   0  0  2  0  0  0  0  0  0  0  0  0
   -5.1527  -10.3013   34.1374 C   0  0  1  0  0  0  0  0  0  0  0  0
   -6.0279  -10.5431   35.2196 O   0  0  0  0  0  0  0  0  0  0  0  0
   -1.2609   -5.7068   28.2283 C   0  0  2  0  0  0  0  0  0  0  0  0
   -1.2159   -7.0029   28.9031 O   0  0  0  0  0  0  0  0  0  0  0  0
   -0.7287   -7.7153   32.4267 C   0  0  2  0  0  0  0  0  0  0  0  0
   -1.1035   -8.7837   31.5630 O   0  0  0  0  0  0  0  0  0  0  0  0
   -4.9634   -8.7575   34.0178 C   0  0  0  0  0  0  0  0  0  0  0  0
   -4.1756   -8.2297   35.1811 O   0  0  0  0  0  0  0  0  0  0  0  0
   -2.6552   -5.4563   27.7037 C   0  0  0  0  0  0  0  0  0  0  0  0
   -2.8690   -4.0668   27.3948 N   0  0  0  0  0  0  0  0  0  0  0  0
   -1.8283   -7.5175   33.5285 C   0  0  1  0  0  0  0  0  0  0  0  0
   -1.9720   -8.7285   34.2607 O   0  0  0  0  0  0  0  0  0  0  0  0
   -5.9556  -10.7824   32.9210 C   0  0  0  0  0  0  0  0  0  0  0  0
   -2.9303  -13.3240   33.7507 C   0  0  0  0  0  0  0  0  0  0  0  0
  1  2  1  1  0  0  0
  1  6  1  0  0  0  0
  1 21  1  0  0  0  0
  3  4  1  1  0  0  0
  3  8  1  0  0  0  0
  3 28  1  0  0  0  0
  5  9  1  0  0  0  0
  5 25  1  0  0  0  0
  5 29  1  6  0  0  0
  6  7  1  1  0  0  0
  6 11  1  0  0  0  0
  8 12  1  0  0  0  0
  9 10  1  6  0  0  0
  9 14  1  0  0  0  0
 11 16  1  0  0  0  0
 12 13  1  6  0  0  0
 12 17  1  0  0  0  0
 14 15  1  1  0  0  0
 14 18  1  0  0  0  0
 15 31  1  0  0  0  0
 16 20  1  0  0  0  0
 17  2  1  6  0  0  0
 17 22  1  0  0  0  0
 18 19  1  1  0  0  0
 18 24  1  0  0  0  0
 18 30  1  0  0  0  0
 20 21  1  0  0  0  0
 20 26  1  6  0  0  0
 22 23  1  6  0  0  0
 22 28  1  0  0  0  0
 24 25  1  0  0  0  0
 26 27  1  0  0  0  0
 28 29  1  1  0  0  0
M  END
>  <CHROM.1>
173.48110478,164.49524748,-103.51486236,-168.80759010,-70.41754284,55.11142038
-1.90600824,-7.90751514,32.19073148,0.51724669,-1.03162949,-1.89830639

>  <Name>
2et3_lig

>  <RI>
3.50789e+07

>  <Rbt.Current_Directory>
/home/itssahil/PROJECTS/Mol_Feturizer/New_Systems/rnas/2et3

>  <Rbt.Executable>
rbdock ($Id: //depot/dev/client3/rdock/2013.1/src/exe/rbdock.cxx#4 $)

>  <Rbt.Library>
libRbt.so (2013.1, Build901 2013/11/27)

>  <Rbt.Parameter_File>
/export/apps/rDock/src/rDock_2013.1_src/data/scripts/dock_solv.prm

>  <Rbt.Receptor>
prm/pocket_docking_4.prm

>  <SCORE>
-25.2145

>  <SCORE.INTER>
-16.1083

>  <SCORE.INTER.CONST>
1

>  <SCORE.INTER.POLAR>
-1.156

>  <SCORE.INTER.ROT>
6

>  <SCORE.INTER.SOLV>
20.2373

>  <SCORE.INTER.VDW>
-21.2313

>  <SCORE.INTER.norm>
-0.519621

>  <SCORE.INTRA>
-9.10628

>  <SCORE.INTRA.DIHEDRAL>
-18.7063

>  <SCORE.INTRA.DIHEDRAL.0>
22.2484

>  <SCORE.INTRA.POLAR>
0

>  <SCORE.INTRA.POLAR.0>
0

>  <SCORE.INTRA.REPUL>
0

>  <SCORE.INTRA.REPUL.0>
0

>  <SCORE.INTRA.SOLV>
-1.99621

>  <SCORE.INTRA.SOLV.lig_0>
-75.7198

>  <SCORE.INTRA.VDW>
1.24497

>  <SCORE.INTRA.VDW.0>
-3.34171

>  <SCORE.INTRA.norm>
-0.293751

>  <SCORE.RESTR>
0

>  <SCORE.RESTR.CAVITY>
0

>  <SCORE.RESTR.norm>
0

>  <SCORE.SYSTEM>
0

>  <SCORE.SYSTEM.CONST>
0

>  <SCORE.SYSTEM.DIHEDRAL>
0

>  <SCORE.SYSTEM.SOLV>
0

>  <SCORE.SYSTEM.norm>
0

>  <SCORE.heavy>
31

>  <SCORE.norm>
-0.813372

>  <RMSD>
4.274

$$$$
2et3_lig
 OpenBabel11021811423D
libRbt.so/2013.1/901 2013/11/27
 31 33  0  0  0  0  0  0  0  0999 V2000
    0.2135   -7.3925   29.3353 C   0  0  2  0  0  0  0  0  0  0  0  0
    0.4618   -6.5229   30.4703 O   0  0  0  0  0  0  0  0  0  0  0  0
   -1.4824   -6.3416   34.2774 C   0  0  2  0  0  0  0  0  0  0  0  0
   -2.5238   -6.1847   35.2450 N   0  0  0  0  0  0  0  0  0  0  0  0
   -2.8705   -8.8571   35.2308 C   0  0  2  0  0  0  0  0  0  0  0  0
    1.4123   -7.3546   28.3814 C   0  0  2  0  0  0  0  0  0  0  0  0
    2.5873   -7.7198   29.1109 N   0  0  0  0  0  0  0  0  0  0  0  0
   -1.3197   -5.0161   33.4659 C   0  0  0  0  0  0  0  0  0  0  0  0
   -2.9533  -10.3709   35.5260 C   0  0  2  0  0  0  0  0  0  0  0  0
   -1.6642  -10.8456   35.8441 O   0  0  0  0  0  0  0  0  0  0  0  0
    1.5474   -5.9363   27.7292 C   0  0  0  0  0  0  0  0  0  0  0  0
   -0.1819   -5.1824   32.3931 C   0  0  2  0  0  0  0  0  0  0  0  0
   -0.0251   -3.9365   31.6256 N   0  0  0  0  0  0  0  0  0  0  0  0
   -3.5446  -11.0866   34.2434 C   0  0  1  0  0  0  0  0  0  0  0  0
   -3.6153  -12.5731   34.4283 N   0  0  0  0  0  0  0  0  0  0  0  0
    0.2354   -5.6426   26.9361 C   0  0  0  0  0  0  0  0  0  0  0  0
   -0.5316   -6.3854   31.4354 C   0  0  2  0  0  0  0  0  0  0  0  0
   -5.0158  -10.5004   33.9032 C   0  0  1  0  0  0  0  0  0  0  0  0
   -5.9259  -10.7556   34.9530 O   0  0  0  0  0  0  0  0  0  0  0  0
   -0.9943   -5.7174   27.9444 C   0  0  2  0  0  0  0  0  0  0  0  0
   -1.0499   -6.9926   28.6571 O   0  0  0  0  0  0  0  0  0  0  0  0
   -0.6913   -7.7059   32.2831 C   0  0  2  0  0  0  0  0  0  0  0  0
   -1.0040   -8.8070   31.4361 O   0  0  0  0  0  0  0  0  0  0  0  0
   -4.9198   -8.9535   33.7256 C   0  0  0  0  0  0  0  0  0  0  0  0
   -4.2256   -8.3285   34.9003 O   0  0  0  0  0  0  0  0  0  0  0  0
   -2.3342   -5.4338   27.3071 C   0  0  0  0  0  0  0  0  0  0  0  0
   -3.4041   -5.4772   28.2689 N   0  0  0  0  0  0  0  0  0  0  0  0
   -1.8286   -7.5203   33.3481 C   0  0  1  0  0  0  0  0  0  0  0  0
   -1.9520   -8.7177   34.1060 O   0  0  0  0  0  0  0  0  0  0  0  0
   -5.7254  -11.0819   32.6728 C   0  0  0  0  0  0  0  0  0  0  0  0
   -2.7370  -13.3973   33.5813 C   0  0  0  0  0  0  0  0  0  0  0  0
  1  2  1  1  0  0  0
  1  6  1  0  0  0  0
  1 21  1  0  0  0  0
  3  4  1  1  0  0  0
  3  8  1  0  0  0  0
  3 28  1  0  0  0  0
  5  9  1  0  0  0  0
  5 25  1  0  0  0  0
  5 29  1  6  0  0  0
  6  7  1  1  0  0  0
  6 11  1  0  0  0  0
  8 12  1  0  0  0  0
  9 10  1  6  0  0  0
  9 14  1  0  0  0  0
 11 16  1  0  0  0  0
 12 13  1  6  0  0  0
 12 17  1  0  0  0  0
 14 15  1  1  0  0  0
 14 18  1  0  0  0  0
 15 31  1  0  0  0  0
 16 20  1  0  0  0  0
 17  2  1  6  0  0  0
 17 22  1  0  0  0  0
 18 19  1  1  0  0  0
 18 24  1  0  0  0  0
 18 30  1  0  0  0  0
 20 21  1  0  0  0  0
 20 26  1  6  0  0  0
 22 23  1  6  0  0  0
 22 28  1  0  0  0  0
 24 25  1  0  0  0  0
 26 27  1  0  0  0  0
 28 29  1  1  0  0  0
M  END
>  <CHROM.1>
177.99386259,165.95242035,-113.43450080,-168.02179163,-178.35442003,56.25905562
-1.83196689,-7.99955850,32.04420625,0.34991783,-1.05142799,-2.08297543

>  <Name>
2et3_lig

>  <RI>
0

>  <Rbt.Current_Directory>
/home/itssahil/PROJECTS/Mol_Feturizer/New_Systems/rnas/2et3

>  <Rbt.Executable>
rbdock ($Id: //depot/dev/client3/rdock/2013.1/src/exe/rbdock.cxx#4 $)

>  <Rbt.Library>
libRbt.so (2013.1, Build901 2013/11/27)

>  <Rbt.Parameter_File>
/export/apps/rDock/src/rDock_2013.1_src/data/scripts/dock_solv.prm

>  <Rbt.Receptor>
prm/pocket_docking_6.prm

>  <SCORE>
-26.2328

>  <SCORE.INTER>
-16.6912

>  <SCORE.INTER.CONST>
1

>  <SCORE.INTER.POLAR>
-1.17312

>  <SCORE.INTER.ROT>
6

>  <SCORE.INTER.SOLV>
16.3729

>  <SCORE.INTER.VDW>
-20.2747

>  <SCORE.INTER.norm>
-0.538425

>  <SCORE.INTRA>
-9.54162

>  <SCORE.INTRA.DIHEDRAL>
-19.2051

>  <SCORE.INTRA.DIHEDRAL.0>
22.2484

>  <SCORE.INTRA.POLAR>
0

>  <SCORE.INTRA.POLAR.0>
0

>  <SCORE.INTRA.REPUL>
0

>  <SCORE.INTRA.REPUL.0>
0

>  <SCORE.INTRA.SOLV>
-1.76908

>  <SCORE.INTRA.SOLV.lig_0>
-75.7198

>  <SCORE.INTRA.VDW>
0.945484

>  <SCORE.INTRA.VDW.0>
-3.34171

>  <SCORE.INTRA.norm>
-0.307794

>  <SCORE.RESTR>
0

>  <SCORE.RESTR.CAVITY>
0

>  <SCORE.RESTR.norm>
0

>  <SCORE.SYSTEM>
0

>  <SCORE.SYSTEM.CONST>
0

>  <SCORE.SYSTEM.DIHEDRAL>
0

>  <SCORE.SYSTEM.SOLV>
0

>  <SCORE.SYSTEM.norm>
0

>  <SCORE.heavy>
31

>  <SCORE.norm>
-0.846219

>  <RMSD>
4.279

$$$$
2et3_lig
 OpenBabel11021811423D
libRbt.so/2013.1/901 2013/11/27
 31 33  0  0  0  0  0  0  0  0999 V2000
   -1.7027   -5.4926   31.7086 C   0  0  2  0  0  0  0  0  0  0  0  0
   -0.9687   -6.0924   30.6096 O   0  0  0  0  0  0  0  0  0  0  0  0
   -0.8654  -10.2270   29.5137 C   0  0  2  0  0  0  0  0  0  0  0  0
   -0.5691  -11.6246   29.5797 N   0  0  0  0  0  0  0  0  0  0  0  0
   -3.0126  -11.9353   31.2624 C   0  0  2  0  0  0  0  0  0  0  0  0
   -2.2819   -4.1435   31.2697 C   0  0  2  0  0  0  0  0  0  0  0  0
   -3.0940   -4.3511   30.1106 N   0  0  0  0  0  0  0  0  0  0  0  0
    0.4674   -9.4129   29.4567 C   0  0  0  0  0  0  0  0  0  0  0  0
   -4.4690  -12.1127   31.7450 C   0  0  2  0  0  0  0  0  0  0  0  0
   -5.3404  -11.8955   30.6578 O   0  0  0  0  0  0  0  0  0  0  0  0
   -1.1302   -3.1161   30.9991 C   0  0  0  0  0  0  0  0  0  0  0  0
    0.1512   -7.8738   29.3927 C   0  0  2  0  0  0  0  0  0  0  0  0
    1.4035   -7.1025   29.3393 N   0  0  0  0  0  0  0  0  0  0  0  0
   -4.7233  -11.0810   32.9189 C   0  0  1  0  0  0  0  0  0  0  0  0
   -6.1359  -11.1541   33.4171 N   0  0  0  0  0  0  0  0  0  0  0  0
   -0.3231   -2.9357   32.3230 C   0  0  0  0  0  0  0  0  0  0  0  0
   -0.7047   -7.4584   30.6502 C   0  0  2  0  0  0  0  0  0  0  0  0
   -3.6916  -11.3539   34.1375 C   0  0  1  0  0  0  0  0  0  0  0  0
   -3.8807  -12.6389   34.6929 O   0  0  0  0  0  0  0  0  0  0  0  0
    0.2413   -4.3556   32.7704 C   0  0  2  0  0  0  0  0  0  0  0  0
   -0.8159   -5.3575   32.8966 O   0  0  0  0  0  0  0  0  0  0  0  0
   -2.0399   -8.2975   30.6807 C   0  0  2  0  0  0  0  0  0  0  0  0
   -2.8307   -7.9349   31.8081 O   0  0  0  0  0  0  0  0  0  0  0  0
   -2.2309  -11.2833   33.5945 C   0  0  0  0  0  0  0  0  0  0  0  0
   -2.0696  -12.1698   32.3941 O   0  0  0  0  0  0  0  0  0  0  0  0
    1.0627   -4.3227   34.0377 C   0  0  0  0  0  0  0  0  0  0  0  0
    1.7812   -5.5531   34.2417 N   0  0  0  0  0  0  0  0  0  0  0  0
   -1.7045   -9.8291   30.7426 C   0  0  1  0  0  0  0  0  0  0  0  0
   -2.9198  -10.5680   30.7621 O   0  0  0  0  0  0  0  0  0  0  0  0
   -3.7968  -10.4251   35.3548 C   0  0  0  0  0  0  0  0  0  0  0  0
   -6.7304   -9.9101   33.9340 C   0  0  0  0  0  0  0  0  0  0  0  0
  1  2  1  6  0  0  0
  1  6  1  0  0  0  0
  1 21  1  0  0  0  0
  3  4  1  1  0  0  0
  3  8  1  0  0  0  0
  3 28  1  0  0  0  0
  5  9  1  0  0  0  0
  5 25  1  0  0  0  0
  5 29  1  1  0  0  0
  6  7  1  6  0  0  0
  6 11  1  0  0  0  0
  8 12  1  0  0  0  0
  9 10  1  6  0  0  0
  9 14  1  0  0  0  0
 11 16  1  0  0  0  0
 12 13  1  1  0  0  0
 12 17  1  0  0  0  0
 14 15  1  1  0  0  0
 14 18  1  0  0  0  0
 15 31  1  0  0  0  0
 16 20  1  0  0  0  0
 17  2  1  6  0  0  0
 17 22  1  0  0  0  0
 18 19  1  1  0  0  0
 18 24  1  0  0  0  0
 18 30  1  0  0  0  0
 20 21  1  0  0  0  0
 20 26  1  1  0  0  0
 22 23  1  1  0  0  0
 22 28  1  0  0  0  0
 24 25  1  0  0  0  0
 26 27  1  0  0  0  0
 28 29  1  6  0  0  0
M  END
>  <CHROM.1>
-161.23086615,153.28461425,-148.83854651,-177.57850197,-167.51265400,81.18712928
-2.06085938,-8.48071662,31.86295459,0.81640244,0.78827958,0.44574005

>  <Name>
2et3_lig

>  <RI>
3.86414e+07

>  <Rbt.Current_Directory>
/home/itssahil/PROJECTS/Mol_Feturizer/New_Systems/rnas/2et3

>  <Rbt.Executable>
rbdock ($Id: //depot/dev/client3/rdock/2013.1/src/exe/rbdock.cxx#4 $)

>  <Rbt.Library>
libRbt.so (2013.1, Build901 2013/11/27)

>  <Rbt.Parameter_File>
/export/apps/rDock/src/rDock_2013.1_src/data/scripts/dock_solv.prm

>  <Rbt.Receptor>
prm/pocket_docking_8.prm

>  <SCORE>
-20.2777

>  <SCORE.INTER>
-12.8902

>  <SCORE.INTER.CONST>
1

>  <SCORE.INTER.POLAR>
-1.89725

>  <SCORE.INTER.ROT>
6

>  <SCORE.INTER.SOLV>
15.7155

>  <SCORE.INTER.VDW>
-15.1078

>  <SCORE.INTER.norm>
-0.415812

>  <SCORE.INTRA>
-7.3875

>  <SCORE.INTRA.DIHEDRAL>
-14.3061

>  <SCORE.INTRA.DIHEDRAL.0>
22.2484

>  <SCORE.INTRA.POLAR>
0

>  <SCORE.INTRA.POLAR.0>
0

>  <SCORE.INTRA.REPUL>
0

>  <SCORE.INTRA.REPUL.0>
0

>  <SCORE.INTRA.SOLV>
-2.40809

>  <SCORE.INTRA.SOLV.lig_0>
-75.7198

>  <SCORE.INTRA.VDW>
0.969614

>  <SCORE.INTRA.VDW.0>
-3.34171

>  <SCORE.INTRA.norm>
-0.238307

>  <SCORE.RESTR>
0

>  <SCORE.RESTR.CAVITY>
0

>  <SCORE.RESTR.norm>
0

>  <SCORE.SYSTEM>
0

>  <SCORE.SYSTEM.CONST>
0

>  <SCORE.SYSTEM.DIHEDRAL>
0

>  <SCORE.SYSTEM.SOLV>
0

>  <SCORE.SYSTEM.norm>
0

>  <SCORE.heavy>
31

>  <SCORE.norm>
-0.654118

>  <RMSD>
4.281

$$$$
2et3_lig
 OpenBabel11021811423D
libRbt.so/2013.1/901 2013/11/27
 31 33  0  0  0  0  0  0  0  0999 V2000
   -1.0356   -5.9061   29.4091 C   0  0  2  0  0  0  0  0  0  0  0  0
   -2.0878   -5.2819   30.1900 O   0  0  0  0  0  0  0  0  0  0  0  0
   -0.2110   -5.2494   34.0348 C   0  0  2  0  0  0  0  0  0  0  0  0
   -0.0041   -4.9774   35.4236 N   0  0  0  0  0  0  0  0  0  0  0  0
   -1.7645   -7.4656   35.9736 C   0  0  2  0  0  0  0  0  0  0  0  0
   -1.4014   -5.8667   27.9215 C   0  0  2  0  0  0  0  0  0  0  0  0
   -1.6362   -4.5067   27.5454 N   0  0  0  0  0  0  0  0  0  0  0  0
   -0.3092   -3.9027   33.2481 C   0  0  0  0  0  0  0  0  0  0  0  0
   -2.0325   -8.9734   36.1743 C   0  0  2  0  0  0  0  0  0  0  0  0
   -0.8547   -9.6903   35.8789 O   0  0  0  0  0  0  0  0  0  0  0  0
   -2.6482   -6.7734   27.6409 C   0  0  0  0  0  0  0  0  0  0  0  0
   -0.5456   -4.1922   31.7206 C   0  0  2  0  0  0  0  0  0  0  0  0
   -0.6394   -2.9268   30.9751 N   0  0  0  0  0  0  0  0  0  0  0  0
   -3.2284   -9.3875   35.2229 C   0  0  1  0  0  0  0  0  0  0  0  0
   -3.5248  -10.8543   35.3209 N   0  0  0  0  0  0  0  0  0  0  0  0
   -2.2855   -8.2344   28.0543 C   0  0  0  0  0  0  0  0  0  0  0  0
   -1.8621   -5.0416   31.5422 C   0  0  2  0  0  0  0  0  0  0  0  0
   -4.5540   -8.5295   35.5837 C   0  0  1  0  0  0  0  0  0  0  0  0
   -4.9904   -8.7880   36.9021 O   0  0  0  0  0  0  0  0  0  0  0  0
   -1.8819   -8.2404   29.5943 C   0  0  2  0  0  0  0  0  0  0  0  0
   -0.8052   -7.2964   29.8888 O   0  0  0  0  0  0  0  0  0  0  0  0
   -1.7331   -6.3911   32.3484 C   0  0  2  0  0  0  0  0  0  0  0  0
   -2.9114   -7.1763   32.1977 O   0  0  0  0  0  0  0  0  0  0  0  0
   -4.2197   -7.0089   35.4855 C   0  0  0  0  0  0  0  0  0  0  0  0
   -2.9948   -6.6838   36.2897 O   0  0  0  0  0  0  0  0  0  0  0  0
   -1.5218   -9.6047   30.1335 C   0  0  0  0  0  0  0  0  0  0  0  0
   -0.3724  -10.1574   29.4662 N   0  0  0  0  0  0  0  0  0  0  0  0
   -1.4960   -6.0823   33.8684 C   0  0  1  0  0  0  0  0  0  0  0  0
   -1.3752   -7.3103   34.5762 O   0  0  0  0  0  0  0  0  0  0  0  0
   -5.8061   -8.8013   34.7387 C   0  0  0  0  0  0  0  0  0  0  0  0
   -3.6134  -11.6069   34.0584 C   0  0  0  0  0  0  0  0  0  0  0  0
  1  2  1  1  0  0  0
  1  6  1  0  0  0  0
  1 21  1  0  0  0  0
  3  4  1  1  0  0  0
  3  8  1  0  0  0  0
  3 28  1  0  0  0  0
  5  9  1  0  0  0  0
  5 25  1  0  0  0  0
  5 29  1  6  0  0  0
  6  7  1  1  0  0  0
  6 11  1  0  0  0  0
  8 12  1  0  0  0  0
  9 10  1  6  0  0  0
  9 14  1  0  0  0  0
 11 16  1  0  0  0  0
 12 13  1  6  0  0  0
 12 17  1  0  0  0  0
 14 15  1  1  0  0  0
 14 18  1  0  0  0  0
 15 31  1  0  0  0  0
 16 20  1  0  0  0  0
 17  2  1  6  0  0  0
 17 22  1  0  0  0  0
 18 19  1  1  0  0  0
 18 24  1  0  0  0  0
 18 30  1  0  0  0  0
 20 21  1  0  0  0  0
 20 26  1  6  0  0  0
 22 23  1  1  0  0  0
 22 28  1  0  0  0  0
 24 25  1  0  0  0  0
 26 27  1  0  0  0  0
 28 29  1  1  0  0  0
M  END
>  <CHROM.1>
-170.80557929,157.20255708,-129.56366926,54.90054841,62.07940722,89.26696023
-2.09631598,-7.22145356,32.65729668,0.85240288,-1.16837019,-1.84848597

>  <Name>
2et3_lig

>  <RI>
0

>  <Rbt.Current_Directory>
/home/itssahil/PROJECTS/Mol_Feturizer/New_Systems/rnas/2et3

>  <Rbt.Executable>
rbdock ($Id: //depot/dev/client3/rdock/2013.1/src/exe/rbdock.cxx#4 $)

>  <Rbt.Library>
libRbt.so (2013.1, Build901 2013/11/27)

>  <Rbt.Parameter_File>
/export/apps/rDock/src/rDock_2013.1_src/data/scripts/dock_solv.prm

>  <Rbt.Receptor>
prm/pocket_docking_7.prm

>  <SCORE>
-16.3347

>  <SCORE.INTER>
-8.55448

>  <SCORE.INTER.CONST>
1

>  <SCORE.INTER.POLAR>
-0.824283

>  <SCORE.INTER.ROT>
6

>  <SCORE.INTER.SOLV>
17.4605

>  <SCORE.INTER.VDW>
-16.3756

>  <SCORE.INTER.norm>
-0.275951

>  <SCORE.INTRA>
-7.79031

>  <SCORE.INTRA.DIHEDRAL>
-14.6724

>  <SCORE.INTRA.DIHEDRAL.0>
22.2484

>  <SCORE.INTRA.POLAR>
0

>  <SCORE.INTRA.POLAR.0>
0

>  <SCORE.INTRA.REPUL>
0

>  <SCORE.INTRA.REPUL.0>
0

>  <SCORE.INTRA.SOLV>
-0.587737

>  <SCORE.INTRA.SOLV.lig_0>
-75.7198

>  <SCORE.INTRA.VDW>
-0.160244

>  <SCORE.INTRA.VDW.0>
-3.34171

>  <SCORE.INTRA.norm>
-0.2513

>  <SCORE.RESTR>
0.0101047

>  <SCORE.RESTR.CAVITY>
0.0101047

>  <SCORE.RESTR.norm>
0.000325958

>  <SCORE.SYSTEM>
0

>  <SCORE.SYSTEM.CONST>
0

>  <SCORE.SYSTEM.DIHEDRAL>
0

>  <SCORE.SYSTEM.SOLV>
0

>  <SCORE.SYSTEM.norm>
0

>  <SCORE.heavy>
31

>  <SCORE.norm>
-0.526925

>  <RMSD>
4.337

$$$$
2et3_lig
 OpenBabel11021811423D
libRbt.so/2013.1/901 2013/11/27
 31 33  0  0  0  0  0  0  0  0999 V2000
   -1.2884   -4.9957   28.6291 C   0  0  2  0  0  0  0  0  0  0  0  0
   -1.9282   -6.1274   29.2741 O   0  0  0  0  0  0  0  0  0  0  0  0
   -1.8666   -7.2120   33.4125 C   0  0  2  0  0  0  0  0  0  0  0  0
   -1.3593   -7.6439   34.6781 N   0  0  0  0  0  0  0  0  0  0  0  0
   -2.5056   -3.9648   33.8954 C   0  0  2  0  0  0  0  0  0  0  0  0
   -1.8889   -4.7863   27.2349 C   0  0  2  0  0  0  0  0  0  0  0  0
   -3.3033   -4.6197   27.3678 N   0  0  0  0  0  0  0  0  0  0  0  0
   -1.6441   -8.3359   32.3498 C   0  0  0  0  0  0  0  0  0  0  0  0
   -2.5301   -3.2218   35.2493 C   0  0  2  0  0  0  0  0  0  0  0  0
   -1.3025   -2.5506   35.4246 O   0  0  0  0  0  0  0  0  0  0  0  0
   -1.5283   -5.9894   26.2980 C   0  0  0  0  0  0  0  0  0  0  0  0
   -2.1914   -7.8660   30.9523 C   0  0  2  0  0  0  0  0  0  0  0  0
   -1.9837   -8.9211   29.9476 N   0  0  0  0  0  0  0  0  0  0  0  0
   -2.7844   -4.2916   36.3885 C   0  0  1  0  0  0  0  0  0  0  0  0
   -2.7764   -3.6580   37.7477 N   0  0  0  0  0  0  0  0  0  0  0  0
    0.0271   -6.0707   26.1934 C   0  0  0  0  0  0  0  0  0  0  0  0
   -1.4630   -6.5357   30.5207 C   0  0  2  0  0  0  0  0  0  0  0  0
   -4.1937   -5.0504   36.1396 C   0  0  1  0  0  0  0  0  0  0  0  0
   -5.2796   -4.1487   36.1949 O   0  0  0  0  0  0  0  0  0  0  0  0
    0.6247   -6.2585   27.6570 C   0  0  2  0  0  0  0  0  0  0  0  0
    0.1839   -5.2091   28.5745 O   0  0  0  0  0  0  0  0  0  0  0  0
   -1.7042   -5.4235   31.6127 C   0  0  2  0  0  0  0  0  0  0  0  0
   -1.0571   -4.2109   31.2404 O   0  0  0  0  0  0  0  0  0  0  0  0
   -4.1833   -5.6921   34.7177 C   0  0  0  0  0  0  0  0  0  0  0  0
   -3.7991   -4.6760   33.6820 O   0  0  0  0  0  0  0  0  0  0  0  0
    2.1305   -6.3701   27.7000 C   0  0  0  0  0  0  0  0  0  0  0  0
    2.6090   -6.6437   29.0297 N   0  0  0  0  0  0  0  0  0  0  0  0
   -1.1538   -5.9106   32.9990 C   0  0  1  0  0  0  0  0  0  0  0  0
   -1.3869   -4.8981   33.9706 O   0  0  0  0  0  0  0  0  0  0  0  0
   -4.5845   -6.1349   37.1529 C   0  0  0  0  0  0  0  0  0  0  0  0
   -1.5008   -3.6635   38.4831 C   0  0  0  0  0  0  0  0  0  0  0  0
  1  2  1  6  0  0  0
  1  6  1  0  0  0  0
  1 21  1  0  0  0  0
  3  4  1  1  0  0  0
  3  8  1  0  0  0  0
  3 28  1  0  0  0  0
  5  9  1  0  0  0  0
  5 25  1  0  0  0  0
  5 29  1  1  0  0  0
  6  7  1  1  0  0  0
  6 11  1  0  0  0  0
  8 12  1  0  0  0  0
  9 10  1  1  0  0  0
  9 14  1  0  0  0  0
 11 16  1  0  0  0  0
 12 13  1  6  0  0  0
 12 17  1  0  0  0  0
 14 15  1  1  0  0  0
 14 18  1  0  0  0  0
 15 31  1  0  0  0  0
 16 20  1  0  0  0  0
 17  2  1  6  0  0  0
 17 22  1  0  0  0  0
 18 19  1  1  0  0  0
 18 24  1  0  0  0  0
 18 30  1  0  0  0  0
 20 21  1  0  0  0  0
 20 26  1  6  0  0  0
 22 23  1  6  0  0  0
 22 28  1  0  0  0  0
 24 25  1  0  0  0  0
 26 27  1  0  0  0  0
 28 29  1  1  0  0  0
M  END
>  <CHROM.1>
175.97659375,170.12920383,-93.87520019,-173.78996026,-175.41811920,-90.92094220
-1.80006059,-5.48769390,32.12255697,-1.14301048,0.76293959,1.08159772

>  <Name>
2et3_lig

>  <RI>
3.86414e+07

>  <Rbt.Current_Directory>
/home/itssahil/PROJECTS/Mol_Feturizer/New_Systems/rnas/2et3

>  <Rbt.Executable>
rbdock ($Id: //depot/dev/client3/rdock/2013.1/src/exe/rbdock.cxx#4 $)

>  <Rbt.Library>
libRbt.so (2013.1, Build901 2013/11/27)

>  <Rbt.Parameter_File>
/export/apps/rDock/src/rDock_2013.1_src/data/scripts/dock_solv.prm

>  <Rbt.Receptor>
prm/pocket_docking_8.prm

>  <SCORE>
-23.9894

>  <SCORE.INTER>
-15.8458

>  <SCORE.INTER.CONST>
1

>  <SCORE.INTER.POLAR>
-1.67565

>  <SCORE.INTER.ROT>
6

>  <SCORE.INTER.SOLV>
16.9818

>  <SCORE.INTER.VDW>
-18.239

>  <SCORE.INTER.norm>
-0.511154

>  <SCORE.INTRA>
-8.14365

>  <SCORE.INTRA.DIHEDRAL>
-16.7697

>  <SCORE.INTRA.DIHEDRAL.0>
22.2484

>  <SCORE.INTRA.POLAR>
0

>  <SCORE.INTRA.POLAR.0>
0

>  <SCORE.INTRA.REPUL>
0

>  <SCORE.INTRA.REPUL.0>
0

>  <SCORE.INTRA.SOLV>
-1.93372

>  <SCORE.INTRA.SOLV.lig_0>
-75.7198

>  <SCORE.INTRA.VDW>
1.20803

>  <SCORE.INTRA.VDW.0>
-3.34171

>  <SCORE.INTRA.norm>
-0.262699

>  <SCORE.RESTR>
0

>  <SCORE.RESTR.CAVITY>
0

>  <SCORE.RESTR.norm>
0

>  <SCORE.SYSTEM>
0

>  <SCORE.SYSTEM.CONST>
0

>  <SCORE.SYSTEM.DIHEDRAL>
0

>  <SCORE.SYSTEM.SOLV>
0

>  <SCORE.SYSTEM.norm>
0

>  <SCORE.heavy>
31

>  <SCORE.norm>
-0.773853

>  <RMSD>
4.347

$$$$
2et3_lig
 OpenBabel11021811423D
libRbt.so/2013.1/901 2013/11/27
 31 33  0  0  0  0  0  0  0  0999 V2000
    0.3231   -7.8465   29.0178 C   0  0  2  0  0  0  0  0  0  0  0  0
    0.5575   -7.2425   30.3165 O   0  0  0  0  0  0  0  0  0  0  0  0
   -1.9103   -7.3585   33.8098 C   0  0  2  0  0  0  0  0  0  0  0  0
   -3.0356   -7.1377   34.6644 N   0  0  0  0  0  0  0  0  0  0  0  0
   -3.9995   -9.5545   33.9370 C   0  0  2  0  0  0  0  0  0  0  0  0
    1.6367   -7.9101   28.2312 C   0  0  2  0  0  0  0  0  0  0  0  0
    2.5996   -8.6273   29.0087 N   0  0  0  0  0  0  0  0  0  0  0  0
   -1.3069   -5.9839   33.3755 C   0  0  0  0  0  0  0  0  0  0  0  0
   -4.2087  -11.0699   34.1497 C   0  0  2  0  0  0  0  0  0  0  0  0
   -3.0243  -11.6255   34.6759 O   0  0  0  0  0  0  0  0  0  0  0  0
    2.1316   -6.4665   27.8759 C   0  0  0  0  0  0  0  0  0  0  0  0
   -0.0736   -6.2170   32.4280 C   0  0  2  0  0  0  0  0  0  0  0  0
    0.4981   -4.9251   32.0157 N   0  0  0  0  0  0  0  0  0  0  0  0
   -4.5901  -11.7108   32.7530 C   0  0  1  0  0  0  0  0  0  0  0  0
   -4.7661  -13.1962   32.8608 N   0  0  0  0  0  0  0  0  0  0  0  0
    1.0318   -5.7791   27.0072 C   0  0  0  0  0  0  0  0  0  0  0  0
   -0.5259   -7.0522   31.1692 C   0  0  2  0  0  0  0  0  0  0  0  0
   -5.9439  -11.0332   32.1770 C   0  0  1  0  0  0  0  0  0  0  0  0
   -7.0419  -11.2704   33.0335 O   0  0  0  0  0  0  0  0  0  0  0  0
   -0.3270   -5.7533   27.8366 C   0  0  2  0  0  0  0  0  0  0  0  0
   -0.7269   -7.0854   28.2868 O   0  0  0  0  0  0  0  0  0  0  0  0
   -1.1314   -8.4305   31.6398 C   0  0  2  0  0  0  0  0  0  0  0  0
   -1.5435   -9.2031   30.5169 O   0  0  0  0  0  0  0  0  0  0  0  0
   -5.7415   -9.4892   32.0835 C   0  0  0  0  0  0  0  0  0  0  0  0
   -5.2438   -8.9412   33.3891 O   0  0  0  0  0  0  0  0  0  0  0  0
   -1.4791   -5.0947   27.1149 C   0  0  0  0  0  0  0  0  0  0  0  0
   -2.6654   -5.0508   27.9289 N   0  0  0  0  0  0  0  0  0  0  0  0
   -2.3584   -8.1777   32.5847 C   0  0  1  0  0  0  0  0  0  0  0  0
   -2.8852   -9.4309   33.0035 O   0  0  0  0  0  0  0  0  0  0  0  0
   -6.4444  -11.5352   30.8157 C   0  0  0  0  0  0  0  0  0  0  0  0
   -3.5659  -14.0292   32.6769 C   0  0  0  0  0  0  0  0  0  0  0  0
  1  2  1  1  0  0  0
  1  6  1  0  0  0  0
  1 21  1  0  0  0  0
  3  4  1  1  0  0  0
  3  8  1  0  0  0  0
  3 28  1  0  0  0  0
  5  9  1  0  0  0  0
  5 25  1  0  0  0  0
  5 29  1  6  0  0  0
  6  7  1  1  0  0  0
  6 11  1  0  0  0  0
  8 12  1  0  0  0  0
  9 10  1  6  0  0  0
  9 14  1  0  0  0  0
 11 16  1  0  0  0  0
 12 13  1  6  0  0  0
 12 17  1  0  0  0  0
 14 15  1  1  0  0  0
 14 18  1  0  0  0  0
 15 31  1  0  0  0  0
 16 20  1  0  0  0  0
 17  2  1  6  0  0  0
 17 22  1  0  0  0  0
 18 19  1  1  0  0  0
 18 24  1  0  0  0  0
 18 30  1  0  0  0  0
 20 21  1  0  0  0  0
 20 26  1  6  0  0  0
 22 23  1  6  0  0  0
 22 28  1  0  0  0  0
 24 25  1  0  0  0  0
 26 27  1  0  0  0  0
 28 29  1  1  0  0  0
M  END
>  <CHROM.1>
177.85496714,-178.06068910,-88.34650304,-172.55196147,-177.67296855,57.03222541
-2.15417058,-8.56104160,31.31180007,0.29546469,-0.84355759,-1.91894981

>  <Name>
2et3_lig

>  <RI>
2.5794e+07

>  <Rbt.Current_Directory>
/home/itssahil/PROJECTS/Mol_Feturizer/New_Systems/rnas/2et3

>  <Rbt.Executable>
rbdock ($Id: //depot/dev/client3/rdock/2013.1/src/exe/rbdock.cxx#4 $)

>  <Rbt.Library>
libRbt.so (2013.1, Build901 2013/11/27)

>  <Rbt.Parameter_File>
/export/apps/rDock/src/rDock_2013.1_src/data/scripts/dock_solv.prm

>  <Rbt.Receptor>
prm/pocket_docking_5.prm

>  <SCORE>
-25.8773

>  <SCORE.INTER>
-15.4167

>  <SCORE.INTER.CONST>
1

>  <SCORE.INTER.POLAR>
-1.34183

>  <SCORE.INTER.ROT>
6

>  <SCORE.INTER.SOLV>
16.1514

>  <SCORE.INTER.VDW>
-18.7889

>  <SCORE.INTER.norm>
-0.497314

>  <SCORE.INTRA>
-10.4606

>  <SCORE.INTRA.DIHEDRAL>
-21.1561

>  <SCORE.INTRA.DIHEDRAL.0>
22.2484

>  <SCORE.INTRA.POLAR>
0

>  <SCORE.INTRA.POLAR.0>
0

>  <SCORE.INTRA.REPUL>
0

>  <SCORE.INTRA.REPUL.0>
0

>  <SCORE.INTRA.SOLV>
-2.30021

>  <SCORE.INTRA.SOLV.lig_0>
-75.7198

>  <SCORE.INTRA.VDW>
1.26756

>  <SCORE.INTRA.VDW.0>
-3.34171

>  <SCORE.INTRA.norm>
-0.337439

>  <SCORE.RESTR>
0

>  <SCORE.RESTR.CAVITY>
0

>  <SCORE.RESTR.norm>
0

>  <SCORE.SYSTEM>
0

>  <SCORE.SYSTEM.CONST>
0

>  <SCORE.SYSTEM.DIHEDRAL>
0

>  <SCORE.SYSTEM.SOLV>
0

>  <SCORE.SYSTEM.norm>
0

>  <SCORE.heavy>
31

>  <SCORE.norm>
-0.834753

>  <RMSD>
4.353

$$$$
2et3_lig
 OpenBabel11021811423D
libRbt.so/2013.1/901 2013/11/27
 31 33  0  0  0  0  0  0  0  0999 V2000
    0.5970   -7.9679   28.7128 C   0  0  2  0  0  0  0  0  0  0  0  0
    0.7474   -7.3976   30.0388 O   0  0  0  0  0  0  0  0  0  0  0  0
   -1.6249   -7.9554   33.5555 C   0  0  2  0  0  0  0  0  0  0  0  0
   -2.7655   -7.9490   34.4185 N   0  0  0  0  0  0  0  0  0  0  0  0
   -3.2979  -10.5257   33.6546 C   0  0  2  0  0  0  0  0  0  0  0  0
    1.9326   -7.8996   27.9647 C   0  0  2  0  0  0  0  0  0  0  0  0
    2.9272   -8.5692   28.7449 N   0  0  0  0  0  0  0  0  0  0  0  0
   -1.3038   -6.4943   33.1038 C   0  0  0  0  0  0  0  0  0  0  0  0
   -3.1905  -12.0455   33.9084 C   0  0  2  0  0  0  0  0  0  0  0  0
   -1.9472  -12.3210   34.5139 O   0  0  0  0  0  0  0  0  0  0  0  0
    2.3223   -6.4095   27.6767 C   0  0  0  0  0  0  0  0  0  0  0  0
   -0.0558   -6.4927   32.1470 C   0  0  2  0  0  0  0  0  0  0  0  0
    0.2505   -5.1187   31.7183 N   0  0  0  0  0  0  0  0  0  0  0  0
   -3.3446  -12.7847   32.5167 C   0  0  1  0  0  0  0  0  0  0  0  0
   -3.2050  -14.2703   32.6662 N   0  0  0  0  0  0  0  0  0  0  0  0
    1.1962   -5.7767   26.8002 C   0  0  0  0  0  0  0  0  0  0  0  0
   -0.3460   -7.4129   30.8998 C   0  0  2  0  0  0  0  0  0  0  0  0
   -4.7762  -12.4275   31.8484 C   0  0  1  0  0  0  0  0  0  0  0  0
   -5.8459  -12.8762   32.6546 O   0  0  0  0  0  0  0  0  0  0  0  0
   -0.1827   -5.8878   27.5883 C   0  0  2  0  0  0  0  0  0  0  0  0
   -0.4890   -7.2631   27.9780 O   0  0  0  0  0  0  0  0  0  0  0  0
   -0.6682   -8.8778   31.3880 C   0  0  2  0  0  0  0  0  0  0  0  0
   -0.9302   -9.7274   30.2757 O   0  0  0  0  0  0  0  0  0  0  0  0
   -4.9034  -10.8787   31.7124 C   0  0  0  0  0  0  0  0  0  0  0  0
   -4.6107  -10.2071   33.0223 O   0  0  0  0  0  0  0  0  0  0  0  0
   -1.3626   -5.2934   26.8561 C   0  0  0  0  0  0  0  0  0  0  0  0
   -2.5882   -5.4595   27.5924 N   0  0  0  0  0  0  0  0  0  0  0  0
   -1.9140   -8.8588   32.3419 C   0  0  1  0  0  0  0  0  0  0  0  0
   -2.1836  -10.1862   32.7763 O   0  0  0  0  0  0  0  0  0  0  0  0
   -5.0781  -13.0560   30.4811 C   0  0  0  0  0  0  0  0  0  0  0  0
   -1.8499  -14.8328   32.5428 C   0  0  0  0  0  0  0  0  0  0  0  0
  1  2  1  1  0  0  0
  1  6  1  0  0  0  0
  1 21  1  0  0  0  0
  3  4  1  1  0  0  0
  3  8  1  0  0  0  0
  3 28  1  0  0  0  0
  5  9  1  0  0  0  0
  5 25  1  0  0  0  0
  5 29  1  6  0  0  0
  6  7  1  1  0  0  0
  6 11  1  0  0  0  0
  8 12  1  0  0  0  0
  9 10  1  6  0  0  0
  9 14  1  0  0  0  0
 11 16  1  0  0  0  0
 12 13  1  6  0  0  0
 12 17  1  0  0  0  0
 14 15  1  1  0  0  0
 14 18  1  0  0  0  0
 15 31  1  0  0  0  0
 16 20  1  0  0  0  0
 17  2  1  6  0  0  0
 17 22  1  0  0  0  0
 18 19  1  1  0  0  0
 18 24  1  0  0  0  0
 18 30  1  0  0  0  0
 20 21  1  0  0  0  0
 20 26  1  6  0  0  0
 22 23  1  6  0  0  0
 22 28  1  0  0  0  0
 24 25  1  0  0  0  0
 26 27  1  0  0  0  0
 28 29  1  1  0  0  0
M  END
>  <CHROM.1>
-177.52955907,-178.09970777,-89.70742166,-168.37383952,178.11149037,61.02850506
-1.58949724,-9.17930835,31.04442505,-0.02843391,-1.04440560,-2.24356076

>  <Name>
2et3_lig

>  <RI>
2.5794e+07

>  <Rbt.Current_Directory>
/home/itssahil/PROJECTS/Mol_Feturizer/New_Systems/rnas/2et3

>  <Rbt.Executable>
rbdock ($Id: //depot/dev/client3/rdock/2013.1/src/exe/rbdock.cxx#4 $)

>  <Rbt.Library>
libRbt.so (2013.1, Build901 2013/11/27)

>  <Rbt.Parameter_File>
/export/apps/rDock/src/rDock_2013.1_src/data/scripts/dock_solv.prm

>  <Rbt.Receptor>
prm/pocket_docking_5.prm

>  <SCORE>
-27.9553

>  <SCORE.INTER>
-17.2166

>  <SCORE.INTER.CONST>
1

>  <SCORE.INTER.POLAR>
-1.66347

>  <SCORE.INTER.ROT>
6

>  <SCORE.INTER.SOLV>
15.9954

>  <SCORE.INTER.VDW>
-18.8646

>  <SCORE.INTER.norm>
-0.555374

>  <SCORE.INTRA>
-10.7387

>  <SCORE.INTRA.DIHEDRAL>
-20.7853

>  <SCORE.INTRA.DIHEDRAL.0>
22.2484

>  <SCORE.INTRA.POLAR>
0

>  <SCORE.INTRA.POLAR.0>
0

>  <SCORE.INTRA.REPUL>
0

>  <SCORE.INTRA.REPUL.0>
0

>  <SCORE.INTRA.SOLV>
-2.32532

>  <SCORE.INTRA.SOLV.lig_0>
-75.7198

>  <SCORE.INTRA.VDW>
0.816647

>  <SCORE.INTRA.VDW.0>
-3.34171

>  <SCORE.INTRA.norm>
-0.346409

>  <SCORE.RESTR>
0

>  <SCORE.RESTR.CAVITY>
0

>  <SCORE.RESTR.norm>
0

>  <SCORE.SYSTEM>
0

>  <SCORE.SYSTEM.CONST>
0

>  <SCORE.SYSTEM.DIHEDRAL>
0

>  <SCORE.SYSTEM.SOLV>
0

>  <SCORE.SYSTEM.norm>
0

>  <SCORE.heavy>
31

>  <SCORE.norm>
-0.901783

>  <RMSD>
4.592

$$$$
2et3_lig
 OpenBabel11021811423D
libRbt.so/2013.1/901 2013/11/27
 31 33  0  0  0  0  0  0  0  0999 V2000
    0.6272   -7.9666   28.7095 C   0  0  2  0  0  0  0  0  0  0  0  0
    0.7586   -7.3840   30.0322 O   0  0  0  0  0  0  0  0  0  0  0  0
   -1.6478   -7.9277   33.5279 C   0  0  2  0  0  0  0  0  0  0  0  0
   -2.7979   -7.9228   34.3781 N   0  0  0  0  0  0  0  0  0  0  0  0
   -3.3058  -10.5137   33.6250 C   0  0  2  0  0  0  0  0  0  0  0  0
    1.9721   -7.8998   27.9779 C   0  0  2  0  0  0  0  0  0  0  0  0
    2.9590   -8.5588   28.7767 N   0  0  0  0  0  0  0  0  0  0  0  0
   -1.3347   -6.4684   33.0649 C   0  0  0  0  0  0  0  0  0  0  0  0
   -3.1765  -12.0258   33.9123 C   0  0  2  0  0  0  0  0  0  0  0  0
   -1.9426  -12.2656   34.5514 O   0  0  0  0  0  0  0  0  0  0  0  0
    2.3600   -6.4108   27.6818 C   0  0  0  0  0  0  0  0  0  0  0  0
   -0.0761   -6.4652   32.1221 C   0  0  2  0  0  0  0  0  0  0  0  0
    0.2227   -5.0928   31.6828 N   0  0  0  0  0  0  0  0  0  0  0  0
   -3.2849  -12.7957   32.5331 C   0  0  1  0  0  0  0  0  0  0  0  0
   -3.1217  -14.2751   32.7163 N   0  0  0  0  0  0  0  0  0  0  0  0
    1.2429   -5.7900   26.7854 C   0  0  0  0  0  0  0  0  0  0  0  0
   -0.3442   -7.4005   30.8812 C   0  0  2  0  0  0  0  0  0  0  0  0
   -4.7070  -12.4790   31.8253 C   0  0  1  0  0  0  0  0  0  0  0  0
   -5.7866  -12.9312   32.6161 O   0  0  0  0  0  0  0  0  0  0  0  0
   -0.1455   -5.8993   27.5568 C   0  0  2  0  0  0  0  0  0  0  0  0
   -0.4518   -7.2723   27.9547 O   0  0  0  0  0  0  0  0  0  0  0  0
   -0.6588   -8.8632   31.3806 C   0  0  2  0  0  0  0  0  0  0  0  0
   -0.9008   -9.7263   30.2742 O   0  0  0  0  0  0  0  0  0  0  0  0
   -4.8593  -10.9359   31.6545 C   0  0  0  0  0  0  0  0  0  0  0  0
   -4.6093  -10.2326   32.9566 O   0  0  0  0  0  0  0  0  0  0  0  0
   -1.3181   -5.3158   26.8043 C   0  0  0  0  0  0  0  0  0  0  0  0
   -2.5295   -5.3646   27.5801 N   0  0  0  0  0  0  0  0  0  0  0  0
   -1.9152   -8.8459   32.3204 C   0  0  1  0  0  0  0  0  0  0  0  0
   -2.1780  -10.1711   32.7653 O   0  0  0  0  0  0  0  0  0  0  0  0
   -4.9658  -13.1405   30.4647 C   0  0  0  0  0  0  0  0  0  0  0  0
   -1.7808  -14.8364   32.4816 C   0  0  0  0  0  0  0  0  0  0  0  0
  1  2  1  1  0  0  0
  1  6  1  0  0  0  0
  1 21  1  0  0  0  0
  3  4  1  1  0  0  0
  3  8  1  0  0  0  0
  3 28  1  0  0  0  0
  5  9  1  0  0  0  0
  5 25  1  0  0  0  0
  5 29  1  6  0  0  0
  6  7  1  1  0  0  0
  6 11  1  0  0  0  0
  8 12  1  0  0  0  0
  9 10  1  6  0  0  0
  9 14  1  0  0  0  0
 11 16  1  0  0  0  0
 12 13  1  6  0  0  0
 12 17  1  0  0  0  0
 14 15  1  1  0  0  0
 14 18  1  0  0  0  0
 15 31  1  0  0  0  0
 16 20  1  0  0  0  0
 17  2  1  6  0  0  0
 17 22  1  0  0  0  0
 18 19  1  1  0  0  0
 18 24  1  0  0  0  0
 18 30  1  0  0  0  0
 20 21  1  0  0  0  0
 20 26  1  6  0  0  0
 22 23  1  6  0  0  0
 22 28  1  0  0  0  0
 24 25  1  0  0  0  0
 26 27  1  0  0  0  0
 28 29  1  1  0  0  0
M  END
>  <CHROM.1>
-177.28410560,-177.47053997,-96.59458791,-168.24925377,-176.33422026,61.59163201
-1.56357473,-9.17809663,31.02796497,-0.11834303,-1.04426271,-2.34466818

>  <Name>
2et3_lig

>  <RI>
0

>  <Rbt.Current_Directory>
/home/itssahil/PROJECTS/Mol_Feturizer/New_Systems/rnas/2et3

>  <Rbt.Executable>
rbdock ($Id: //depot/dev/client3/rdock/2013.1/src/exe/rbdock.cxx#4 $)

>  <Rbt.Library>
libRbt.so (2013.1, Build901 2013/11/27)

>  <Rbt.Parameter_File>
/export/apps/rDock/src/rDock_2013.1_src/data/scripts/dock_solv.prm

>  <Rbt.Receptor>
prm/pocket_docking_6.prm

>  <SCORE>
-28.0421

>  <SCORE.INTER>
-17.2483

>  <SCORE.INTER.CONST>
1

>  <SCORE.INTER.POLAR>
-1.67855

>  <SCORE.INTER.ROT>
6

>  <SCORE.INTER.SOLV>
16.3008

>  <SCORE.INTER.VDW>
-18.9373

>  <SCORE.INTER.norm>
-0.556397

>  <SCORE.INTRA>
-10.7938

>  <SCORE.INTRA.DIHEDRAL>
-20.4873

>  <SCORE.INTRA.DIHEDRAL.0>
22.2484

>  <SCORE.INTRA.POLAR>
0

>  <SCORE.INTRA.POLAR.0>
0

>  <SCORE.INTRA.REPUL>
0

>  <SCORE.INTRA.REPUL.0>
0

>  <SCORE.INTRA.SOLV>
-2.43425

>  <SCORE.INTRA.SOLV.lig_0>
-75.7198

>  <SCORE.INTRA.VDW>
0.666993

>  <SCORE.INTRA.VDW.0>
-3.34171

>  <SCORE.INTRA.norm>
-0.348187

>  <SCORE.RESTR>
0

>  <SCORE.RESTR.CAVITY>
0

>  <SCORE.RESTR.norm>
0

>  <SCORE.SYSTEM>
0

>  <SCORE.SYSTEM.CONST>
0

>  <SCORE.SYSTEM.DIHEDRAL>
0

>  <SCORE.SYSTEM.SOLV>
0

>  <SCORE.SYSTEM.norm>
0

>  <SCORE.heavy>
31

>  <SCORE.norm>
-0.904584

>  <RMSD>
4.608

$$$$
2et3_lig
 OpenBabel11021811423D
libRbt.so/2013.1/901 2013/11/27
 31 33  0  0  0  0  0  0  0  0999 V2000
    0.6109   -7.9617   28.6855 C   0  0  2  0  0  0  0  0  0  0  0  0
    0.7596   -7.4031   30.0167 O   0  0  0  0  0  0  0  0  0  0  0  0
   -1.6141   -7.9885   33.5280 C   0  0  2  0  0  0  0  0  0  0  0  0
   -2.7555   -7.9910   34.3899 N   0  0  0  0  0  0  0  0  0  0  0  0
   -3.2713  -10.5643   33.6200 C   0  0  2  0  0  0  0  0  0  0  0  0
    1.9474   -7.8859   27.9395 C   0  0  2  0  0  0  0  0  0  0  0  0
    2.9414   -8.5619   28.7148 N   0  0  0  0  0  0  0  0  0  0  0  0
   -1.2982   -6.5237   33.0842 C   0  0  0  0  0  0  0  0  0  0  0  0
   -3.1400  -12.0793   33.8904 C   0  0  2  0  0  0  0  0  0  0  0  0
   -1.8919  -12.3287   34.4975 O   0  0  0  0  0  0  0  0  0  0  0  0
    2.3365   -6.3931   27.6652 C   0  0  0  0  0  0  0  0  0  0  0  0
   -0.0492   -6.5123   32.1288 C   0  0  2  0  0  0  0  0  0  0  0  0
    0.2521   -5.1349   31.7075 N   0  0  0  0  0  0  0  0  0  0  0  0
   -3.2839  -12.8363   32.5072 C   0  0  1  0  0  0  0  0  0  0  0  0
   -3.1211  -14.3178   32.6730 N   0  0  0  0  0  0  0  0  0  0  0  0
    1.2111   -5.7531   26.7932 C   0  0  0  0  0  0  0  0  0  0  0  0
   -0.3347   -7.4271   30.8765 C   0  0  2  0  0  0  0  0  0  0  0  0
   -4.7216  -12.5089   31.8366 C   0  0  1  0  0  0  0  0  0  0  0  0
   -5.7834  -12.9651   32.6491 O   0  0  0  0  0  0  0  0  0  0  0  0
   -0.1686   -5.8720   27.5787 C   0  0  2  0  0  0  0  0  0  0  0  0
   -0.4747   -7.2509   27.9558 O   0  0  0  0  0  0  0  0  0  0  0  0
   -0.6516   -8.8957   31.3566 C   0  0  2  0  0  0  0  0  0  0  0  0
   -0.9092   -9.7406   30.2397 O   0  0  0  0  0  0  0  0  0  0  0  0
   -4.8730  -10.9638   31.6836 C   0  0  0  0  0  0  0  0  0  0  0  0
   -4.5896  -10.2732   32.9857 O   0  0  0  0  0  0  0  0  0  0  0  0
   -1.3481   -5.2717   26.8504 C   0  0  0  0  0  0  0  0  0  0  0  0
   -2.5503   -5.3296   27.6399 N   0  0  0  0  0  0  0  0  0  0  0  0
   -1.8984   -8.8866   32.3094 C   0  0  1  0  0  0  0  0  0  0  0  0
   -2.1633  -10.2173   32.7366 O   0  0  0  0  0  0  0  0  0  0  0  0
   -5.0151  -13.1571   30.4768 C   0  0  0  0  0  0  0  0  0  0  0  0
   -1.7641  -14.8660   32.5111 C   0  0  0  0  0  0  0  0  0  0  0  0
  1  2  1  1  0  0  0
  1  6  1  0  0  0  0
  1 21  1  0  0  0  0
  3  4  1  1  0  0  0
  3  8  1  0  0  0  0
  3 28  1  0  0  0  0
  5  9  1  0  0  0  0
  5 25  1  0  0  0  0
  5 29  1  6  0  0  0
  6  7  1  1  0  0  0
  6 11  1  0  0  0  0
  8 12  1  0  0  0  0
  9 10  1  6  0  0  0
  9 14  1  0  0  0  0
 11 16  1  0  0  0  0
 12 13  1  6  0  0  0
 12 17  1  0  0  0  0
 14 15  1  1  0  0  0
 14 18  1  0  0  0  0
 15 31  1  0  0  0  0
 16 20  1  0  0  0  0
 17  2  1  6  0  0  0
 17 22  1  0  0  0  0
 18 19  1  1  0  0  0
 18 24  1  0  0  0  0
 18 30  1  0  0  0  0
 20 21  1  0  0  0  0
 20 26  1  6  0  0  0
 22 23  1  6  0  0  0
 22 28  1  0  0  0  0
 24 25  1  0  0  0  0
 26 27  1  0  0  0  0
 28 29  1  1  0  0  0
M  END
>  <CHROM.1>
-177.50363148,-176.75699798,-91.63252297,-168.10165626,-176.28505466,60.56103142
-1.56086166,-9.20016266,31.02585890,-0.10383167,-1.04974465,-2.32274630

>  <Name>
2et3_lig

>  <RI>
0

>  <Rbt.Current_Directory>
/home/itssahil/PROJECTS/Mol_Feturizer/New_Systems/rnas/2et3

>  <Rbt.Executable>
rbdock ($Id: //depot/dev/client3/rdock/2013.1/src/exe/rbdock.cxx#4 $)

>  <Rbt.Library>
libRbt.so (2013.1, Build901 2013/11/27)

>  <Rbt.Parameter_File>
/export/apps/rDock/src/rDock_2013.1_src/data/scripts/dock_solv.prm

>  <Rbt.Receptor>
prm/pocket_docking_7.prm

>  <SCORE>
-27.8844

>  <SCORE.INTER>
-17.1569

>  <SCORE.INTER.CONST>
1

>  <SCORE.INTER.POLAR>
-1.6804

>  <SCORE.INTER.ROT>
6

>  <SCORE.INTER.SOLV>
16.1206

>  <SCORE.INTER.VDW>
-18.8102

>  <SCORE.INTER.norm>
-0.55345

>  <SCORE.INTRA>
-10.7351

>  <SCORE.INTRA.DIHEDRAL>
-20.6171

>  <SCORE.INTRA.DIHEDRAL.0>
22.2484

>  <SCORE.INTRA.POLAR>
0

>  <SCORE.INTRA.POLAR.0>
0

>  <SCORE.INTRA.REPUL>
0

>  <SCORE.INTRA.REPUL.0>
0

>  <SCORE.INTRA.SOLV>
-2.40016

>  <SCORE.INTRA.SOLV.lig_0>
-75.7198

>  <SCORE.INTRA.VDW>
0.773466

>  <SCORE.INTRA.VDW.0>
-3.34171

>  <SCORE.INTRA.norm>
-0.346295

>  <SCORE.RESTR>
0.00770896

>  <SCORE.RESTR.CAVITY>
0.00770896

>  <SCORE.RESTR.norm>
0.000248676

>  <SCORE.SYSTEM>
0

>  <SCORE.SYSTEM.CONST>
0

>  <SCORE.SYSTEM.DIHEDRAL>
0

>  <SCORE.SYSTEM.SOLV>
0

>  <SCORE.SYSTEM.norm>
0

>  <SCORE.heavy>
31

>  <SCORE.norm>
-0.899496

>  <RMSD>
4.613

$$$$
2et3_lig
 OpenBabel11021811423D
libRbt.so/2013.1/901 2013/11/27
 31 33  0  0  0  0  0  0  0  0999 V2000
    0.5080   -7.6040   29.1019 C   0  0  2  0  0  0  0  0  0  0  0  0
    0.5200   -6.7522   30.2768 O   0  0  0  0  0  0  0  0  0  0  0  0
   -1.7616   -7.3092   33.8531 C   0  0  2  0  0  0  0  0  0  0  0  0
   -2.8897   -7.3485   34.7315 N   0  0  0  0  0  0  0  0  0  0  0  0
   -3.3126  -10.0435   33.9646 C   0  0  2  0  0  0  0  0  0  0  0  0
    1.7228   -7.2905   28.2220 C   0  0  2  0  0  0  0  0  0  0  0  0
    2.9078   -7.4488   29.0073 N   0  0  0  0  0  0  0  0  0  0  0  0
   -1.5657   -5.8535   33.3198 C   0  0  0  0  0  0  0  0  0  0  0  0
   -3.0340  -11.5030   34.3863 C   0  0  2  0  0  0  0  0  0  0  0  0
   -1.8606  -11.5370   35.1675 O   0  0  0  0  0  0  0  0  0  0  0  0
    1.6071   -5.8465   27.6245 C   0  0  0  0  0  0  0  0  0  0  0  0
   -0.3320   -5.8026   32.3458 C   0  0  2  0  0  0  0  0  0  0  0  0
   -0.1435   -4.4335   31.8402 N   0  0  0  0  0  0  0  0  0  0  0  0
   -2.8911  -12.3723   33.0706 C   0  0  1  0  0  0  0  0  0  0  0  0
   -2.5713  -13.8022   33.3900 N   0  0  0  0  0  0  0  0  0  0  0  0
    0.3054   -5.7824   26.7653 C   0  0  0  0  0  0  0  0  0  0  0  0
   -0.5594   -6.8094   31.1536 C   0  0  2  0  0  0  0  0  0  0  0  0
   -4.2517  -12.2914   32.1954 C   0  0  1  0  0  0  0  0  0  0  0  0
   -5.3510  -12.8251   32.9041 O   0  0  0  0  0  0  0  0  0  0  0  0
   -0.9352   -6.1405   27.6966 C   0  0  2  0  0  0  0  0  0  0  0  0
   -0.7732   -7.4313   28.3636 O   0  0  0  0  0  0  0  0  0  0  0  0
   -0.7558   -8.2670   31.7235 C   0  0  2  0  0  0  0  0  0  0  0  0
   -0.9592   -9.1939   30.6618 O   0  0  0  0  0  0  0  0  0  0  0  0
   -4.5699  -10.7962   31.8844 C   0  0  0  0  0  0  0  0  0  0  0  0
   -4.5564   -9.9797   33.1438 O   0  0  0  0  0  0  0  0  0  0  0  0
   -2.2702   -6.0984   26.9908 C   0  0  0  0  0  0  0  0  0  0  0  0
   -3.3633   -6.3232   27.8999 N   0  0  0  0  0  0  0  0  0  0  0  0
   -1.9888   -8.2974   32.6935 C   0  0  1  0  0  0  0  0  0  0  0  0
   -2.1446   -9.6167   33.2017 O   0  0  0  0  0  0  0  0  0  0  0  0
   -4.2723  -13.0716   30.8739 C   0  0  0  0  0  0  0  0  0  0  0  0
   -1.6144  -14.4892   32.5066 C   0  0  0  0  0  0  0  0  0  0  0  0
  1  2  1  1  0  0  0
  1  6  1  0  0  0  0
  1 21  1  0  0  0  0
  3  4  1  1  0  0  0
  3  8  1  0  0  0  0
  3 28  1  0  0  0  0
  5  9  1  0  0  0  0
  5 25  1  0  0  0  0
  5 29  1  6  0  0  0
  6  7  1  1  0  0  0
  6 11  1  0  0  0  0
  8 12  1  0  0  0  0
  9 10  1  6  0  0  0
  9 14  1  0  0  0  0
 11 16  1  0  0  0  0
 12 13  1  6  0  0  0
 12 17  1  0  0  0  0
 14 15  1  1  0  0  0
 14 18  1  0  0  0  0
 15 31  1  0  0  0  0
 16 20  1  0  0  0  0
 17  2  1  6  0  0  0
 17 22  1  0  0  0  0
 18 19  1  1  0  0  0
 18 24  1  0  0  0  0
 18 30  1  0  0  0  0
 20 21  1  0  0  0  0
 20 26  1  6  0  0  0
 22 23  1  6  0  0  0
 22 28  1  0  0  0  0
 24 25  1  0  0  0  0
 26 27  1  0  0  0  0
 28 29  1  1  0  0  0
M  END
>  <CHROM.1>
175.05338636,-176.69604007,-141.31315319,-179.84301631,-175.31979872,69.57394524
-1.67148140,-8.83120963,31.33065476,0.15011460,-1.11286789,-2.06561277

>  <Name>
2et3_lig

>  <RI>
3.50789e+07

>  <Rbt.Current_Directory>
/home/itssahil/PROJECTS/Mol_Feturizer/New_Systems/rnas/2et3

>  <Rbt.Executable>
rbdock ($Id: //depot/dev/client3/rdock/2013.1/src/exe/rbdock.cxx#4 $)

>  <Rbt.Library>
libRbt.so (2013.1, Build901 2013/11/27)

>  <Rbt.Parameter_File>
/export/apps/rDock/src/rDock_2013.1_src/data/scripts/dock_solv.prm

>  <Rbt.Receptor>
prm/pocket_docking_4.prm

>  <SCORE>
-26.7737

>  <SCORE.INTER>
-16.3127

>  <SCORE.INTER.CONST>
1

>  <SCORE.INTER.POLAR>
-1.92993

>  <SCORE.INTER.ROT>
6

>  <SCORE.INTER.SOLV>
14.7689

>  <SCORE.INTER.VDW>
-16.965

>  <SCORE.INTER.norm>
-0.526218

>  <SCORE.INTRA>
-10.461

>  <SCORE.INTRA.DIHEDRAL>
-20.5194

>  <SCORE.INTRA.DIHEDRAL.0>
22.2484

>  <SCORE.INTRA.POLAR>
0

>  <SCORE.INTRA.POLAR.0>
0

>  <SCORE.INTRA.REPUL>
0

>  <SCORE.INTRA.REPUL.0>
0

>  <SCORE.INTRA.SOLV>
-2.91497

>  <SCORE.INTRA.SOLV.lig_0>
-75.7198

>  <SCORE.INTRA.VDW>
1.25618

>  <SCORE.INTRA.VDW.0>
-3.34171

>  <SCORE.INTRA.norm>
-0.337451

>  <SCORE.RESTR>
0

>  <SCORE.RESTR.CAVITY>
0

>  <SCORE.RESTR.norm>
0

>  <SCORE.SYSTEM>
0

>  <SCORE.SYSTEM.CONST>
0

>  <SCORE.SYSTEM.DIHEDRAL>
0

>  <SCORE.SYSTEM.SOLV>
0

>  <SCORE.SYSTEM.norm>
0

>  <SCORE.heavy>
31

>  <SCORE.norm>
-0.863669

>  <RMSD>
4.650

$$$$
2et3_lig
 OpenBabel11021811423D
libRbt.so/2013.1/901 2013/11/27
 31 33  0  0  0  0  0  0  0  0999 V2000
    0.4704   -6.4402   29.6548 C   0  0  2  0  0  0  0  0  0  0  0  0
    0.2409   -7.8370   29.9749 O   0  0  0  0  0  0  0  0  0  0  0  0
   -1.6095   -9.3508   33.5232 C   0  0  2  0  0  0  0  0  0  0  0  0
   -2.6295   -9.6531   34.4791 N   0  0  0  0  0  0  0  0  0  0  0  0
   -3.0705  -12.0922   33.1504 C   0  0  2  0  0  0  0  0  0  0  0  0
   -0.5713   -5.9639   28.6369 C   0  0  2  0  0  0  0  0  0  0  0  0
   -1.8757   -6.2008   29.1742 N   0  0  0  0  0  0  0  0  0  0  0  0
   -1.4996   -7.8017   33.3493 C   0  0  0  0  0  0  0  0  0  0  0  0
   -2.7380  -13.6005   33.1359 C   0  0  2  0  0  0  0  0  0  0  0  0
   -1.4627  -13.7928   33.7059 O   0  0  0  0  0  0  0  0  0  0  0  0
   -0.3653   -6.6895   27.2634 C   0  0  0  0  0  0  0  0  0  0  0  0
   -0.3858   -7.4601   32.2930 C   0  0  2  0  0  0  0  0  0  0  0  0
   -0.2787   -6.0020   32.1252 N   0  0  0  0  0  0  0  0  0  0  0  0
   -2.7930  -14.0980   31.6338 C   0  0  1  0  0  0  0  0  0  0  0  0
   -2.4346  -15.5499   31.5233 N   0  0  0  0  0  0  0  0  0  0  0  0
    1.0679   -6.3482   26.7473 C   0  0  0  0  0  0  0  0  0  0  0  0
   -0.7306   -8.1542   30.9197 C   0  0  2  0  0  0  0  0  0  0  0  0
   -4.2671  -13.8427   31.0128 C   0  0  1  0  0  0  0  0  0  0  0  0
   -5.2522  -14.5780   31.7088 O   0  0  0  0  0  0  0  0  0  0  0  0
    2.1263   -6.8269   27.8360 C   0  0  2  0  0  0  0  0  0  0  0  0
    1.8608   -6.2563   29.1556 O   0  0  0  0  0  0  0  0  0  0  0  0
   -0.8367   -9.7140   31.1284 C   0  0  2  0  0  0  0  0  0  0  0  0
   -1.1443  -10.3616   29.8980 O   0  0  0  0  0  0  0  0  0  0  0  0
   -4.6224  -12.3297   31.1479 C   0  0  0  0  0  0  0  0  0  0  0  0
   -4.4212  -11.8634   32.5603 O   0  0  0  0  0  0  0  0  0  0  0  0
    3.5651   -6.5715   27.4533 C   0  0  0  0  0  0  0  0  0  0  0  0
    3.9723   -7.3790   26.3335 N   0  0  0  0  0  0  0  0  0  0  0  0
   -1.9507  -10.0348   32.1859 C   0  0  1  0  0  0  0  0  0  0  0  0
   -2.0258  -11.4439   32.3651 O   0  0  0  0  0  0  0  0  0  0  0  0
   -4.4843  -14.2584   29.5515 C   0  0  0  0  0  0  0  0  0  0  0  0
   -1.0036  -15.8822   31.4229 C   0  0  0  0  0  0  0  0  0  0  0  0
  1  2  1  6  0  0  0
  1  6  1  0  0  0  0
  1 21  1  0  0  0  0
  3  4  1  1  0  0  0
  3  8  1  0  0  0  0
  3 28  1  0  0  0  0
  5  9  1  0  0  0  0
  5 25  1  0  0  0  0
  5 29  1  6  0  0  0
  6  7  1  1  0  0  0
  6 11  1  0  0  0  0
  8 12  1  0  0  0  0
  9 10  1  6  0  0  0
  9 14  1  0  0  0  0
 11 16  1  0  0  0  0
 12 13  1  6  0  0  0
 12 17  1  0  0  0  0
 14 15  1  1  0  0  0
 14 18  1  0  0  0  0
 15 31  1  0  0  0  0
 16 20  1  0  0  0  0
 17  2  1  6  0  0  0
 17 22  1  0  0  0  0
 18 19  1  1  0  0  0
 18 24  1  0  0  0  0
 18 30  1  0  0  0  0
 20 21  1  0  0  0  0
 20 26  1  6  0  0  0
 22 23  1  6  0  0  0
 22 28  1  0  0  0  0
 24 25  1  0  0  0  0
 26 27  1  0  0  0  0
 28 29  1  1  0  0  0
M  END
>  <CHROM.1>
-82.00026199,-177.44191360,-85.51142583,-58.76033632,-67.26894741,67.74608102
-1.27533192,-9.99595944,30.81040498,0.49189546,0.97501043,0.53429622

>  <Name>
2et3_lig

>  <RI>
3.86414e+07

>  <Rbt.Current_Directory>
/home/itssahil/PROJECTS/Mol_Feturizer/New_Systems/rnas/2et3

>  <Rbt.Executable>
rbdock ($Id: //depot/dev/client3/rdock/2013.1/src/exe/rbdock.cxx#4 $)

>  <Rbt.Library>
libRbt.so (2013.1, Build901 2013/11/27)

>  <Rbt.Parameter_File>
/export/apps/rDock/src/rDock_2013.1_src/data/scripts/dock_solv.prm

>  <Rbt.Receptor>
prm/pocket_docking_8.prm

>  <SCORE>
-19.6497

>  <SCORE.INTER>
-12.8252

>  <SCORE.INTER.CONST>
1

>  <SCORE.INTER.POLAR>
-1.13401

>  <SCORE.INTER.ROT>
6

>  <SCORE.INTER.SOLV>
9.76122

>  <SCORE.INTER.VDW>
-15.6238

>  <SCORE.INTER.norm>
-0.413717

>  <SCORE.INTRA>
-6.82449

>  <SCORE.INTRA.DIHEDRAL>
-19.0135

>  <SCORE.INTRA.DIHEDRAL.0>
22.2484

>  <SCORE.INTRA.POLAR>
0

>  <SCORE.INTRA.POLAR.0>
0

>  <SCORE.INTRA.REPUL>
0

>  <SCORE.INTRA.REPUL.0>
0

>  <SCORE.INTRA.SOLV>
1.38251

>  <SCORE.INTRA.SOLV.lig_0>
-75.7198

>  <SCORE.INTRA.VDW>
1.99102

>  <SCORE.INTRA.VDW.0>
-3.34171

>  <SCORE.INTRA.norm>
-0.220145

>  <SCORE.RESTR>
0

>  <SCORE.RESTR.CAVITY>
0

>  <SCORE.RESTR.norm>
0

>  <SCORE.SYSTEM>
0

>  <SCORE.SYSTEM.CONST>
0

>  <SCORE.SYSTEM.DIHEDRAL>
0

>  <SCORE.SYSTEM.SOLV>
0

>  <SCORE.SYSTEM.norm>
0

>  <SCORE.heavy>
31

>  <SCORE.norm>
-0.633861

>  <RMSD>
4.707

$$$$
2et3_lig
 OpenBabel11021811423D
libRbt.so/2013.1/901 2013/11/27
 31 33  0  0  0  0  0  0  0  0999 V2000
    0.5001   -7.8449   29.1924 C   0  0  2  0  0  0  0  0  0  0  0  0
    0.4899   -7.1303   30.4555 O   0  0  0  0  0  0  0  0  0  0  0  0
   -1.8297   -8.0795   33.9232 C   0  0  2  0  0  0  0  0  0  0  0  0
   -2.9688   -8.2254   34.7757 N   0  0  0  0  0  0  0  0  0  0  0  0
   -3.2533  -10.8093   33.8719 C   0  0  2  0  0  0  0  0  0  0  0  0
    1.6026   -7.2834   28.2882 C   0  0  2  0  0  0  0  0  0  0  0  0
    2.8502   -7.3701   28.9825 N   0  0  0  0  0  0  0  0  0  0  0  0
   -1.6539   -6.5747   33.5398 C   0  0  0  0  0  0  0  0  0  0  0  0
   -3.0877  -12.3440   33.9257 C   0  0  2  0  0  0  0  0  0  0  0  0
   -1.8296  -12.6486   34.4851 O   0  0  0  0  0  0  0  0  0  0  0  0
    1.2689   -5.8109   27.8692 C   0  0  0  0  0  0  0  0  0  0  0  0
   -0.4082   -6.4059   32.5949 C   0  0  2  0  0  0  0  0  0  0  0  0
   -0.2385   -4.9903   32.2306 N   0  0  0  0  0  0  0  0  0  0  0  0
   -3.2272  -12.9019   32.4506 C   0  0  1  0  0  0  0  0  0  0  0  0
   -3.0318  -14.3881   32.4054 N   0  0  0  0  0  0  0  0  0  0  0  0
   -0.0878   -5.8242   27.0972 C   0  0  0  0  0  0  0  0  0  0  0  0
   -0.6002   -7.2930   31.3054 C   0  0  2  0  0  0  0  0  0  0  0  0
   -4.6770  -12.5154   31.8404 C   0  0  1  0  0  0  0  0  0  0  0  0
   -5.7221  -13.1046   32.5861 O   0  0  0  0  0  0  0  0  0  0  0  0
   -1.2068   -6.4386   28.0487 C   0  0  2  0  0  0  0  0  0  0  0  0
   -0.8411   -7.7616   28.5518 O   0  0  0  0  0  0  0  0  0  0  0  0
   -0.7770   -8.8032   31.7249 C   0  0  2  0  0  0  0  0  0  0  0  0
   -0.9484   -9.6234   30.5736 O   0  0  0  0  0  0  0  0  0  0  0  0
   -4.8623  -10.9679   31.9071 C   0  0  0  0  0  0  0  0  0  0  0  0
   -4.5826  -10.4611   33.2920 O   0  0  0  0  0  0  0  0  0  0  0  0
   -2.5829   -6.4945   27.4283 C   0  0  0  0  0  0  0  0  0  0  0  0
   -3.1551   -5.1825   27.2765 N   0  0  0  0  0  0  0  0  0  0  0  0
   -2.0223   -8.9512   32.6679 C   0  0  1  0  0  0  0  0  0  0  0  0
   -2.1603  -10.3171   33.0404 O   0  0  0  0  0  0  0  0  0  0  0  0
   -4.9681  -12.9723   30.4044 C   0  0  0  0  0  0  0  0  0  0  0  0
   -1.6492  -14.8797   32.2831 C   0  0  0  0  0  0  0  0  0  0  0  0
  1  2  1  1  0  0  0
  1  6  1  0  0  0  0
  1 21  1  0  0  0  0
  3  4  1  1  0  0  0
  3  8  1  0  0  0  0
  3 28  1  0  0  0  0
  5  9  1  0  0  0  0
  5 25  1  0  0  0  0
  5 29  1  6  0  0  0
  6  7  1  1  0  0  0
  6 11  1  0  0  0  0
  8 12  1  0  0  0  0
  9 10  1  6  0  0  0
  9 14  1  0  0  0  0
 11 16  1  0  0  0  0
 12 13  1  6  0  0  0
 12 17  1  0  0  0  0
 14 15  1  1  0  0  0
 14 18  1  0  0  0  0
 15 31  1  0  0  0  0
 16 20  1  0  0  0  0
 17  2  1  6  0  0  0
 17 22  1  0  0  0  0
 18 19  1  1  0  0  0
 18 24  1  0  0  0  0
 18 30  1  0  0  0  0
 20 21  1  0  0  0  0
 20 26  1  6  0  0  0
 22 23  1  6  0  0  0
 22 28  1  0  0  0  0
 24 25  1  0  0  0  0
 26 27  1  0  0  0  0
 28 29  1  1  0  0  0
M  END
>  <CHROM.1>
166.93675785,175.23902751,-86.23354307,-178.89287549,-70.16595449,62.24118361
-1.81548121,-9.22032851,31.26566769,0.46177546,-1.05703785,-1.62910529

>  <Name>
2et3_lig

>  <RI>
0

>  <Rbt.Current_Directory>
/home/itssahil/PROJECTS/Mol_Feturizer/New_Systems/rnas/2et3

>  <Rbt.Executable>
rbdock ($Id: //depot/dev/client3/rdock/2013.1/src/exe/rbdock.cxx#4 $)

>  <Rbt.Library>
libRbt.so (2013.1, Build901 2013/11/27)

>  <Rbt.Parameter_File>
/export/apps/rDock/src/rDock_2013.1_src/data/scripts/dock_solv.prm

>  <Rbt.Receptor>
prm/pocket_docking_7.prm

>  <SCORE>
-25.5818

>  <SCORE.INTER>
-15.7277

>  <SCORE.INTER.CONST>
1

>  <SCORE.INTER.POLAR>
-1.9955

>  <SCORE.INTER.ROT>
6

>  <SCORE.INTER.SOLV>
13.9464

>  <SCORE.INTER.VDW>
-16.0822

>  <SCORE.INTER.norm>
-0.507344

>  <SCORE.INTRA>
-9.8542

>  <SCORE.INTRA.DIHEDRAL>
-20.3294

>  <SCORE.INTRA.DIHEDRAL.0>
22.2484

>  <SCORE.INTRA.POLAR>
0

>  <SCORE.INTRA.POLAR.0>
0

>  <SCORE.INTRA.REPUL>
0

>  <SCORE.INTRA.REPUL.0>
0

>  <SCORE.INTRA.SOLV>
-2.6718

>  <SCORE.INTRA.SOLV.lig_0>
-75.7198

>  <SCORE.INTRA.VDW>
1.64641

>  <SCORE.INTRA.VDW.0>
-3.34171

>  <SCORE.INTRA.norm>
-0.317877

>  <SCORE.RESTR>
0

>  <SCORE.RESTR.CAVITY>
0

>  <SCORE.RESTR.norm>
0

>  <SCORE.SYSTEM>
0

>  <SCORE.SYSTEM.CONST>
0

>  <SCORE.SYSTEM.DIHEDRAL>
0

>  <SCORE.SYSTEM.SOLV>
0

>  <SCORE.SYSTEM.norm>
0

>  <SCORE.heavy>
31

>  <SCORE.norm>
-0.825221

>  <RMSD>
4.728

$$$$
2et3_lig
 OpenBabel11021811423D
libRbt.so/2013.1/901 2013/11/27
 31 33  0  0  0  0  0  0  0  0999 V2000
   -0.9902   -5.0065   28.4773 C   0  0  2  0  0  0  0  0  0  0  0  0
   -1.6403   -6.1199   29.1435 O   0  0  0  0  0  0  0  0  0  0  0  0
   -1.7702   -7.2487   33.2685 C   0  0  2  0  0  0  0  0  0  0  0  0
   -1.3134   -7.6074   34.5755 N   0  0  0  0  0  0  0  0  0  0  0  0
   -1.4243   -4.9463   35.2910 C   0  0  2  0  0  0  0  0  0  0  0  0
   -1.5896   -4.8172   27.0797 C   0  0  2  0  0  0  0  0  0  0  0  0
   -3.0023   -4.6347   27.2103 N   0  0  0  0  0  0  0  0  0  0  0  0
   -1.2576   -8.2980   32.2301 C   0  0  0  0  0  0  0  0  0  0  0  0
   -2.2312   -3.8092   35.9555 C   0  0  2  0  0  0  0  0  0  0  0  0
   -3.6055   -4.0339   35.7337 O   0  0  0  0  0  0  0  0  0  0  0  0
   -1.2412   -6.0409   26.1651 C   0  0  0  0  0  0  0  0  0  0  0  0
   -1.7480   -7.9066   30.7881 C   0  0  2  0  0  0  0  0  0  0  0  0
   -1.2673   -8.8916   29.8061 N   0  0  0  0  0  0  0  0  0  0  0  0
   -1.7497   -2.4377   35.3276 C   0  0  1  0  0  0  0  0  0  0  0  0
   -2.5195   -1.2784   35.8864 N   0  0  0  0  0  0  0  0  0  0  0  0
    0.3133   -6.1389   26.0612 C   0  0  0  0  0  0  0  0  0  0  0  0
   -1.2273   -6.4624   30.4278 C   0  0  2  0  0  0  0  0  0  0  0  0
   -0.1650   -2.2278   35.5891 C   0  0  1  0  0  0  0  0  0  0  0  0
    0.1223   -2.1525   36.9702 O   0  0  0  0  0  0  0  0  0  0  0  0
    0.9101   -6.3052   27.5278 C   0  0  2  0  0  0  0  0  0  0  0  0
    0.4800   -5.2349   28.4259 O   0  0  0  0  0  0  0  0  0  0  0  0
   -1.7588   -5.4283   31.4936 C   0  0  2  0  0  0  0  0  0  0  0  0
   -1.3027   -4.1152   31.1845 O   0  0  0  0  0  0  0  0  0  0  0  0
    0.6137   -3.4490   35.0096 C   0  0  0  0  0  0  0  0  0  0  0  0
    0.0345   -4.7360   35.5202 O   0  0  0  0  0  0  0  0  0  0  0  0
    2.4148   -6.4304   27.5721 C   0  0  0  0  0  0  0  0  0  0  0  0
    2.8908   -6.6942   28.9046 N   0  0  0  0  0  0  0  0  0  0  0  0
   -1.2613   -5.8360   32.9248 C   0  0  1  0  0  0  0  0  0  0  0  0
   -1.7563   -4.8967   33.8713 O   0  0  0  0  0  0  0  0  0  0  0  0
    0.4655   -0.9460   35.0279 C   0  0  0  0  0  0  0  0  0  0  0  0
   -3.6916   -0.8201   35.1220 C   0  0  0  0  0  0  0  0  0  0  0  0
  1  2  1  6  0  0  0
  1  6  1  0  0  0  0
  1 21  1  0  0  0  0
  3  4  1  1  0  0  0
  3  8  1  0  0  0  0
  3 28  1  0  0  0  0
  5  9  1  0  0  0  0
  5 25  1  0  0  0  0
  5 29  1  6  0  0  0
  6  7  1  1  0  0  0
  6 11  1  0  0  0  0
  8 12  1  0  0  0  0
  9 10  1  6  0  0  0
  9 14  1  0  0  0  0
 11 16  1  0  0  0  0
 12 13  1  6  0  0  0
 12 17  1  0  0  0  0
 14 15  1  1  0  0  0
 14 18  1  0  0  0  0
 15 31  1  0  0  0  0
 16 20  1  0  0  0  0
 17  2  1  6  0  0  0
 17 22  1  0  0  0  0
 18 19  1  1  0  0  0
 18 24  1  0  0  0  0
 18 30  1  0  0  0  0
 20 21  1  0  0  0  0
 20 26  1  6  0  0  0
 22 23  1  6  0  0  0
 22 28  1  0  0  0  0
 24 25  1  0  0  0  0
 26 27  1  0  0  0  0
 28 29  1  1  0  0  0
M  END
>  <CHROM.1>
179.47379225,-176.70635493,-94.61937108,-163.85123681,-174.96329776,62.79371380
-0.97736185,-4.96329866,31.92666222,-0.60773445,1.40499788,0.20736436

>  <Name>
2et3_lig

>  <RI>
0

>  <Rbt.Current_Directory>
/home/itssahil/PROJECTS/Mol_Feturizer/New_Systems/rnas/2et3

>  <Rbt.Executable>
rbdock ($Id: //depot/dev/client3/rdock/2013.1/src/exe/rbdock.cxx#4 $)

>  <Rbt.Library>
libRbt.so (2013.1, Build901 2013/11/27)

>  <Rbt.Parameter_File>
/export/apps/rDock/src/rDock_2013.1_src/data/scripts/dock_solv.prm

>  <Rbt.Receptor>
prm/pocket_docking_7.prm

>  <SCORE>
-26.202

>  <SCORE.INTER>
-15.4866

>  <SCORE.INTER.CONST>
1

>  <SCORE.INTER.POLAR>
-1.5668

>  <SCORE.INTER.ROT>
6

>  <SCORE.INTER.SOLV>
17.4927

>  <SCORE.INTER.VDW>
-18.5326

>  <SCORE.INTER.norm>
-0.499568

>  <SCORE.INTRA>
-10.716

>  <SCORE.INTRA.DIHEDRAL>
-19.9384

>  <SCORE.INTRA.DIHEDRAL.0>
22.2484

>  <SCORE.INTRA.POLAR>
0

>  <SCORE.INTRA.POLAR.0>
0

>  <SCORE.INTRA.REPUL>
0

>  <SCORE.INTRA.REPUL.0>
0

>  <SCORE.INTRA.SOLV>
-2.35407

>  <SCORE.INTRA.SOLV.lig_0>
-75.7198

>  <SCORE.INTRA.VDW>
0.430176

>  <SCORE.INTRA.VDW.0>
-3.34171

>  <SCORE.INTRA.norm>
-0.345679

>  <SCORE.RESTR>
0.000668329

>  <SCORE.RESTR.CAVITY>
0.000668329

>  <SCORE.RESTR.norm>
2.1559e-05

>  <SCORE.SYSTEM>
0

>  <SCORE.SYSTEM.CONST>
0

>  <SCORE.SYSTEM.DIHEDRAL>
0

>  <SCORE.SYSTEM.SOLV>
0

>  <SCORE.SYSTEM.norm>
0

>  <SCORE.heavy>
31

>  <SCORE.norm>
-0.845225

>  <RMSD>
4.791

$$$$
2et3_lig
 OpenBabel11021811423D
libRbt.so/2013.1/901 2013/11/27
 31 33  0  0  0  0  0  0  0  0999 V2000
   -1.6915   -5.2474   29.1492 C   0  0  2  0  0  0  0  0  0  0  0  0
   -3.0343   -5.7915   29.2320 O   0  0  0  0  0  0  0  0  0  0  0  0
   -3.2267   -6.8279   33.3787 C   0  0  2  0  0  0  0  0  0  0  0  0
   -3.7841   -7.1506   34.6557 N   0  0  0  0  0  0  0  0  0  0  0  0
   -3.9580  -10.0299   33.6703 C   0  0  2  0  0  0  0  0  0  0  0  0
   -1.4389   -4.7028   27.7392 C   0  0  2  0  0  0  0  0  0  0  0  0
   -2.4474   -3.7344   27.4369 N   0  0  0  0  0  0  0  0  0  0  0  0
   -3.6951   -5.3998   32.9505 C   0  0  0  0  0  0  0  0  0  0  0  0
   -3.0390  -11.2364   33.9628 C   0  0  2  0  0  0  0  0  0  0  0  0
   -1.8407  -10.7686   34.5404 O   0  0  0  0  0  0  0  0  0  0  0  0
   -1.4215   -5.8723   26.6965 C   0  0  0  0  0  0  0  0  0  0  0  0
   -3.0937   -5.0398   31.5428 C   0  0  2  0  0  0  0  0  0  0  0  0
   -3.5324   -3.6956   31.1346 N   0  0  0  0  0  0  0  0  0  0  0  0
   -2.7782  -11.9936   32.5969 C   0  0  1  0  0  0  0  0  0  0  0  0
   -1.8517  -13.1580   32.7835 N   0  0  0  0  0  0  0  0  0  0  0  0
   -0.2757   -6.8556   27.0930 C   0  0  0  0  0  0  0  0  0  0  0  0
   -3.5461   -6.1177   30.4845 C   0  0  2  0  0  0  0  0  0  0  0  0
   -4.1794  -12.4976   31.9596 C   0  0  1  0  0  0  0  0  0  0  0  0
   -4.8260  -13.4239   32.8077 O   0  0  0  0  0  0  0  0  0  0  0  0
   -0.5478   -7.3820   28.5706 C   0  0  2  0  0  0  0  0  0  0  0  0
   -0.6981   -6.2888   29.5296 O   0  0  0  0  0  0  0  0  0  0  0  0
   -3.0612   -7.5461   30.9454 C   0  0  2  0  0  0  0  0  0  0  0  0
   -3.4567   -8.5355   30.0006 O   0  0  0  0  0  0  0  0  0  0  0  0
   -5.1298  -11.2730   31.7844 C   0  0  0  0  0  0  0  0  0  0  0  0
   -5.2383  -10.5003   33.0666 O   0  0  0  0  0  0  0  0  0  0  0  0
    0.4836   -8.3627   29.0770 C   0  0  0  0  0  0  0  0  0  0  0  0
    1.7641   -7.7366   29.2773 N   0  0  0  0  0  0  0  0  0  0  0  0
   -3.6694   -7.8866   32.3512 C   0  0  1  0  0  0  0  0  0  0  0  0
   -3.2153   -9.1736   32.7519 O   0  0  0  0  0  0  0  0  0  0  0  0
   -4.1026  -13.2414   30.6192 C   0  0  0  0  0  0  0  0  0  0  0  0
   -0.6980  -13.2501   31.8732 C   0  0  0  0  0  0  0  0  0  0  0  0
  1  2  1  6  0  0  0
  1  6  1  0  0  0  0
  1 21  1  0  0  0  0
  3  4  1  1  0  0  0
  3  8  1  0  0  0  0
  3 28  1  0  0  0  0
  5  9  1  0  0  0  0
  5 25  1  0  0  0  0
  5 29  1  6  0  0  0
  6  7  1  6  0  0  0
  6 11  1  0  0  0  0
  8 12  1  0  0  0  0
  9 10  1  6  0  0  0
  9 14  1  0  0  0  0
 11 16  1  0  0  0  0
 12 13  1  6  0  0  0
 12 17  1  0  0  0  0
 14 15  1  1  0  0  0
 14 18  1  0  0  0  0
 15 31  1  0  0  0  0
 16 20  1  0  0  0  0
 17  2  1  6  0  0  0
 17 22  1  0  0  0  0
 18 19  1  1  0  0  0
 18 24  1  0  0  0  0
 18 30  1  0  0  0  0
 20 21  1  0  0  0  0
 20 26  1  1  0  0  0
 22 23  1  6  0  0  0
 22 28  1  0  0  0  0
 24 25  1  0  0  0  0
 26 27  1  0  0  0  0
 28 29  1  1  0  0  0
M  END
>  <CHROM.1>
-168.65983863,-173.28488429,-129.37708021,38.57183048,67.89333775,85.85158305
-2.62732969,-8.45897198,31.09646834,-1.19067800,-0.90234089,2.89139166

>  <Name>
2et3_lig

>  <RI>
3.50789e+07

>  <Rbt.Current_Directory>
/home/itssahil/PROJECTS/Mol_Feturizer/New_Systems/rnas/2et3

>  <Rbt.Executable>
rbdock ($Id: //depot/dev/client3/rdock/2013.1/src/exe/rbdock.cxx#4 $)

>  <Rbt.Library>
libRbt.so (2013.1, Build901 2013/11/27)

>  <Rbt.Parameter_File>
/export/apps/rDock/src/rDock_2013.1_src/data/scripts/dock_solv.prm

>  <Rbt.Receptor>
prm/pocket_docking_4.prm

>  <SCORE>
-15.3768

>  <SCORE.INTER>
-7.90767

>  <SCORE.INTER.CONST>
1

>  <SCORE.INTER.POLAR>
-1.62025

>  <SCORE.INTER.ROT>
6

>  <SCORE.INTER.SOLV>
13.1734

>  <SCORE.INTER.VDW>
-11.8621

>  <SCORE.INTER.norm>
-0.255086

>  <SCORE.INTRA>
-7.48036

>  <SCORE.INTRA.DIHEDRAL>
-15.0396

>  <SCORE.INTRA.DIHEDRAL.0>
22.2484

>  <SCORE.INTRA.POLAR>
0

>  <SCORE.INTRA.POLAR.0>
0

>  <SCORE.INTRA.REPUL>
0

>  <SCORE.INTRA.REPUL.0>
0

>  <SCORE.INTRA.SOLV>
-0.534588

>  <SCORE.INTRA.SOLV.lig_0>
-75.7198

>  <SCORE.INTRA.VDW>
0.306721

>  <SCORE.INTRA.VDW.0>
-3.34171

>  <SCORE.INTRA.norm>
-0.241302

>  <SCORE.RESTR>
0.011223

>  <SCORE.RESTR.CAVITY>
0.011223

>  <SCORE.RESTR.norm>
0.000362032

>  <SCORE.SYSTEM>
0

>  <SCORE.SYSTEM.CONST>
0

>  <SCORE.SYSTEM.DIHEDRAL>
0

>  <SCORE.SYSTEM.SOLV>
0

>  <SCORE.SYSTEM.norm>
0

>  <SCORE.heavy>
31

>  <SCORE.norm>
-0.496026

>  <RMSD>
4.879

$$$$
2et3_lig
 OpenBabel11021811423D
libRbt.so/2013.1/901 2013/11/27
 31 33  0  0  0  0  0  0  0  0999 V2000
   -0.2071   -7.7149   29.1953 C   0  0  2  0  0  0  0  0  0  0  0  0
   -0.1508   -7.0385   30.4781 O   0  0  0  0  0  0  0  0  0  0  0  0
   -2.0838   -8.2554   34.0960 C   0  0  2  0  0  0  0  0  0  0  0  0
   -3.1296   -8.5025   35.0398 N   0  0  0  0  0  0  0  0  0  0  0  0
   -3.3934  -11.0793   33.9905 C   0  0  2  0  0  0  0  0  0  0  0  0
    0.9701   -7.2682   28.3218 C   0  0  2  0  0  0  0  0  0  0  0  0
    2.1864   -7.5252   29.0293 N   0  0  0  0  0  0  0  0  0  0  0  0
   -2.0319   -6.7296   33.7619 C   0  0  0  0  0  0  0  0  0  0  0  0
   -3.1277  -12.6005   33.9600 C   0  0  2  0  0  0  0  0  0  0  0  0
   -1.8347  -12.8489   34.4649 O   0  0  0  0  0  0  0  0  0  0  0  0
    0.8249   -5.7552   27.9408 C   0  0  0  0  0  0  0  0  0  0  0  0
   -0.8899   -6.4497   32.7176 C   0  0  2  0  0  0  0  0  0  0  0  0
   -0.8372   -5.0139   32.3992 N   0  0  0  0  0  0  0  0  0  0  0  0
   -3.2800  -13.0926   32.4628 C   0  0  1  0  0  0  0  0  0  0  0  0
   -2.9909  -14.5585   32.3350 N   0  0  0  0  0  0  0  0  0  0  0  0
   -0.5106   -5.5820   27.1514 C   0  0  0  0  0  0  0  0  0  0  0  0
   -1.1471   -7.2994   31.4143 C   0  0  2  0  0  0  0  0  0  0  0  0
   -4.7712  -12.7727   31.9171 C   0  0  1  0  0  0  0  0  0  0  0  0
   -5.7507  -13.4659   32.6624 O   0  0  0  0  0  0  0  0  0  0  0  0
   -1.7113   -6.0805   28.0705 C   0  0  2  0  0  0  0  0  0  0  0  0
   -1.5176   -7.4513   28.5402 O   0  0  0  0  0  0  0  0  0  0  0  0
   -1.1962   -8.8319   31.7842 C   0  0  2  0  0  0  0  0  0  0  0  0
   -1.4241   -9.6186   30.6194 O   0  0  0  0  0  0  0  0  0  0  0  0
   -5.0533  -11.2460   32.0692 C   0  0  0  0  0  0  0  0  0  0  0  0
   -4.7609  -10.7912   33.4694 O   0  0  0  0  0  0  0  0  0  0  0  0
   -3.0738   -5.9513   27.4311 C   0  0  0  0  0  0  0  0  0  0  0  0
   -4.1168   -6.4491   28.2890 N   0  0  0  0  0  0  0  0  0  0  0  0
   -2.3393   -9.0910   32.8275 C   0  0  1  0  0  0  0  0  0  0  0  0
   -2.3626  -10.4755   33.1532 O   0  0  0  0  0  0  0  0  0  0  0  0
   -5.0798  -13.1761   30.4688 C   0  0  0  0  0  0  0  0  0  0  0  0
   -1.5887  -14.9491   32.1125 C   0  0  0  0  0  0  0  0  0  0  0  0
  1  2  1  1  0  0  0
  1  6  1  0  0  0  0
  1 21  1  0  0  0  0
  3  4  1  1  0  0  0
  3  8  1  0  0  0  0
  3 28  1  0  0  0  0
  5  9  1  0  0  0  0
  5 25  1  0  0  0  0
  5 29  1  6  0  0  0
  6  7  1  1  0  0  0
  6 11  1  0  0  0  0
  8 12  1  0  0  0  0
  9 10  1  6  0  0  0
  9 14  1  0  0  0  0
 11 16  1  0  0  0  0
 12 13  1  6  0  0  0
 12 17  1  0  0  0  0
 14 15  1  1  0  0  0
 14 18  1  0  0  0  0
 15 31  1  0  0  0  0
 16 20  1  0  0  0  0
 17  2  1  6  0  0  0
 17 22  1  0  0  0  0
 18 19  1  1  0  0  0
 18 24  1  0  0  0  0
 18 30  1  0  0  0  0
 20 21  1  0  0  0  0
 20 26  1  6  0  0  0
 22 23  1  6  0  0  0
 22 28  1  0  0  0  0
 24 25  1  0  0  0  0
 26 27  1  0  0  0  0
 28 29  1  1  0  0  0
M  END
>  <CHROM.1>
179.30314098,174.03330967,-87.72232299,-179.50620560,178.41166670,66.19793574
-2.15928930,-9.32594072,31.36601551,0.41532056,-1.14239314,-1.67110712

>  <Name>
2et3_lig

>  <RI>
3.86414e+07

>  <Rbt.Current_Directory>
/home/itssahil/PROJECTS/Mol_Feturizer/New_Systems/rnas/2et3

>  <Rbt.Executable>
rbdock ($Id: //depot/dev/client3/rdock/2013.1/src/exe/rbdock.cxx#4 $)

>  <Rbt.Library>
libRbt.so (2013.1, Build901 2013/11/27)

>  <Rbt.Parameter_File>
/export/apps/rDock/src/rDock_2013.1_src/data/scripts/dock_solv.prm

>  <Rbt.Receptor>
prm/pocket_docking_8.prm

>  <SCORE>
-24.9876

>  <SCORE.INTER>
-14.4329

>  <SCORE.INTER.CONST>
1

>  <SCORE.INTER.POLAR>
-1.78293

>  <SCORE.INTER.ROT>
6

>  <SCORE.INTER.SOLV>
8.41517

>  <SCORE.INTER.VDW>
-14.0839

>  <SCORE.INTER.norm>
-0.465578

>  <SCORE.INTRA>
-10.5546

>  <SCORE.INTRA.DIHEDRAL>
-21.1826

>  <SCORE.INTRA.DIHEDRAL.0>
22.2484

>  <SCORE.INTRA.POLAR>
0

>  <SCORE.INTRA.POLAR.0>
0

>  <SCORE.INTRA.REPUL>
0

>  <SCORE.INTRA.REPUL.0>
0

>  <SCORE.INTRA.SOLV>
-2.50222

>  <SCORE.INTRA.SOLV.lig_0>
-75.7198

>  <SCORE.INTRA.VDW>
1.28779

>  <SCORE.INTRA.VDW.0>
-3.34171

>  <SCORE.INTRA.norm>
-0.340472

>  <SCORE.RESTR>
0

>  <SCORE.RESTR.CAVITY>
0

>  <SCORE.RESTR.norm>
0

>  <SCORE.SYSTEM>
0

>  <SCORE.SYSTEM.CONST>
0

>  <SCORE.SYSTEM.DIHEDRAL>
0

>  <SCORE.SYSTEM.SOLV>
0

>  <SCORE.SYSTEM.norm>
0

>  <SCORE.heavy>
31

>  <SCORE.norm>
-0.80605

>  <RMSD>
4.894

$$$$
2et3_lig
 OpenBabel11021811423D
libRbt.so/2013.1/901 2013/11/27
 31 33  0  0  0  0  0  0  0  0999 V2000
   -1.9282  -11.0725   30.9355 C   0  0  2  0  0  0  0  0  0  0  0  0
   -1.3703  -11.4329   32.2259 O   0  0  0  0  0  0  0  0  0  0  0  0
   -4.3420   -9.7325   34.7918 C   0  0  2  0  0  0  0  0  0  0  0  0
   -5.0260   -9.3677   35.9937 N   0  0  0  0  0  0  0  0  0  0  0  0
   -3.5456   -6.9754   36.0406 C   0  0  2  0  0  0  0  0  0  0  0  0
   -1.2710  -11.9113   29.8342 C   0  0  2  0  0  0  0  0  0  0  0  0
   -1.4504  -13.2956   30.1468 N   0  0  0  0  0  0  0  0  0  0  0  0
   -4.2517  -11.2896   34.6946 C   0  0  0  0  0  0  0  0  0  0  0  0
   -3.5566   -5.4771   35.6655 C   0  0  2  0  0  0  0  0  0  0  0  0
   -4.4005   -5.2911   34.5512 O   0  0  0  0  0  0  0  0  0  0  0  0
    0.2438  -11.5366   29.6920 C   0  0  0  0  0  0  0  0  0  0  0  0
   -3.4930  -11.7000   33.3796 C   0  0  2  0  0  0  0  0  0  0  0  0
   -3.4048  -13.1658   33.2836 N   0  0  0  0  0  0  0  0  0  0  0  0
   -2.0666   -5.0407   35.3554 C   0  0  1  0  0  0  0  0  0  0  0  0
   -1.9923   -3.6032   34.9347 N   0  0  0  0  0  0  0  0  0  0  0  0
    0.3341  -10.0223   29.3237 C   0  0  0  0  0  0  0  0  0  0  0  0
   -2.0541  -11.0548   33.3776 C   0  0  2  0  0  0  0  0  0  0  0  0
   -1.1292   -5.2870   36.6533 C   0  0  1  0  0  0  0  0  0  0  0  0
   -1.5513   -4.5010   37.7485 O   0  0  0  0  0  0  0  0  0  0  0  0
   -0.3810   -9.1783   30.4686 C   0  0  2  0  0  0  0  0  0  0  0  0
   -1.7578   -9.6126   30.6994 O   0  0  0  0  0  0  0  0  0  0  0  0
   -2.1788   -9.4858   33.4788 C   0  0  2  0  0  0  0  0  0  0  0  0
   -0.8891   -8.8821   33.4749 O   0  0  0  0  0  0  0  0  0  0  0  0
   -1.2303   -6.7844   37.0786 C   0  0  0  0  0  0  0  0  0  0  0  0
   -2.6660   -7.1969   37.2247 O   0  0  0  0  0  0  0  0  0  0  0  0
   -0.3510   -7.6846   30.2455 C   0  0  0  0  0  0  0  0  0  0  0  0
    0.9766   -7.2145   29.9485 N   0  0  0  0  0  0  0  0  0  0  0  0
   -2.9393   -9.0961   34.7948 C   0  0  1  0  0  0  0  0  0  0  0  0
   -3.0476   -7.6795   34.8640 O   0  0  0  0  0  0  0  0  0  0  0  0
    0.3561   -4.9268   36.5130 C   0  0  0  0  0  0  0  0  0  0  0  0
   -1.4698   -3.3246   33.5866 C   0  0  0  0  0  0  0  0  0  0  0  0
  1  2  1  1  0  0  0
  1  6  1  0  0  0  0
  1 21  1  0  0  0  0
  3  4  1  1  0  0  0
  3  8  1  0  0  0  0
  3 28  1  0  0  0  0
  5  9  1  0  0  0  0
  5 25  1  0  0  0  0
  5 29  1  6  0  0  0
  6  7  1  1  0  0  0
  6 11  1  0  0  0  0
  8 12  1  0  0  0  0
  9 10  1  6  0  0  0
  9 14  1  0  0  0  0
 11 16  1  0  0  0  0
 12 13  1  1  0  0  0
 12 17  1  0  0  0  0
 14 15  1  1  0  0  0
 14 18  1  0  0  0  0
 15 31  1  0  0  0  0
 16 20  1  0  0  0  0
 17  2  1  6  0  0  0
 17 22  1  0  0  0  0
 18 19  1  1  0  0  0
 18 24  1  0  0  0  0
 18 30  1  0  0  0  0
 20 21  1  0  0  0  0
 20 26  1  6  0  0  0
 22 23  1  1  0  0  0
 22 28  1  0  0  0  0
 24 25  1  0  0  0  0
 26 27  1  0  0  0  0
 28 29  1  6  0  0  0
M  END
>  <CHROM.1>
-163.52701264,-177.46222868,-118.76889687,60.21640863,-50.25067680,67.86784285
-1.98631446,-8.43400118,33.60233251,-1.39407876,0.90431121,0.57912783

>  <Name>
2et3_lig

>  <RI>
3.86414e+07

>  <Rbt.Current_Directory>
/home/itssahil/PROJECTS/Mol_Feturizer/New_Systems/rnas/2et3

>  <Rbt.Executable>
rbdock ($Id: //depot/dev/client3/rdock/2013.1/src/exe/rbdock.cxx#4 $)

>  <Rbt.Library>
libRbt.so (2013.1, Build901 2013/11/27)

>  <Rbt.Parameter_File>
/export/apps/rDock/src/rDock_2013.1_src/data/scripts/dock_solv.prm

>  <Rbt.Receptor>
prm/pocket_docking_8.prm

>  <SCORE>
-18.302

>  <SCORE.INTER>
-8.97663

>  <SCORE.INTER.CONST>
1

>  <SCORE.INTER.POLAR>
-0.973671

>  <SCORE.INTER.ROT>
6

>  <SCORE.INTER.SOLV>
9.95728

>  <SCORE.INTER.VDW>
-13.6579

>  <SCORE.INTER.norm>
-0.289569

>  <SCORE.INTRA>
-9.32534

>  <SCORE.INTRA.DIHEDRAL>
-18.9681

>  <SCORE.INTRA.DIHEDRAL.0>
22.2484

>  <SCORE.INTRA.POLAR>
0

>  <SCORE.INTRA.POLAR.0>
0

>  <SCORE.INTRA.REPUL>
0

>  <SCORE.INTRA.REPUL.0>
0

>  <SCORE.INTRA.SOLV>
-0.72661

>  <SCORE.INTRA.SOLV.lig_0>
-75.7198

>  <SCORE.INTRA.VDW>
0.522017

>  <SCORE.INTRA.VDW.0>
-3.34171

>  <SCORE.INTRA.norm>
-0.300818

>  <SCORE.RESTR>
0

>  <SCORE.RESTR.CAVITY>
0

>  <SCORE.RESTR.norm>
0

>  <SCORE.SYSTEM>
0

>  <SCORE.SYSTEM.CONST>
0

>  <SCORE.SYSTEM.DIHEDRAL>
0

>  <SCORE.SYSTEM.SOLV>
0

>  <SCORE.SYSTEM.norm>
0

>  <SCORE.heavy>
31

>  <SCORE.norm>
-0.590386

>  <RMSD>
4.907

$$$$
2et3_lig
 OpenBabel11021811423D
libRbt.so/2013.1/901 2013/11/27
 31 33  0  0  0  0  0  0  0  0999 V2000
   -0.1561   -5.6076   28.5282 C   0  0  2  0  0  0  0  0  0  0  0  0
   -0.6385   -6.8902   29.0064 O   0  0  0  0  0  0  0  0  0  0  0  0
   -3.4396   -7.7945   32.1116 C   0  0  2  0  0  0  0  0  0  0  0  0
   -4.6623   -7.8037   32.8534 N   0  0  0  0  0  0  0  0  0  0  0  0
   -4.4548  -10.5933   29.7028 C   0  0  2  0  0  0  0  0  0  0  0  0
   -1.0870   -5.0801   27.4312 C   0  0  2  0  0  0  0  0  0  0  0  0
   -2.4161   -5.0104   27.9554 N   0  0  0  0  0  0  0  0  0  0  0  0
   -2.9092   -6.3289   31.9974 C   0  0  0  0  0  0  0  0  0  0  0  0
   -5.8349  -10.1319   29.1849 C   0  0  2  0  0  0  0  0  0  0  0  0
   -5.7540   -8.7732   28.8167 O   0  0  0  0  0  0  0  0  0  0  0  0
   -1.0078   -5.9941   26.1608 C   0  0  0  0  0  0  0  0  0  0  0  0
   -1.5688   -6.3081   31.1753 C   0  0  2  0  0  0  0  0  0  0  0  0
   -1.0654   -4.9297   31.0644 N   0  0  0  0  0  0  0  0  0  0  0  0
   -6.8929  -10.3674   30.3391 C   0  0  1  0  0  0  0  0  0  0  0  0
   -8.2593   -9.9001   29.9346 N   0  0  0  0  0  0  0  0  0  0  0  0
    0.4668   -5.9826   25.6490 C   0  0  0  0  0  0  0  0  0  0  0  0
   -1.8170   -6.9263   29.7460 C   0  0  2  0  0  0  0  0  0  0  0  0
   -6.9411  -11.9353   30.7433 C   0  0  1  0  0  0  0  0  0  0  0  0
   -7.3589  -12.7337   29.6554 O   0  0  0  0  0  0  0  0  0  0  0  0
    1.4132   -6.5067   26.8170 C   0  0  2  0  0  0  0  0  0  0  0  0
    1.2476   -5.7399   28.0507 O   0  0  0  0  0  0  0  0  0  0  0  0
   -2.3529   -8.4023   29.8948 C   0  0  2  0  0  0  0  0  0  0  0  0
   -2.5804   -8.9814   28.6140 O   0  0  0  0  0  0  0  0  0  0  0  0
   -5.5090  -12.4014   31.1499 C   0  0  0  0  0  0  0  0  0  0  0  0
   -4.5121  -12.0325   30.0902 O   0  0  0  0  0  0  0  0  0  0  0  0
    2.8769   -6.5636   26.4479 C   0  0  0  0  0  0  0  0  0  0  0  0
    3.2092   -5.6039   25.4279 N   0  0  0  0  0  0  0  0  0  0  0  0
   -3.6884   -8.4029   30.7185 C   0  0  1  0  0  0  0  0  0  0  0  0
   -4.1512   -9.7417   30.8477 O   0  0  0  0  0  0  0  0  0  0  0  0
   -7.9115  -12.3318   31.8642 C   0  0  0  0  0  0  0  0  0  0  0  0
   -8.5673   -8.4742   30.1344 C   0  0  0  0  0  0  0  0  0  0  0  0
  1  2  1  6  0  0  0
  1  6  1  0  0  0  0
  1 21  1  0  0  0  0
  3  4  1  1  0  0  0
  3  8  1  0  0  0  0
  3 28  1  0  0  0  0
  5  9  1  0  0  0  0
  5 25  1  0  0  0  0
  5 29  1  1  0  0  0
  6  7  1  1  0  0  0
  6 11  1  0  0  0  0
  8 12  1  0  0  0  0
  9 10  1  1  0  0  0
  9 14  1  0  0  0  0
 11 16  1  0  0  0  0
 12 13  1  6  0  0  0
 12 17  1  0  0  0  0
 14 15  1  6  0  0  0
 14 18  1  0  0  0  0
 15 31  1  0  0  0  0
 16 20  1  0  0  0  0
 17  2  1  6  0  0  0
 17 22  1  0  0  0  0
 18 19  1  6  0  0  0
 18 24  1  0  0  0  0
 18 30  1  0  0  0  0
 20 21  1  0  0  0  0
 20 26  1  6  0  0  0
 22 23  1  6  0  0  0
 22 28  1  0  0  0  0
 24 25  1  0  0  0  0
 26 27  1  0  0  0  0
 28 29  1  1  0  0  0
M  END
>  <CHROM.1>
-69.65564517,-77.75330914,-85.01031463,-71.48292275,27.08126975,-178.97222690
-3.13219433,-8.23884195,29.41561422,0.10031934,0.67428163,0.84408513

>  <Name>
2et3_lig

>  <RI>
3.86414e+07

>  <Rbt.Current_Directory>
/home/itssahil/PROJECTS/Mol_Feturizer/New_Systems/rnas/2et3

>  <Rbt.Executable>
rbdock ($Id: //depot/dev/client3/rdock/2013.1/src/exe/rbdock.cxx#4 $)

>  <Rbt.Library>
libRbt.so (2013.1, Build901 2013/11/27)

>  <Rbt.Parameter_File>
/export/apps/rDock/src/rDock_2013.1_src/data/scripts/dock_solv.prm

>  <Rbt.Receptor>
prm/pocket_docking_8.prm

>  <SCORE>
-13.3149

>  <SCORE.INTER>
-8.80325

>  <SCORE.INTER.CONST>
1

>  <SCORE.INTER.POLAR>
0

>  <SCORE.INTER.ROT>
6

>  <SCORE.INTER.SOLV>
12.7699

>  <SCORE.INTER.VDW>
-17.7255

>  <SCORE.INTER.norm>
-0.283976

>  <SCORE.INTRA>
-4.51164

>  <SCORE.INTRA.DIHEDRAL>
-16.245

>  <SCORE.INTRA.DIHEDRAL.0>
22.2484

>  <SCORE.INTRA.POLAR>
0

>  <SCORE.INTRA.POLAR.0>
0

>  <SCORE.INTRA.REPUL>
0

>  <SCORE.INTRA.REPUL.0>
0

>  <SCORE.INTRA.SOLV>
1.84653

>  <SCORE.INTRA.SOLV.lig_0>
-75.7198

>  <SCORE.INTRA.VDW>
2.6876

>  <SCORE.INTRA.VDW.0>
-3.34171

>  <SCORE.INTRA.norm>
-0.145537

>  <SCORE.RESTR>
0

>  <SCORE.RESTR.CAVITY>
0

>  <SCORE.RESTR.norm>
0

>  <SCORE.SYSTEM>
0

>  <SCORE.SYSTEM.CONST>
0

>  <SCORE.SYSTEM.DIHEDRAL>
0

>  <SCORE.SYSTEM.SOLV>
0

>  <SCORE.SYSTEM.norm>
0

>  <SCORE.heavy>
31

>  <SCORE.norm>
-0.429513

>  <RMSD>
4.977

$$$$
2et3_lig
 OpenBabel11021811423D
libRbt.so/2013.1/901 2013/11/27
 31 33  0  0  0  0  0  0  0  0999 V2000
   -1.6283   -5.5090   31.7232 C   0  0  2  0  0  0  0  0  0  0  0  0
   -0.8687   -6.0516   30.6120 O   0  0  0  0  0  0  0  0  0  0  0  0
   -0.6465  -10.0904   29.2171 C   0  0  2  0  0  0  0  0  0  0  0  0
   -0.3693  -11.4935   29.2110 N   0  0  0  0  0  0  0  0  0  0  0  0
   -2.9880  -11.9158   30.4533 C   0  0  2  0  0  0  0  0  0  0  0  0
   -2.0853   -4.0843   31.3918 C   0  0  2  0  0  0  0  0  0  0  0  0
   -2.8346   -4.1173   30.1738 N   0  0  0  0  0  0  0  0  0  0  0  0
    0.6869   -9.2957   29.3980 C   0  0  0  0  0  0  0  0  0  0  0  0
   -4.4251  -12.2972   30.0353 C   0  0  2  0  0  0  0  0  0  0  0  0
   -4.5862  -12.0332   28.6595 O   0  0  0  0  0  0  0  0  0  0  0  0
   -0.8514   -3.1236   31.2922 C   0  0  0  0  0  0  0  0  0  0  0  0
    0.3906   -7.7513   29.4147 C   0  0  2  0  0  0  0  0  0  0  0  0
    1.6434   -6.9983   29.5853 N   0  0  0  0  0  0  0  0  0  0  0  0
   -5.4310  -11.4520   30.9189 C   0  0  1  0  0  0  0  0  0  0  0  0
   -6.8564  -11.7281   30.5433 N   0  0  0  0  0  0  0  0  0  0  0  0
   -0.1194   -3.1333   32.6710 C   0  0  0  0  0  0  0  0  0  0  0  0
   -0.6201   -7.4207   30.5790 C   0  0  2  0  0  0  0  0  0  0  0  0
   -5.2006  -11.7714   32.4901 C   0  0  1  0  0  0  0  0  0  0  0  0
   -5.4623  -13.1285   32.7823 O   0  0  0  0  0  0  0  0  0  0  0  0
    0.3174   -4.6279   33.0028 C   0  0  2  0  0  0  0  0  0  0  0  0
   -0.8114   -5.5562   32.9668 O   0  0  0  0  0  0  0  0  0  0  0  0
   -1.9525   -8.2383   30.3697 C   0  0  2  0  0  0  0  0  0  0  0  0
   -2.8819   -7.9514   31.4097 O   0  0  0  0  0  0  0  0  0  0  0  0
   -3.7108  -11.4874   32.8551 C   0  0  0  0  0  0  0  0  0  0  0  0
   -2.7894  -12.1952   31.9050 O   0  0  0  0  0  0  0  0  0  0  0  0
    1.0572   -4.7796   34.3110 C   0  0  0  0  0  0  0  0  0  0  0  0
    0.2811   -4.2981   35.4235 N   0  0  0  0  0  0  0  0  0  0  0  0
   -1.6368   -9.7753   30.3541 C   0  0  1  0  0  0  0  0  0  0  0  0
   -2.8484  -10.4941   30.1573 O   0  0  0  0  0  0  0  0  0  0  0  0
   -6.0914  -11.0183   33.4876 C   0  0  0  0  0  0  0  0  0  0  0  0
   -7.6858  -10.5726   30.1622 C   0  0  0  0  0  0  0  0  0  0  0  0
  1  2  1  6  0  0  0
  1  6  1  0  0  0  0
  1 21  1  0  0  0  0
  3  4  1  1  0  0  0
  3  8  1  0  0  0  0
  3 28  1  0  0  0  0
  5  9  1  0  0  0  0
  5 25  1  0  0  0  0
  5 29  1  1  0  0  0
  6  7  1  6  0  0  0
  6 11  1  0  0  0  0
  8 12  1  0  0  0  0
  9 10  1  6  0  0  0
  9 14  1  0  0  0  0
 11 16  1  0  0  0  0
 12 13  1  1  0  0  0
 12 17  1  0  0  0  0
 14 15  1  6  0  0  0
 14 18  1  0  0  0  0
 15 31  1  0  0  0  0
 16 20  1  0  0  0  0
 17  2  1  6  0  0  0
 17 22  1  0  0  0  0
 18 19  1  1  0  0  0
 18 24  1  0  0  0  0
 18 30  1  0  0  0  0
 20 21  1  0  0  0  0
 20 26  1  1  0  0  0
 22 23  1  1  0  0  0
 22 28  1  0  0  0  0
 24 25  1  0  0  0  0
 26 27  1  0  0  0  0
 28 29  1  6  0  0  0
M  END
>  <CHROM.1>
-165.75817967,-177.38697527,-124.19117111,-171.63519946,57.67560401,77.16656352
-2.32776665,-8.56065219,31.22205922,0.89319488,0.51943288,0.53973718

>  <Name>
2et3_lig

>  <RI>
3.86414e+07

>  <Rbt.Current_Directory>
/home/itssahil/PROJECTS/Mol_Feturizer/New_Systems/rnas/2et3

>  <Rbt.Executable>
rbdock ($Id: //depot/dev/client3/rdock/2013.1/src/exe/rbdock.cxx#4 $)

>  <Rbt.Library>
libRbt.so (2013.1, Build901 2013/11/27)

>  <Rbt.Parameter_File>
/export/apps/rDock/src/rDock_2013.1_src/data/scripts/dock_solv.prm

>  <Rbt.Receptor>
prm/pocket_docking_8.prm

>  <SCORE>
-21.3884

>  <SCORE.INTER>
-11.6201

>  <SCORE.INTER.CONST>
1

>  <SCORE.INTER.POLAR>
-1.77754

>  <SCORE.INTER.ROT>
6

>  <SCORE.INTER.SOLV>
9.35343

>  <SCORE.INTER.VDW>
-12.5394

>  <SCORE.INTER.norm>
-0.374843

>  <SCORE.INTRA>
-9.7683

>  <SCORE.INTRA.DIHEDRAL>
-18.2109

>  <SCORE.INTRA.DIHEDRAL.0>
22.2484

>  <SCORE.INTRA.POLAR>
0

>  <SCORE.INTRA.POLAR.0>
0

>  <SCORE.INTRA.REPUL>
0

>  <SCORE.INTRA.REPUL.0>
0

>  <SCORE.INTRA.SOLV>
-2.03331

>  <SCORE.INTRA.SOLV.lig_0>
-75.7198

>  <SCORE.INTRA.VDW>
0.353783

>  <SCORE.INTRA.VDW.0>
-3.34171

>  <SCORE.INTRA.norm>
-0.315107

>  <SCORE.RESTR>
0

>  <SCORE.RESTR.CAVITY>
0

>  <SCORE.RESTR.norm>
0

>  <SCORE.SYSTEM>
0

>  <SCORE.SYSTEM.CONST>
0

>  <SCORE.SYSTEM.DIHEDRAL>
0

>  <SCORE.SYSTEM.SOLV>
0

>  <SCORE.SYSTEM.norm>
0

>  <SCORE.heavy>
31

>  <SCORE.norm>
-0.689949

>  <RMSD>
5.016

$$$$
2et3_lig
 OpenBabel11021811423D
libRbt.so/2013.1/901 2013/11/27
 31 33  0  0  0  0  0  0  0  0999 V2000
    0.9747   -8.0312   28.3983 C   0  0  2  0  0  0  0  0  0  0  0  0
    0.9793   -7.4433   29.7252 O   0  0  0  0  0  0  0  0  0  0  0  0
   -1.6332   -8.2915   33.0057 C   0  0  2  0  0  0  0  0  0  0  0  0
   -2.8333   -8.3623   33.7805 N   0  0  0  0  0  0  0  0  0  0  0  0
   -1.2653  -11.2621   32.9123 C   0  0  2  0  0  0  0  0  0  0  0  0
    2.3447   -7.8356   27.7401 C   0  0  2  0  0  0  0  0  0  0  0  0
    3.3450   -8.4012   28.5920 N   0  0  0  0  0  0  0  0  0  0  0  0
   -1.3030   -6.7970   32.6901 C   0  0  0  0  0  0  0  0  0  0  0  0
   -0.6742  -12.3912   32.0397 C   0  0  2  0  0  0  0  0  0  0  0  0
    0.0807  -11.8154   30.9970 O   0  0  0  0  0  0  0  0  0  0  0  0
    2.6058   -6.3156   27.4626 C   0  0  0  0  0  0  0  0  0  0  0  0
    0.0110   -6.7099   31.8307 C   0  0  2  0  0  0  0  0  0  0  0  0
    0.3261   -5.3041   31.5303 N   0  0  0  0  0  0  0  0  0  0  0  0
   -1.8764  -13.2602   31.4860 C   0  0  1  0  0  0  0  0  0  0  0  0
   -1.3914  -14.3570   30.5856 N   0  0  0  0  0  0  0  0  0  0  0  0
    1.4850   -5.7999   26.5063 C   0  0  0  0  0  0  0  0  0  0  0  0
   -0.1734   -7.5352   30.4997 C   0  0  2  0  0  0  0  0  0  0  0  0
   -2.7263  -13.8872   32.7141 C   0  0  1  0  0  0  0  0  0  0  0  0
   -1.9349  -14.7593   33.4943 O   0  0  0  0  0  0  0  0  0  0  0  0
    0.0736   -6.0422   27.2020 C   0  0  2  0  0  0  0  0  0  0  0  0
   -0.1228   -7.4393   27.5853 O   0  0  0  0  0  0  0  0  0  0  0  0
   -0.5073   -9.0362   30.8512 C   0  0  2  0  0  0  0  0  0  0  0  0
   -0.6744   -9.8012   29.6618 O   0  0  0  0  0  0  0  0  0  0  0  0
   -3.2111  -12.7306   33.6418 C   0  0  0  0  0  0  0  0  0  0  0  0
   -2.0616  -11.8469   34.0298 O   0  0  0  0  0  0  0  0  0  0  0  0
   -1.1067   -5.5693   26.3864 C   0  0  0  0  0  0  0  0  0  0  0  0
   -2.3514   -5.7687   27.0812 N   0  0  0  0  0  0  0  0  0  0  0  0
   -1.8191   -9.1026   31.7095 C   0  0  1  0  0  0  0  0  0  0  0  0
   -2.0988  -10.4619   32.0218 O   0  0  0  0  0  0  0  0  0  0  0  0
   -3.9418  -14.7491   32.3462 C   0  0  0  0  0  0  0  0  0  0  0  0
   -1.1425  -14.0081   29.1769 C   0  0  0  0  0  0  0  0  0  0  0  0
  1  2  1  1  0  0  0
  1  6  1  0  0  0  0
  1 21  1  0  0  0  0
  3  4  1  1  0  0  0
  3  8  1  0  0  0  0
  3 28  1  0  0  0  0
  5  9  1  0  0  0  0
  5 25  1  0  0  0  0
  5 29  1  6  0  0  0
  6  7  1  1  0  0  0
  6 11  1  0  0  0  0
  8 12  1  0  0  0  0
  9 10  1  6  0  0  0
  9 14  1  0  0  0  0
 11 16  1  0  0  0  0
 12 13  1  6  0  0  0
 12 17  1  0  0  0  0
 14 15  1  6  0  0  0
 14 18  1  0  0  0  0
 15 31  1  0  0  0  0
 16 20  1  0  0  0  0
 17  2  1  6  0  0  0
 17 22  1  0  0  0  0
 18 19  1  1  0  0  0
 18 24  1  0  0  0  0
 18 30  1  0  0  0  0
 20 21  1  0  0  0  0
 20 26  1  6  0  0  0
 22 23  1  6  0  0  0
 22 28  1  0  0  0  0
 24 25  1  0  0  0  0
 26 27  1  0  0  0  0
 28 29  1  1  0  0  0
M  END
>  <CHROM.1>
-178.98593236,-115.69258442,-83.72329318,-174.38735786,-177.93218295,-52.38089270
-0.74025503,-9.56563582,30.57417683,-0.74717131,-1.09282192,-2.96365861

>  <Name>
2et3_lig

>  <RI>
2.5794e+07

>  <Rbt.Current_Directory>
/home/itssahil/PROJECTS/Mol_Feturizer/New_Systems/rnas/2et3

>  <Rbt.Executable>
rbdock ($Id: //depot/dev/client3/rdock/2013.1/src/exe/rbdock.cxx#4 $)

>  <Rbt.Library>
libRbt.so (2013.1, Build901 2013/11/27)

>  <Rbt.Parameter_File>
/export/apps/rDock/src/rDock_2013.1_src/data/scripts/dock_solv.prm

>  <Rbt.Receptor>
prm/pocket_docking_5.prm

>  <SCORE>
-23.4798

>  <SCORE.INTER>
-16.5449

>  <SCORE.INTER.CONST>
1

>  <SCORE.INTER.POLAR>
-1.28185

>  <SCORE.INTER.ROT>
6

>  <SCORE.INTER.SOLV>
17.7791

>  <SCORE.INTER.VDW>
-20.2835

>  <SCORE.INTER.norm>
-0.533707

>  <SCORE.INTRA>
-6.93485

>  <SCORE.INTRA.DIHEDRAL>
-14.1061

>  <SCORE.INTRA.DIHEDRAL.0>
22.2484

>  <SCORE.INTRA.POLAR>
0

>  <SCORE.INTRA.POLAR.0>
0

>  <SCORE.INTRA.REPUL>
0

>  <SCORE.INTRA.REPUL.0>
0

>  <SCORE.INTRA.SOLV>
-2.32377

>  <SCORE.INTRA.SOLV.lig_0>
-75.7198

>  <SCORE.INTRA.VDW>
1.28007

>  <SCORE.INTRA.VDW.0>
-3.34171

>  <SCORE.INTRA.norm>
-0.223705

>  <SCORE.RESTR>
0

>  <SCORE.RESTR.CAVITY>
0

>  <SCORE.RESTR.norm>
0

>  <SCORE.SYSTEM>
0

>  <SCORE.SYSTEM.CONST>
0

>  <SCORE.SYSTEM.DIHEDRAL>
0

>  <SCORE.SYSTEM.SOLV>
0

>  <SCORE.SYSTEM.norm>
0

>  <SCORE.heavy>
31

>  <SCORE.norm>
-0.757412

>  <RMSD>
5.031

$$$$
2et3_lig
 OpenBabel11021811423D
libRbt.so/2013.1/901 2013/11/27
 31 33  0  0  0  0  0  0  0  0999 V2000
   -0.8747   -6.6733   29.2121 C   0  0  2  0  0  0  0  0  0  0  0  0
   -1.3459   -5.3743   29.6556 O   0  0  0  0  0  0  0  0  0  0  0  0
   -4.6245   -4.3388   32.2021 C   0  0  2  0  0  0  0  0  0  0  0  0
   -5.9663   -4.2403   32.6874 N   0  0  0  0  0  0  0  0  0  0  0  0
   -5.5614   -6.5603   34.1316 C   0  0  2  0  0  0  0  0  0  0  0  0
    0.5225   -6.5357   28.5977 C   0  0  2  0  0  0  0  0  0  0  0  0
    1.3885   -5.9339   29.5641 N   0  0  0  0  0  0  0  0  0  0  0  0
   -4.5210   -3.6399   30.8082 C   0  0  0  0  0  0  0  0  0  0  0  0
   -5.1694   -7.0527   35.5421 C   0  0  2  0  0  0  0  0  0  0  0  0
   -4.3065   -6.1068   36.1330 O   0  0  0  0  0  0  0  0  0  0  0  0
    0.4573   -5.7015   27.2728 C   0  0  0  0  0  0  0  0  0  0  0  0
   -3.0502   -3.7509   30.2626 C   0  0  2  0  0  0  0  0  0  0  0  0
   -2.9475   -3.0946   28.9494 N   0  0  0  0  0  0  0  0  0  0  0  0
   -4.4761   -8.4680   35.3898 C   0  0  1  0  0  0  0  0  0  0  0  0
   -4.0194   -9.0006   36.7152 N   0  0  0  0  0  0  0  0  0  0  0  0
   -0.4833   -6.4500   26.2768 C   0  0  0  0  0  0  0  0  0  0  0  0
   -2.6393   -5.2698   30.1588 C   0  0  2  0  0  0  0  0  0  0  0  0
   -5.4934   -9.5177   34.6921 C   0  0  1  0  0  0  0  0  0  0  0  0
   -6.6431   -9.7244   35.4864 O   0  0  0  0  0  0  0  0  0  0  0  0
   -1.9168   -6.6045   26.9518 C   0  0  2  0  0  0  0  0  0  0  0  0
   -1.8479   -7.2656   28.2540 O   0  0  0  0  0  0  0  0  0  0  0  0
   -2.7562   -5.9466   31.5787 C   0  0  2  0  0  0  0  0  0  0  0  0
   -2.3856   -7.3197   31.5084 O   0  0  0  0  0  0  0  0  0  0  0  0
   -5.9628   -8.9388   33.3216 C   0  0  0  0  0  0  0  0  0  0  0  0
   -6.4831   -7.5409   33.4885 O   0  0  0  0  0  0  0  0  0  0  0  0
   -2.9373   -7.3011   26.0828 C   0  0  0  0  0  0  0  0  0  0  0  0
   -4.2114   -7.4175   26.7421 N   0  0  0  0  0  0  0  0  0  0  0  0
   -4.2287   -5.8243   32.1069 C   0  0  1  0  0  0  0  0  0  0  0  0
   -4.3117   -6.4333   33.3897 O   0  0  0  0  0  0  0  0  0  0  0  0
   -4.9672  -10.9403   34.4575 C   0  0  0  0  0  0  0  0  0  0  0  0
   -2.7609   -8.4618   37.2574 C   0  0  0  0  0  0  0  0  0  0  0  0
  1  2  1  6  0  0  0
  1  6  1  0  0  0  0
  1 21  1  0  0  0  0
  3  4  1  6  0  0  0
  3  8  1  0  0  0  0
  3 28  1  0  0  0  0
  5  9  1  0  0  0  0
  5 25  1  0  0  0  0
  5 29  1  6  0  0  0
  6  7  1  1  0  0  0
  6 11  1  0  0  0  0
  8 12  1  0  0  0  0
  9 10  1  6  0  0  0
  9 14  1  0  0  0  0
 11 16  1  0  0  0  0
 12 13  1  6  0  0  0
 12 17  1  0  0  0  0
 14 15  1  1  0  0  0
 14 18  1  0  0  0  0
 15 31  1  0  0  0  0
 16 20  1  0  0  0  0
 17  2  1  1  0  0  0
 17 22  1  0  0  0  0
 18 19  1  1  0  0  0
 18 24  1  0  0  0  0
 18 30  1  0  0  0  0
 20 21  1  0  0  0  0
 20 26  1  6  0  0  0
 22 23  1  6  0  0  0
 22 28  1  0  0  0  0
 24 25  1  0  0  0  0
 26 27  1  0  0  0  0
 28 29  1  1  0  0  0
M  END
>  <CHROM.1>
175.51814031,-170.80083191,-79.21467713,-167.00406633,179.82059137,63.24728004
-3.38638258,-6.72060419,31.61601724,-0.73271459,-0.94151454,2.60063663

>  <Name>
2et3_lig

>  <RI>
0

>  <Rbt.Current_Directory>
/home/itssahil/PROJECTS/Mol_Feturizer/New_Systems/rnas/2et3

>  <Rbt.Executable>
rbdock ($Id: //depot/dev/client3/rdock/2013.1/src/exe/rbdock.cxx#4 $)

>  <Rbt.Library>
libRbt.so (2013.1, Build901 2013/11/27)

>  <Rbt.Parameter_File>
/export/apps/rDock/src/rDock_2013.1_src/data/scripts/dock_solv.prm

>  <Rbt.Receptor>
prm/pocket_docking_6.prm

>  <SCORE>
-25.3738

>  <SCORE.INTER>
-14.8981

>  <SCORE.INTER.CONST>
1

>  <SCORE.INTER.POLAR>
-0.938083

>  <SCORE.INTER.ROT>
6

>  <SCORE.INTER.SOLV>
14.0525

>  <SCORE.INTER.VDW>
-19.0893

>  <SCORE.INTER.norm>
-0.480584

>  <SCORE.INTRA>
-10.4757

>  <SCORE.INTRA.DIHEDRAL>
-20.4427

>  <SCORE.INTRA.DIHEDRAL.0>
22.2484

>  <SCORE.INTRA.POLAR>
0

>  <SCORE.INTRA.POLAR.0>
0

>  <SCORE.INTRA.REPUL>
0

>  <SCORE.INTRA.REPUL.0>
0

>  <SCORE.INTRA.SOLV>
-2.36422

>  <SCORE.INTRA.SOLV.lig_0>
-75.7198

>  <SCORE.INTRA.VDW>
0.927757

>  <SCORE.INTRA.VDW.0>
-3.34171

>  <SCORE.INTRA.norm>
-0.337926

>  <SCORE.RESTR>
0

>  <SCORE.RESTR.CAVITY>
0

>  <SCORE.RESTR.norm>
0

>  <SCORE.SYSTEM>
0

>  <SCORE.SYSTEM.CONST>
0

>  <SCORE.SYSTEM.DIHEDRAL>
0

>  <SCORE.SYSTEM.SOLV>
0

>  <SCORE.SYSTEM.norm>
0

>  <SCORE.heavy>
31

>  <SCORE.norm>
-0.81851

>  <RMSD>
5.100

$$$$
2et3_lig
 OpenBabel11021811423D
libRbt.so/2013.1/901 2013/11/27
 31 33  0  0  0  0  0  0  0  0999 V2000
   -0.9231  -10.5155   31.7783 C   0  0  2  0  0  0  0  0  0  0  0  0
   -2.3647  -10.4531   31.6234 O   0  0  0  0  0  0  0  0  0  0  0  0
   -5.5412   -9.7002   34.3892 C   0  0  2  0  0  0  0  0  0  0  0  0
   -6.3449   -9.8012   35.5679 N   0  0  0  0  0  0  0  0  0  0  0  0
   -3.9809   -7.8029   36.8589 C   0  0  2  0  0  0  0  0  0  0  0  0
   -0.2425  -10.0700   30.4795 C   0  0  2  0  0  0  0  0  0  0  0  0
   -0.7066   -8.7582   30.1481 N   0  0  0  0  0  0  0  0  0  0  0  0
   -5.5062  -11.0825   33.6611 C   0  0  0  0  0  0  0  0  0  0  0  0
   -4.1488   -6.2914   37.1292 C   0  0  2  0  0  0  0  0  0  0  0  0
   -5.4420   -5.8965   36.7292 O   0  0  0  0  0  0  0  0  0  0  0  0
   -0.5290  -11.0978   29.3319 C   0  0  0  0  0  0  0  0  0  0  0  0
   -4.6171  -10.9831   32.3678 C   0  0  2  0  0  0  0  0  0  0  0  0
   -4.5806  -12.2828   31.6786 N   0  0  0  0  0  0  0  0  0  0  0  0
   -3.0228   -5.5235   36.3236 C   0  0  1  0  0  0  0  0  0  0  0  0
   -3.1425   -4.0383   36.4937 N   0  0  0  0  0  0  0  0  0  0  0  0
    0.0370  -12.4841   29.7729 C   0  0  0  0  0  0  0  0  0  0  0  0
   -3.1618  -10.5216   32.7623 C   0  0  2  0  0  0  0  0  0  0  0  0
   -1.5562   -6.0189   36.8005 C   0  0  1  0  0  0  0  0  0  0  0  0
   -1.3341   -5.7279   38.1648 O   0  0  0  0  0  0  0  0  0  0  0  0
   -0.6650  -12.9076   31.1377 C   0  0  2  0  0  0  0  0  0  0  0  0
   -0.5151  -11.8905   32.1770 O   0  0  0  0  0  0  0  0  0  0  0  0
   -3.2308   -9.1270   33.4959 C   0  0  2  0  0  0  0  0  0  0  0  0
   -1.9251   -8.6893   33.8581 O   0  0  0  0  0  0  0  0  0  0  0  0
   -1.4583   -7.5659   36.6246 C   0  0  0  0  0  0  0  0  0  0  0  0
   -2.6220   -8.2476   37.2833 O   0  0  0  0  0  0  0  0  0  0  0  0
   -0.2189  -14.2483   31.6720 C   0  0  0  0  0  0  0  0  0  0  0  0
   -0.5109  -15.3153   30.7511 N   0  0  0  0  0  0  0  0  0  0  0  0
   -4.1227   -9.2455   34.7814 C   0  0  1  0  0  0  0  0  0  0  0  0
   -4.1782   -7.9777   35.4240 O   0  0  0  0  0  0  0  0  0  0  0  0
   -0.3483   -5.3789   36.1027 C   0  0  0  0  0  0  0  0  0  0  0  0
   -3.4412   -3.2467   35.2886 C   0  0  0  0  0  0  0  0  0  0  0  0
  1  2  1  6  0  0  0
  1  6  1  0  0  0  0
  1 21  1  0  0  0  0
  3  4  1  1  0  0  0
  3  8  1  0  0  0  0
  3 28  1  0  0  0  0
  5  9  1  0  0  0  0
  5 25  1  0  0  0  0
  5 29  1  6  0  0  0
  6  7  1  6  0  0  0
  6 11  1  0  0  0  0
  8 12  1  0  0  0  0
  9 10  1  6  0  0  0
  9 14  1  0  0  0  0
 11 16  1  0  0  0  0
 12 13  1  1  0  0  0
 12 17  1  0  0  0  0
 14 15  1  1  0  0  0
 14 18  1  0  0  0  0
 15 31  1  0  0  0  0
 16 20  1  0  0  0  0
 17  2  1  6  0  0  0
 17 22  1  0  0  0  0
 18 19  1  1  0  0  0
 18 24  1  0  0  0  0
 18 30  1  0  0  0  0
 20 21  1  0  0  0  0
 20 26  1  1  0  0  0
 22 23  1  1  0  0  0
 22 28  1  0  0  0  0
 24 25  1  0  0  0  0
 26 27  1  0  0  0  0
 28 29  1  6  0  0  0
M  END
>  <CHROM.1>
-165.62284628,-179.00468920,-116.24191257,-158.56632598,-60.75420244,106.49731559
-2.58242652,-9.08955113,33.92646243,-1.32005192,0.40139497,0.62342914

>  <Name>
2et3_lig

>  <RI>
0

>  <Rbt.Current_Directory>
/home/itssahil/PROJECTS/Mol_Feturizer/New_Systems/rnas/2et3

>  <Rbt.Executable>
rbdock ($Id: //depot/dev/client3/rdock/2013.1/src/exe/rbdock.cxx#4 $)

>  <Rbt.Library>
libRbt.so (2013.1, Build901 2013/11/27)

>  <Rbt.Parameter_File>
/export/apps/rDock/src/rDock_2013.1_src/data/scripts/dock_solv.prm

>  <Rbt.Receptor>
prm/pocket_docking_6.prm

>  <SCORE>
-16.7064

>  <SCORE.INTER>
-9.0855

>  <SCORE.INTER.CONST>
1

>  <SCORE.INTER.POLAR>
0

>  <SCORE.INTER.ROT>
6

>  <SCORE.INTER.SOLV>
9.85315

>  <SCORE.INTER.VDW>
-16.9414

>  <SCORE.INTER.norm>
-0.293081

>  <SCORE.INTRA>
-7.62086

>  <SCORE.INTRA.DIHEDRAL>
-11.5591

>  <SCORE.INTRA.DIHEDRAL.0>
22.2484

>  <SCORE.INTRA.POLAR>
0

>  <SCORE.INTRA.POLAR.0>
0

>  <SCORE.INTRA.REPUL>
0

>  <SCORE.INTRA.REPUL.0>
0

>  <SCORE.INTRA.SOLV>
-2.67076

>  <SCORE.INTRA.SOLV.lig_0>
-75.7198

>  <SCORE.INTRA.VDW>
-0.505937

>  <SCORE.INTRA.VDW.0>
-3.34171

>  <SCORE.INTRA.norm>
-0.245834

>  <SCORE.RESTR>
0

>  <SCORE.RESTR.CAVITY>
0

>  <SCORE.RESTR.norm>
0

>  <SCORE.SYSTEM>
0

>  <SCORE.SYSTEM.CONST>
0

>  <SCORE.SYSTEM.DIHEDRAL>
0

>  <SCORE.SYSTEM.SOLV>
0

>  <SCORE.SYSTEM.norm>
0

>  <SCORE.heavy>
31

>  <SCORE.norm>
-0.538915

>  <RMSD>
5.160

$$$$
2et3_lig
 OpenBabel11021811423D
libRbt.so/2013.1/901 2013/11/27
 31 33  0  0  0  0  0  0  0  0999 V2000
   -0.6284  -11.5327   31.6260 C   0  0  2  0  0  0  0  0  0  0  0  0
   -2.0470  -11.4209   31.3409 O   0  0  0  0  0  0  0  0  0  0  0  0
   -5.2270  -10.2157   33.9374 C   0  0  2  0  0  0  0  0  0  0  0  0
   -6.1399  -10.2357   35.0382 N   0  0  0  0  0  0  0  0  0  0  0  0
   -2.4135   -8.6457   36.0022 C   0  0  2  0  0  0  0  0  0  0  0  0
    0.1784  -11.2823   30.3475 C   0  0  2  0  0  0  0  0  0  0  0  0
   -0.1811  -10.0001   29.8251 N   0  0  0  0  0  0  0  0  0  0  0  0
   -5.4265  -11.5004   33.0703 C   0  0  0  0  0  0  0  0  0  0  0  0
   -2.8561   -7.7338   37.1677 C   0  0  2  0  0  0  0  0  0  0  0  0
   -3.8048   -8.4222   37.9516 O   0  0  0  0  0  0  0  0  0  0  0  0
   -0.0743  -12.4276   29.3084 C   0  0  0  0  0  0  0  0  0  0  0  0
   -4.4203  -11.4911   31.8618 C   0  0  2  0  0  0  0  0  0  0  0  0
   -4.6037  -12.6995   31.0422 N   0  0  0  0  0  0  0  0  0  0  0  0
   -3.4561   -6.4062   36.5478 C   0  0  1  0  0  0  0  0  0  0  0  0
   -3.9560   -5.4794   37.6155 N   0  0  0  0  0  0  0  0  0  0  0  0
    0.3735  -13.7752   29.9568 C   0  0  0  0  0  0  0  0  0  0  0  0
   -2.9427  -11.4073   32.4062 C   0  0  2  0  0  0  0  0  0  0  0  0
   -2.3413   -5.6574   35.6422 C   0  0  1  0  0  0  0  0  0  0  0  0
   -1.2288   -5.2634   36.4184 O   0  0  0  0  0  0  0  0  0  0  0  0
   -0.4587  -13.9948   31.2962 C   0  0  2  0  0  0  0  0  0  0  0  0
   -0.3338  -12.8666   32.2176 O   0  0  0  0  0  0  0  0  0  0  0  0
   -2.7742  -10.1035   33.2776 C   0  0  2  0  0  0  0  0  0  0  0  0
   -1.4441  -10.0061   33.7768 O   0  0  0  0  0  0  0  0  0  0  0  0
   -1.8289   -6.6424   34.5464 C   0  0  0  0  0  0  0  0  0  0  0  0
   -1.4011   -7.9425   35.1624 O   0  0  0  0  0  0  0  0  0  0  0  0
   -0.1350  -15.2799   32.0212 C   0  0  0  0  0  0  0  0  0  0  0  0
   -1.0594  -15.5362   33.0944 N   0  0  0  0  0  0  0  0  0  0  0  0
   -3.7866  -10.1300   34.4762 C   0  0  1  0  0  0  0  0  0  0  0  0
   -3.6241   -8.9441   35.2447 O   0  0  0  0  0  0  0  0  0  0  0  0
   -2.7698   -4.3542   34.9539 C   0  0  0  0  0  0  0  0  0  0  0  0
   -5.4084   -5.2443   37.6741 C   0  0  0  0  0  0  0  0  0  0  0  0
  1  2  1  6  0  0  0
  1  6  1  0  0  0  0
  1 21  1  0  0  0  0
  3  4  1  1  0  0  0
  3  8  1  0  0  0  0
  3 28  1  0  0  0  0
  5  9  1  0  0  0  0
  5 25  1  0  0  0  0
  5 29  1  6  0  0  0
  6  7  1  6  0  0  0
  6 11  1  0  0  0  0
  8 12  1  0  0  0  0
  9 10  1  6  0  0  0
  9 14  1  0  0  0  0
 11 16  1  0  0  0  0
 12 13  1  1  0  0  0
 12 17  1  0  0  0  0
 14 15  1  1  0  0  0
 14 18  1  0  0  0  0
 15 31  1  0  0  0  0
 16 20  1  0  0  0  0
 17  2  1  6  0  0  0
 17 22  1  0  0  0  0
 18 19  1  1  0  0  0
 18 24  1  0  0  0  0
 18 30  1  0  0  0  0
 20 21  1  0  0  0  0
 20 26  1  1  0  0  0
 22 23  1  1  0  0  0
 22 28  1  0  0  0  0
 24 25  1  0  0  0  0
 26 27  1  0  0  0  0
 28 29  1  6  0  0  0
M  END
>  <CHROM.1>
-170.13137227,-152.89713083,-113.12591529,-171.83141449,-170.46860133,173.48958578
-2.44757721,-9.85821624,33.73997668,-1.25737899,0.49675475,0.52188952

>  <Name>
2et3_lig

>  <RI>
3.86414e+07

>  <Rbt.Current_Directory>
/home/itssahil/PROJECTS/Mol_Feturizer/New_Systems/rnas/2et3

>  <Rbt.Executable>
rbdock ($Id: //depot/dev/client3/rdock/2013.1/src/exe/rbdock.cxx#4 $)

>  <Rbt.Library>
libRbt.so (2013.1, Build901 2013/11/27)

>  <Rbt.Parameter_File>
/export/apps/rDock/src/rDock_2013.1_src/data/scripts/dock_solv.prm

>  <Rbt.Receptor>
prm/pocket_docking_8.prm

>  <SCORE>
-24.2621

>  <SCORE.INTER>
-15.2057

>  <SCORE.INTER.CONST>
1

>  <SCORE.INTER.POLAR>
-1.5931

>  <SCORE.INTER.ROT>
6

>  <SCORE.INTER.SOLV>
15.1343

>  <SCORE.INTER.VDW>
-17.4716

>  <SCORE.INTER.norm>
-0.490507

>  <SCORE.INTRA>
-9.05639

>  <SCORE.INTRA.DIHEDRAL>
-16.5452

>  <SCORE.INTRA.DIHEDRAL.0>
22.2484

>  <SCORE.INTRA.POLAR>
0

>  <SCORE.INTRA.POLAR.0>
0

>  <SCORE.INTRA.REPUL>
0

>  <SCORE.INTRA.REPUL.0>
0

>  <SCORE.INTRA.SOLV>
-3.73274

>  <SCORE.INTRA.SOLV.lig_0>
-75.7198

>  <SCORE.INTRA.VDW>
1.0826

>  <SCORE.INTRA.VDW.0>
-3.34171

>  <SCORE.INTRA.norm>
-0.292142

>  <SCORE.RESTR>
0

>  <SCORE.RESTR.CAVITY>
0

>  <SCORE.RESTR.norm>
0

>  <SCORE.SYSTEM>
0

>  <SCORE.SYSTEM.CONST>
0

>  <SCORE.SYSTEM.DIHEDRAL>
0

>  <SCORE.SYSTEM.SOLV>
0

>  <SCORE.SYSTEM.norm>
0

>  <SCORE.heavy>
31

>  <SCORE.norm>
-0.782649

>  <RMSD>
5.198

$$$$
2et3_lig
 OpenBabel11021811423D
libRbt.so/2013.1/901 2013/11/27
 31 33  0  0  0  0  0  0  0  0999 V2000
    0.9531   -8.1919   28.5322 C   0  0  2  0  0  0  0  0  0  0  0  0
    0.9774   -7.7076   29.9000 O   0  0  0  0  0  0  0  0  0  0  0  0
   -1.4279   -8.7620   33.2778 C   0  0  2  0  0  0  0  0  0  0  0  0
   -2.5916   -8.9672   34.0835 N   0  0  0  0  0  0  0  0  0  0  0  0
   -2.8415  -11.6847   32.7576 C   0  0  2  0  0  0  0  0  0  0  0  0
    2.3171   -7.9563   27.8747 C   0  0  2  0  0  0  0  0  0  0  0  0
    3.3223   -8.5928   28.6688 N   0  0  0  0  0  0  0  0  0  0  0  0
   -1.3237   -7.2528   32.8859 C   0  0  0  0  0  0  0  0  0  0  0  0
   -2.4426  -13.0179   33.4277 C   0  0  2  0  0  0  0  0  0  0  0  0
   -1.6619  -12.7403   34.5687 O   0  0  0  0  0  0  0  0  0  0  0  0
    2.5874   -6.4215   27.7114 C   0  0  0  0  0  0  0  0  0  0  0  0
   -0.0511   -7.0192   31.9921 C   0  0  2  0  0  0  0  0  0  0  0  0
    0.0513   -5.5991   31.6198 N   0  0  0  0  0  0  0  0  0  0  0  0
   -1.6462  -13.8794   32.3644 C   0  0  1  0  0  0  0  0  0  0  0  0
   -1.1782  -15.1781   32.9504 N   0  0  0  0  0  0  0  0  0  0  0  0
    1.4601   -5.8258   26.8108 C   0  0  0  0  0  0  0  0  0  0  0  0
   -0.1364   -7.9268   30.7054 C   0  0  2  0  0  0  0  0  0  0  0  0
   -2.5714  -14.1599   31.0648 C   0  0  1  0  0  0  0  0  0  0  0  0
   -3.7184  -14.9117   31.4031 O   0  0  0  0  0  0  0  0  0  0  0  0
    0.0547   -6.1106   27.5025 C   0  0  2  0  0  0  0  0  0  0  0  0
   -0.1487   -7.5315   27.7799 O   0  0  0  0  0  0  0  0  0  0  0  0
   -0.2426   -9.4412   31.1335 C   0  0  2  0  0  0  0  0  0  0  0  0
   -0.3171  -10.2796   29.9849 O   0  0  0  0  0  0  0  0  0  0  0  0
   -3.0545  -12.7972   30.4790 C   0  0  0  0  0  0  0  0  0  0  0  0
   -3.6774  -11.9518   31.5515 O   0  0  0  0  0  0  0  0  0  0  0  0
   -1.1308   -5.5680   26.7397 C   0  0  0  0  0  0  0  0  0  0  0  0
   -2.3672   -5.7934   27.4413 N   0  0  0  0  0  0  0  0  0  0  0  0
   -1.5161   -9.6540   32.0251 C   0  0  1  0  0  0  0  0  0  0  0  0
   -1.5900  -11.0224   32.4063 O   0  0  0  0  0  0  0  0  0  0  0  0
   -1.9394  -14.9742   29.9277 C   0  0  0  0  0  0  0  0  0  0  0  0
    0.0264  -15.7853   32.3600 C   0  0  0  0  0  0  0  0  0  0  0  0
  1  2  1  1  0  0  0
  1  6  1  0  0  0  0
  1 21  1  0  0  0  0
  3  4  1  1  0  0  0
  3  8  1  0  0  0  0
  3 28  1  0  0  0  0
  5  9  1  0  0  0  0
  5 25  1  0  0  0  0
  5 29  1  6  0  0  0
  6  7  1  1  0  0  0
  6 11  1  0  0  0  0
  8 12  1  0  0  0  0
  9 10  1  1  0  0  0
  9 14  1  0  0  0  0
 11 16  1  0  0  0  0
 12 13  1  6  0  0  0
 12 17  1  0  0  0  0
 14 15  1  1  0  0  0
 14 18  1  0  0  0  0
 15 31  1  0  0  0  0
 16 20  1  0  0  0  0
 17  2  1  6  0  0  0
 17 22  1  0  0  0  0
 18 19  1  1  0  0  0
 18 24  1  0  0  0  0
 18 30  1  0  0  0  0
 20 21  1  0  0  0  0
 20 26  1  6  0  0  0
 22 23  1  6  0  0  0
 22 28  1  0  0  0  0
 24 25  1  0  0  0  0
 26 27  1  0  0  0  0
 28 29  1  1  0  0  0
M  END
>  <CHROM.1>
-174.92361386,-166.45959588,-153.03553998,-165.59805899,-177.07149950,84.85565828
-0.85012883,-9.94257117,30.71086941,-0.76830171,-1.10623466,-2.90193111

>  <Name>
2et3_lig

>  <RI>
2.5794e+07

>  <Rbt.Current_Directory>
/home/itssahil/PROJECTS/Mol_Feturizer/New_Systems/rnas/2et3

>  <Rbt.Executable>
rbdock ($Id: //depot/dev/client3/rdock/2013.1/src/exe/rbdock.cxx#4 $)

>  <Rbt.Library>
libRbt.so (2013.1, Build901 2013/11/27)

>  <Rbt.Parameter_File>
/export/apps/rDock/src/rDock_2013.1_src/data/scripts/dock_solv.prm

>  <Rbt.Receptor>
prm/pocket_docking_5.prm

>  <SCORE>
-27.1609

>  <SCORE.INTER>
-17.9188

>  <SCORE.INTER.CONST>
1

>  <SCORE.INTER.POLAR>
-1.7365

>  <SCORE.INTER.ROT>
6

>  <SCORE.INTER.SOLV>
17.1124

>  <SCORE.INTER.VDW>
-19.4616

>  <SCORE.INTER.norm>
-0.578025

>  <SCORE.INTRA>
-9.24215

>  <SCORE.INTRA.DIHEDRAL>
-16.9325

>  <SCORE.INTRA.DIHEDRAL.0>
22.2484

>  <SCORE.INTRA.POLAR>
0

>  <SCORE.INTRA.POLAR.0>
0

>  <SCORE.INTRA.REPUL>
0

>  <SCORE.INTRA.REPUL.0>
0

>  <SCORE.INTRA.SOLV>
-2.72424

>  <SCORE.INTRA.SOLV.lig_0>
-75.7198

>  <SCORE.INTRA.VDW>
0.58624

>  <SCORE.INTRA.VDW.0>
-3.34171

>  <SCORE.INTRA.norm>
-0.298134

>  <SCORE.RESTR>
0

>  <SCORE.RESTR.CAVITY>
0

>  <SCORE.RESTR.norm>
0

>  <SCORE.SYSTEM>
0

>  <SCORE.SYSTEM.CONST>
0

>  <SCORE.SYSTEM.DIHEDRAL>
0

>  <SCORE.SYSTEM.SOLV>
0

>  <SCORE.SYSTEM.norm>
0

>  <SCORE.heavy>
31

>  <SCORE.norm>
-0.876159

>  <RMSD>
5.232

$$$$
2et3_lig
 OpenBabel11021811423D
libRbt.so/2013.1/901 2013/11/27
 31 33  0  0  0  0  0  0  0  0999 V2000
   -2.3854  -11.5222   31.2465 C   0  0  2  0  0  0  0  0  0  0  0  0
   -2.0652  -12.0591   32.5562 O   0  0  0  0  0  0  0  0  0  0  0  0
   -4.6855   -9.6996   34.9796 C   0  0  2  0  0  0  0  0  0  0  0  0
   -5.4080   -9.2519   36.1299 N   0  0  0  0  0  0  0  0  0  0  0  0
   -2.8971   -7.1978   34.6018 C   0  0  2  0  0  0  0  0  0  0  0  0
   -1.5757  -12.2572   30.1730 C   0  0  2  0  0  0  0  0  0  0  0  0
   -1.8458  -13.6580   30.2773 N   0  0  0  0  0  0  0  0  0  0  0  0
   -5.1181  -11.1592   34.6268 C   0  0  0  0  0  0  0  0  0  0  0  0
   -2.1285   -6.0100   35.2215 C   0  0  2  0  0  0  0  0  0  0  0  0
   -0.7902   -6.3963   35.4410 O   0  0  0  0  0  0  0  0  0  0  0  0
   -0.0484  -11.9440   30.3300 C   0  0  0  0  0  0  0  0  0  0  0  0
   -4.3219  -11.6631   33.3677 C   0  0  2  0  0  0  0  0  0  0  0  0
   -4.7254  -13.0378   33.0316 N   0  0  0  0  0  0  0  0  0  0  0  0
   -2.8546   -5.6092   36.5702 C   0  0  1  0  0  0  0  0  0  0  0  0
   -2.1416   -4.4875   37.2647 N   0  0  0  0  0  0  0  0  0  0  0  0
    0.1472  -10.4033   30.1727 C   0  0  0  0  0  0  0  0  0  0  0  0
   -2.7739  -11.5935   33.6599 C   0  0  2  0  0  0  0  0  0  0  0  0
   -4.3913   -5.1903   36.2758 C   0  0  1  0  0  0  0  0  0  0  0  0
   -4.4630   -4.0564   35.4363 O   0  0  0  0  0  0  0  0  0  0  0  0
   -0.7269   -9.6653   31.2801 C   0  0  2  0  0  0  0  0  0  0  0  0
   -2.1349  -10.0549   31.2251 O   0  0  0  0  0  0  0  0  0  0  0  0
   -2.3696  -10.1106   34.0142 C   0  0  2  0  0  0  0  0  0  0  0  0
   -0.9730  -10.0245   34.2784 O   0  0  0  0  0  0  0  0  0  0  0  0
   -5.1095   -6.3665   35.5447 C   0  0  0  0  0  0  0  0  0  0  0  0
   -4.3155   -6.8105   34.3509 O   0  0  0  0  0  0  0  0  0  0  0  0
   -0.6159   -8.1591   31.2524 C   0  0  0  0  0  0  0  0  0  0  0  0
   -1.0677   -7.6122   30.0000 N   0  0  0  0  0  0  0  0  0  0  0  0
   -3.1747   -9.6253   35.2706 C   0  0  1  0  0  0  0  0  0  0  0  0
   -2.8018   -8.2855   35.5693 O   0  0  0  0  0  0  0  0  0  0  0  0
   -5.2431   -4.7862   37.4869 C   0  0  0  0  0  0  0  0  0  0  0  0
   -1.0349   -4.8514   38.1652 C   0  0  0  0  0  0  0  0  0  0  0  0
  1  2  1  1  0  0  0
  1  6  1  0  0  0  0
  1 21  1  0  0  0  0
  3  4  1  1  0  0  0
  3  8  1  0  0  0  0
  3 28  1  0  0  0  0
  5  9  1  0  0  0  0
  5 25  1  0  0  0  0
  5 29  1  1  0  0  0
  6  7  1  1  0  0  0
  6 11  1  0  0  0  0
  8 12  1  0  0  0  0
  9 10  1  1  0  0  0
  9 14  1  0  0  0  0
 11 16  1  0  0  0  0
 12 13  1  1  0  0  0
 12 17  1  0  0  0  0
 14 15  1  6  0  0  0
 14 18  1  0  0  0  0
 15 31  1  0  0  0  0
 16 20  1  0  0  0  0
 17  2  1  6  0  0  0
 17 22  1  0  0  0  0
 18 19  1  6  0  0  0
 18 24  1  0  0  0  0
 18 30  1  0  0  0  0
 20 21  1  0  0  0  0
 20 26  1  6  0  0  0
 22 23  1  1  0  0  0
 22 28  1  0  0  0  0
 24 25  1  0  0  0  0
 26 27  1  0  0  0  0
 28 29  1  6  0  0  0
M  END
>  <CHROM.1>
-175.13282353,-168.36186911,-86.33159494,50.11074168,61.14121013,-64.39607092
-2.69849831,-8.78565917,33.88482237,1.30921784,-0.67406426,-2.60510461

>  <Name>
2et3_lig

>  <RI>
0

>  <Rbt.Current_Directory>
/home/itssahil/PROJECTS/Mol_Feturizer/New_Systems/rnas/2et3

>  <Rbt.Executable>
rbdock ($Id: //depot/dev/client3/rdock/2013.1/src/exe/rbdock.cxx#4 $)

>  <Rbt.Library>
libRbt.so (2013.1, Build901 2013/11/27)

>  <Rbt.Parameter_File>
/export/apps/rDock/src/rDock_2013.1_src/data/scripts/dock_solv.prm

>  <Rbt.Receptor>
prm/pocket_docking_6.prm

>  <SCORE>
-22.4757

>  <SCORE.INTER>
-13.1205

>  <SCORE.INTER.CONST>
1

>  <SCORE.INTER.POLAR>
-1.39672

>  <SCORE.INTER.ROT>
6

>  <SCORE.INTER.SOLV>
10.3206

>  <SCORE.INTER.VDW>
-15.1315

>  <SCORE.INTER.norm>
-0.423242

>  <SCORE.INTRA>
-9.35515

>  <SCORE.INTRA.DIHEDRAL>
-20.2605

>  <SCORE.INTRA.DIHEDRAL.0>
22.2484

>  <SCORE.INTRA.POLAR>
0

>  <SCORE.INTRA.POLAR.0>
0

>  <SCORE.INTRA.REPUL>
0

>  <SCORE.INTRA.REPUL.0>
0

>  <SCORE.INTRA.SOLV>
0.600773

>  <SCORE.INTRA.SOLV.lig_0>
-75.7198

>  <SCORE.INTRA.VDW>
0.474733

>  <SCORE.INTRA.VDW.0>
-3.34171

>  <SCORE.INTRA.norm>
-0.301779

>  <SCORE.RESTR>
0

>  <SCORE.RESTR.CAVITY>
0

>  <SCORE.RESTR.norm>
0

>  <SCORE.SYSTEM>
0

>  <SCORE.SYSTEM.CONST>
0

>  <SCORE.SYSTEM.DIHEDRAL>
0

>  <SCORE.SYSTEM.SOLV>
0

>  <SCORE.SYSTEM.norm>
0

>  <SCORE.heavy>
31

>  <SCORE.norm>
-0.725021

>  <RMSD>
5.240

$$$$
2et3_lig
 OpenBabel11021811423D
libRbt.so/2013.1/901 2013/11/27
 31 33  0  0  0  0  0  0  0  0999 V2000
   -0.6705  -11.6601   31.6410 C   0  0  2  0  0  0  0  0  0  0  0  0
   -2.0946  -11.5510   31.3838 O   0  0  0  0  0  0  0  0  0  0  0  0
   -5.2168  -10.2488   34.0035 C   0  0  2  0  0  0  0  0  0  0  0  0
   -6.1048  -10.2273   35.1245 N   0  0  0  0  0  0  0  0  0  0  0  0
   -2.3540   -8.5950   35.9317 C   0  0  2  0  0  0  0  0  0  0  0  0
    0.1103  -11.4167   30.3450 C   0  0  2  0  0  0  0  0  0  0  0  0
   -0.2607  -10.1379   29.8223 N   0  0  0  0  0  0  0  0  0  0  0  0
   -5.4343  -11.5655   33.1903 C   0  0  0  0  0  0  0  0  0  0  0  0
   -2.7687   -7.6642   37.0924 C   0  0  2  0  0  0  0  0  0  0  0  0
   -3.6774   -8.3491   37.9252 O   0  0  0  0  0  0  0  0  0  0  0  0
   -0.1623  -12.5684   29.3181 C   0  0  0  0  0  0  0  0  0  0  0  0
   -4.4555  -11.6018   31.9601 C   0  0  2  0  0  0  0  0  0  0  0  0
   -4.6561  -12.8404   31.1911 N   0  0  0  0  0  0  0  0  0  0  0  0
   -3.4117   -6.3598   36.4662 C   0  0  1  0  0  0  0  0  0  0  0  0
   -3.8874   -5.4172   37.5310 N   0  0  0  0  0  0  0  0  0  0  0  0
    0.2996  -13.9117   29.9654 C   0  0  0  0  0  0  0  0  0  0  0  0
   -2.9662  -11.4972   32.4676 C   0  0  2  0  0  0  0  0  0  0  0  0
   -2.3423   -5.6147   35.5045 C   0  0  1  0  0  0  0  0  0  0  0  0
   -1.2089   -5.1867   36.2309 O   0  0  0  0  0  0  0  0  0  0  0  0
   -0.5053  -14.1240   31.3225 C   0  0  2  0  0  0  0  0  0  0  0  0
   -0.3629  -12.9902   32.2344 O   0  0  0  0  0  0  0  0  0  0  0  0
   -2.7795  -10.1613   33.2851 C   0  0  2  0  0  0  0  0  0  0  0  0
   -1.4387  -10.0450   33.7503 O   0  0  0  0  0  0  0  0  0  0  0  0
   -1.8542   -6.6160   34.4124 C   0  0  0  0  0  0  0  0  0  0  0  0
   -1.3839   -7.8955   35.0405 O   0  0  0  0  0  0  0  0  0  0  0  0
   -0.1661  -15.4045   32.0484 C   0  0  0  0  0  0  0  0  0  0  0  0
   -1.0537  -15.6428   33.1562 N   0  0  0  0  0  0  0  0  0  0  0  0
   -3.7647  -10.1426   34.5062 C   0  0  1  0  0  0  0  0  0  0  0  0
   -3.5862   -8.9284   35.2255 O   0  0  0  0  0  0  0  0  0  0  0  0
   -2.8160   -4.3337   34.8042 C   0  0  0  0  0  0  0  0  0  0  0  0
   -5.3431   -5.2578   37.6847 C   0  0  0  0  0  0  0  0  0  0  0  0
  1  2  1  6  0  0  0
  1  6  1  0  0  0  0
  1 21  1  0  0  0  0
  3  4  1  1  0  0  0
  3  8  1  0  0  0  0
  3 28  1  0  0  0  0
  5  9  1  0  0  0  0
  5 25  1  0  0  0  0
  5 29  1  6  0  0  0
  6  7  1  6  0  0  0
  6 11  1  0  0  0  0
  8 12  1  0  0  0  0
  9 10  1  1  0  0  0
  9 14  1  0  0  0  0
 11 16  1  0  0  0  0
 12 13  1  1  0  0  0
 12 17  1  0  0  0  0
 14 15  1  1  0  0  0
 14 18  1  0  0  0  0
 15 31  1  0  0  0  0
 16 20  1  0  0  0  0
 17  2  1  6  0  0  0
 17 22  1  0  0  0  0
 18 19  1  1  0  0  0
 18 24  1  0  0  0  0
 18 30  1  0  0  0  0
 20 21  1  0  0  0  0
 20 26  1  1  0  0  0
 22 23  1  1  0  0  0
 22 28  1  0  0  0  0
 24 25  1  0  0  0  0
 26 27  1  0  0  0  0
 28 29  1  6  0  0  0
M  END
>  <CHROM.1>
-168.50926841,-151.91006842,-109.94999727,-171.45440088,-171.50407448,174.17643039
-2.45004326,-9.89967152,33.72959576,-1.26626064,0.52295662,0.49442435

>  <Name>
2et3_lig

>  <RI>
3.86414e+07

>  <Rbt.Current_Directory>
/home/itssahil/PROJECTS/Mol_Feturizer/New_Systems/rnas/2et3

>  <Rbt.Executable>
rbdock ($Id: //depot/dev/client3/rdock/2013.1/src/exe/rbdock.cxx#4 $)

>  <Rbt.Library>
libRbt.so (2013.1, Build901 2013/11/27)

>  <Rbt.Parameter_File>
/export/apps/rDock/src/rDock_2013.1_src/data/scripts/dock_solv.prm

>  <Rbt.Receptor>
prm/pocket_docking_8.prm

>  <SCORE>
-24.2468

>  <SCORE.INTER>
-15.3164

>  <SCORE.INTER.CONST>
1

>  <SCORE.INTER.POLAR>
-1.62503

>  <SCORE.INTER.ROT>
6

>  <SCORE.INTER.SOLV>
15.0129

>  <SCORE.INTER.VDW>
-17.3985

>  <SCORE.INTER.norm>
-0.494077

>  <SCORE.INTRA>
-8.9304

>  <SCORE.INTRA.DIHEDRAL>
-16.3181

>  <SCORE.INTRA.DIHEDRAL.0>
22.2484

>  <SCORE.INTRA.POLAR>
0

>  <SCORE.INTRA.POLAR.0>
0

>  <SCORE.INTRA.REPUL>
0

>  <SCORE.INTRA.REPUL.0>
0

>  <SCORE.INTRA.SOLV>
-3.67638

>  <SCORE.INTRA.SOLV.lig_0>
-75.7198

>  <SCORE.INTRA.VDW>
1.06686

>  <SCORE.INTRA.VDW.0>
-3.34171

>  <SCORE.INTRA.norm>
-0.288077

>  <SCORE.RESTR>
0

>  <SCORE.RESTR.CAVITY>
0

>  <SCORE.RESTR.norm>
0

>  <SCORE.SYSTEM>
0

>  <SCORE.SYSTEM.CONST>
0

>  <SCORE.SYSTEM.DIHEDRAL>
0

>  <SCORE.SYSTEM.SOLV>
0

>  <SCORE.SYSTEM.norm>
0

>  <SCORE.heavy>
31

>  <SCORE.norm>
-0.782155

>  <RMSD>
5.274

$$$$
2et3_lig
 OpenBabel11021811423D
libRbt.so/2013.1/901 2013/11/27
 31 33  0  0  0  0  0  0  0  0999 V2000
   -0.4668   -6.2466   28.8116 C   0  0  2  0  0  0  0  0  0  0  0  0
   -0.6779   -4.8560   29.1693 O   0  0  0  0  0  0  0  0  0  0  0  0
   -2.4432   -2.9733   32.5818 C   0  0  2  0  0  0  0  0  0  0  0  0
   -3.3901   -2.6856   33.6144 N   0  0  0  0  0  0  0  0  0  0  0  0
   -0.9861   -5.9097   34.5447 C   0  0  2  0  0  0  0  0  0  0  0  0
    0.7032   -6.3570   27.8281 C   0  0  2  0  0  0  0  0  0  0  0  0
    1.8576   -5.7580   28.4236 N   0  0  0  0  0  0  0  0  0  0  0  0
   -3.1087   -2.7484   31.1858 C   0  0  0  0  0  0  0  0  0  0  0  0
   -2.2264   -6.3886   35.3307 C   0  0  2  0  0  0  0  0  0  0  0  0
   -3.3243   -6.4661   34.4492 O   0  0  0  0  0  0  0  0  0  0  0  0
    0.3348   -5.6829   26.4624 C   0  0  0  0  0  0  0  0  0  0  0  0
   -2.0770   -3.0710   30.0436 C   0  0  2  0  0  0  0  0  0  0  0  0
   -2.6992   -2.8612   28.7266 N   0  0  0  0  0  0  0  0  0  0  0  0
   -2.4863   -5.3602   36.5062 C   0  0  1  0  0  0  0  0  0  0  0  0
   -3.7076   -5.7266   37.2956 N   0  0  0  0  0  0  0  0  0  0  0  0
   -0.9119   -6.4206   25.8807 C   0  0  0  0  0  0  0  0  0  0  0  0
   -1.5749   -4.5585   30.1910 C   0  0  2  0  0  0  0  0  0  0  0  0
   -1.1963   -5.2889   37.4833 C   0  0  1  0  0  0  0  0  0  0  0  0
   -0.9473   -6.5364   38.0975 O   0  0  0  0  0  0  0  0  0  0  0  0
   -2.1009   -6.3153   26.9342 C   0  0  2  0  0  0  0  0  0  0  0  0
   -1.7204   -6.8220   28.2517 O   0  0  0  0  0  0  0  0  0  0  0  0
   -0.9114   -4.7539   31.6085 C   0  0  2  0  0  0  0  0  0  0  0  0
   -0.4471   -6.0914   31.7613 O   0  0  0  0  0  0  0  0  0  0  0  0
    0.0623   -4.9171   36.6399 C   0  0  0  0  0  0  0  0  0  0  0  0
    0.1928   -5.8287   35.4548 O   0  0  0  0  0  0  0  0  0  0  0  0
   -3.3831   -6.9770   26.4872 C   0  0  0  0  0  0  0  0  0  0  0  0
   -4.4441   -6.7870   27.4412 N   0  0  0  0  0  0  0  0  0  0  0  0
   -1.9544   -4.4261   32.7340 C   0  0  1  0  0  0  0  0  0  0  0  0
   -1.3357   -4.6010   34.0028 O   0  0  0  0  0  0  0  0  0  0  0  0
   -1.2807   -4.3218   38.6720 C   0  0  0  0  0  0  0  0  0  0  0  0
   -4.9889   -5.1495   36.8559 C   0  0  0  0  0  0  0  0  0  0  0  0
  1  2  1  6  0  0  0
  1  6  1  0  0  0  0
  1 21  1  0  0  0  0
  3  4  1  1  0  0  0
  3  8  1  0  0  0  0
  3 28  1  0  0  0  0
  5  9  1  0  0  0  0
  5 25  1  0  0  0  0
  5 29  1  1  0  0  0
  6  7  1  1  0  0  0
  6 11  1  0  0  0  0
  8 12  1  0  0  0  0
  9 10  1  6  0  0  0
  9 14  1  0  0  0  0
 11 16  1  0  0  0  0
 12 13  1  6  0  0  0
 12 17  1  0  0  0  0
 14 15  1  1  0  0  0
 14 18  1  0  0  0  0
 15 31  1  0  0  0  0
 16 20  1  0  0  0  0
 17  2  1  6  0  0  0
 17 22  1  0  0  0  0
 18 19  1  1  0  0  0
 18 24  1  0  0  0  0
 18 30  1  0  0  0  0
 20 21  1  0  0  0  0
 20 26  1  6  0  0  0
 22 23  1  1  0  0  0
 22 28  1  0  0  0  0
 24 25  1  0  0  0  0
 26 27  1  0  0  0  0
 28 29  1  1  0  0  0
M  END
>  <CHROM.1>
-171.35151937,-89.48844917,-90.61751758,-157.87007219,-176.71321004,168.68073778
-1.66336344,-5.27521354,32.09229115,-1.49439235,-0.34602103,1.53946552

>  <Name>
2et3_lig

>  <RI>
0

>  <Rbt.Current_Directory>
/home/itssahil/PROJECTS/Mol_Feturizer/New_Systems/rnas/2et3

>  <Rbt.Executable>
rbdock ($Id: //depot/dev/client3/rdock/2013.1/src/exe/rbdock.cxx#4 $)

>  <Rbt.Library>
libRbt.so (2013.1, Build901 2013/11/27)

>  <Rbt.Parameter_File>
/export/apps/rDock/src/rDock_2013.1_src/data/scripts/dock_solv.prm

>  <Rbt.Receptor>
prm/pocket_docking_6.prm

>  <SCORE>
-22.3022

>  <SCORE.INTER>
-13.799

>  <SCORE.INTER.CONST>
1

>  <SCORE.INTER.POLAR>
-0.616784

>  <SCORE.INTER.ROT>
6

>  <SCORE.INTER.SOLV>
17.2811

>  <SCORE.INTER.VDW>
-20.5038

>  <SCORE.INTER.norm>
-0.44513

>  <SCORE.INTRA>
-8.50314

>  <SCORE.INTRA.DIHEDRAL>
-14.7888

>  <SCORE.INTRA.DIHEDRAL.0>
22.2484

>  <SCORE.INTRA.POLAR>
0

>  <SCORE.INTRA.POLAR.0>
0

>  <SCORE.INTRA.REPUL>
0

>  <SCORE.INTRA.REPUL.0>
0

>  <SCORE.INTRA.SOLV>
-2.18542

>  <SCORE.INTRA.SOLV.lig_0>
-75.7198

>  <SCORE.INTRA.VDW>
-0.0160391

>  <SCORE.INTRA.VDW.0>
-3.34171

>  <SCORE.INTRA.norm>
-0.274295

>  <SCORE.RESTR>
0

>  <SCORE.RESTR.CAVITY>
0

>  <SCORE.RESTR.norm>
0

>  <SCORE.SYSTEM>
0

>  <SCORE.SYSTEM.CONST>
0

>  <SCORE.SYSTEM.DIHEDRAL>
0

>  <SCORE.SYSTEM.SOLV>
0

>  <SCORE.SYSTEM.norm>
0

>  <SCORE.heavy>
31

>  <SCORE.norm>
-0.719425

>  <RMSD>
5.359

$$$$
2et3_lig
 OpenBabel11021811423D
libRbt.so/2013.1/901 2013/11/27
 31 33  0  0  0  0  0  0  0  0999 V2000
    1.0372   -8.2290   28.4626 C   0  0  2  0  0  0  0  0  0  0  0  0
    1.0461   -7.8285   29.8575 O   0  0  0  0  0  0  0  0  0  0  0  0
   -1.2661   -9.3097   33.1387 C   0  0  2  0  0  0  0  0  0  0  0  0
   -2.4082   -9.6290   33.9381 N   0  0  0  0  0  0  0  0  0  0  0  0
   -2.5960  -12.1545   32.4969 C   0  0  2  0  0  0  0  0  0  0  0  0
    2.3699   -7.8519   27.8067 C   0  0  2  0  0  0  0  0  0  0  0  0
    3.4315   -8.4584   28.5492 N   0  0  0  0  0  0  0  0  0  0  0  0
   -1.1975   -7.7638   32.9201 C   0  0  0  0  0  0  0  0  0  0  0  0
   -2.2043  -13.6452   32.5971 C   0  0  2  0  0  0  0  0  0  0  0  0
   -1.1266  -13.7751   33.4972 O   0  0  0  0  0  0  0  0  0  0  0  0
    2.5229   -6.2941   27.7359 C   0  0  0  0  0  0  0  0  0  0  0  0
    0.0510   -7.4042   32.0342 C   0  0  2  0  0  0  0  0  0  0  0  0
    0.1198   -5.9491   31.8249 N   0  0  0  0  0  0  0  0  0  0  0  0
   -1.8230  -14.1483   31.1451 C   0  0  1  0  0  0  0  0  0  0  0  0
   -1.3827  -15.5817   31.1592 N   0  0  0  0  0  0  0  0  0  0  0  0
    1.3409   -5.7310   26.8858 C   0  0  0  0  0  0  0  0  0  0  0  0
   -0.0459   -8.1607   30.6540 C   0  0  2  0  0  0  0  0  0  0  0  0
   -3.0805  -13.9652   30.1407 C   0  0  1  0  0  0  0  0  0  0  0  0
   -4.1843  -14.7451   30.5519 O   0  0  0  0  0  0  0  0  0  0  0  0
   -0.0288   -6.1621   27.5733 C   0  0  2  0  0  0  0  0  0  0  0  0
   -0.1219   -7.6086   27.7643 O   0  0  0  0  0  0  0  0  0  0  0  0
   -0.1156   -9.7158   30.9080 C   0  0  2  0  0  0  0  0  0  0  0  0
   -0.2000  -10.4192   29.6727 O   0  0  0  0  0  0  0  0  0  0  0  0
   -3.5274  -12.4706   30.1502 C   0  0  0  0  0  0  0  0  0  0  0  0
   -3.7422  -11.9918   31.5564 O   0  0  0  0  0  0  0  0  0  0  0  0
   -1.2628   -5.6646   26.8579 C   0  0  0  0  0  0  0  0  0  0  0  0
   -1.5471   -6.4402   25.6792 N   0  0  0  0  0  0  0  0  0  0  0  0
   -1.3654  -10.0547   31.7941 C   0  0  1  0  0  0  0  0  0  0  0  0
   -1.4066  -11.4589   32.0176 O   0  0  0  0  0  0  0  0  0  0  0  0
   -2.8700  -14.3942   28.6822 C   0  0  0  0  0  0  0  0  0  0  0  0
    0.0382  -15.8446   31.4423 C   0  0  0  0  0  0  0  0  0  0  0  0
  1  2  1  1  0  0  0
  1  6  1  0  0  0  0
  1 21  1  0  0  0  0
  3  4  1  1  0  0  0
  3  8  1  0  0  0  0
  3 28  1  0  0  0  0
  5  9  1  0  0  0  0
  5 25  1  0  0  0  0
  5 29  1  6  0  0  0
  6  7  1  1  0  0  0
  6 11  1  0  0  0  0
  8 12  1  0  0  0  0
  9 10  1  1  0  0  0
  9 14  1  0  0  0  0
 11 16  1  0  0  0  0
 12 13  1  6  0  0  0
 12 17  1  0  0  0  0
 14 15  1  1  0  0  0
 14 18  1  0  0  0  0
 15 31  1  0  0  0  0
 16 20  1  0  0  0  0
 17  2  1  6  0  0  0
 17 22  1  0  0  0  0
 18 19  1  1  0  0  0
 18 24  1  0  0  0  0
 18 30  1  0  0  0  0
 20 21  1  0  0  0  0
 20 26  1  6  0  0  0
 22 23  1  6  0  0  0
 22 28  1  0  0  0  0
 24 25  1  0  0  0  0
 26 27  1  0  0  0  0
 28 29  1  1  0  0  0
M  END
>  <CHROM.1>
-175.94886927,-179.98977450,-86.27061433,-169.43793654,77.04918064,76.00521459
-0.84145981,-10.13946229,30.30633905,0.05451295,-1.20078963,-1.94669820

>  <Name>
2et3_lig

>  <RI>
3.86414e+07

>  <Rbt.Current_Directory>
/home/itssahil/PROJECTS/Mol_Feturizer/New_Systems/rnas/2et3

>  <Rbt.Executable>
rbdock ($Id: //depot/dev/client3/rdock/2013.1/src/exe/rbdock.cxx#4 $)

>  <Rbt.Library>
libRbt.so (2013.1, Build901 2013/11/27)

>  <Rbt.Parameter_File>
/export/apps/rDock/src/rDock_2013.1_src/data/scripts/dock_solv.prm

>  <Rbt.Receptor>
prm/pocket_docking_8.prm

>  <SCORE>
-22.5102

>  <SCORE.INTER>
-12.3662

>  <SCORE.INTER.CONST>
1

>  <SCORE.INTER.POLAR>
-1.02987

>  <SCORE.INTER.ROT>
6

>  <SCORE.INTER.SOLV>
21.1347

>  <SCORE.INTER.VDW>
-19.4561

>  <SCORE.INTER.norm>
-0.398909

>  <SCORE.INTRA>
-10.1441

>  <SCORE.INTRA.DIHEDRAL>
-18.8177

>  <SCORE.INTRA.DIHEDRAL.0>
22.2484

>  <SCORE.INTRA.POLAR>
0

>  <SCORE.INTRA.POLAR.0>
0

>  <SCORE.INTRA.REPUL>
0

>  <SCORE.INTRA.REPUL.0>
0

>  <SCORE.INTRA.SOLV>
-2.19127

>  <SCORE.INTRA.SOLV.lig_0>
-75.7198

>  <SCORE.INTRA.VDW>
0.360431

>  <SCORE.INTRA.VDW.0>
-3.34171

>  <SCORE.INTRA.norm>
-0.327228

>  <SCORE.RESTR>
0

>  <SCORE.RESTR.CAVITY>
0

>  <SCORE.RESTR.norm>
0

>  <SCORE.SYSTEM>
0

>  <SCORE.SYSTEM.CONST>
0

>  <SCORE.SYSTEM.DIHEDRAL>
0

>  <SCORE.SYSTEM.SOLV>
0

>  <SCORE.SYSTEM.norm>
0

>  <SCORE.heavy>
31

>  <SCORE.norm>
-0.726137

>  <RMSD>
5.384

$$$$
2et3_lig
 OpenBabel11021811423D
libRbt.so/2013.1/901 2013/11/27
 31 33  0  0  0  0  0  0  0  0999 V2000
   -0.0630   -6.4751   29.9738 C   0  0  2  0  0  0  0  0  0  0  0  0
   -1.3359   -7.1315   29.7392 O   0  0  0  0  0  0  0  0  0  0  0  0
   -1.1356  -10.1840   32.7306 C   0  0  2  0  0  0  0  0  0  0  0  0
   -1.5391  -11.2769   33.5602 N   0  0  0  0  0  0  0  0  0  0  0  0
   -0.3437  -12.5596   29.8524 C   0  0  2  0  0  0  0  0  0  0  0  0
    0.0008   -5.1681   29.1763 C   0  0  2  0  0  0  0  0  0  0  0  0
   -1.1167   -4.3544   29.5439 N   0  0  0  0  0  0  0  0  0  0  0  0
   -2.0772   -8.9624   32.9820 C   0  0  0  0  0  0  0  0  0  0  0  0
   -1.5697  -13.4836   30.0218 C   0  0  2  0  0  0  0  0  0  0  0  0
   -2.7283  -12.6886   30.1401 O   0  0  0  0  0  0  0  0  0  0  0  0
    0.0246   -5.4667   27.6382 C   0  0  0  0  0  0  0  0  0  0  0  0
   -1.6461   -7.7581   32.0672 C   0  0  2  0  0  0  0  0  0  0  0  0
   -2.5304   -6.6050   32.2998 N   0  0  0  0  0  0  0  0  0  0  0  0
   -1.3340  -14.3763   31.3080 C   0  0  1  0  0  0  0  0  0  0  0  0
   -2.5047  -15.2750   31.5741 N   0  0  0  0  0  0  0  0  0  0  0  0
    1.2887   -6.3303   27.3335 C   0  0  0  0  0  0  0  0  0  0  0  0
   -1.6956   -8.2007   30.5545 C   0  0  2  0  0  0  0  0  0  0  0  0
    0.0138  -15.2585   31.1381 C   0  0  1  0  0  0  0  0  0  0  0  0
   -0.0915  -16.1532   30.0501 O   0  0  0  0  0  0  0  0  0  0  0  0
    1.2103   -7.6661   28.1962 C   0  0  2  0  0  0  0  0  0  0  0  0
    1.0539   -7.3952   29.6243 O   0  0  0  0  0  0  0  0  0  0  0  0
   -0.7382   -9.4346   30.3338 C   0  0  2  0  0  0  0  0  0  0  0  0
   -0.7650   -9.8487   28.9716 O   0  0  0  0  0  0  0  0  0  0  0  0
    1.2148  -14.3049   30.8522 C   0  0  0  0  0  0  0  0  0  0  0  0
    0.8954  -13.3785   29.7153 O   0  0  0  0  0  0  0  0  0  0  0  0
    2.3715   -8.6085   27.9830 C   0  0  0  0  0  0  0  0  0  0  0  0
    3.6375   -7.9430   28.1455 N   0  0  0  0  0  0  0  0  0  0  0  0
   -1.1826  -10.6243   31.2553 C   0  0  1  0  0  0  0  0  0  0  0  0
   -0.3039  -11.7234   31.0472 O   0  0  0  0  0  0  0  0  0  0  0  0
    0.3952  -16.1729   32.3103 C   0  0  0  0  0  0  0  0  0  0  0  0
   -3.0321  -15.3008   32.9486 C   0  0  0  0  0  0  0  0  0  0  0  0
  1  2  1  6  0  0  0
  1  6  1  0  0  0  0
  1 21  1  0  0  0  0
  3  4  1  1  0  0  0
  3  8  1  0  0  0  0
  3 28  1  0  0  0  0
  5  9  1  0  0  0  0
  5 25  1  0  0  0  0
  5 29  1  1  0  0  0
  6  7  1  6  0  0  0
  6 11  1  0  0  0  0
  8 12  1  0  0  0  0
  9 10  1  1  0  0  0
  9 14  1  0  0  0  0
 11 16  1  0  0  0  0
 12 13  1  6  0  0  0
 12 17  1  0  0  0  0
 14 15  1  6  0  0  0
 14 18  1  0  0  0  0
 15 31  1  0  0  0  0
 16 20  1  0  0  0  0
 17  2  1  6  0  0  0
 17 22  1  0  0  0  0
 18 19  1  6  0  0  0
 18 24  1  0  0  0  0
 18 30  1  0  0  0  0
 20 21  1  0  0  0  0
 20 26  1  1  0  0  0
 22 23  1  6  0  0  0
 22 28  1  0  0  0  0
 24 25  1  0  0  0  0
 26 27  1  0  0  0  0
 28 29  1  1  0  0  0
M  END
>  <CHROM.1>
-168.27410131,-76.05585274,-131.43128266,55.17295353,51.95618248,165.52441483
-0.50221580,-10.37344933,30.40982101,1.40536718,0.75287741,-0.14057827

>  <Name>
2et3_lig

>  <RI>
0

>  <Rbt.Current_Directory>
/home/itssahil/PROJECTS/Mol_Feturizer/New_Systems/rnas/2et3

>  <Rbt.Executable>
rbdock ($Id: //depot/dev/client3/rdock/2013.1/src/exe/rbdock.cxx#4 $)

>  <Rbt.Library>
libRbt.so (2013.1, Build901 2013/11/27)

>  <Rbt.Parameter_File>
/export/apps/rDock/src/rDock_2013.1_src/data/scripts/dock_solv.prm

>  <Rbt.Receptor>
prm/pocket_docking_6.prm

>  <SCORE>
-24.2398

>  <SCORE.INTER>
-15.7904

>  <SCORE.INTER.CONST>
1

>  <SCORE.INTER.POLAR>
-0.936547

>  <SCORE.INTER.ROT>
6

>  <SCORE.INTER.SOLV>
13.7685

>  <SCORE.INTER.VDW>
-19.5946

>  <SCORE.INTER.norm>
-0.509366

>  <SCORE.INTRA>
-8.44947

>  <SCORE.INTRA.DIHEDRAL>
-17.8385

>  <SCORE.INTRA.DIHEDRAL.0>
22.2484

>  <SCORE.INTRA.POLAR>
0

>  <SCORE.INTRA.POLAR.0>
0

>  <SCORE.INTRA.REPUL>
0

>  <SCORE.INTRA.REPUL.0>
0

>  <SCORE.INTRA.SOLV>
-0.074955

>  <SCORE.INTRA.SOLV.lig_0>
-75.7198

>  <SCORE.INTRA.VDW>
0.507238

>  <SCORE.INTRA.VDW.0>
-3.34171

>  <SCORE.INTRA.norm>
-0.272564

>  <SCORE.RESTR>
0

>  <SCORE.RESTR.CAVITY>
0

>  <SCORE.RESTR.norm>
0

>  <SCORE.SYSTEM>
0

>  <SCORE.SYSTEM.CONST>
0

>  <SCORE.SYSTEM.DIHEDRAL>
0

>  <SCORE.SYSTEM.SOLV>
0

>  <SCORE.SYSTEM.norm>
0

>  <SCORE.heavy>
31

>  <SCORE.norm>
-0.78193

>  <RMSD>
5.413

$$$$
2et3_lig
 OpenBabel11021811423D
libRbt.so/2013.1/901 2013/11/27
 31 33  0  0  0  0  0  0  0  0999 V2000
    0.8352   -7.8349   28.8879 C   0  0  2  0  0  0  0  0  0  0  0  0
    0.6096   -7.1181   30.1295 O   0  0  0  0  0  0  0  0  0  0  0  0
   -1.5135   -8.8052   33.4389 C   0  0  2  0  0  0  0  0  0  0  0  0
   -2.6104   -9.1994   34.2677 N   0  0  0  0  0  0  0  0  0  0  0  0
   -2.3965  -11.8379   31.4355 C   0  0  2  0  0  0  0  0  0  0  0  0
    2.0121   -7.2071   28.1335 C   0  0  2  0  0  0  0  0  0  0  0  0
    3.1575   -7.2115   28.9903 N   0  0  0  0  0  0  0  0  0  0  0  0
   -1.5174   -7.2514   33.2720 C   0  0  0  0  0  0  0  0  0  0  0  0
   -2.3538  -13.1975   32.1672 C   0  0  2  0  0  0  0  0  0  0  0  0
   -2.9031  -13.0402   33.4564 O   0  0  0  0  0  0  0  0  0  0  0  0
    1.6460   -5.7603   27.6558 C   0  0  0  0  0  0  0  0  0  0  0  0
   -0.3191   -6.8094   32.3545 C   0  0  2  0  0  0  0  0  0  0  0  0
   -0.3186   -5.3466   32.1938 N   0  0  0  0  0  0  0  0  0  0  0  0
   -0.8449  -13.6740   32.2240 C   0  0  1  0  0  0  0  0  0  0  0  0
   -0.7068  -14.9713   32.9635 N   0  0  0  0  0  0  0  0  0  0  0  0
    0.4094   -5.8630   26.7087 C   0  0  0  0  0  0  0  0  0  0  0  0
   -0.4367   -7.5229   30.9532 C   0  0  2  0  0  0  0  0  0  0  0  0
   -0.2485  -13.8247   30.7255 C   0  0  1  0  0  0  0  0  0  0  0  0
   -0.9464  -14.8092   29.9913 O   0  0  0  0  0  0  0  0  0  0  0  0
   -0.7868   -6.5444   27.5083 C   0  0  2  0  0  0  0  0  0  0  0  0
   -0.4099   -7.8396   28.0719 O   0  0  0  0  0  0  0  0  0  0  0  0
   -0.4324   -9.0872   31.1551 C   0  0  2  0  0  0  0  0  0  0  0  0
   -0.5342   -9.7519   29.8999 O   0  0  0  0  0  0  0  0  0  0  0  0
   -0.4122  -12.4682   29.9727 C   0  0  0  0  0  0  0  0  0  0  0  0
   -1.8288  -11.9806   30.0636 O   0  0  0  0  0  0  0  0  0  0  0  0
   -2.0604   -6.6903   26.7092 C   0  0  0  0  0  0  0  0  0  0  0  0
   -3.1093   -7.3030   27.4813 N   0  0  0  0  0  0  0  0  0  0  0  0
   -1.6327   -9.5085   32.0737 C   0  0  1  0  0  0  0  0  0  0  0  0
   -1.6072  -10.9198   32.2493 O   0  0  0  0  0  0  0  0  0  0  0  0
    1.2160  -14.2673   30.6045 C   0  0  0  0  0  0  0  0  0  0  0  0
   -1.5734  -16.0826   32.5368 C   0  0  0  0  0  0  0  0  0  0  0  0
  1  2  1  1  0  0  0
  1  6  1  0  0  0  0
  1 21  1  0  0  0  0
  3  4  1  1  0  0  0
  3  8  1  0  0  0  0
  3 28  1  0  0  0  0
  5  9  1  0  0  0  0
  5 25  1  0  0  0  0
  5 29  1  1  0  0  0
  6  7  1  1  0  0  0
  6 11  1  0  0  0  0
  8 12  1  0  0  0  0
  9 10  1  1  0  0  0
  9 14  1  0  0  0  0
 11 16  1  0  0  0  0
 12 13  1  6  0  0  0
 12 17  1  0  0  0  0
 14 15  1  6  0  0  0
 14 18  1  0  0  0  0
 15 31  1  0  0  0  0
 16 20  1  0  0  0  0
 17  2  1  6  0  0  0
 17 22  1  0  0  0  0
 18 19  1  6  0  0  0
 18 24  1  0  0  0  0
 18 30  1  0  0  0  0
 20 21  1  0  0  0  0
 20 26  1  6  0  0  0
 22 23  1  6  0  0  0
 22 28  1  0  0  0  0
 24 25  1  0  0  0  0
 26 27  1  0  0  0  0
 28 29  1  1  0  0  0
M  END
>  <CHROM.1>
178.93962552,-166.19698030,51.92880837,168.75037506,-179.62886296,143.98757349
-0.70889866,-9.84836752,30.58323065,-1.07274018,-1.18051290,-3.10538111

>  <Name>
2et3_lig

>  <RI>
0

>  <Rbt.Current_Directory>
/home/itssahil/PROJECTS/Mol_Feturizer/New_Systems/rnas/2et3

>  <Rbt.Executable>
rbdock ($Id: //depot/dev/client3/rdock/2013.1/src/exe/rbdock.cxx#4 $)

>  <Rbt.Library>
libRbt.so (2013.1, Build901 2013/11/27)

>  <Rbt.Parameter_File>
/export/apps/rDock/src/rDock_2013.1_src/data/scripts/dock_solv.prm

>  <Rbt.Receptor>
prm/pocket_docking_6.prm

>  <SCORE>
-27.0693

>  <SCORE.INTER>
-21.838

>  <SCORE.INTER.CONST>
1

>  <SCORE.INTER.POLAR>
-2.12883

>  <SCORE.INTER.ROT>
6

>  <SCORE.INTER.SOLV>
15.8145

>  <SCORE.INTER.VDW>
-20.3341

>  <SCORE.INTER.norm>
-0.704453

>  <SCORE.INTRA>
-5.23131

>  <SCORE.INTRA.DIHEDRAL>
-15.8

>  <SCORE.INTRA.DIHEDRAL.0>
22.2484

>  <SCORE.INTRA.POLAR>
0

>  <SCORE.INTRA.POLAR.0>
0

>  <SCORE.INTRA.REPUL>
0

>  <SCORE.INTRA.REPUL.0>
0

>  <SCORE.INTRA.SOLV>
-3.19408

>  <SCORE.INTRA.SOLV.lig_0>
-75.7198

>  <SCORE.INTRA.VDW>
4.26572

>  <SCORE.INTRA.VDW.0>
-3.34171

>  <SCORE.INTRA.norm>
-0.168752

>  <SCORE.RESTR>
0

>  <SCORE.RESTR.CAVITY>
0

>  <SCORE.RESTR.norm>
0

>  <SCORE.SYSTEM>
0

>  <SCORE.SYSTEM.CONST>
0

>  <SCORE.SYSTEM.DIHEDRAL>
0

>  <SCORE.SYSTEM.SOLV>
0

>  <SCORE.SYSTEM.norm>
0

>  <SCORE.heavy>
31

>  <SCORE.norm>
-0.873204

>  <RMSD>
5.433

$$$$
2et3_lig
 OpenBabel11021811423D
libRbt.so/2013.1/901 2013/11/27
 31 33  0  0  0  0  0  0  0  0999 V2000
   -1.4296   -6.4144   33.5352 C   0  0  2  0  0  0  0  0  0  0  0  0
   -1.0645   -6.6487   32.1503 O   0  0  0  0  0  0  0  0  0  0  0  0
   -0.3668  -10.3511   30.1225 C   0  0  2  0  0  0  0  0  0  0  0  0
    0.2377  -11.6032   29.7874 N   0  0  0  0  0  0  0  0  0  0  0  0
   -2.5356  -11.7456   32.9542 C   0  0  2  0  0  0  0  0  0  0  0  0
   -2.2978   -5.1556   33.6364 C   0  0  2  0  0  0  0  0  0  0  0  0
   -3.4355   -5.3165   32.7844 N   0  0  0  0  0  0  0  0  0  0  0  0
    0.6788   -9.2030   29.9471 C   0  0  0  0  0  0  0  0  0  0  0  0
   -2.8265  -13.2623   32.9301 C   0  0  2  0  0  0  0  0  0  0  0  0
   -1.6055  -13.9603   32.8282 O   0  0  0  0  0  0  0  0  0  0  0  0
   -1.4627   -3.8839   33.2611 C   0  0  0  0  0  0  0  0  0  0  0  0
    0.0250   -7.8228   30.3219 C   0  0  2  0  0  0  0  0  0  0  0  0
    1.0060   -6.7380   30.1588 N   0  0  0  0  0  0  0  0  0  0  0  0
   -3.7781  -13.5572   31.6994 C   0  0  1  0  0  0  0  0  0  0  0  0
   -4.0744  -15.0219   31.5738 N   0  0  0  0  0  0  0  0  0  0  0  0
   -0.2673   -3.7794   34.2595 C   0  0  0  0  0  0  0  0  0  0  0  0
   -0.5043   -7.8755   31.8064 C   0  0  2  0  0  0  0  0  0  0  0  0
   -5.1590  -12.7236   31.8470 C   0  0  1  0  0  0  0  0  0  0  0  0
   -5.8738  -13.1135   33.0014 O   0  0  0  0  0  0  0  0  0  0  0  0
    0.5994   -5.1107   34.1543 C   0  0  2  0  0  0  0  0  0  0  0  0
   -0.2031   -6.3131   34.3727 O   0  0  0  0  0  0  0  0  0  0  0  0
   -1.5542   -9.0436   31.9514 C   0  0  2  0  0  0  0  0  0  0  0  0
   -2.0484   -9.1067   33.2854 O   0  0  0  0  0  0  0  0  0  0  0  0
   -4.8262  -11.2060   31.9865 C   0  0  0  0  0  0  0  0  0  0  0  0
   -3.8130  -10.9844   33.0714 O   0  0  0  0  0  0  0  0  0  0  0  0
    1.8070   -5.1353   35.0613 C   0  0  0  0  0  0  0  0  0  0  0  0
    2.6475   -3.9834   34.8646 N   0  0  0  0  0  0  0  0  0  0  0  0
   -0.8847  -10.4111   31.5719 C   0  0  1  0  0  0  0  0  0  0  0  0
   -1.8483  -11.4493   31.7020 O   0  0  0  0  0  0  0  0  0  0  0  0
   -6.1903  -12.8876   30.7222 C   0  0  0  0  0  0  0  0  0  0  0  0
   -3.1728  -15.8185   30.7249 C   0  0  0  0  0  0  0  0  0  0  0  0
  1  2  1  6  0  0  0
  1  6  1  0  0  0  0
  1 21  1  0  0  0  0
  3  4  1  1  0  0  0
  3  8  1  0  0  0  0
  3 28  1  0  0  0  0
  5  9  1  0  0  0  0
  5 25  1  0  0  0  0
  5 29  1  6  0  0  0
  6  7  1  6  0  0  0
  6 11  1  0  0  0  0
  8 12  1  0  0  0  0
  9 10  1  6  0  0  0
  9 14  1  0  0  0  0
 11 16  1  0  0  0  0
 12 13  1  1  0  0  0
 12 17  1  0  0  0  0
 14 15  1  1  0  0  0
 14 18  1  0  0  0  0
 15 31  1  0  0  0  0
 16 20  1  0  0  0  0
 17  2  1  6  0  0  0
 17 22  1  0  0  0  0
 18 19  1  1  0  0  0
 18 24  1  0  0  0  0
 18 30  1  0  0  0  0
 20 21  1  0  0  0  0
 20 26  1  1  0  0  0
 22 23  1  1  0  0  0
 22 28  1  0  0  0  0
 24 25  1  0  0  0  0
 26 27  1  0  0  0  0
 28 29  1  6  0  0  0
M  END
>  <CHROM.1>
-167.47137450,-149.33145613,-90.98325214,-170.79434026,-54.29067404,-179.21820536
-1.77459144,-9.38299766,32.34060168,1.10168919,0.39133072,0.40170691

>  <Name>
2et3_lig

>  <RI>
3.86414e+07

>  <Rbt.Current_Directory>
/home/itssahil/PROJECTS/Mol_Feturizer/New_Systems/rnas/2et3

>  <Rbt.Executable>
rbdock ($Id: //depot/dev/client3/rdock/2013.1/src/exe/rbdock.cxx#4 $)

>  <Rbt.Library>
libRbt.so (2013.1, Build901 2013/11/27)

>  <Rbt.Parameter_File>
/export/apps/rDock/src/rDock_2013.1_src/data/scripts/dock_solv.prm

>  <Rbt.Receptor>
prm/pocket_docking_8.prm

>  <SCORE>
-23.7961

>  <SCORE.INTER>
-15.2931

>  <SCORE.INTER.CONST>
1

>  <SCORE.INTER.POLAR>
-3.12179

>  <SCORE.INTER.ROT>
6

>  <SCORE.INTER.SOLV>
14.9464

>  <SCORE.INTER.VDW>
-12.3716

>  <SCORE.INTER.norm>
-0.493325

>  <SCORE.INTRA>
-8.50307

>  <SCORE.INTRA.DIHEDRAL>
-16.4508

>  <SCORE.INTRA.DIHEDRAL.0>
22.2484

>  <SCORE.INTRA.POLAR>
0

>  <SCORE.INTRA.POLAR.0>
0

>  <SCORE.INTRA.REPUL>
0

>  <SCORE.INTRA.REPUL.0>
0

>  <SCORE.INTRA.SOLV>
-3.62421

>  <SCORE.INTRA.SOLV.lig_0>
-75.7198

>  <SCORE.INTRA.VDW>
1.53446

>  <SCORE.INTRA.VDW.0>
-3.34171

>  <SCORE.INTRA.norm>
-0.274292

>  <SCORE.RESTR>
0

>  <SCORE.RESTR.CAVITY>
0

>  <SCORE.RESTR.norm>
0

>  <SCORE.SYSTEM>
0

>  <SCORE.SYSTEM.CONST>
0

>  <SCORE.SYSTEM.DIHEDRAL>
0

>  <SCORE.SYSTEM.SOLV>
0

>  <SCORE.SYSTEM.norm>
0

>  <SCORE.heavy>
31

>  <SCORE.norm>
-0.767617

>  <RMSD>
5.452

$$$$
2et3_lig
 OpenBabel11021811423D
libRbt.so/2013.1/901 2013/11/27
 31 33  0  0  0  0  0  0  0  0999 V2000
    1.0279   -8.2135   28.4446 C   0  0  2  0  0  0  0  0  0  0  0  0
    1.0206   -7.7952   29.8343 O   0  0  0  0  0  0  0  0  0  0  0  0
   -1.2797   -9.2824   33.1210 C   0  0  2  0  0  0  0  0  0  0  0  0
   -2.4197   -9.6148   33.9183 N   0  0  0  0  0  0  0  0  0  0  0  0
   -2.5788  -12.1805   32.3896 C   0  0  2  0  0  0  0  0  0  0  0  0
    2.3976   -7.9212   27.8226 C   0  0  2  0  0  0  0  0  0  0  0  0
    3.4019   -8.5764   28.6024 N   0  0  0  0  0  0  0  0  0  0  0  0
   -1.2408   -7.7383   32.8839 C   0  0  0  0  0  0  0  0  0  0  0  0
   -2.1540  -13.6597   32.5205 C   0  0  2  0  0  0  0  0  0  0  0  0
   -1.1612  -13.7637   33.5165 O   0  0  0  0  0  0  0  0  0  0  0  0
    2.6407   -6.3755   27.7375 C   0  0  0  0  0  0  0  0  0  0  0  0
    0.0053   -7.3645   32.0004 C   0  0  2  0  0  0  0  0  0  0  0  0
    0.0463   -5.9110   31.7737 N   0  0  0  0  0  0  0  0  0  0  0  0
   -1.6246  -14.1423   31.1085 C   0  0  1  0  0  0  0  0  0  0  0  0
   -1.1450  -15.5623   31.1584 N   0  0  0  0  0  0  0  0  0  0  0  0
    1.5168   -5.7583   26.8473 C   0  0  0  0  0  0  0  0  0  0  0  0
   -0.0689   -8.1394   30.6290 C   0  0  2  0  0  0  0  0  0  0  0  0
   -2.7883  -13.9898   29.9921 C   0  0  1  0  0  0  0  0  0  0  0  0
   -3.9017  -14.8042   30.2960 O   0  0  0  0  0  0  0  0  0  0  0  0
    0.1062   -6.1020   27.5004 C   0  0  2  0  0  0  0  0  0  0  0  0
   -0.0741   -7.5382   27.7060 O   0  0  0  0  0  0  0  0  0  0  0  0
   -0.1091   -9.6924   30.9016 C   0  0  2  0  0  0  0  0  0  0  0  0
   -0.1726  -10.4123   29.6746 O   0  0  0  0  0  0  0  0  0  0  0  0
   -3.2783  -12.5090   29.9653 C   0  0  0  0  0  0  0  0  0  0  0  0
   -3.6370  -12.0456   31.3471 O   0  0  0  0  0  0  0  0  0  0  0  0
   -1.0771   -5.5455   26.7442 C   0  0  0  0  0  0  0  0  0  0  0  0
   -2.3186   -5.8118   27.4220 N   0  0  0  0  0  0  0  0  0  0  0  0
   -1.3568  -10.0455   31.7852 C   0  0  1  0  0  0  0  0  0  0  0  0
   -1.3712  -11.4474   32.0255 O   0  0  0  0  0  0  0  0  0  0  0  0
   -2.4305  -14.4032   28.5581 C   0  0  0  0  0  0  0  0  0  0  0  0
    0.1977  -15.7980   31.7150 C   0  0  0  0  0  0  0  0  0  0  0  0
  1  2  1  1  0  0  0
  1  6  1  0  0  0  0
  1 21  1  0  0  0  0
  3  4  1  1  0  0  0
  3  8  1  0  0  0  0
  3 28  1  0  0  0  0
  5  9  1  0  0  0  0
  5 25  1  0  0  0  0
  5 29  1  6  0  0  0
  6  7  1  1  0  0  0
  6 11  1  0  0  0  0
  8 12  1  0  0  0  0
  9 10  1  1  0  0  0
  9 14  1  0  0  0  0
 11 16  1  0  0  0  0
 12 13  1  6  0  0  0
 12 17  1  0  0  0  0
 14 15  1  1  0  0  0
 14 18  1  0  0  0  0
 15 31  1  0  0  0  0
 16 20  1  0  0  0  0
 17  2  1  6  0  0  0
 17 22  1  0  0  0  0
 18 19  1  1  0  0  0
 18 24  1  0  0  0  0
 18 30  1  0  0  0  0
 20 21  1  0  0  0  0
 20 26  1  6  0  0  0
 22 23  1  6  0  0  0
 22 28  1  0  0  0  0
 24 25  1  0  0  0  0
 26 27  1  0  0  0  0
 28 29  1  1  0  0  0
M  END
>  <CHROM.1>
-171.34793867,178.68442142,-79.56204182,-169.48329882,-176.29901884,81.75801452
-0.78513607,-10.11676986,30.32019859,-0.46332590,-1.18465062,-2.46873639

>  <Name>
2et3_lig

>  <RI>
0

>  <Rbt.Current_Directory>
/home/itssahil/PROJECTS/Mol_Feturizer/New_Systems/rnas/2et3

>  <Rbt.Executable>
rbdock ($Id: //depot/dev/client3/rdock/2013.1/src/exe/rbdock.cxx#4 $)

>  <Rbt.Library>
libRbt.so (2013.1, Build901 2013/11/27)

>  <Rbt.Parameter_File>
/export/apps/rDock/src/rDock_2013.1_src/data/scripts/dock_solv.prm

>  <Rbt.Receptor>
prm/pocket_docking_7.prm

>  <SCORE>
-25.2029

>  <SCORE.INTER>
-14.7852

>  <SCORE.INTER.CONST>
1

>  <SCORE.INTER.POLAR>
-1.03445

>  <SCORE.INTER.ROT>
6

>  <SCORE.INTER.SOLV>
15.3091

>  <SCORE.INTER.VDW>
-19.1116

>  <SCORE.INTER.norm>
-0.476941

>  <SCORE.INTRA>
-10.4177

>  <SCORE.INTRA.DIHEDRAL>
-18.7444

>  <SCORE.INTRA.DIHEDRAL.0>
22.2484

>  <SCORE.INTRA.POLAR>
0

>  <SCORE.INTRA.POLAR.0>
0

>  <SCORE.INTRA.REPUL>
0

>  <SCORE.INTRA.REPUL.0>
0

>  <SCORE.INTRA.SOLV>
-2.81478

>  <SCORE.INTRA.SOLV.lig_0>
-75.7198

>  <SCORE.INTRA.VDW>
0.36188

>  <SCORE.INTRA.VDW.0>
-3.34171

>  <SCORE.INTRA.norm>
-0.336055

>  <SCORE.RESTR>
0

>  <SCORE.RESTR.CAVITY>
0

>  <SCORE.RESTR.norm>
0

>  <SCORE.SYSTEM>
0

>  <SCORE.SYSTEM.CONST>
0

>  <SCORE.SYSTEM.DIHEDRAL>
0

>  <SCORE.SYSTEM.SOLV>
0

>  <SCORE.SYSTEM.norm>
0

>  <SCORE.heavy>
31

>  <SCORE.norm>
-0.812996

>  <RMSD>
5.458

$$$$
2et3_lig
 OpenBabel11021811423D
libRbt.so/2013.1/901 2013/11/27
 31 33  0  0  0  0  0  0  0  0999 V2000
   -0.7923   -6.4598   29.1650 C   0  0  2  0  0  0  0  0  0  0  0  0
   -1.2144   -5.1178   29.5215 O   0  0  0  0  0  0  0  0  0  0  0  0
   -4.4536   -3.8221   31.9984 C   0  0  2  0  0  0  0  0  0  0  0  0
   -5.7917   -3.6406   32.4697 N   0  0  0  0  0  0  0  0  0  0  0  0
   -4.1250   -5.0748   34.4904 C   0  0  2  0  0  0  0  0  0  0  0  0
    0.6227   -6.4193   28.5781 C   0  0  2  0  0  0  0  0  0  0  0  0
    1.4935   -5.8004   29.5294 N   0  0  0  0  0  0  0  0  0  0  0  0
   -4.3106   -3.1897   30.5765 C   0  0  0  0  0  0  0  0  0  0  0  0
   -2.6207   -4.7597   34.6441 C   0  0  2  0  0  0  0  0  0  0  0  0
   -2.1838   -4.0504   33.5064 O   0  0  0  0  0  0  0  0  0  0  0  0
    0.6242   -5.6619   27.2064 C   0  0  0  0  0  0  0  0  0  0  0  0
   -2.8440   -3.3923   30.0464 C   0  0  2  0  0  0  0  0  0  0  0  0
   -2.7043   -2.7988   28.7071 N   0  0  0  0  0  0  0  0  0  0  0  0
   -1.8496   -6.1320   34.8147 C   0  0  1  0  0  0  0  0  0  0  0  0
   -0.3691   -5.9194   34.9239 N   0  0  0  0  0  0  0  0  0  0  0  0
   -0.3269   -6.4255   26.2322 C   0  0  0  0  0  0  0  0  0  0  0  0
   -2.5040   -4.9317   30.0108 C   0  0  2  0  0  0  0  0  0  0  0  0
   -2.3934   -6.9214   36.1204 C   0  0  1  0  0  0  0  0  0  0  0  0
   -2.1556   -6.1850   37.3022 O   0  0  0  0  0  0  0  0  0  0  0  0
   -1.7805   -6.4778   26.8796 C   0  0  2  0  0  0  0  0  0  0  0  0
   -1.7699   -7.0641   28.2188 O   0  0  0  0  0  0  0  0  0  0  0  0
   -2.6594   -5.5404   31.4576 C   0  0  2  0  0  0  0  0  0  0  0  0
   -2.3529   -6.9310   31.4488 O   0  0  0  0  0  0  0  0  0  0  0  0
   -3.9350   -7.1218   35.9899 C   0  0  0  0  0  0  0  0  0  0  0  0
   -4.6140   -5.8178   35.6878 O   0  0  0  0  0  0  0  0  0  0  0  0
   -2.8118   -7.1789   26.0272 C   0  0  0  0  0  0  0  0  0  0  0  0
   -4.1225   -7.1237   26.6195 N   0  0  0  0  0  0  0  0  0  0  0  0
   -4.1271   -5.3272   31.9698 C   0  0  1  0  0  0  0  0  0  0  0  0
   -4.2448   -5.8757   33.2769 O   0  0  0  0  0  0  0  0  0  0  0  0
   -1.7557   -8.2847   36.4207 C   0  0  0  0  0  0  0  0  0  0  0  0
    0.2914   -5.2143   33.8128 C   0  0  0  0  0  0  0  0  0  0  0  0
  1  2  1  6  0  0  0
  1  6  1  0  0  0  0
  1 21  1  0  0  0  0
  3  4  1  6  0  0  0
  3  8  1  0  0  0  0
  3 28  1  0  0  0  0
  5  9  1  0  0  0  0
  5 25  1  0  0  0  0
  5 29  1  6  0  0  0
  6  7  1  1  0  0  0
  6 11  1  0  0  0  0
  8 12  1  0  0  0  0
  9 10  1  6  0  0  0
  9 14  1  0  0  0  0
 11 16  1  0  0  0  0
 12 13  1  6  0  0  0
 12 17  1  0  0  0  0
 14 15  1  1  0  0  0
 14 18  1  0  0  0  0
 15 31  1  0  0  0  0
 16 20  1  0  0  0  0
 17  2  1  1  0  0  0
 17 22  1  0  0  0  0
 18 19  1  1  0  0  0
 18 24  1  0  0  0  0
 18 30  1  0  0  0  0
 20 21  1  0  0  0  0
 20 26  1  6  0  0  0
 22 23  1  6  0  0  0
 22 28  1  0  0  0  0
 24 25  1  0  0  0  0
 26 27  1  0  0  0  0
 28 29  1  1  0  0  0
M  END
>  <CHROM.1>
176.75993905,-74.31757968,-57.53890668,-168.33480950,-176.34839005,-23.63584895
-2.31452060,-5.64914637,31.57639426,-1.36708089,-0.44425495,1.65912605

>  <Name>
2et3_lig

>  <RI>
2.5794e+07

>  <Rbt.Current_Directory>
/home/itssahil/PROJECTS/Mol_Feturizer/New_Systems/rnas/2et3

>  <Rbt.Executable>
rbdock ($Id: //depot/dev/client3/rdock/2013.1/src/exe/rbdock.cxx#4 $)

>  <Rbt.Library>
libRbt.so (2013.1, Build901 2013/11/27)

>  <Rbt.Parameter_File>
/export/apps/rDock/src/rDock_2013.1_src/data/scripts/dock_solv.prm

>  <Rbt.Receptor>
prm/pocket_docking_5.prm

>  <SCORE>
-18.6035

>  <SCORE.INTER>
-14.5993

>  <SCORE.INTER.CONST>
1

>  <SCORE.INTER.POLAR>
-1.78661

>  <SCORE.INTER.ROT>
6

>  <SCORE.INTER.SOLV>
15.5781

>  <SCORE.INTER.VDW>
-16.5702

>  <SCORE.INTER.norm>
-0.470947

>  <SCORE.INTRA>
-4.00411

>  <SCORE.INTRA.DIHEDRAL>
-15.577

>  <SCORE.INTRA.DIHEDRAL.0>
22.2484

>  <SCORE.INTRA.POLAR>
0

>  <SCORE.INTRA.POLAR.0>
0

>  <SCORE.INTRA.REPUL>
0

>  <SCORE.INTRA.REPUL.0>
0

>  <SCORE.INTRA.SOLV>
-0.804913

>  <SCORE.INTRA.SOLV.lig_0>
-75.7198

>  <SCORE.INTRA.VDW>
4.18686

>  <SCORE.INTRA.VDW.0>
-3.34171

>  <SCORE.INTRA.norm>
-0.129165

>  <SCORE.RESTR>
0

>  <SCORE.RESTR.CAVITY>
0

>  <SCORE.RESTR.norm>
0

>  <SCORE.SYSTEM>
0

>  <SCORE.SYSTEM.CONST>
0

>  <SCORE.SYSTEM.DIHEDRAL>
0

>  <SCORE.SYSTEM.SOLV>
0

>  <SCORE.SYSTEM.norm>
0

>  <SCORE.heavy>
31

>  <SCORE.norm>
-0.600111

>  <RMSD>
5.468

$$$$
2et3_lig
 OpenBabel11021811423D
libRbt.so/2013.1/901 2013/11/27
 31 33  0  0  0  0  0  0  0  0999 V2000
   -0.6780  -12.1823   32.0111 C   0  0  2  0  0  0  0  0  0  0  0  0
   -2.0404  -11.8948   31.6018 O   0  0  0  0  0  0  0  0  0  0  0  0
   -5.2781  -10.2223   33.8436 C   0  0  2  0  0  0  0  0  0  0  0  0
   -6.2717  -10.0815   34.8627 N   0  0  0  0  0  0  0  0  0  0  0  0
   -2.4488   -8.7495   35.9627 C   0  0  2  0  0  0  0  0  0  0  0  0
    0.2795  -11.9243   30.8428 C   0  0  2  0  0  0  0  0  0  0  0  0
    0.1079  -10.5743   30.4020 N   0  0  0  0  0  0  0  0  0  0  0  0
   -5.5357  -11.5387   33.0418 C   0  0  0  0  0  0  0  0  0  0  0  0
   -2.8564   -7.7581   37.0748 C   0  0  2  0  0  0  0  0  0  0  0  0
   -3.8506   -8.3548   37.8772 O   0  0  0  0  0  0  0  0  0  0  0  0
    0.0229  -12.9523   29.6884 C   0  0  0  0  0  0  0  0  0  0  0  0
   -4.4422  -11.7062   31.9240 C   0  0  2  0  0  0  0  0  0  0  0  0
   -4.6801  -12.9451   31.1661 N   0  0  0  0  0  0  0  0  0  0  0  0
   -3.3762   -6.4332   36.3809 C   0  0  1  0  0  0  0  0  0  0  0  0
   -3.8389   -5.4288   37.3938 N   0  0  0  0  0  0  0  0  0  0  0  0
    0.2621  -14.3863   30.2569 C   0  0  0  0  0  0  0  0  0  0  0  0
   -3.0107  -11.7247   32.5850 C   0  0  2  0  0  0  0  0  0  0  0  0
   -2.2113   -5.7911   35.4566 C   0  0  1  0  0  0  0  0  0  0  0  0
   -1.0891   -5.4183   36.2293 O   0  0  0  0  0  0  0  0  0  0  0  0
   -0.7238  -14.6157   31.4858 C   0  0  2  0  0  0  0  0  0  0  0  0
   -0.5830  -13.5817   32.5097 O   0  0  0  0  0  0  0  0  0  0  0  0
   -2.7823  -10.3861   33.3874 C   0  0  2  0  0  0  0  0  0  0  0  0
   -1.4921  -10.3804   33.9902 O   0  0  0  0  0  0  0  0  0  0  0  0
   -1.7388   -6.8556   34.4188 C   0  0  0  0  0  0  0  0  0  0  0  0
   -1.3894   -8.1441   35.1048 O   0  0  0  0  0  0  0  0  0  0  0  0
   -0.6092  -15.9801   32.1237 C   0  0  0  0  0  0  0  0  0  0  0  0
    0.2216  -15.9533   33.2989 N   0  0  0  0  0  0  0  0  0  0  0  0
   -3.8827  -10.2357   34.4958 C   0  0  1  0  0  0  0  0  0  0  0  0
   -3.6640   -9.0208   35.2025 O   0  0  0  0  0  0  0  0  0  0  0  0
   -2.5602   -4.5031   34.6983 C   0  0  0  0  0  0  0  0  0  0  0  0
   -5.2734   -5.4228   37.7260 C   0  0  0  0  0  0  0  0  0  0  0  0
  1  2  1  6  0  0  0
  1  6  1  0  0  0  0
  1 21  1  0  0  0  0
  3  4  1  1  0  0  0
  3  8  1  0  0  0  0
  3 28  1  0  0  0  0
  5  9  1  0  0  0  0
  5 25  1  0  0  0  0
  5 29  1  6  0  0  0
  6  7  1  6  0  0  0
  6 11  1  0  0  0  0
  8 12  1  0  0  0  0
  9 10  1  6  0  0  0
  9 14  1  0  0  0  0
 11 16  1  0  0  0  0
 12 13  1  1  0  0  0
 12 17  1  0  0  0  0
 14 15  1  1  0  0  0
 14 18  1  0  0  0  0
 15 31  1  0  0  0  0
 16 20  1  0  0  0  0
 17  2  1  6  0  0  0
 17 22  1  0  0  0  0
 18 19  1  1  0  0  0
 18 24  1  0  0  0  0
 18 30  1  0  0  0  0
 20 21  1  0  0  0  0
 20 26  1  1  0  0  0
 22 23  1  1  0  0  0
 22 28  1  0  0  0  0
 24 25  1  0  0  0  0
 26 27  1  0  0  0  0
 28 29  1  6  0  0  0
M  END
>  <CHROM.1>
-163.40163833,-152.61886131,-93.98889521,-168.96846493,98.00917149,177.99998006
-2.42163799,-10.13282011,33.81014652,-1.28355242,0.33107996,0.50145160

>  <Name>
2et3_lig

>  <RI>
3.86414e+07

>  <Rbt.Current_Directory>
/home/itssahil/PROJECTS/Mol_Feturizer/New_Systems/rnas/2et3

>  <Rbt.Executable>
rbdock ($Id: //depot/dev/client3/rdock/2013.1/src/exe/rbdock.cxx#4 $)

>  <Rbt.Library>
libRbt.so (2013.1, Build901 2013/11/27)

>  <Rbt.Parameter_File>
/export/apps/rDock/src/rDock_2013.1_src/data/scripts/dock_solv.prm

>  <Rbt.Receptor>
prm/pocket_docking_8.prm

>  <SCORE>
-21.4208

>  <SCORE.INTER>
-15.0531

>  <SCORE.INTER.CONST>
1

>  <SCORE.INTER.POLAR>
-1.49569

>  <SCORE.INTER.ROT>
6

>  <SCORE.INTER.SOLV>
16.9912

>  <SCORE.INTER.VDW>
-18.3135

>  <SCORE.INTER.norm>
-0.485583

>  <SCORE.INTRA>
-6.36778

>  <SCORE.INTRA.DIHEDRAL>
-12.7984

>  <SCORE.INTRA.DIHEDRAL.0>
22.2484

>  <SCORE.INTRA.POLAR>
0

>  <SCORE.INTRA.POLAR.0>
0

>  <SCORE.INTRA.REPUL>
0

>  <SCORE.INTRA.REPUL.0>
0

>  <SCORE.INTRA.SOLV>
-2.79596

>  <SCORE.INTRA.SOLV.lig_0>
-75.7198

>  <SCORE.INTRA.VDW>
1.42939

>  <SCORE.INTRA.VDW.0>
-3.34171

>  <SCORE.INTRA.norm>
-0.205412

>  <SCORE.RESTR>
0

>  <SCORE.RESTR.CAVITY>
0

>  <SCORE.RESTR.norm>
0

>  <SCORE.SYSTEM>
0

>  <SCORE.SYSTEM.CONST>
0

>  <SCORE.SYSTEM.DIHEDRAL>
0

>  <SCORE.SYSTEM.SOLV>
0

>  <SCORE.SYSTEM.norm>
0

>  <SCORE.heavy>
31

>  <SCORE.norm>
-0.690995

>  <RMSD>
5.483

$$$$
2et3_lig
 OpenBabel11021811423D
libRbt.so/2013.1/901 2013/11/27
 31 33  0  0  0  0  0  0  0  0999 V2000
    0.4729   -6.4717   29.1359 C   0  0  2  0  0  0  0  0  0  0  0  0
   -0.6925   -7.2997   28.8858 O   0  0  0  0  0  0  0  0  0  0  0  0
   -0.5726   -9.8670   32.3065 C   0  0  2  0  0  0  0  0  0  0  0  0
   -1.0105  -10.7968   33.3011 N   0  0  0  0  0  0  0  0  0  0  0  0
    0.1289  -12.6134   29.7364 C   0  0  2  0  0  0  0  0  0  0  0  0
    0.5635   -5.3703   28.0742 C   0  0  2  0  0  0  0  0  0  0  0  0
   -0.6572   -4.6246   28.0853 N   0  0  0  0  0  0  0  0  0  0  0  0
   -1.4427   -8.5712   32.3841 C   0  0  0  0  0  0  0  0  0  0  0  0
   -1.1005  -13.5259   29.9409 C   0  0  2  0  0  0  0  0  0  0  0  0
   -2.2629  -12.7279   29.9654 O   0  0  0  0  0  0  0  0  0  0  0  0
    0.8552   -5.9915   26.6655 C   0  0  0  0  0  0  0  0  0  0  0  0
   -0.9738   -7.5461   31.2876 C   0  0  2  0  0  0  0  0  0  0  0  0
   -1.7906   -6.3239   31.3563 N   0  0  0  0  0  0  0  0  0  0  0  0
   -0.9006  -14.3174   31.2975 C   0  0  1  0  0  0  0  0  0  0  0  0
   -2.0774  -15.1970   31.5979 N   0  0  0  0  0  0  0  0  0  0  0  0
    2.2138   -6.7559   26.7469 C   0  0  0  0  0  0  0  0  0  0  0  0
   -1.0857   -8.2106   29.8620 C   0  0  2  0  0  0  0  0  0  0  0  0
    0.4525  -15.2055   31.2336 C   0  0  1  0  0  0  0  0  0  0  0  0
    0.3793  -16.1808   30.2143 O   0  0  0  0  0  0  0  0  0  0  0  0
    2.1006   -7.8726   27.8760 C   0  0  2  0  0  0  0  0  0  0  0  0
    1.6980   -7.3168   29.1668 O   0  0  0  0  0  0  0  0  0  0  0  0
   -0.1999   -9.5148   29.8162 C   0  0  2  0  0  0  0  0  0  0  0  0
   -0.2837  -10.1295   28.5345 O   0  0  0  0  0  0  0  0  0  0  0  0
    1.6601  -14.2725   30.9101 C   0  0  0  0  0  0  0  0  0  0  0  0
    1.3722  -13.4364   29.6973 O   0  0  0  0  0  0  0  0  0  0  0  0
    3.3493   -8.7048   28.0495 C   0  0  0  0  0  0  0  0  0  0  0  0
    3.6006   -9.5380   26.9030 N   0  0  0  0  0  0  0  0  0  0  0  0
   -0.6811  -10.5238   30.9174 C   0  0  1  0  0  0  0  0  0  0  0  0
    0.1337  -11.6886   30.8647 O   0  0  0  0  0  0  0  0  0  0  0  0
    0.8012  -16.0268   32.4823 C   0  0  0  0  0  0  0  0  0  0  0  0
   -2.3913  -15.4368   33.0164 C   0  0  0  0  0  0  0  0  0  0  0  0
  1  2  1  6  0  0  0
  1  6  1  0  0  0  0
  1 21  1  0  0  0  0
  3  4  1  1  0  0  0
  3  8  1  0  0  0  0
  3 28  1  0  0  0  0
  5  9  1  0  0  0  0
  5 25  1  0  0  0  0
  5 29  1  1  0  0  0
  6  7  1  6  0  0  0
  6 11  1  0  0  0  0
  8 12  1  0  0  0  0
  9 10  1  1  0  0  0
  9 14  1  0  0  0  0
 11 16  1  0  0  0  0
 12 13  1  6  0  0  0
 12 17  1  0  0  0  0
 14 15  1  6  0  0  0
 14 18  1  0  0  0  0
 15 31  1  0  0  0  0
 16 20  1  0  0  0  0
 17  2  1  6  0  0  0
 17 22  1  0  0  0  0
 18 19  1  6  0  0  0
 18 24  1  0  0  0  0
 18 30  1  0  0  0  0
 20 21  1  0  0  0  0
 20 26  1  1  0  0  0
 22 23  1  6  0  0  0
 22 28  1  0  0  0  0
 24 25  1  0  0  0  0
 26 27  1  0  0  0  0
 28 29  1  1  0  0  0
M  END
>  <CHROM.1>
-169.04212098,-80.93088576,-149.42542613,41.83284480,-67.55816144,172.84947231
0.05425935,-10.43843852,30.00429185,1.38806045,0.75997749,-0.22618203

>  <Name>
2et3_lig

>  <RI>
0

>  <Rbt.Current_Directory>
/home/itssahil/PROJECTS/Mol_Feturizer/New_Systems/rnas/2et3

>  <Rbt.Executable>
rbdock ($Id: //depot/dev/client3/rdock/2013.1/src/exe/rbdock.cxx#4 $)

>  <Rbt.Library>
libRbt.so (2013.1, Build901 2013/11/27)

>  <Rbt.Parameter_File>
/export/apps/rDock/src/rDock_2013.1_src/data/scripts/dock_solv.prm

>  <Rbt.Receptor>
prm/blind_docking_100.prm

>  <SCORE>
-15.8947

>  <SCORE.INTER>
-11.3897

>  <SCORE.INTER.CONST>
1

>  <SCORE.INTER.POLAR>
-0.938083

>  <SCORE.INTER.ROT>
6

>  <SCORE.INTER.SOLV>
18.2556

>  <SCORE.INTER.VDW>
-18.1514

>  <SCORE.INTER.norm>
-0.36741

>  <SCORE.INTRA>
-7.90631

>  <SCORE.INTRA.DIHEDRAL>
-17.0063

>  <SCORE.INTRA.DIHEDRAL.0>
22.2484

>  <SCORE.INTRA.POLAR>
0

>  <SCORE.INTRA.POLAR.0>
0

>  <SCORE.INTRA.REPUL>
0

>  <SCORE.INTRA.REPUL.0>
0

>  <SCORE.INTRA.SOLV>
-1.47387

>  <SCORE.INTRA.SOLV.lig_0>
-75.7198

>  <SCORE.INTRA.VDW>
1.33376

>  <SCORE.INTRA.VDW.0>
-3.34171

>  <SCORE.INTRA.norm>
-0.255042

>  <SCORE.RESTR>
3.40131

>  <SCORE.RESTR.CAVITY>
3.40131

>  <SCORE.RESTR.norm>
0.10972

>  <SCORE.SYSTEM>
0

>  <SCORE.SYSTEM.CONST>
0

>  <SCORE.SYSTEM.DIHEDRAL>
0

>  <SCORE.SYSTEM.SOLV>
0

>  <SCORE.SYSTEM.norm>
0

>  <SCORE.heavy>
31

>  <SCORE.norm>
-0.512732

>  <RMSD>
5.494

$$$$
2et3_lig
 OpenBabel11021811423D
libRbt.so/2013.1/901 2013/11/27
 31 33  0  0  0  0  0  0  0  0999 V2000
   -0.2301  -11.1356   31.1110 C   0  0  2  0  0  0  0  0  0  0  0  0
   -1.5764  -10.8824   31.5901 O   0  0  0  0  0  0  0  0  0  0  0  0
   -3.3433   -9.2257   35.1171 C   0  0  2  0  0  0  0  0  0  0  0  0
   -3.4956   -8.8384   36.4854 N   0  0  0  0  0  0  0  0  0  0  0  0
   -1.4807   -6.2385   35.4485 C   0  0  2  0  0  0  0  0  0  0  0  0
   -0.1896  -11.0026   29.5849 C   0  0  2  0  0  0  0  0  0  0  0  0
   -0.6683   -9.7029   29.2274 N   0  0  0  0  0  0  0  0  0  0  0  0
   -3.1840  -10.7777   35.0285 C   0  0  0  0  0  0  0  0  0  0  0  0
   -2.2112   -4.8784   35.4978 C   0  0  2  0  0  0  0  0  0  0  0  0
   -3.5018   -5.0720   36.0319 O   0  0  0  0  0  0  0  0  0  0  0  0
   -1.0332  -12.1401   28.9143 C   0  0  0  0  0  0  0  0  0  0  0  0
   -3.0070  -11.2120   33.5274 C   0  0  2  0  0  0  0  0  0  0  0  0
   -2.8560  -12.6732   33.4386 N   0  0  0  0  0  0  0  0  0  0  0  0
   -2.2639   -4.2991   34.0252 C   0  0  1  0  0  0  0  0  0  0  0  0
   -3.0020   -2.9947   33.9750 N   0  0  0  0  0  0  0  0  0  0  0  0
   -0.4189  -13.5110   29.3388 C   0  0  0  0  0  0  0  0  0  0  0  0
   -1.7504  -10.4846   32.9124 C   0  0  2  0  0  0  0  0  0  0  0  0
   -0.7638   -4.1092   33.4441 C   0  0  1  0  0  0  0  0  0  0  0  0
   -0.0305   -3.1759   34.2099 O   0  0  0  0  0  0  0  0  0  0  0  0
   -0.4470  -13.6092   30.9276 C   0  0  2  0  0  0  0  0  0  0  0  0
    0.2254  -12.4782   31.5648 O   0  0  0  0  0  0  0  0  0  0  0  0
   -1.9401   -8.9223   33.0187 C   0  0  2  0  0  0  0  0  0  0  0  0
   -0.8166   -8.2451   32.4649 O   0  0  0  0  0  0  0  0  0  0  0  0
   -0.0126   -5.4745   33.5158 C   0  0  0  0  0  0  0  0  0  0  0  0
   -0.1073   -6.0584   34.8952 O   0  0  0  0  0  0  0  0  0  0  0  0
    0.1063  -14.9031   31.4766 C   0  0  0  0  0  0  0  0  0  0  0  0
   -0.1758  -15.0528   32.8801 N   0  0  0  0  0  0  0  0  0  0  0  0
   -2.1167   -8.5088   34.5220 C   0  0  1  0  0  0  0  0  0  0  0  0
   -2.2934   -7.0993   34.5959 O   0  0  0  0  0  0  0  0  0  0  0  0
   -0.6389   -3.5669   32.0138 C   0  0  0  0  0  0  0  0  0  0  0  0
   -4.4292   -3.0446   33.6163 C   0  0  0  0  0  0  0  0  0  0  0  0
  1  2  1  6  0  0  0
  1  6  1  0  0  0  0
  1 21  1  0  0  0  0
  3  4  1  1  0  0  0
  3  8  1  0  0  0  0
  3 28  1  0  0  0  0
  5  9  1  0  0  0  0
  5 25  1  0  0  0  0
  5 29  1  6  0  0  0
  6  7  1  1  0  0  0
  6 11  1  0  0  0  0
  8 12  1  0  0  0  0
  9 10  1  6  0  0  0
  9 14  1  0  0  0  0
 11 16  1  0  0  0  0
 12 13  1  1  0  0  0
 12 17  1  0  0  0  0
 14 15  1  1  0  0  0
 14 18  1  0  0  0  0
 15 31  1  0  0  0  0
 16 20  1  0  0  0  0
 17  2  1  6  0  0  0
 17 22  1  0  0  0  0
 18 19  1  1  0  0  0
 18 24  1  0  0  0  0
 18 30  1  0  0  0  0
 20 21  1  0  0  0  0
 20 26  1  6  0  0  0
 22 23  1  1  0  0  0
 22 28  1  0  0  0  0
 24 25  1  0  0  0  0
 26 27  1  0  0  0  0
 28 29  1  6  0  0  0
M  END
>  <CHROM.1>
-157.41439954,-166.36553709,-95.51748692,-139.22531643,-168.76383259,112.84021492
-1.52845164,-8.63937692,33.05536716,-1.28909495,1.04237047,0.11393068

>  <Name>
2et3_lig

>  <RI>
0

>  <Rbt.Current_Directory>
/home/itssahil/PROJECTS/Mol_Feturizer/New_Systems/rnas/2et3

>  <Rbt.Executable>
rbdock ($Id: //depot/dev/client3/rdock/2013.1/src/exe/rbdock.cxx#4 $)

>  <Rbt.Library>
libRbt.so (2013.1, Build901 2013/11/27)

>  <Rbt.Parameter_File>
/export/apps/rDock/src/rDock_2013.1_src/data/scripts/dock_solv.prm

>  <Rbt.Receptor>
prm/pocket_docking_7.prm

>  <SCORE>
-17.6206

>  <SCORE.INTER>
-13.8694

>  <SCORE.INTER.CONST>
1

>  <SCORE.INTER.POLAR>
-1.76356

>  <SCORE.INTER.ROT>
6

>  <SCORE.INTER.SOLV>
12.6485

>  <SCORE.INTER.VDW>
-15.1839

>  <SCORE.INTER.norm>
-0.447399

>  <SCORE.INTRA>
-3.75121

>  <SCORE.INTRA.DIHEDRAL>
-5.31003

>  <SCORE.INTRA.DIHEDRAL.0>
22.2484

>  <SCORE.INTRA.POLAR>
0

>  <SCORE.INTRA.POLAR.0>
0

>  <SCORE.INTRA.REPUL>
0

>  <SCORE.INTRA.REPUL.0>
0

>  <SCORE.INTRA.SOLV>
-0.178183

>  <SCORE.INTRA.SOLV.lig_0>
-75.7198

>  <SCORE.INTRA.VDW>
-1.0071

>  <SCORE.INTRA.VDW.0>
-3.34171

>  <SCORE.INTRA.norm>
-0.121007

>  <SCORE.RESTR>
0

>  <SCORE.RESTR.CAVITY>
0

>  <SCORE.RESTR.norm>
0

>  <SCORE.SYSTEM>
0

>  <SCORE.SYSTEM.CONST>
0

>  <SCORE.SYSTEM.DIHEDRAL>
0

>  <SCORE.SYSTEM.SOLV>
0

>  <SCORE.SYSTEM.norm>
0

>  <SCORE.heavy>
31

>  <SCORE.norm>
-0.568406

>  <RMSD>
5.510

$$$$
2et3_lig
 OpenBabel11021811423D
libRbt.so/2013.1/901 2013/11/27
 31 33  0  0  0  0  0  0  0  0999 V2000
   -0.4053   -5.4734   33.3170 C   0  0  2  0  0  0  0  0  0  0  0  0
   -1.8021   -5.5752   33.6975 O   0  0  0  0  0  0  0  0  0  0  0  0
   -1.7567   -9.4222   35.5697 C   0  0  2  0  0  0  0  0  0  0  0  0
   -2.2289  -10.5863   36.2533 N   0  0  0  0  0  0  0  0  0  0  0  0
   -2.8595  -10.5961   32.0950 C   0  0  2  0  0  0  0  0  0  0  0  0
   -0.0972   -4.0457   32.8532 C   0  0  2  0  0  0  0  0  0  0  0  0
   -0.4522   -3.1391   33.9011 N   0  0  0  0  0  0  0  0  0  0  0  0
   -1.9747   -8.1637   36.4701 C   0  0  0  0  0  0  0  0  0  0  0  0
   -3.1190  -12.1100   31.9330 C   0  0  2  0  0  0  0  0  0  0  0  0
   -4.0036  -12.5331   32.9463 O   0  0  0  0  0  0  0  0  0  0  0  0
   -0.8600   -3.7268   31.5221 C   0  0  0  0  0  0  0  0  0  0  0  0
   -1.4661   -6.8770   35.7226 C   0  0  2  0  0  0  0  0  0  0  0  0
   -1.6697   -5.6887   36.5664 N   0  0  0  0  0  0  0  0  0  0  0  0
   -1.7251  -12.8561   32.0186 C   0  0  1  0  0  0  0  0  0  0  0  0
   -1.8915  -14.3430   31.9170 N   0  0  0  0  0  0  0  0  0  0  0  0
   -0.3861   -4.7453   30.4381 C   0  0  0  0  0  0  0  0  0  0  0  0
   -2.2331   -6.7248   34.3532 C   0  0  2  0  0  0  0  0  0  0  0  0
   -0.7349  -12.3286   30.8503 C   0  0  1  0  0  0  0  0  0  0  0  0
   -1.2563  -12.6116   29.5683 O   0  0  0  0  0  0  0  0  0  0  0  0
   -0.6912   -6.2186   30.9586 C   0  0  2  0  0  0  0  0  0  0  0  0
   -0.0915   -6.4798   32.2660 O   0  0  0  0  0  0  0  0  0  0  0  0
   -1.9956   -8.0094   33.4693 C   0  0  2  0  0  0  0  0  0  0  0  0
   -2.6774   -7.8911   32.2248 O   0  0  0  0  0  0  0  0  0  0  0  0
   -0.5851  -10.7804   30.9691 C   0  0  0  0  0  0  0  0  0  0  0  0
   -1.9325  -10.1217   31.0271 O   0  0  0  0  0  0  0  0  0  0  0  0
   -0.2955   -7.3098   29.9919 C   0  0  0  0  0  0  0  0  0  0  0  0
    1.1068   -7.2579   29.6712 N   0  0  0  0  0  0  0  0  0  0  0  0
   -2.5072   -9.2818   34.2318 C   0  0  1  0  0  0  0  0  0  0  0  0
   -2.2779  -10.4289   33.4225 O   0  0  0  0  0  0  0  0  0  0  0  0
    0.6700  -12.9447   30.8028 C   0  0  0  0  0  0  0  0  0  0  0  0
   -2.4401  -15.0387   33.0931 C   0  0  0  0  0  0  0  0  0  0  0  0
  1  2  1  6  0  0  0
  1  6  1  0  0  0  0
  1 21  1  0  0  0  0
  3  4  1  1  0  0  0
  3  8  1  0  0  0  0
  3 28  1  0  0  0  0
  5  9  1  0  0  0  0
  5 25  1  0  0  0  0
  5 29  1  1  0  0  0
  6  7  1  1  0  0  0
  6 11  1  0  0  0  0
  8 12  1  0  0  0  0
  9 10  1  1  0  0  0
  9 14  1  0  0  0  0
 11 16  1  0  0  0  0
 12 13  1  1  0  0  0
 12 17  1  0  0  0  0
 14 15  1  6  0  0  0
 14 18  1  0  0  0  0
 15 31  1  0  0  0  0
 16 20  1  0  0  0  0
 17  2  1  6  0  0  0
 17 22  1  0  0  0  0
 18 19  1  6  0  0  0
 18 24  1  0  0  0  0
 18 30  1  0  0  0  0
 20 21  1  0  0  0  0
 20 26  1  6  0  0  0
 22 23  1  6  0  0  0
 22 28  1  0  0  0  0
 24 25  1  0  0  0  0
 26 27  1  0  0  0  0
 28 29  1  6  0  0  0
M  END
>  <CHROM.1>
-169.56415191,-146.66623971,-73.96225036,61.36035495,58.30813358,179.74360024
-1.45168375,-8.85430875,32.68571048,-1.20734963,-1.17446650,-2.65603125

>  <Name>
2et3_lig

>  <RI>
2.5794e+07

>  <Rbt.Current_Directory>
/home/itssahil/PROJECTS/Mol_Feturizer/New_Systems/rnas/2et3

>  <Rbt.Executable>
rbdock ($Id: //depot/dev/client3/rdock/2013.1/src/exe/rbdock.cxx#4 $)

>  <Rbt.Library>
libRbt.so (2013.1, Build901 2013/11/27)

>  <Rbt.Parameter_File>
/export/apps/rDock/src/rDock_2013.1_src/data/scripts/dock_solv.prm

>  <Rbt.Receptor>
prm/pocket_docking_5.prm

>  <SCORE>
-17.6946

>  <SCORE.INTER>
-9.99831

>  <SCORE.INTER.CONST>
1

>  <SCORE.INTER.POLAR>
-0.938083

>  <SCORE.INTER.ROT>
6

>  <SCORE.INTER.SOLV>
13.4699

>  <SCORE.INTER.VDW>
-15.6286

>  <SCORE.INTER.norm>
-0.322526

>  <SCORE.INTRA>
-7.69634

>  <SCORE.INTRA.DIHEDRAL>
-17.1681

>  <SCORE.INTRA.DIHEDRAL.0>
22.2484

>  <SCORE.INTRA.POLAR>
0

>  <SCORE.INTRA.POLAR.0>
0

>  <SCORE.INTRA.REPUL>
0

>  <SCORE.INTRA.REPUL.0>
0

>  <SCORE.INTRA.SOLV>
-0.91655

>  <SCORE.INTRA.SOLV.lig_0>
-75.7198

>  <SCORE.INTRA.VDW>
1.34601

>  <SCORE.INTRA.VDW.0>
-3.34171

>  <SCORE.INTRA.norm>
-0.248269

>  <SCORE.RESTR>
0

>  <SCORE.RESTR.CAVITY>
0

>  <SCORE.RESTR.norm>
0

>  <SCORE.SYSTEM>
0

>  <SCORE.SYSTEM.CONST>
0

>  <SCORE.SYSTEM.DIHEDRAL>
0

>  <SCORE.SYSTEM.SOLV>
0

>  <SCORE.SYSTEM.norm>
0

>  <SCORE.heavy>
31

>  <SCORE.norm>
-0.570795

>  <RMSD>
5.537

$$$$
2et3_lig
 OpenBabel11021811423D
libRbt.so/2013.1/901 2013/11/27
 31 33  0  0  0  0  0  0  0  0999 V2000
   -0.8270  -10.6010   30.6984 C   0  0  2  0  0  0  0  0  0  0  0  0
   -2.0939  -10.6474   31.4047 O   0  0  0  0  0  0  0  0  0  0  0  0
   -2.9556   -9.0292   35.2707 C   0  0  2  0  0  0  0  0  0  0  0  0
   -2.9448   -8.8751   36.6925 N   0  0  0  0  0  0  0  0  0  0  0  0
   -1.4654   -6.3724   34.4421 C   0  0  2  0  0  0  0  0  0  0  0  0
   -1.0777  -10.5438   29.1877 C   0  0  2  0  0  0  0  0  0  0  0  0
   -1.9094   -9.4146   28.9058 N   0  0  0  0  0  0  0  0  0  0  0  0
   -3.5576  -10.4232   34.9012 C   0  0  0  0  0  0  0  0  0  0  0  0
   -0.2991   -5.3672   34.5650 C   0  0  2  0  0  0  0  0  0  0  0  0
    0.8291   -5.8928   33.9022 O   0  0  0  0  0  0  0  0  0  0  0  0
   -1.7221  -11.8823   28.6894 C   0  0  0  0  0  0  0  0  0  0  0  0
   -3.5652  -10.6050   33.3391 C   0  0  2  0  0  0  0  0  0  0  0  0
   -4.1309  -11.9168   32.9859 N   0  0  0  0  0  0  0  0  0  0  0  0
   -0.0197   -5.1298   36.1053 C   0  0  1  0  0  0  0  0  0  0  0  0
    1.1355   -4.1971   36.3159 N   0  0  0  0  0  0  0  0  0  0  0  0
   -0.7323  -13.0449   29.0141 C   0  0  0  0  0  0  0  0  0  0  0  0
   -2.0957  -10.4654   32.7846 C   0  0  2  0  0  0  0  0  0  0  0  0
   -1.3440   -4.5437   36.8308 C   0  0  1  0  0  0  0  0  0  0  0  0
   -1.7089   -3.2876   36.2972 O   0  0  0  0  0  0  0  0  0  0  0  0
   -0.4676  -13.0621   30.5839 C   0  0  2  0  0  0  0  0  0  0  0  0
    0.0092  -11.7721   31.0797 O   0  0  0  0  0  0  0  0  0  0  0  0
   -1.5160   -9.0515   33.1751 C   0  0  2  0  0  0  0  0  0  0  0  0
   -0.1891   -8.9028   32.6801 O   0  0  0  0  0  0  0  0  0  0  0  0
   -2.5336   -5.5238   36.5899 C   0  0  0  0  0  0  0  0  0  0  0  0
   -2.6753   -5.8340   35.1283 O   0  0  0  0  0  0  0  0  0  0  0  0
    0.4664  -14.1578   31.0411 C   0  0  0  0  0  0  0  0  0  0  0  0
   -0.0782  -15.4657   30.7869 N   0  0  0  0  0  0  0  0  0  0  0  0
   -1.5180   -8.8880   34.7356 C   0  0  1  0  0  0  0  0  0  0  0  0
   -0.9992   -7.6056   35.0667 O   0  0  0  0  0  0  0  0  0  0  0  0
   -1.2445   -4.2706   38.3378 C   0  0  0  0  0  0  0  0  0  0  0  0
    2.4869   -4.7789   36.2584 C   0  0  0  0  0  0  0  0  0  0  0  0
  1  2  1  1  0  0  0
  1  6  1  0  0  0  0
  1 21  1  0  0  0  0
  3  4  1  1  0  0  0
  3  8  1  0  0  0  0
  3 28  1  0  0  0  0
  5  9  1  0  0  0  0
  5 25  1  0  0  0  0
  5 29  1  1  0  0  0
  6  7  1  1  0  0  0
  6 11  1  0  0  0  0
  8 12  1  0  0  0  0
  9 10  1  6  0  0  0
  9 14  1  0  0  0  0
 11 16  1  0  0  0  0
 12 13  1  1  0  0  0
 12 17  1  0  0  0  0
 14 15  1  6  0  0  0
 14 18  1  0  0  0  0
 15 31  1  0  0  0  0
 16 20  1  0  0  0  0
 17  2  1  6  0  0  0
 17 22  1  0  0  0  0
 18 19  1  6  0  0  0
 18 24  1  0  0  0  0
 18 30  1  0  0  0  0
 20 21  1  0  0  0  0
 20 26  1  6  0  0  0
 22 23  1  1  0  0  0
 22 28  1  0  0  0  0
 24 25  1  0  0  0  0
 26 27  1  0  0  0  0
 28 29  1  6  0  0  0
M  END
>  <CHROM.1>
-168.79936238,-155.08997233,-82.92575110,-178.06700900,-63.39958178,-70.80851991
-1.22725923,-8.71975721,33.49276022,-1.61315116,0.61833737,0.69029880

>  <Name>
2et3_lig

>  <RI>
0

>  <Rbt.Current_Directory>
/home/itssahil/PROJECTS/Mol_Feturizer/New_Systems/rnas/2et3

>  <Rbt.Executable>
rbdock ($Id: //depot/dev/client3/rdock/2013.1/src/exe/rbdock.cxx#4 $)

>  <Rbt.Library>
libRbt.so (2013.1, Build901 2013/11/27)

>  <Rbt.Parameter_File>
/export/apps/rDock/src/rDock_2013.1_src/data/scripts/dock_solv.prm

>  <Rbt.Receptor>
prm/pocket_docking_7.prm

>  <SCORE>
-25.2387

>  <SCORE.INTER>
-16.3088

>  <SCORE.INTER.CONST>
1

>  <SCORE.INTER.POLAR>
-1.80952

>  <SCORE.INTER.ROT>
6

>  <SCORE.INTER.SOLV>
10.0803

>  <SCORE.INTER.VDW>
-15.8009

>  <SCORE.INTER.norm>
-0.526091

>  <SCORE.INTRA>
-8.92985

>  <SCORE.INTRA.DIHEDRAL>
-17.8403

>  <SCORE.INTRA.DIHEDRAL.0>
22.2484

>  <SCORE.INTRA.POLAR>
0

>  <SCORE.INTRA.POLAR.0>
0

>  <SCORE.INTRA.REPUL>
0

>  <SCORE.INTRA.REPUL.0>
0

>  <SCORE.INTRA.SOLV>
-2.28981

>  <SCORE.INTRA.SOLV.lig_0>
-75.7198

>  <SCORE.INTRA.VDW>
1.13521

>  <SCORE.INTRA.VDW.0>
-3.34171

>  <SCORE.INTRA.norm>
-0.28806

>  <SCORE.RESTR>
0

>  <SCORE.RESTR.CAVITY>
0

>  <SCORE.RESTR.norm>
0

>  <SCORE.SYSTEM>
0

>  <SCORE.SYSTEM.CONST>
0

>  <SCORE.SYSTEM.DIHEDRAL>
0

>  <SCORE.SYSTEM.SOLV>
0

>  <SCORE.SYSTEM.norm>
0

>  <SCORE.heavy>
31

>  <SCORE.norm>
-0.814151

>  <RMSD>
5.539

$$$$
2et3_lig
 OpenBabel11021811423D
libRbt.so/2013.1/901 2013/11/27
 31 33  0  0  0  0  0  0  0  0999 V2000
   -1.4471   -6.2260   32.9184 C   0  0  2  0  0  0  0  0  0  0  0  0
   -0.8791   -6.5854   31.6322 O   0  0  0  0  0  0  0  0  0  0  0  0
   -0.9975  -10.3983   29.6947 C   0  0  2  0  0  0  0  0  0  0  0  0
   -0.7304  -11.7792   29.4348 N   0  0  0  0  0  0  0  0  0  0  0  0
   -3.6948  -11.2314   32.2728 C   0  0  2  0  0  0  0  0  0  0  0  0
   -2.1778   -4.8838   32.8055 C   0  0  2  0  0  0  0  0  0  0  0  0
   -3.1644   -4.9869   31.7749 N   0  0  0  0  0  0  0  0  0  0  0  0
    0.3409   -9.5923   29.6605 C   0  0  0  0  0  0  0  0  0  0  0  0
   -3.0614  -12.4667   32.9499 C   0  0  2  0  0  0  0  0  0  0  0  0
   -1.7135  -12.1821   33.2509 O   0  0  0  0  0  0  0  0  0  0  0  0
   -1.1578   -3.7281   32.5236 C   0  0  0  0  0  0  0  0  0  0  0  0
    0.0579   -8.0735   29.9541 C   0  0  2  0  0  0  0  0  0  0  0  0
    1.3156   -7.3100   29.9235 N   0  0  0  0  0  0  0  0  0  0  0  0
   -3.1970  -13.6914   31.9556 C   0  0  1  0  0  0  0  0  0  0  0  0
   -2.5620  -14.9279   32.5184 N   0  0  0  0  0  0  0  0  0  0  0  0
   -0.1458   -3.6770   33.7109 C   0  0  0  0  0  0  0  0  0  0  0  0
   -0.6461   -7.9299   31.3578 C   0  0  2  0  0  0  0  0  0  0  0  0
   -4.7571  -13.9725   31.6229 C   0  0  1  0  0  0  0  0  0  0  0  0
   -5.4749  -14.3272   32.7867 O   0  0  0  0  0  0  0  0  0  0  0  0
    0.5763   -5.0915   33.8231 C   0  0  2  0  0  0  0  0  0  0  0  0
   -0.3774   -6.1919   33.9532 O   0  0  0  0  0  0  0  0  0  0  0  0
   -1.9904   -8.7548   31.3613 C   0  0  2  0  0  0  0  0  0  0  0  0
   -2.6450   -8.6356   32.6202 O   0  0  0  0  0  0  0  0  0  0  0  0
   -5.3987  -12.6715   31.0492 C   0  0  0  0  0  0  0  0  0  0  0  0
   -5.1258  -11.5045   31.9528 O   0  0  0  0  0  0  0  0  0  0  0  0
    1.6019   -5.1759   34.9289 C   0  0  0  0  0  0  0  0  0  0  0  0
    1.0511   -4.7862   36.2004 N   0  0  0  0  0  0  0  0  0  0  0  0
   -1.6882  -10.2658   31.0651 C   0  0  1  0  0  0  0  0  0  0  0  0
   -2.9121  -10.9907   31.0654 O   0  0  0  0  0  0  0  0  0  0  0  0
   -5.0622  -15.1249   30.6562 C   0  0  0  0  0  0  0  0  0  0  0  0
   -1.1851  -15.2288   32.0919 C   0  0  0  0  0  0  0  0  0  0  0  0
  1  2  1  6  0  0  0
  1  6  1  0  0  0  0
  1 21  1  0  0  0  0
  3  4  1  1  0  0  0
  3  8  1  0  0  0  0
  3 28  1  0  0  0  0
  5  9  1  0  0  0  0
  5 25  1  0  0  0  0
  5 29  1  6  0  0  0
  6  7  1  6  0  0  0
  6 11  1  0  0  0  0
  8 12  1  0  0  0  0
  9 10  1  6  0  0  0
  9 14  1  0  0  0  0
 11 16  1  0  0  0  0
 12 13  1  1  0  0  0
 12 17  1  0  0  0  0
 14 15  1  1  0  0  0
 14 18  1  0  0  0  0
 15 31  1  0  0  0  0
 16 20  1  0  0  0  0
 17  2  1  6  0  0  0
 17 22  1  0  0  0  0
 18 19  1  1  0  0  0
 18 24  1  0  0  0  0
 18 30  1  0  0  0  0
 20 21  1  0  0  0  0
 20 26  1  1  0  0  0
 22 23  1  1  0  0  0
 22 28  1  0  0  0  0
 24 25  1  0  0  0  0
 26 27  1  0  0  0  0
 28 29  1  6  0  0  0
M  END
>  <CHROM.1>
-155.12450316,-83.21615431,-96.46022560,-176.23256022,53.49912167,170.24302226
-1.87209425,-9.46843021,32.06641854,1.09130525,0.62053959,0.46772700

>  <Name>
2et3_lig

>  <RI>
0

>  <Rbt.Current_Directory>
/home/itssahil/PROJECTS/Mol_Feturizer/New_Systems/rnas/2et3

>  <Rbt.Executable>
rbdock ($Id: //depot/dev/client3/rdock/2013.1/src/exe/rbdock.cxx#4 $)

>  <Rbt.Library>
libRbt.so (2013.1, Build901 2013/11/27)

>  <Rbt.Parameter_File>
/export/apps/rDock/src/rDock_2013.1_src/data/scripts/dock_solv.prm

>  <Rbt.Receptor>
prm/pocket_docking_7.prm

>  <SCORE>
-20.0897

>  <SCORE.INTER>
-12.4067

>  <SCORE.INTER.CONST>
1

>  <SCORE.INTER.POLAR>
-2.62494

>  <SCORE.INTER.ROT>
6

>  <SCORE.INTER.SOLV>
10.7968

>  <SCORE.INTER.VDW>
-10.7203

>  <SCORE.INTER.norm>
-0.400215

>  <SCORE.INTRA>
-7.68299

>  <SCORE.INTRA.DIHEDRAL>
-15.6618

>  <SCORE.INTRA.DIHEDRAL.0>
22.2484

>  <SCORE.INTRA.POLAR>
0

>  <SCORE.INTRA.POLAR.0>
0

>  <SCORE.INTRA.REPUL>
0

>  <SCORE.INTRA.REPUL.0>
0

>  <SCORE.INTRA.SOLV>
-1.58302

>  <SCORE.INTRA.SOLV.lig_0>
-75.7198

>  <SCORE.INTRA.VDW>
0.939416

>  <SCORE.INTRA.VDW.0>
-3.34171

>  <SCORE.INTRA.norm>
-0.247839

>  <SCORE.RESTR>
0

>  <SCORE.RESTR.CAVITY>
0

>  <SCORE.RESTR.norm>
0

>  <SCORE.SYSTEM>
0

>  <SCORE.SYSTEM.CONST>
0

>  <SCORE.SYSTEM.DIHEDRAL>
0

>  <SCORE.SYSTEM.SOLV>
0

>  <SCORE.SYSTEM.norm>
0

>  <SCORE.heavy>
31

>  <SCORE.norm>
-0.648053

>  <RMSD>
5.648

$$$$
2et3_lig
 OpenBabel11021811423D
libRbt.so/2013.1/901 2013/11/27
 31 33  0  0  0  0  0  0  0  0999 V2000
   -0.2029   -6.4545   28.3134 C   0  0  2  0  0  0  0  0  0  0  0  0
   -0.1657   -7.8964   28.4740 O   0  0  0  0  0  0  0  0  0  0  0  0
   -0.9186  -10.0840   32.0731 C   0  0  2  0  0  0  0  0  0  0  0  0
   -1.6361  -10.6469   33.1749 N   0  0  0  0  0  0  0  0  0  0  0  0
   -0.0747  -12.7420   30.8744 C   0  0  2  0  0  0  0  0  0  0  0  0
   -1.4560   -6.0527   27.5282 C   0  0  2  0  0  0  0  0  0  0  0  0
   -2.6050   -6.5629   28.2106 N   0  0  0  0  0  0  0  0  0  0  0  0
   -1.0337   -8.5261   32.1164 C   0  0  0  0  0  0  0  0  0  0  0  0
   -0.1262  -13.9477   29.9105 C   0  0  2  0  0  0  0  0  0  0  0  0
   -0.3223  -13.4745   28.5967 O   0  0  0  0  0  0  0  0  0  0  0  0
   -1.3704   -6.5798   26.0550 C   0  0  0  0  0  0  0  0  0  0  0  0
   -0.2545   -7.8987   30.9031 C   0  0  2  0  0  0  0  0  0  0  0  0
   -0.3603   -6.4313   30.9390 N   0  0  0  0  0  0  0  0  0  0  0  0
   -1.3053  -14.8957   30.3772 C   0  0  1  0  0  0  0  0  0  0  0  0
   -1.4562  -16.0745   29.4626 N   0  0  0  0  0  0  0  0  0  0  0  0
   -0.1079   -5.9480   25.3889 C   0  0  0  0  0  0  0  0  0  0  0  0
   -0.8375   -8.4654   29.5520 C   0  0  2  0  0  0  0  0  0  0  0  0
   -1.0499  -15.4015   31.8947 C   0  0  1  0  0  0  0  0  0  0  0  0
    0.1335  -16.1671   31.9889 O   0  0  0  0  0  0  0  0  0  0  0  0
    1.1734   -6.3570   26.2408 C   0  0  2  0  0  0  0  0  0  0  0  0
    1.0441   -5.9860   27.6490 O   0  0  0  0  0  0  0  0  0  0  0  0
   -0.7091  -10.0374   29.5397 C   0  0  2  0  0  0  0  0  0  0  0  0
   -1.2271  -10.5702   28.3250 O   0  0  0  0  0  0  0  0  0  0  0  0
   -0.8858  -14.1601   32.8252 C   0  0  0  0  0  0  0  0  0  0  0  0
    0.1420  -13.2167   32.2717 O   0  0  0  0  0  0  0  0  0  0  0  0
    2.4759   -5.8229   25.6932 C   0  0  0  0  0  0  0  0  0  0  0  0
    3.6051   -6.2732   26.4638 N   0  0  0  0  0  0  0  0  0  0  0  0
   -1.4906  -10.6446   30.7574 C   0  0  1  0  0  0  0  0  0  0  0  0
   -1.3569  -12.0605   30.7327 O   0  0  0  0  0  0  0  0  0  0  0  0
   -2.1147  -16.3224   32.5061 C   0  0  0  0  0  0  0  0  0  0  0  0
   -0.2651  -16.9129   29.2463 C   0  0  0  0  0  0  0  0  0  0  0  0
  1  2  1  6  0  0  0
  1  6  1  0  0  0  0
  1 21  1  0  0  0  0
  3  4  1  1  0  0  0
  3  8  1  0  0  0  0
  3 28  1  0  0  0  0
  5  9  1  0  0  0  0
  5 25  1  0  0  0  0
  5 29  1  1  0  0  0
  6  7  1  1  0  0  0
  6 11  1  0  0  0  0
  8 12  1  0  0  0  0
  9 10  1  6  0  0  0
  9 14  1  0  0  0  0
 11 16  1  0  0  0  0
 12 13  1  6  0  0  0
 12 17  1  0  0  0  0
 14 15  1  6  0  0  0
 14 18  1  0  0  0  0
 15 31  1  0  0  0  0
 16 20  1  0  0  0  0
 17  2  1  6  0  0  0
 17 22  1  0  0  0  0
 18 19  1  1  0  0  0
 18 24  1  0  0  0  0
 18 30  1  0  0  0  0
 20 21  1  0  0  0  0
 20 26  1  6  0  0  0
 22 23  1  6  0  0  0
 22 28  1  0  0  0  0
 24 25  1  0  0  0  0
 26 27  1  0  0  0  0
 28 29  1  1  0  0  0
M  END
>  <CHROM.1>
-86.33642771,-141.99247641,55.31091315,-59.83608508,-177.28541415,-57.23216540
-0.46737146,-10.45807907,29.61353111,1.20216805,1.22109055,-0.07956064

>  <Name>
2et3_lig

>  <RI>
0

>  <Rbt.Current_Directory>
/home/itssahil/PROJECTS/Mol_Feturizer/New_Systems/rnas/2et3

>  <Rbt.Executable>
rbdock ($Id: //depot/dev/client3/rdock/2013.1/src/exe/rbdock.cxx#4 $)

>  <Rbt.Library>
libRbt.so (2013.1, Build901 2013/11/27)

>  <Rbt.Parameter_File>
/export/apps/rDock/src/rDock_2013.1_src/data/scripts/dock_solv.prm

>  <Rbt.Receptor>
prm/blind_docking_100.prm

>  <SCORE>
-7.21144

>  <SCORE.INTER>
-5.53767

>  <SCORE.INTER.CONST>
1

>  <SCORE.INTER.POLAR>
0

>  <SCORE.INTER.ROT>
6

>  <SCORE.INTER.SOLV>
15.0381

>  <SCORE.INTER.VDW>
-16.3045

>  <SCORE.INTER.norm>
-0.178635

>  <SCORE.INTRA>
-3.26251

>  <SCORE.INTRA.DIHEDRAL>
-14.0465

>  <SCORE.INTRA.DIHEDRAL.0>
22.2484

>  <SCORE.INTRA.POLAR>
0

>  <SCORE.INTRA.POLAR.0>
0

>  <SCORE.INTRA.REPUL>
0

>  <SCORE.INTRA.REPUL.0>
0

>  <SCORE.INTRA.SOLV>
1.95573

>  <SCORE.INTRA.SOLV.lig_0>
-75.7198

>  <SCORE.INTRA.VDW>
2.78289

>  <SCORE.INTRA.VDW.0>
-3.34171

>  <SCORE.INTRA.norm>
-0.105242

>  <SCORE.RESTR>
1.58874

>  <SCORE.RESTR.CAVITY>
1.58874

>  <SCORE.RESTR.norm>
0.0512497

>  <SCORE.SYSTEM>
0

>  <SCORE.SYSTEM.CONST>
0

>  <SCORE.SYSTEM.DIHEDRAL>
0

>  <SCORE.SYSTEM.SOLV>
0

>  <SCORE.SYSTEM.norm>
0

>  <SCORE.heavy>
31

>  <SCORE.norm>
-0.232627

>  <RMSD>
5.668

$$$$
2et3_lig
 OpenBabel11021811423D
libRbt.so/2013.1/901 2013/11/27
 31 33  0  0  0  0  0  0  0  0999 V2000
   -1.3043   -4.8593   28.5296 C   0  0  2  0  0  0  0  0  0  0  0  0
   -1.9067   -5.8592   29.3919 O   0  0  0  0  0  0  0  0  0  0  0  0
   -1.4576   -6.3622   33.6170 C   0  0  2  0  0  0  0  0  0  0  0  0
   -0.8359   -6.6302   34.8768 N   0  0  0  0  0  0  0  0  0  0  0  0
   -0.3086   -2.7124   33.4595 C   0  0  2  0  0  0  0  0  0  0  0  0
   -2.0077   -4.8574   27.1681 C   0  0  2  0  0  0  0  0  0  0  0  0
   -3.4056   -4.6374   27.3773 N   0  0  0  0  0  0  0  0  0  0  0  0
   -1.3597   -7.6286   32.7066 C   0  0  0  0  0  0  0  0  0  0  0  0
   -0.1173   -1.9719   34.8014 C   0  0  2  0  0  0  0  0  0  0  0  0
    0.7443   -2.7285   35.6222 O   0  0  0  0  0  0  0  0  0  0  0  0
   -1.7354   -6.2016   26.4103 C   0  0  0  0  0  0  0  0  0  0  0  0
   -2.0334   -7.3401   31.3153 C   0  0  2  0  0  0  0  0  0  0  0  0
   -1.9434   -8.5298   30.4538 N   0  0  0  0  0  0  0  0  0  0  0  0
   -1.5438   -1.7821   35.4617 C   0  0  1  0  0  0  0  0  0  0  0  0
   -1.4444   -1.1092   36.7982 N   0  0  0  0  0  0  0  0  0  0  0  0
   -0.1939   -6.3364   26.2050 C   0  0  0  0  0  0  0  0  0  0  0  0
   -1.3283   -6.1052   30.6337 C   0  0  2  0  0  0  0  0  0  0  0  0
   -2.5056   -0.9246   34.4802 C   0  0  1  0  0  0  0  0  0  0  0  0
   -1.9937    0.3743   34.2654 O   0  0  0  0  0  0  0  0  0  0  0  0
    0.5123   -6.3059   27.6316 C   0  0  2  0  0  0  0  0  0  0  0  0
    0.1566   -5.1146   28.4007 O   0  0  0  0  0  0  0  0  0  0  0  0
   -1.4421   -4.8457   31.5763 C   0  0  2  0  0  0  0  0  0  0  0  0
   -0.8141   -3.7167   30.9775 O   0  0  0  0  0  0  0  0  0  0  0  0
   -2.5856   -1.6369   33.0947 C   0  0  0  0  0  0  0  0  0  0  0  0
   -1.2099   -1.9260   32.5685 O   0  0  0  0  0  0  0  0  0  0  0  0
    2.0155   -6.4462   27.5801 C   0  0  0  0  0  0  0  0  0  0  0  0
    2.5773   -6.6675   28.8868 N   0  0  0  0  0  0  0  0  0  0  0  0
   -0.7666   -5.1530   32.9589 C   0  0  1  0  0  0  0  0  0  0  0  0
   -0.8859   -4.0092   33.7960 O   0  0  0  0  0  0  0  0  0  0  0  0
   -3.9368   -0.6628   34.9688 C   0  0  0  0  0  0  0  0  0  0  0  0
   -1.9722   -1.8436   37.9602 C   0  0  0  0  0  0  0  0  0  0  0  0
  1  2  1  1  0  0  0
  1  6  1  0  0  0  0
  1 21  1  0  0  0  0
  3  4  1  1  0  0  0
  3  8  1  0  0  0  0
  3 28  1  0  0  0  0
  5  9  1  0  0  0  0
  5 25  1  0  0  0  0
  5 29  1  1  0  0  0
  6  7  1  1  0  0  0
  6 11  1  0  0  0  0
  8 12  1  0  0  0  0
  9 10  1  1  0  0  0
  9 14  1  0  0  0  0
 11 16  1  0  0  0  0
 12 13  1  6  0  0  0
 12 17  1  0  0  0  0
 14 15  1  1  0  0  0
 14 18  1  0  0  0  0
 15 31  1  0  0  0  0
 16 20  1  0  0  0  0
 17  2  1  6  0  0  0
 17 22  1  0  0  0  0
 18 19  1  6  0  0  0
 18 24  1  0  0  0  0
 18 30  1  0  0  0  0
 20 21  1  0  0  0  0
 20 26  1  6  0  0  0
 22 23  1  6  0  0  0
 22 28  1  0  0  0  0
 24 25  1  0  0  0  0
 26 27  1  0  0  0  0
 28 29  1  1  0  0  0
M  END
>  <CHROM.1>
174.10714141,-156.08461695,-120.90846943,-173.04844267,-168.97677163,178.72168453
-1.12460733,-4.29705529,31.76764570,1.19429576,1.24229171,-1.76158759

>  <Name>
2et3_lig

>  <RI>
3.86414e+07

>  <Rbt.Current_Directory>
/home/itssahil/PROJECTS/Mol_Feturizer/New_Systems/rnas/2et3

>  <Rbt.Executable>
rbdock ($Id: //depot/dev/client3/rdock/2013.1/src/exe/rbdock.cxx#4 $)

>  <Rbt.Library>
libRbt.so (2013.1, Build901 2013/11/27)

>  <Rbt.Parameter_File>
/export/apps/rDock/src/rDock_2013.1_src/data/scripts/dock_solv.prm

>  <Rbt.Receptor>
prm/pocket_docking_8.prm

>  <SCORE>
-27.9415

>  <SCORE.INTER>
-18.9089

>  <SCORE.INTER.CONST>
1

>  <SCORE.INTER.POLAR>
-1.6963

>  <SCORE.INTER.ROT>
6

>  <SCORE.INTER.SOLV>
17.318

>  <SCORE.INTER.VDW>
-20.3243

>  <SCORE.INTER.norm>
-0.609966

>  <SCORE.INTRA>
-9.03259

>  <SCORE.INTRA.DIHEDRAL>
-17.5713

>  <SCORE.INTRA.DIHEDRAL.0>
22.2484

>  <SCORE.INTRA.POLAR>
0

>  <SCORE.INTRA.POLAR.0>
0

>  <SCORE.INTRA.REPUL>
0

>  <SCORE.INTRA.REPUL.0>
0

>  <SCORE.INTRA.SOLV>
-3.89299

>  <SCORE.INTRA.SOLV.lig_0>
-75.7198

>  <SCORE.INTRA.VDW>
1.69956

>  <SCORE.INTRA.VDW.0>
-3.34171

>  <SCORE.INTRA.norm>
-0.291374

>  <SCORE.RESTR>
0

>  <SCORE.RESTR.CAVITY>
0

>  <SCORE.RESTR.norm>
0

>  <SCORE.SYSTEM>
0

>  <SCORE.SYSTEM.CONST>
0

>  <SCORE.SYSTEM.DIHEDRAL>
0

>  <SCORE.SYSTEM.SOLV>
0

>  <SCORE.SYSTEM.norm>
0

>  <SCORE.heavy>
31

>  <SCORE.norm>
-0.90134

>  <RMSD>
5.671

$$$$
2et3_lig
 OpenBabel11021811423D
libRbt.so/2013.1/901 2013/11/27
 31 33  0  0  0  0  0  0  0  0999 V2000
   -2.6935  -13.0601   31.7851 C   0  0  2  0  0  0  0  0  0  0  0  0
   -2.7599  -13.0299   33.2345 O   0  0  0  0  0  0  0  0  0  0  0  0
   -5.1170   -9.5148   33.8626 C   0  0  2  0  0  0  0  0  0  0  0  0
   -5.9771   -8.5757   34.5139 N   0  0  0  0  0  0  0  0  0  0  0  0
   -2.0424   -8.1783   35.6951 C   0  0  2  0  0  0  0  0  0  0  0  0
   -1.7964  -14.2167   31.3314 C   0  0  2  0  0  0  0  0  0  0  0  0
   -2.3045  -15.4330   31.8870 N   0  0  0  0  0  0  0  0  0  0  0  0
   -5.8554  -10.8842   33.7155 C   0  0  0  0  0  0  0  0  0  0  0  0
   -2.6434   -7.4758   36.9325 C   0  0  2  0  0  0  0  0  0  0  0  0
   -3.6144   -8.3195   37.5103 O   0  0  0  0  0  0  0  0  0  0  0  0
   -0.3111  -13.9561   31.7574 C   0  0  0  0  0  0  0  0  0  0  0  0
   -4.9136  -11.9259   33.0078 C   0  0  2  0  0  0  0  0  0  0  0  0
   -5.6044  -13.2177   32.8673 N   0  0  0  0  0  0  0  0  0  0  0  0
   -3.2660   -6.0996   36.4580 C   0  0  1  0  0  0  0  0  0  0  0  0
   -3.9161   -5.3703   37.5957 N   0  0  0  0  0  0  0  0  0  0  0  0
    0.1594  -12.6300   31.0816 C   0  0  0  0  0  0  0  0  0  0  0  0
   -3.5878  -12.0923   33.8451 C   0  0  2  0  0  0  0  0  0  0  0  0
   -2.1227   -5.1699   35.7856 C   0  0  1  0  0  0  0  0  0  0  0  0
   -1.1109   -4.8457   36.7165 O   0  0  0  0  0  0  0  0  0  0  0  0
   -0.8066  -11.4531   31.5468 C   0  0  2  0  0  0  0  0  0  0  0  0
   -2.2119  -11.7482   31.2721 O   0  0  0  0  0  0  0  0  0  0  0  0
   -2.8680  -10.6951   33.9776 C   0  0  2  0  0  0  0  0  0  0  0  0
   -1.6647  -10.8235   34.7282 O   0  0  0  0  0  0  0  0  0  0  0  0
   -1.4540   -5.9518   34.6129 C   0  0  0  0  0  0  0  0  0  0  0  0
   -1.0039   -7.3084   35.0708 O   0  0  0  0  0  0  0  0  0  0  0  0
   -0.4516  -10.1002   30.9764 C   0  0  0  0  0  0  0  0  0  0  0  0
   -1.4008   -9.0901   31.3645 N   0  0  0  0  0  0  0  0  0  0  0  0
   -3.8229   -9.6695   34.6836 C   0  0  1  0  0  0  0  0  0  0  0  0
   -3.1592   -8.4156   34.7870 O   0  0  0  0  0  0  0  0  0  0  0  0
   -2.5672   -3.7993   35.2570 C   0  0  0  0  0  0  0  0  0  0  0  0
   -5.3796   -5.2159   37.5450 C   0  0  0  0  0  0  0  0  0  0  0  0
  1  2  1  1  0  0  0
  1  6  1  0  0  0  0
  1 21  1  0  0  0  0
  3  4  1  1  0  0  0
  3  8  1  0  0  0  0
  3 28  1  0  0  0  0
  5  9  1  0  0  0  0
  5 25  1  0  0  0  0
  5 29  1  6  0  0  0
  6  7  1  1  0  0  0
  6 11  1  0  0  0  0
  8 12  1  0  0  0  0
  9 10  1  6  0  0  0
  9 14  1  0  0  0  0
 11 16  1  0  0  0  0
 12 13  1  1  0  0  0
 12 17  1  0  0  0  0
 14 15  1  1  0  0  0
 14 18  1  0  0  0  0
 15 31  1  0  0  0  0
 16 20  1  0  0  0  0
 17  2  1  6  0  0  0
 17 22  1  0  0  0  0
 18 19  1  1  0  0  0
 18 24  1  0  0  0  0
 18 30  1  0  0  0  0
 20 21  1  0  0  0  0
 20 26  1  6  0  0  0
 22 23  1  1  0  0  0
 22 28  1  0  0  0  0
 24 25  1  0  0  0  0
 26 27  1  0  0  0  0
 28 29  1  6  0  0  0
M  END
>  <CHROM.1>
-176.51713765,-99.11287831,-113.14749734,37.88774039,176.56712761,168.61613334
-2.76648939,-9.58568876,34.07397282,1.46343615,-0.42633664,-2.63623339

>  <Name>
2et3_lig

>  <RI>
3.50789e+07

>  <Rbt.Current_Directory>
/home/itssahil/PROJECTS/Mol_Feturizer/New_Systems/rnas/2et3

>  <Rbt.Executable>
rbdock ($Id: //depot/dev/client3/rdock/2013.1/src/exe/rbdock.cxx#4 $)

>  <Rbt.Library>
libRbt.so (2013.1, Build901 2013/11/27)

>  <Rbt.Parameter_File>
/export/apps/rDock/src/rDock_2013.1_src/data/scripts/dock_solv.prm

>  <Rbt.Receptor>
prm/pocket_docking_4.prm

>  <SCORE>
-20.2064

>  <SCORE.INTER>
-14.3248

>  <SCORE.INTER.CONST>
1

>  <SCORE.INTER.POLAR>
-1.66982

>  <SCORE.INTER.ROT>
6

>  <SCORE.INTER.SOLV>
10.1006

>  <SCORE.INTER.VDW>
-14.9507

>  <SCORE.INTER.norm>
-0.462091

>  <SCORE.INTRA>
-5.88152

>  <SCORE.INTRA.DIHEDRAL>
-12.8076

>  <SCORE.INTRA.DIHEDRAL.0>
22.2484

>  <SCORE.INTRA.POLAR>
0

>  <SCORE.INTRA.POLAR.0>
0

>  <SCORE.INTRA.REPUL>
0

>  <SCORE.INTRA.REPUL.0>
0

>  <SCORE.INTRA.SOLV>
0.790875

>  <SCORE.INTRA.SOLV.lig_0>
-75.7198

>  <SCORE.INTRA.VDW>
0.126846

>  <SCORE.INTRA.VDW.0>
-3.34171

>  <SCORE.INTRA.norm>
-0.189726

>  <SCORE.RESTR>
0

>  <SCORE.RESTR.CAVITY>
0

>  <SCORE.RESTR.norm>
0

>  <SCORE.SYSTEM>
0

>  <SCORE.SYSTEM.CONST>
0

>  <SCORE.SYSTEM.DIHEDRAL>
0

>  <SCORE.SYSTEM.SOLV>
0

>  <SCORE.SYSTEM.norm>
0

>  <SCORE.heavy>
31

>  <SCORE.norm>
-0.651818

>  <RMSD>
5.697

$$$$
2et3_lig
 OpenBabel11021811423D
libRbt.so/2013.1/901 2013/11/27
 31 33  0  0  0  0  0  0  0  0999 V2000
   -0.7372  -10.9299   30.8207 C   0  0  2  0  0  0  0  0  0  0  0  0
   -2.0459  -10.7020   31.4051 O   0  0  0  0  0  0  0  0  0  0  0  0
   -3.0917   -8.9100   35.1470 C   0  0  2  0  0  0  0  0  0  0  0  0
   -3.1717   -8.7067   36.5604 N   0  0  0  0  0  0  0  0  0  0  0  0
   -1.4889   -6.3436   34.4101 C   0  0  2  0  0  0  0  0  0  0  0  0
   -0.8455  -10.9316   29.2921 C   0  0  2  0  0  0  0  0  0  0  0  0
   -1.4294   -9.6943   28.8748 N   0  0  0  0  0  0  0  0  0  0  0  0
   -3.7350  -10.2862   34.7803 C   0  0  0  0  0  0  0  0  0  0  0  0
   -0.3034   -5.3638   34.5526 C   0  0  2  0  0  0  0  0  0  0  0  0
    0.8224   -5.9112   33.9036 O   0  0  0  0  0  0  0  0  0  0  0  0
   -1.6804  -12.1648   28.8045 C   0  0  0  0  0  0  0  0  0  0  0  0
   -3.6436  -10.5223   33.2282 C   0  0  2  0  0  0  0  0  0  0  0  0
   -4.2478  -11.8175   32.8777 N   0  0  0  0  0  0  0  0  0  0  0  0
   -0.0405   -5.1373   36.0974 C   0  0  1  0  0  0  0  0  0  0  0  0
    1.1312   -4.2299   36.3272 N   0  0  0  0  0  0  0  0  0  0  0  0
   -0.9514  -13.4602   29.2811 C   0  0  0  0  0  0  0  0  0  0  0  0
   -2.1341  -10.4718   32.7750 C   0  0  2  0  0  0  0  0  0  0  0  0
   -1.3620   -4.5254   36.8066 C   0  0  1  0  0  0  0  0  0  0  0  0
   -1.6927   -3.2602   36.2723 O   0  0  0  0  0  0  0  0  0  0  0  0
   -0.8270  -13.4177   30.8677 C   0  0  2  0  0  0  0  0  0  0  0  0
   -0.1650  -12.2025   31.3394 O   0  0  0  0  0  0  0  0  0  0  0  0
   -1.5135   -9.0739   33.1603 C   0  0  2  0  0  0  0  0  0  0  0  0
   -0.1498   -9.0055   32.7561 O   0  0  0  0  0  0  0  0  0  0  0  0
   -2.5686   -5.4792   36.5459 C   0  0  0  0  0  0  0  0  0  0  0  0
   -2.6966   -5.7818   35.0814 O   0  0  0  0  0  0  0  0  0  0  0  0
   -0.1515  -14.6285   31.4673 C   0  0  0  0  0  0  0  0  0  0  0  0
   -0.3618  -14.7094   32.8890 N   0  0  0  0  0  0  0  0  0  0  0  0
   -1.6153   -8.8557   34.7109 C   0  0  1  0  0  0  0  0  0  0  0  0
   -1.0578   -7.5884   35.0369 O   0  0  0  0  0  0  0  0  0  0  0  0
   -1.2777   -4.2593   38.3157 C   0  0  0  0  0  0  0  0  0  0  0  0
    2.4728   -4.8295   36.2331 C   0  0  0  0  0  0  0  0  0  0  0  0
  1  2  1  1  0  0  0
  1  6  1  0  0  0  0
  1 21  1  0  0  0  0
  3  4  1  1  0  0  0
  3  8  1  0  0  0  0
  3 28  1  0  0  0  0
  5  9  1  0  0  0  0
  5 25  1  0  0  0  0
  5 29  1  1  0  0  0
  6  7  1  1  0  0  0
  6 11  1  0  0  0  0
  8 12  1  0  0  0  0
  9 10  1  1  0  0  0
  9 14  1  0  0  0  0
 11 16  1  0  0  0  0
 12 13  1  1  0  0  0
 12 17  1  0  0  0  0
 14 15  1  6  0  0  0
 14 18  1  0  0  0  0
 15 31  1  0  0  0  0
 16 20  1  0  0  0  0
 17  2  1  6  0  0  0
 17 22  1  0  0  0  0
 18 19  1  6  0  0  0
 18 24  1  0  0  0  0
 18 30  1  0  0  0  0
 20 21  1  0  0  0  0
 20 26  1  6  0  0  0
 22 23  1  1  0  0  0
 22 28  1  0  0  0  0
 24 25  1  0  0  0  0
 26 27  1  0  0  0  0
 28 29  1  6  0  0  0
M  END
>  <CHROM.1>
-170.82492974,-156.21452106,-80.54719385,-169.40997586,-165.28180918,-66.14979995
-1.28521172,-8.77316522,33.58390998,-1.63450627,0.63554367,0.66447306

>  <Name>
2et3_lig

>  <RI>
0

>  <Rbt.Current_Directory>
/home/itssahil/PROJECTS/Mol_Feturizer/New_Systems/rnas/2et3

>  <Rbt.Executable>
rbdock ($Id: //depot/dev/client3/rdock/2013.1/src/exe/rbdock.cxx#4 $)

>  <Rbt.Library>
libRbt.so (2013.1, Build901 2013/11/27)

>  <Rbt.Parameter_File>
/export/apps/rDock/src/rDock_2013.1_src/data/scripts/dock_solv.prm

>  <Rbt.Receptor>
prm/pocket_docking_7.prm

>  <SCORE>
-27.2482

>  <SCORE.INTER>
-17.959

>  <SCORE.INTER.CONST>
1

>  <SCORE.INTER.POLAR>
-2.72473

>  <SCORE.INTER.ROT>
6

>  <SCORE.INTER.SOLV>
13.1387

>  <SCORE.INTER.VDW>
-14.8698

>  <SCORE.INTER.norm>
-0.579323

>  <SCORE.INTRA>
-9.28922

>  <SCORE.INTRA.DIHEDRAL>
-17.4483

>  <SCORE.INTRA.DIHEDRAL.0>
22.2484

>  <SCORE.INTRA.POLAR>
0

>  <SCORE.INTRA.POLAR.0>
0

>  <SCORE.INTRA.REPUL>
0

>  <SCORE.INTRA.REPUL.0>
0

>  <SCORE.INTRA.SOLV>
-2.02385

>  <SCORE.INTRA.SOLV.lig_0>
-75.7198

>  <SCORE.INTRA.VDW>
0.446862

>  <SCORE.INTRA.VDW.0>
-3.34171

>  <SCORE.INTRA.norm>
-0.299652

>  <SCORE.RESTR>
0

>  <SCORE.RESTR.CAVITY>
0

>  <SCORE.RESTR.norm>
0

>  <SCORE.SYSTEM>
0

>  <SCORE.SYSTEM.CONST>
0

>  <SCORE.SYSTEM.DIHEDRAL>
0

>  <SCORE.SYSTEM.SOLV>
0

>  <SCORE.SYSTEM.norm>
0

>  <SCORE.heavy>
31

>  <SCORE.norm>
-0.878975

>  <RMSD>
5.701

$$$$
2et3_lig
 OpenBabel11021811423D
libRbt.so/2013.1/901 2013/11/27
 31 33  0  0  0  0  0  0  0  0999 V2000
    1.4359   -7.1856   27.0050 C   0  0  2  0  0  0  0  0  0  0  0  0
    1.1985   -6.0093   27.8212 O   0  0  0  0  0  0  0  0  0  0  0  0
   -2.3376   -3.9983   29.1474 C   0  0  2  0  0  0  0  0  0  0  0  0
   -3.6618   -3.8073   29.6528 N   0  0  0  0  0  0  0  0  0  0  0  0
   -2.5089   -3.9812   32.3930 C   0  0  2  0  0  0  0  0  0  0  0  0
    1.5822   -8.4186   27.9031 C   0  0  2  0  0  0  0  0  0  0  0  0
    0.4086   -8.5352   28.7125 N   0  0  0  0  0  0  0  0  0  0  0  0
   -2.4008   -4.8001   27.8075 C   0  0  0  0  0  0  0  0  0  0  0  0
   -2.1777   -2.8300   33.3682 C   0  0  2  0  0  0  0  0  0  0  0  0
   -2.1278   -1.6197   32.6464 O   0  0  0  0  0  0  0  0  0  0  0  0
    2.8820   -8.3113   28.7717 C   0  0  0  0  0  0  0  0  0  0  0  0
   -0.9478   -5.0225   27.2486 C   0  0  2  0  0  0  0  0  0  0  0  0
   -1.0020   -5.7777   25.9867 N   0  0  0  0  0  0  0  0  0  0  0  0
   -0.7928   -3.1604   34.0608 C   0  0  1  0  0  0  0  0  0  0  0  0
   -0.3711   -2.0649   34.9940 N   0  0  0  0  0  0  0  0  0  0  0  0
    4.1032   -8.2184   27.8037 C   0  0  0  0  0  0  0  0  0  0  0  0
   -0.0824   -5.7906   28.3199 C   0  0  2  0  0  0  0  0  0  0  0  0
   -0.8886   -4.5645   34.8627 C   0  0  1  0  0  0  0  0  0  0  0  0
   -1.8440   -4.4991   35.9011 O   0  0  0  0  0  0  0  0  0  0  0  0
    3.9104   -6.9474   26.8645 C   0  0  2  0  0  0  0  0  0  0  0  0
    2.6357   -6.9751   26.1492 O   0  0  0  0  0  0  0  0  0  0  0  0
   -0.0397   -4.9585   29.6591 C   0  0  2  0  0  0  0  0  0  0  0  0
    0.7410   -5.6334   30.6404 O   0  0  0  0  0  0  0  0  0  0  0  0
   -1.3383   -5.6858   33.8757 C   0  0  0  0  0  0  0  0  0  0  0  0
   -2.5770   -5.2730   33.1354 O   0  0  0  0  0  0  0  0  0  0  0  0
    5.0377   -6.7272   25.8835 C   0  0  0  0  0  0  0  0  0  0  0  0
    4.7668   -5.6276   24.9951 N   0  0  0  0  0  0  0  0  0  0  0  0
   -1.4971   -4.7455   30.2000 C   0  0  1  0  0  0  0  0  0  0  0  0
   -1.4378   -3.9881   31.4025 O   0  0  0  0  0  0  0  0  0  0  0  0
    0.3814   -5.0391   35.5820 C   0  0  0  0  0  0  0  0  0  0  0  0
    1.0302   -1.6194   34.9162 C   0  0  0  0  0  0  0  0  0  0  0  0
  1  2  1  1  0  0  0
  1  6  1  0  0  0  0
  1 21  1  0  0  0  0
  3  4  1  1  0  0  0
  3  8  1  0  0  0  0
  3 28  1  0  0  0  0
  5  9  1  0  0  0  0
  5 25  1  0  0  0  0
  5 29  1  6  0  0  0
  6  7  1  1  0  0  0
  6 11  1  0  0  0  0
  8 12  1  0  0  0  0
  9 10  1  6  0  0  0
  9 14  1  0  0  0  0
 11 16  1  0  0  0  0
 12 13  1  6  0  0  0
 12 17  1  0  0  0  0
 14 15  1  1  0  0  0
 14 18  1  0  0  0  0
 15 31  1  0  0  0  0
 16 20  1  0  0  0  0
 17  2  1  6  0  0  0
 17 22  1  0  0  0  0
 18 19  1  1  0  0  0
 18 24  1  0  0  0  0
 18 30  1  0  0  0  0
 20 21  1  0  0  0  0
 20 26  1  6  0  0  0
 22 23  1  1  0  0  0
 22 28  1  0  0  0  0
 24 25  1  0  0  0  0
 26 27  1  0  0  0  0
 28 29  1  1  0  0  0
M  END
>  <CHROM.1>
-78.98585837,-168.53743876,-134.38212869,-85.85797495,175.69575752,80.81024261
0.06661990,-5.20356543,30.29279436,1.06842871,0.39740750,-1.80042595

>  <Name>
2et3_lig

>  <RI>
3.86414e+07

>  <Rbt.Current_Directory>
/home/itssahil/PROJECTS/Mol_Feturizer/New_Systems/rnas/2et3

>  <Rbt.Executable>
rbdock ($Id: //depot/dev/client3/rdock/2013.1/src/exe/rbdock.cxx#4 $)

>  <Rbt.Library>
libRbt.so (2013.1, Build901 2013/11/27)

>  <Rbt.Parameter_File>
/export/apps/rDock/src/rDock_2013.1_src/data/scripts/dock_solv.prm

>  <Rbt.Receptor>
prm/pocket_docking_8.prm

>  <SCORE>
-20.1488

>  <SCORE.INTER>
-13.4585

>  <SCORE.INTER.CONST>
1

>  <SCORE.INTER.POLAR>
-0.682896

>  <SCORE.INTER.ROT>
6

>  <SCORE.INTER.SOLV>
16.8139

>  <SCORE.INTER.VDW>
-19.9006

>  <SCORE.INTER.norm>
-0.434145

>  <SCORE.INTRA>
-6.69033

>  <SCORE.INTRA.DIHEDRAL>
-13.9919

>  <SCORE.INTRA.DIHEDRAL.0>
22.2484

>  <SCORE.INTRA.POLAR>
0

>  <SCORE.INTRA.POLAR.0>
0

>  <SCORE.INTRA.REPUL>
0

>  <SCORE.INTRA.REPUL.0>
0

>  <SCORE.INTRA.SOLV>
0.492564

>  <SCORE.INTRA.SOLV.lig_0>
-75.7198

>  <SCORE.INTRA.VDW>
0.0593306

>  <SCORE.INTRA.VDW.0>
-3.34171

>  <SCORE.INTRA.norm>
-0.215817

>  <SCORE.RESTR>
0

>  <SCORE.RESTR.CAVITY>
0

>  <SCORE.RESTR.norm>
0

>  <SCORE.SYSTEM>
0

>  <SCORE.SYSTEM.CONST>
0

>  <SCORE.SYSTEM.DIHEDRAL>
0

>  <SCORE.SYSTEM.SOLV>
0

>  <SCORE.SYSTEM.norm>
0

>  <SCORE.heavy>
31

>  <SCORE.norm>
-0.649962

>  <RMSD>
5.717

$$$$
2et3_lig
 OpenBabel11021811423D
libRbt.so/2013.1/901 2013/11/27
 31 33  0  0  0  0  0  0  0  0999 V2000
    1.0895   -8.2256   28.3462 C   0  0  2  0  0  0  0  0  0  0  0  0
    1.0605   -7.8536   29.7487 O   0  0  0  0  0  0  0  0  0  0  0  0
   -1.1122   -9.6344   32.9758 C   0  0  2  0  0  0  0  0  0  0  0  0
   -2.2218  -10.0703   33.7660 N   0  0  0  0  0  0  0  0  0  0  0  0
   -2.2819  -12.5795   31.9338 C   0  0  2  0  0  0  0  0  0  0  0  0
    2.4542   -7.8733   27.7447 C   0  0  2  0  0  0  0  0  0  0  0  0
    3.4719   -8.5244   28.5105 N   0  0  0  0  0  0  0  0  0  0  0  0
   -1.1609   -8.0803   32.8198 C   0  0  0  0  0  0  0  0  0  0  0  0
   -1.7601  -14.0262   32.0774 C   0  0  2  0  0  0  0  0  0  0  0  0
   -0.9113  -14.0964   33.2012 O   0  0  0  0  0  0  0  0  0  0  0  0
    2.6526   -6.3192   27.7122 C   0  0  0  0  0  0  0  0  0  0  0  0
    0.0513   -7.5927   31.9446 C   0  0  2  0  0  0  0  0  0  0  0  0
    0.0097   -6.1294   31.7942 N   0  0  0  0  0  0  0  0  0  0  0  0
   -1.0008  -14.4061   30.7410 C   0  0  1  0  0  0  0  0  0  0  0  0
   -0.4186  -15.7861   30.8141 N   0  0  0  0  0  0  0  0  0  0  0  0
    1.5172   -5.7059   26.8339 C   0  0  0  0  0  0  0  0  0  0  0  0
    0.0018   -8.2984   30.5352 C   0  0  2  0  0  0  0  0  0  0  0  0
   -2.0055  -14.2954   29.4752 C   0  0  1  0  0  0  0  0  0  0  0  0
   -3.0803  -15.2048   29.5912 O   0  0  0  0  0  0  0  0  0  0  0  0
    0.1128   -6.1118   27.4645 C   0  0  2  0  0  0  0  0  0  0  0  0
   -0.0268   -7.5585   27.6216 O   0  0  0  0  0  0  0  0  0  0  0  0
    0.0502   -9.8633   30.7263 C   0  0  2  0  0  0  0  0  0  0  0  0
    0.0103  -10.5209   29.4638 O   0  0  0  0  0  0  0  0  0  0  0  0
   -2.6063  -12.8566   29.4253 C   0  0  0  0  0  0  0  0  0  0  0  0
   -3.1913  -12.4814   30.7556 O   0  0  0  0  0  0  0  0  0  0  0  0
   -1.0811   -5.5652   26.7177 C   0  0  0  0  0  0  0  0  0  0  0  0
   -2.3216   -5.9415   27.3432 N   0  0  0  0  0  0  0  0  0  0  0  0
   -1.1647  -10.3302   31.6026 C   0  0  1  0  0  0  0  0  0  0  0  0
   -1.0992  -11.7414   31.7691 O   0  0  0  0  0  0  0  0  0  0  0  0
   -1.4181  -14.6186   28.0946 C   0  0  0  0  0  0  0  0  0  0  0  0
   -1.3165  -16.8713   31.2436 C   0  0  0  0  0  0  0  0  0  0  0  0
  1  2  1  1  0  0  0
  1  6  1  0  0  0  0
  1 21  1  0  0  0  0
  3  4  1  1  0  0  0
  3  8  1  0  0  0  0
  3 28  1  0  0  0  0
  5  9  1  0  0  0  0
  5 25  1  0  0  0  0
  5 29  1  6  0  0  0
  6  7  1  1  0  0  0
  6 11  1  0  0  0  0
  8 12  1  0  0  0  0
  9 10  1  1  0  0  0
  9 14  1  0  0  0  0
 11 16  1  0  0  0  0
 12 13  1  6  0  0  0
 12 17  1  0  0  0  0
 14 15  1  1  0  0  0
 14 18  1  0  0  0  0
 15 31  1  0  0  0  0
 16 20  1  0  0  0  0
 17  2  1  6  0  0  0
 17 22  1  0  0  0  0
 18 19  1  1  0  0  0
 18 24  1  0  0  0  0
 18 30  1  0  0  0  0
 20 21  1  0  0  0  0
 20 26  1  6  0  0  0
 22 23  1  6  0  0  0
 22 28  1  0  0  0  0
 24 25  1  0  0  0  0
 26 27  1  0  0  0  0
 28 29  1  1  0  0  0
M  END
>  <CHROM.1>
-168.92874451,179.89988738,50.36438157,-170.96288504,-178.95129357,89.98072478
-0.58889513,-10.34574274,30.08602590,-0.52095948,-1.23435415,-2.45116616

>  <Name>
2et3_lig

>  <RI>
0

>  <Rbt.Current_Directory>
/home/itssahil/PROJECTS/Mol_Feturizer/New_Systems/rnas/2et3

>  <Rbt.Executable>
rbdock ($Id: //depot/dev/client3/rdock/2013.1/src/exe/rbdock.cxx#4 $)

>  <Rbt.Library>
libRbt.so (2013.1, Build901 2013/11/27)

>  <Rbt.Parameter_File>
/export/apps/rDock/src/rDock_2013.1_src/data/scripts/dock_solv.prm

>  <Rbt.Receptor>
prm/pocket_docking_7.prm

>  <SCORE>
-24.3198

>  <SCORE.INTER>
-15.7212

>  <SCORE.INTER.CONST>
1

>  <SCORE.INTER.POLAR>
-1.08103

>  <SCORE.INTER.ROT>
6

>  <SCORE.INTER.SOLV>
15.5812

>  <SCORE.INTER.VDW>
-19.6711

>  <SCORE.INTER.norm>
-0.507137

>  <SCORE.INTRA>
-8.59855

>  <SCORE.INTRA.DIHEDRAL>
-17.4261

>  <SCORE.INTRA.DIHEDRAL.0>
22.2484

>  <SCORE.INTRA.POLAR>
0

>  <SCORE.INTRA.POLAR.0>
0

>  <SCORE.INTRA.REPUL>
0

>  <SCORE.INTRA.REPUL.0>
0

>  <SCORE.INTRA.SOLV>
-2.75285

>  <SCORE.INTRA.SOLV.lig_0>
-75.7198

>  <SCORE.INTRA.VDW>
1.49095

>  <SCORE.INTRA.VDW.0>
-3.34171

>  <SCORE.INTRA.norm>
-0.277372

>  <SCORE.RESTR>
0

>  <SCORE.RESTR.CAVITY>
0

>  <SCORE.RESTR.norm>
0

>  <SCORE.SYSTEM>
0

>  <SCORE.SYSTEM.CONST>
0

>  <SCORE.SYSTEM.DIHEDRAL>
0

>  <SCORE.SYSTEM.SOLV>
0

>  <SCORE.SYSTEM.norm>
0

>  <SCORE.heavy>
31

>  <SCORE.norm>
-0.784509

>  <RMSD>
5.724

$$$$
2et3_lig
 OpenBabel11021811423D
libRbt.so/2013.1/901 2013/11/27
 31 33  0  0  0  0  0  0  0  0999 V2000
   -1.2473   -8.2187   29.0051 C   0  0  2  0  0  0  0  0  0  0  0  0
   -2.0443   -7.6234   30.0617 O   0  0  0  0  0  0  0  0  0  0  0  0
   -4.3859   -9.6965   32.9817 C   0  0  2  0  0  0  0  0  0  0  0  0
   -5.4502  -10.4680   33.5452 N   0  0  0  0  0  0  0  0  0  0  0  0
   -3.8909  -12.5675   33.4050 C   0  0  2  0  0  0  0  0  0  0  0  0
   -0.0520   -7.3146   28.6855 C   0  0  2  0  0  0  0  0  0  0  0  0
    0.6937   -7.1025   29.8877 N   0  0  0  0  0  0  0  0  0  0  0  0
   -4.9630   -8.3794   32.3698 C   0  0  0  0  0  0  0  0  0  0  0  0
   -2.8983  -13.6356   33.9144 C   0  0  2  0  0  0  0  0  0  0  0  0
   -1.8298  -12.9906   34.5707 O   0  0  0  0  0  0  0  0  0  0  0  0
   -0.5400   -5.9654   28.0556 C   0  0  0  0  0  0  0  0  0  0  0  0
   -3.8003   -7.5284   31.7398 C   0  0  2  0  0  0  0  0  0  0  0  0
   -4.3389   -6.2869   31.1616 N   0  0  0  0  0  0  0  0  0  0  0  0
   -2.4024  -14.4755   32.6671 C   0  0  1  0  0  0  0  0  0  0  0  0
   -1.3939  -15.5102   33.0684 N   0  0  0  0  0  0  0  0  0  0  0  0
   -1.3134   -6.2981   26.7411 C   0  0  0  0  0  0  0  0  0  0  0  0
   -3.0606   -8.3800   30.6379 C   0  0  2  0  0  0  0  0  0  0  0  0
   -3.6606  -15.1839   31.9331 C   0  0  1  0  0  0  0  0  0  0  0  0
   -4.3087  -16.0985   32.7928 O   0  0  0  0  0  0  0  0  0  0  0  0
   -2.5301   -7.2607   27.0983 C   0  0  2  0  0  0  0  0  0  0  0  0
   -2.0958   -8.4635   27.8066 O   0  0  0  0  0  0  0  0  0  0  0  0
   -2.4923   -9.7014   31.2850 C   0  0  2  0  0  0  0  0  0  0  0  0
   -1.8162  -10.4846   30.3066 O   0  0  0  0  0  0  0  0  0  0  0  0
   -4.7000  -14.0911   31.5345 C   0  0  0  0  0  0  0  0  0  0  0  0
   -5.0369  -13.2265   32.7142 O   0  0  0  0  0  0  0  0  0  0  0  0
   -3.3792   -7.6500   25.9111 C   0  0  0  0  0  0  0  0  0  0  0  0
   -4.4754   -8.5009   26.2933 N   0  0  0  0  0  0  0  0  0  0  0  0
   -3.6656  -10.5355   31.9093 C   0  0  1  0  0  0  0  0  0  0  0  0
   -3.1325  -11.7179   32.4933 O   0  0  0  0  0  0  0  0  0  0  0  0
   -3.3510  -16.0284   30.6895 C   0  0  0  0  0  0  0  0  0  0  0  0
   -0.1629  -15.5946   32.2649 C   0  0  0  0  0  0  0  0  0  0  0  0
  1  2  1  1  0  0  0
  1  6  1  0  0  0  0
  1 21  1  0  0  0  0
  3  4  1  6  0  0  0
  3  8  1  0  0  0  0
  3 28  1  0  0  0  0
  5  9  1  0  0  0  0
  5 25  1  0  0  0  0
  5 29  1  6  0  0  0
  6  7  1  1  0  0  0
  6 11  1  0  0  0  0
  8 12  1  0  0  0  0
  9 10  1  6  0  0  0
  9 14  1  0  0  0  0
 11 16  1  0  0  0  0
 12 13  1  6  0  0  0
 12 17  1  0  0  0  0
 14 15  1  1  0  0  0
 14 18  1  0  0  0  0
 15 31  1  0  0  0  0
 16 20  1  0  0  0  0
 17  2  1  1  0  0  0
 17 22  1  0  0  0  0
 18 19  1  1  0  0  0
 18 24  1  0  0  0  0
 18 30  1  0  0  0  0
 20 21  1  0  0  0  0
 20 26  1  6  0  0  0
 22 23  1  6  0  0  0
 22 28  1  0  0  0  0
 24 25  1  0  0  0  0
 26 27  1  0  0  0  0
 28 29  1  1  0  0  0
M  END
>  <CHROM.1>
-170.45521161,-173.93262813,-132.09724966,-179.18433747,-179.03892521,45.91661093
-2.82470045,-10.59682421,30.89823777,-1.36755829,-0.89394520,2.75019624

>  <Name>
2et3_lig

>  <RI>
0

>  <Rbt.Current_Directory>
/home/itssahil/PROJECTS/Mol_Feturizer/New_Systems/rnas/2et3

>  <Rbt.Executable>
rbdock ($Id: //depot/dev/client3/rdock/2013.1/src/exe/rbdock.cxx#4 $)

>  <Rbt.Library>
libRbt.so (2013.1, Build901 2013/11/27)

>  <Rbt.Parameter_File>
/export/apps/rDock/src/rDock_2013.1_src/data/scripts/dock_solv.prm

>  <Rbt.Receptor>
prm/pocket_docking_7.prm

>  <SCORE>
-23.48

>  <SCORE.INTER>
-15.0033

>  <SCORE.INTER.CONST>
1

>  <SCORE.INTER.POLAR>
-2.57684

>  <SCORE.INTER.ROT>
6

>  <SCORE.INTER.SOLV>
9.11073

>  <SCORE.INTER.VDW>
-12.0497

>  <SCORE.INTER.norm>
-0.483978

>  <SCORE.INTRA>
-8.4767

>  <SCORE.INTRA.DIHEDRAL>
-19.4427

>  <SCORE.INTRA.DIHEDRAL.0>
22.2484

>  <SCORE.INTRA.POLAR>
0

>  <SCORE.INTRA.POLAR.0>
0

>  <SCORE.INTRA.REPUL>
0

>  <SCORE.INTRA.REPUL.0>
0

>  <SCORE.INTRA.SOLV>
-2.12628

>  <SCORE.INTRA.SOLV.lig_0>
-75.7198

>  <SCORE.INTRA.VDW>
2.30779

>  <SCORE.INTRA.VDW.0>
-3.34171

>  <SCORE.INTRA.norm>
-0.273442

>  <SCORE.RESTR>
0

>  <SCORE.RESTR.CAVITY>
0

>  <SCORE.RESTR.norm>
0

>  <SCORE.SYSTEM>
0

>  <SCORE.SYSTEM.CONST>
0

>  <SCORE.SYSTEM.DIHEDRAL>
0

>  <SCORE.SYSTEM.SOLV>
0

>  <SCORE.SYSTEM.norm>
0

>  <SCORE.heavy>
31

>  <SCORE.norm>
-0.75742

>  <RMSD>
5.741

$$$$
2et3_lig
 OpenBabel11021811423D
libRbt.so/2013.1/901 2013/11/27
 31 33  0  0  0  0  0  0  0  0999 V2000
    4.4896   -8.4263   26.3101 C   0  0  2  0  0  0  0  0  0  0  0  0
    3.8492   -7.2232   26.8087 O   0  0  0  0  0  0  0  0  0  0  0  0
   -0.1091   -5.9805   27.8548 C   0  0  2  0  0  0  0  0  0  0  0  0
   -1.5371   -5.9795   27.9344 N   0  0  0  0  0  0  0  0  0  0  0  0
    0.4238   -8.4333   30.7471 C   0  0  2  0  0  0  0  0  0  0  0  0
    6.0099   -8.3041   26.4596 C   0  0  2  0  0  0  0  0  0  0  0  0
    6.3137   -8.0448   27.8331 N   0  0  0  0  0  0  0  0  0  0  0  0
    0.3305   -5.8689   26.3593 C   0  0  0  0  0  0  0  0  0  0  0  0
   -0.3055   -9.6882   30.2190 C   0  0  2  0  0  0  0  0  0  0  0  0
    0.1009   -9.9276   28.8901 O   0  0  0  0  0  0  0  0  0  0  0  0
    6.5634   -7.1811   25.5172 C   0  0  0  0  0  0  0  0  0  0  0  0
    1.9000   -5.8781   26.2614 C   0  0  2  0  0  0  0  0  0  0  0  0
    2.3191   -5.7737   24.8545 N   0  0  0  0  0  0  0  0  0  0  0  0
   -1.8636   -9.4260   30.3204 C   0  0  1  0  0  0  0  0  0  0  0  0
   -2.6508  -10.5831   29.7814 N   0  0  0  0  0  0  0  0  0  0  0  0
    6.2094   -7.5670   24.0467 C   0  0  0  0  0  0  0  0  0  0  0  0
    2.4614   -7.2000   26.9124 C   0  0  2  0  0  0  0  0  0  0  0  0
   -2.2843   -9.1385   31.8579 C   0  0  1  0  0  0  0  0  0  0  0  0
   -2.0171  -10.2550   32.6811 O   0  0  0  0  0  0  0  0  0  0  0  0
    4.6287   -7.7157   23.9278 C   0  0  2  0  0  0  0  0  0  0  0  0
    4.0870   -8.6666   24.8972 O   0  0  0  0  0  0  0  0  0  0  0  0
    1.9997   -7.2844   28.4182 C   0  0  2  0  0  0  0  0  0  0  0  0
    2.4996   -8.4706   29.0270 O   0  0  0  0  0  0  0  0  0  0  0  0
   -1.4465   -7.9395   32.4001 C   0  0  0  0  0  0  0  0  0  0  0  0
    0.0174   -8.1643   32.1568 O   0  0  0  0  0  0  0  0  0  0  0  0
    4.1440   -8.0723   22.5423 C   0  0  0  0  0  0  0  0  0  0  0  0
    4.4343   -7.0329   21.5898 N   0  0  0  0  0  0  0  0  0  0  0  0
    0.4325   -7.2722   28.4957 C   0  0  1  0  0  0  0  0  0  0  0  0
    0.0366   -7.3417   29.8602 O   0  0  0  0  0  0  0  0  0  0  0  0
   -3.7672   -8.8490   32.1275 C   0  0  0  0  0  0  0  0  0  0  0  0
   -2.9533  -10.5758   28.3403 C   0  0  0  0  0  0  0  0  0  0  0  0
  1  2  1  6  0  0  0
  1  6  1  0  0  0  0
  1 21  1  0  0  0  0
  3  4  1  6  0  0  0
  3  8  1  0  0  0  0
  3 28  1  0  0  0  0
  5  9  1  0  0  0  0
  5 25  1  0  0  0  0
  5 29  1  6  0  0  0
  6  7  1  1  0  0  0
  6 11  1  0  0  0  0
  8 12  1  0  0  0  0
  9 10  1  6  0  0  0
  9 14  1  0  0  0  0
 11 16  1  0  0  0  0
 12 13  1  6  0  0  0
 12 17  1  0  0  0  0
 14 15  1  1  0  0  0
 14 18  1  0  0  0  0
 15 31  1  0  0  0  0
 16 20  1  0  0  0  0
 17  2  1  1  0  0  0
 17 22  1  0  0  0  0
 18 19  1  1  0  0  0
 18 24  1  0  0  0  0
 18 30  1  0  0  0  0
 20 21  1  0  0  0  0
 20 26  1  6  0  0  0
 22 23  1  6  0  0  0
 22 28  1  0  0  0  0
 24 25  1  0  0  0  0
 26 27  1  0  0  0  0
 28 29  1  1  0  0  0
M  END
>  <CHROM.1>
-172.28901933,-67.60839040,-88.17253671,-131.57631254,-64.07327345,-178.43856216
1.40805155,-8.03498644,27.95285440,-0.78092253,-0.08752145,1.90217640

>  <Name>
2et3_lig

>  <RI>
0

>  <Rbt.Current_Directory>
/home/itssahil/PROJECTS/Mol_Feturizer/New_Systems/rnas/2et3

>  <Rbt.Executable>
rbdock ($Id: //depot/dev/client3/rdock/2013.1/src/exe/rbdock.cxx#4 $)

>  <Rbt.Library>
libRbt.so (2013.1, Build901 2013/11/27)

>  <Rbt.Parameter_File>
/export/apps/rDock/src/rDock_2013.1_src/data/scripts/dock_solv.prm

>  <Rbt.Receptor>
prm/pocket_docking_7.prm

>  <SCORE>
-16.1878

>  <SCORE.INTER>
-9.5929

>  <SCORE.INTER.CONST>
1

>  <SCORE.INTER.POLAR>
0

>  <SCORE.INTER.ROT>
6

>  <SCORE.INTER.SOLV>
13.5939

>  <SCORE.INTER.VDW>
-18.5266

>  <SCORE.INTER.norm>
-0.309448

>  <SCORE.INTRA>
-6.59487

>  <SCORE.INTRA.DIHEDRAL>
-14.3647

>  <SCORE.INTRA.DIHEDRAL.0>
22.2484

>  <SCORE.INTRA.POLAR>
0

>  <SCORE.INTRA.POLAR.0>
0

>  <SCORE.INTRA.REPUL>
0

>  <SCORE.INTRA.REPUL.0>
0

>  <SCORE.INTRA.SOLV>
-0.464972

>  <SCORE.INTRA.SOLV.lig_0>
-75.7198

>  <SCORE.INTRA.VDW>
0.819977

>  <SCORE.INTRA.VDW.0>
-3.34171

>  <SCORE.INTRA.norm>
-0.212738

>  <SCORE.RESTR>
0

>  <SCORE.RESTR.CAVITY>
0

>  <SCORE.RESTR.norm>
0

>  <SCORE.SYSTEM>
0

>  <SCORE.SYSTEM.CONST>
0

>  <SCORE.SYSTEM.DIHEDRAL>
0

>  <SCORE.SYSTEM.SOLV>
0

>  <SCORE.SYSTEM.norm>
0

>  <SCORE.heavy>
31

>  <SCORE.norm>
-0.522186

>  <RMSD>
5.755

$$$$
2et3_lig
 OpenBabel11021811423D
libRbt.so/2013.1/901 2013/11/27
 31 33  0  0  0  0  0  0  0  0999 V2000
   -1.4504   -6.2161   34.6440 C   0  0  2  0  0  0  0  0  0  0  0  0
   -1.5079   -6.2435   33.1941 O   0  0  0  0  0  0  0  0  0  0  0  0
   -1.2242   -9.7045   30.6946 C   0  0  2  0  0  0  0  0  0  0  0  0
   -0.6495  -10.8232   30.0136 N   0  0  0  0  0  0  0  0  0  0  0  0
   -2.8828  -11.0936   33.5073 C   0  0  2  0  0  0  0  0  0  0  0  0
   -2.2445   -5.0163   35.1715 C   0  0  2  0  0  0  0  0  0  0  0  0
   -3.5825   -5.1001   34.6728 N   0  0  0  0  0  0  0  0  0  0  0  0
   -0.5266   -8.3893   30.2192 C   0  0  0  0  0  0  0  0  0  0  0  0
   -3.1276  -12.5721   33.8813 C   0  0  2  0  0  0  0  0  0  0  0  0
   -1.9807  -13.0756   34.5291 O   0  0  0  0  0  0  0  0  0  0  0  0
   -1.5494   -3.6750   34.7554 C   0  0  0  0  0  0  0  0  0  0  0  0
   -1.1466   -7.1542   30.9695 C   0  0  2  0  0  0  0  0  0  0  0  0
   -0.4925   -5.9129   30.5256 N   0  0  0  0  0  0  0  0  0  0  0  0
   -3.4480  -13.3659   32.5493 C   0  0  1  0  0  0  0  0  0  0  0  0
   -3.6536  -14.8270   32.8174 N   0  0  0  0  0  0  0  0  0  0  0  0
   -0.1136   -3.6651   35.3678 C   0  0  0  0  0  0  0  0  0  0  0  0
   -0.9802   -7.3446   32.5260 C   0  0  2  0  0  0  0  0  0  0  0  0
   -4.7593  -12.7452   31.8291 C   0  0  1  0  0  0  0  0  0  0  0  0
   -5.9032  -12.8703   32.6485 O   0  0  0  0  0  0  0  0  0  0  0  0
    0.6775   -4.9363   34.8265 C   0  0  2  0  0  0  0  0  0  0  0  0
   -0.0319   -6.1861   35.0946 O   0  0  0  0  0  0  0  0  0  0  0  0
   -1.6917   -8.6792   32.9737 C   0  0  2  0  0  0  0  0  0  0  0  0
   -1.5566   -8.8689   34.3785 O   0  0  0  0  0  0  0  0  0  0  0  0
   -4.5271  -11.2245   31.5698 C   0  0  0  0  0  0  0  0  0  0  0  0
   -4.0874  -10.5346   32.8282 O   0  0  0  0  0  0  0  0  0  0  0  0
    2.0977   -5.0411   35.3305 C   0  0  0  0  0  0  0  0  0  0  0  0
    2.8569   -3.8527   35.0421 N   0  0  0  0  0  0  0  0  0  0  0  0
   -1.0616   -9.8989   32.2139 C   0  0  1  0  0  0  0  0  0  0  0  0
   -1.7206  -11.0904   32.6255 O   0  0  0  0  0  0  0  0  0  0  0  0
   -5.1981  -13.3957   30.5101 C   0  0  0  0  0  0  0  0  0  0  0  0
   -2.4637  -15.6927   32.7658 C   0  0  0  0  0  0  0  0  0  0  0  0
  1  2  1  6  0  0  0
  1  6  1  0  0  0  0
  1 21  1  0  0  0  0
  3  4  1  6  0  0  0
  3  8  1  0  0  0  0
  3 28  1  0  0  0  0
  5  9  1  0  0  0  0
  5 25  1  0  0  0  0
  5 29  1  6  0  0  0
  6  7  1  6  0  0  0
  6 11  1  0  0  0  0
  8 12  1  0  0  0  0
  9 10  1  6  0  0  0
  9 14  1  0  0  0  0
 11 16  1  0  0  0  0
 12 13  1  6  0  0  0
 12 17  1  0  0  0  0
 14 15  1  1  0  0  0
 14 18  1  0  0  0  0
 15 31  1  0  0  0  0
 16 20  1  0  0  0  0
 17  2  1  1  0  0  0
 17 22  1  0  0  0  0
 18 19  1  1  0  0  0
 18 24  1  0  0  0  0
 18 30  1  0  0  0  0
 20 21  1  0  0  0  0
 20 26  1  1  0  0  0
 22 23  1  1  0  0  0
 22 28  1  0  0  0  0
 24 25  1  0  0  0  0
 26 27  1  0  0  0  0
 28 29  1  1  0  0  0
M  END
>  <CHROM.1>
-172.57681786,-170.81197998,-89.58574914,-179.75012044,-55.39575888,-114.42758764
-1.88587342,-9.04818892,33.07011220,0.87730877,0.91379548,0.83105538

>  <Name>
2et3_lig

>  <RI>
0

>  <Rbt.Current_Directory>
/home/itssahil/PROJECTS/Mol_Feturizer/New_Systems/rnas/2et3

>  <Rbt.Executable>
rbdock ($Id: //depot/dev/client3/rdock/2013.1/src/exe/rbdock.cxx#4 $)

>  <Rbt.Library>
libRbt.so (2013.1, Build901 2013/11/27)

>  <Rbt.Parameter_File>
/export/apps/rDock/src/rDock_2013.1_src/data/scripts/dock_solv.prm

>  <Rbt.Receptor>
prm/pocket_docking_7.prm

>  <SCORE>
-17.4365

>  <SCORE.INTER>
-11.5245

>  <SCORE.INTER.CONST>
1

>  <SCORE.INTER.POLAR>
-2.36401

>  <SCORE.INTER.ROT>
6

>  <SCORE.INTER.SOLV>
11.5155

>  <SCORE.INTER.VDW>
-11.2415

>  <SCORE.INTER.norm>
-0.371759

>  <SCORE.INTRA>
-5.91201

>  <SCORE.INTRA.DIHEDRAL>
-13.6908

>  <SCORE.INTRA.DIHEDRAL.0>
22.2484

>  <SCORE.INTRA.POLAR>
0

>  <SCORE.INTRA.POLAR.0>
0

>  <SCORE.INTRA.REPUL>
0

>  <SCORE.INTRA.REPUL.0>
0

>  <SCORE.INTRA.SOLV>
-3.71013

>  <SCORE.INTRA.SOLV.lig_0>
-75.7198

>  <SCORE.INTRA.VDW>
2.78844

>  <SCORE.INTRA.VDW.0>
-3.34171

>  <SCORE.INTRA.norm>
-0.19071

>  <SCORE.RESTR>
0

>  <SCORE.RESTR.CAVITY>
0

>  <SCORE.RESTR.norm>
0

>  <SCORE.SYSTEM>
0

>  <SCORE.SYSTEM.CONST>
0

>  <SCORE.SYSTEM.DIHEDRAL>
0

>  <SCORE.SYSTEM.SOLV>
0

>  <SCORE.SYSTEM.norm>
0

>  <SCORE.heavy>
31

>  <SCORE.norm>
-0.562468

>  <RMSD>
5.763

$$$$
2et3_lig
 OpenBabel11021811423D
libRbt.so/2013.1/901 2013/11/27
 31 33  0  0  0  0  0  0  0  0999 V2000
    0.0831  -13.5174   31.3549 C   0  0  2  0  0  0  0  0  0  0  0  0
   -0.6807  -12.9566   30.2557 O   0  0  0  0  0  0  0  0  0  0  0  0
   -0.9640   -8.8796   31.5223 C   0  0  2  0  0  0  0  0  0  0  0  0
   -1.4028   -7.5193   31.5751 N   0  0  0  0  0  0  0  0  0  0  0  0
   -2.9438  -10.5706   34.0976 C   0  0  2  0  0  0  0  0  0  0  0  0
    1.1078  -14.5209   30.8152 C   0  0  2  0  0  0  0  0  0  0  0  0
    1.9312  -13.8582   29.8513 N   0  0  0  0  0  0  0  0  0  0  0  0
   -0.3520   -9.1764   30.1153 C   0  0  0  0  0  0  0  0  0  0  0  0
   -4.1665  -10.0875   34.9083 C   0  0  2  0  0  0  0  0  0  0  0  0
   -5.2588   -9.9206   34.0322 O   0  0  0  0  0  0  0  0  0  0  0  0
    0.3821  -15.7680   30.2041 C   0  0  0  0  0  0  0  0  0  0  0  0
    0.1254  -10.6731   30.0451 C   0  0  2  0  0  0  0  0  0  0  0  0
    0.7023  -10.9579   28.7216 N   0  0  0  0  0  0  0  0  0  0  0  0
   -3.7727   -8.7311   35.6237 C   0  0  1  0  0  0  0  0  0  0  0  0
   -4.9248   -8.1653   36.3993 N   0  0  0  0  0  0  0  0  0  0  0  0
   -0.4631  -16.4363   31.3335 C   0  0  0  0  0  0  0  0  0  0  0  0
   -1.0933  -11.6299   30.3383 C   0  0  2  0  0  0  0  0  0  0  0  0
   -2.5052   -8.9631   36.6053 C   0  0  1  0  0  0  0  0  0  0  0  0
   -2.8143   -9.8783   37.6360 O   0  0  0  0  0  0  0  0  0  0  0  0
   -1.4974  -15.3640   31.8950 C   0  0  2  0  0  0  0  0  0  0  0  0
   -0.8369  -14.1402   32.3458 O   0  0  0  0  0  0  0  0  0  0  0  0
   -1.6894  -11.3046   31.7619 C   0  0  2  0  0  0  0  0  0  0  0  0
   -2.7904  -12.1610   32.0486 O   0  0  0  0  0  0  0  0  0  0  0  0
   -1.3239   -9.5610   35.7802 C   0  0  0  0  0  0  0  0  0  0  0  0
   -1.7760  -10.7641   35.0051 O   0  0  0  0  0  0  0  0  0  0  0  0
   -2.3972  -15.8875   32.9896 C   0  0  0  0  0  0  0  0  0  0  0  0
   -1.6441  -16.4783   34.0645 N   0  0  0  0  0  0  0  0  0  0  0  0
   -2.1582   -9.8080   31.8132 C   0  0  1  0  0  0  0  0  0  0  0  0
   -2.6852   -9.5328   33.1054 O   0  0  0  0  0  0  0  0  0  0  0  0
   -1.9860   -7.7364   37.3675 C   0  0  0  0  0  0  0  0  0  0  0  0
   -4.8751   -6.7298   36.7235 C   0  0  0  0  0  0  0  0  0  0  0  0
  1  2  1  6  0  0  0
  1  6  1  0  0  0  0
  1 21  1  0  0  0  0
  3  4  1  6  0  0  0
  3  8  1  0  0  0  0
  3 28  1  0  0  0  0
  5  9  1  0  0  0  0
  5 25  1  0  0  0  0
  5 29  1  6  0  0  0
  6  7  1  6  0  0  0
  6 11  1  0  0  0  0
  8 12  1  0  0  0  0
  9 10  1  6  0  0  0
  9 14  1  0  0  0  0
 11 16  1  0  0  0  0
 12 13  1  6  0  0  0
 12 17  1  0  0  0  0
 14 15  1  1  0  0  0
 14 18  1  0  0  0  0
 15 31  1  0  0  0  0
 16 20  1  0  0  0  0
 17  2  1  1  0  0  0
 17 22  1  0  0  0  0
 18 19  1  1  0  0  0
 18 24  1  0  0  0  0
 18 30  1  0  0  0  0
 20 21  1  0  0  0  0
 20 26  1  1  0  0  0
 22 23  1  6  0  0  0
 22 28  1  0  0  0  0
 24 25  1  0  0  0  0
 26 27  1  0  0  0  0
 28 29  1  1  0  0  0
M  END
>  <CHROM.1>
-145.56746307,-147.66328867,-159.57587646,76.44015381,53.39869871,-130.16724402
-1.72971342,-11.33550888,32.95257951,0.60843739,-1.05962472,2.97051966

>  <Name>
2et3_lig

>  <RI>
0

>  <Rbt.Current_Directory>
/home/itssahil/PROJECTS/Mol_Feturizer/New_Systems/rnas/2et3

>  <Rbt.Executable>
rbdock ($Id: //depot/dev/client3/rdock/2013.1/src/exe/rbdock.cxx#4 $)

>  <Rbt.Library>
libRbt.so (2013.1, Build901 2013/11/27)

>  <Rbt.Parameter_File>
/export/apps/rDock/src/rDock_2013.1_src/data/scripts/dock_solv.prm

>  <Rbt.Receptor>
prm/blind_docking_100.prm

>  <SCORE>
-0.876472

>  <SCORE.INTER>
-4.66859

>  <SCORE.INTER.CONST>
1

>  <SCORE.INTER.POLAR>
-0.341416

>  <SCORE.INTER.ROT>
6

>  <SCORE.INTER.SOLV>
21.7744

>  <SCORE.INTER.VDW>
-16.8325

>  <SCORE.INTER.norm>
-0.1506

>  <SCORE.INTRA>
1.13969

>  <SCORE.INTRA.DIHEDRAL>
-5.26587

>  <SCORE.INTRA.DIHEDRAL.0>
22.2484

>  <SCORE.INTRA.POLAR>
0

>  <SCORE.INTRA.POLAR.0>
0

>  <SCORE.INTRA.REPUL>
0.000665079

>  <SCORE.INTRA.REPUL.0>
0

>  <SCORE.INTRA.SOLV>
-0.768814

>  <SCORE.INTRA.SOLV.lig_0>
-75.7198

>  <SCORE.INTRA.VDW>
4.1537

>  <SCORE.INTRA.VDW.0>
-3.34171

>  <SCORE.INTRA.norm>
0.036764

>  <SCORE.RESTR>
2.65244

>  <SCORE.RESTR.CAVITY>
2.65244

>  <SCORE.RESTR.norm>
0.0855625

>  <SCORE.SYSTEM>
0

>  <SCORE.SYSTEM.CONST>
0

>  <SCORE.SYSTEM.DIHEDRAL>
0

>  <SCORE.SYSTEM.SOLV>
0

>  <SCORE.SYSTEM.norm>
0

>  <SCORE.heavy>
31

>  <SCORE.norm>
-0.0282733

>  <RMSD>
5.782

$$$$
2et3_lig
 OpenBabel11021811423D
libRbt.so/2013.1/901 2013/11/27
 31 33  0  0  0  0  0  0  0  0999 V2000
   -0.8675  -10.9081   31.0227 C   0  0  2  0  0  0  0  0  0  0  0  0
   -2.1735  -10.7159   31.6259 O   0  0  0  0  0  0  0  0  0  0  0  0
   -3.1496   -8.7772   35.3130 C   0  0  2  0  0  0  0  0  0  0  0  0
   -3.2133   -8.5247   36.7194 N   0  0  0  0  0  0  0  0  0  0  0  0
   -1.4853   -6.2750   34.4618 C   0  0  2  0  0  0  0  0  0  0  0  0
   -0.9874  -10.8455   29.4963 C   0  0  2  0  0  0  0  0  0  0  0  0
   -1.5840   -9.5961   29.1365 N   0  0  0  0  0  0  0  0  0  0  0  0
   -3.8246  -10.1510   34.9982 C   0  0  0  0  0  0  0  0  0  0  0  0
   -0.2711   -5.3253   34.5601 C   0  0  2  0  0  0  0  0  0  0  0  0
    0.8367   -5.9337   33.9348 O   0  0  0  0  0  0  0  0  0  0  0  0
   -1.8164  -12.0634   28.9626 C   0  0  0  0  0  0  0  0  0  0  0  0
   -3.7514  -10.4412   33.4543 C   0  0  2  0  0  0  0  0  0  0  0  0
   -4.3854  -11.7345   33.1526 N   0  0  0  0  0  0  0  0  0  0  0  0
    0.0017   -5.0391   36.0933 C   0  0  1  0  0  0  0  0  0  0  0  0
    1.2001   -4.1575   36.2819 N   0  0  0  0  0  0  0  0  0  0  0  0
   -1.0739  -13.3721   29.3780 C   0  0  0  0  0  0  0  0  0  0  0  0
   -2.2451  -10.4379   32.9878 C   0  0  2  0  0  0  0  0  0  0  0  0
   -1.2997   -4.3579   36.7760 C   0  0  1  0  0  0  0  0  0  0  0  0
   -1.5941   -3.1081   36.1870 O   0  0  0  0  0  0  0  0  0  0  0  0
   -0.9377  -13.3963   30.9641 C   0  0  2  0  0  0  0  0  0  0  0  0
   -0.2816  -12.1971   31.4824 O   0  0  0  0  0  0  0  0  0  0  0  0
   -1.5922   -9.0412   33.3207 C   0  0  2  0  0  0  0  0  0  0  0  0
   -0.2309   -9.0153   32.9037 O   0  0  0  0  0  0  0  0  0  0  0  0
   -2.5344   -5.2861   36.5585 C   0  0  0  0  0  0  0  0  0  0  0  0
   -2.6744   -5.6488   35.1088 O   0  0  0  0  0  0  0  0  0  0  0  0
   -0.2484  -14.6261   31.5064 C   0  0  0  0  0  0  0  0  0  0  0  0
   -0.3781  -14.7254   32.9365 N   0  0  0  0  0  0  0  0  0  0  0  0
   -1.6763   -8.7688   34.8637 C   0  0  1  0  0  0  0  0  0  0  0  0
   -1.0896   -7.5033   35.1423 O   0  0  0  0  0  0  0  0  0  0  0  0
   -1.2042   -4.0284   38.2719 C   0  0  0  0  0  0  0  0  0  0  0  0
    2.5188   -4.8125   36.3002 C   0  0  0  0  0  0  0  0  0  0  0  0
  1  2  1  1  0  0  0
  1  6  1  0  0  0  0
  1 21  1  0  0  0  0
  3  4  1  1  0  0  0
  3  8  1  0  0  0  0
  3 28  1  0  0  0  0
  5  9  1  0  0  0  0
  5 25  1  0  0  0  0
  5 29  1  1  0  0  0
  6  7  1  1  0  0  0
  6 11  1  0  0  0  0
  8 12  1  0  0  0  0
  9 10  1  1  0  0  0
  9 14  1  0  0  0  0
 11 16  1  0  0  0  0
 12 13  1  1  0  0  0
 12 17  1  0  0  0  0
 14 15  1  6  0  0  0
 14 18  1  0  0  0  0
 15 31  1  0  0  0  0
 16 20  1  0  0  0  0
 17  2  1  6  0  0  0
 17 22  1  0  0  0  0
 18 19  1  6  0  0  0
 18 24  1  0  0  0  0
 18 30  1  0  0  0  0
 20 21  1  0  0  0  0
 20 26  1  6  0  0  0
 22 23  1  1  0  0  0
 22 28  1  0  0  0  0
 24 25  1  0  0  0  0
 26 27  1  0  0  0  0
 28 29  1  6  0  0  0
M  END
>  <CHROM.1>
-165.71624483,-155.60180074,-84.40525963,-173.22356704,-168.82690807,-67.16274829
-1.33114449,-8.69698994,33.68853951,-1.65248104,0.60919460,0.65312073

>  <Name>
2et3_lig

>  <RI>
0

>  <Rbt.Current_Directory>
/home/itssahil/PROJECTS/Mol_Feturizer/New_Systems/rnas/2et3

>  <Rbt.Executable>
rbdock ($Id: //depot/dev/client3/rdock/2013.1/src/exe/rbdock.cxx#4 $)

>  <Rbt.Library>
libRbt.so (2013.1, Build901 2013/11/27)

>  <Rbt.Parameter_File>
/export/apps/rDock/src/rDock_2013.1_src/data/scripts/dock_solv.prm

>  <Rbt.Receptor>
prm/pocket_docking_7.prm

>  <SCORE>
-27.1342

>  <SCORE.INTER>
-18.1294

>  <SCORE.INTER.CONST>
1

>  <SCORE.INTER.POLAR>
-2.72421

>  <SCORE.INTER.ROT>
6

>  <SCORE.INTER.SOLV>
12.9253

>  <SCORE.INTER.VDW>
-14.914

>  <SCORE.INTER.norm>
-0.584818

>  <SCORE.INTRA>
-9.00487

>  <SCORE.INTRA.DIHEDRAL>
-17.2291

>  <SCORE.INTRA.DIHEDRAL.0>
22.2484

>  <SCORE.INTRA.POLAR>
0

>  <SCORE.INTRA.POLAR.0>
0

>  <SCORE.INTRA.REPUL>
0

>  <SCORE.INTRA.REPUL.0>
0

>  <SCORE.INTRA.SOLV>
-1.97009

>  <SCORE.INTRA.SOLV.lig_0>
-75.7198

>  <SCORE.INTRA.VDW>
0.594728

>  <SCORE.INTRA.VDW.0>
-3.34171

>  <SCORE.INTRA.norm>
-0.29048

>  <SCORE.RESTR>
0

>  <SCORE.RESTR.CAVITY>
0

>  <SCORE.RESTR.norm>
0

>  <SCORE.SYSTEM>
0

>  <SCORE.SYSTEM.CONST>
0

>  <SCORE.SYSTEM.DIHEDRAL>
0

>  <SCORE.SYSTEM.SOLV>
0

>  <SCORE.SYSTEM.norm>
0

>  <SCORE.heavy>
31

>  <SCORE.norm>
-0.875298

>  <RMSD>
5.794

$$$$
2et3_lig
 OpenBabel11021811423D
libRbt.so/2013.1/901 2013/11/27
 31 33  0  0  0  0  0  0  0  0999 V2000
    1.3943   -8.6147   27.9650 C   0  0  2  0  0  0  0  0  0  0  0  0
    1.4611   -8.5717   29.4141 O   0  0  0  0  0  0  0  0  0  0  0  0
   -0.9096  -10.1703   32.5970 C   0  0  2  0  0  0  0  0  0  0  0  0
   -2.0648  -10.5919   33.3273 N   0  0  0  0  0  0  0  0  0  0  0  0
   -1.1140  -13.4252   30.6785 C   0  0  2  0  0  0  0  0  0  0  0  0
    2.7656   -8.2726   27.3726 C   0  0  2  0  0  0  0  0  0  0  0  0
    3.7331   -9.1797   27.9086 N   0  0  0  0  0  0  0  0  0  0  0  0
   -1.0135   -8.6409   32.2932 C   0  0  0  0  0  0  0  0  0  0  0  0
   -1.9164  -14.4353   31.5279 C   0  0  2  0  0  0  0  0  0  0  0  0
   -3.0216  -13.7738   32.1017 O   0  0  0  0  0  0  0  0  0  0  0  0
    3.1347   -6.7800   27.6748 C   0  0  0  0  0  0  0  0  0  0  0  0
    0.2490   -8.1700   31.4824 C   0  0  2  0  0  0  0  0  0  0  0  0
    0.1556   -6.7301   31.1932 N   0  0  0  0  0  0  0  0  0  0  0  0
   -0.9455  -15.0253   32.6308 C   0  0  1  0  0  0  0  0  0  0  0  0
   -1.6605  -15.9854   33.5341 N   0  0  0  0  0  0  0  0  0  0  0  0
    2.0418   -5.8720   27.0284 C   0  0  0  0  0  0  0  0  0  0  0  0
    0.3573   -8.9999   30.1459 C   0  0  2  0  0  0  0  0  0  0  0  0
    0.3170  -15.7596   31.9304 C   0  0  1  0  0  0  0  0  0  0  0  0
   -0.0985  -16.8560   31.1424 O   0  0  0  0  0  0  0  0  0  0  0  0
    0.6263   -6.2687   27.6396 C   0  0  2  0  0  0  0  0  0  0  0  0
    0.3322   -7.6917   27.4788 O   0  0  0  0  0  0  0  0  0  0  0  0
    0.4584  -10.5369   30.4855 C   0  0  2  0  0  0  0  0  0  0  0  0
    0.5609  -11.3054   29.2910 O   0  0  0  0  0  0  0  0  0  0  0  0
    1.0383  -14.7464   30.9888 C   0  0  0  0  0  0  0  0  0  0  0  0
    0.0570  -14.1043   30.0521 O   0  0  0  0  0  0  0  0  0  0  0  0
   -0.5271   -5.4495   27.1099 C   0  0  0  0  0  0  0  0  0  0  0  0
   -0.7616   -5.6973   25.7115 N   0  0  0  0  0  0  0  0  0  0  0  0
   -0.8080  -10.9873   31.2952 C   0  0  1  0  0  0  0  0  0  0  0  0
   -0.6946  -12.3726   31.5975 O   0  0  0  0  0  0  0  0  0  0  0  0
    1.3659  -16.3760   32.8661 C   0  0  0  0  0  0  0  0  0  0  0  0
   -2.1036  -17.2594   32.9434 C   0  0  0  0  0  0  0  0  0  0  0  0
  1  2  1  1  0  0  0
  1  6  1  0  0  0  0
  1 21  1  0  0  0  0
  3  4  1  6  0  0  0
  3  8  1  0  0  0  0
  3 28  1  0  0  0  0
  5  9  1  0  0  0  0
  5 25  1  0  0  0  0
  5 29  1  1  0  0  0
  6  7  1  1  0  0  0
  6 11  1  0  0  0  0
  8 12  1  0  0  0  0
  9 10  1  1  0  0  0
  9 14  1  0  0  0  0
 11 16  1  0  0  0  0
 12 13  1  6  0  0  0
 12 17  1  0  0  0  0
 14 15  1  6  0  0  0
 14 18  1  0  0  0  0
 15 31  1  0  0  0  0
 16 20  1  0  0  0  0
 17  2  1  1  0  0  0
 17 22  1  0  0  0  0
 18 19  1  6  0  0  0
 18 24  1  0  0  0  0
 18 30  1  0  0  0  0
 20 21  1  0  0  0  0
 20 26  1  6  0  0  0
 22 23  1  6  0  0  0
 22 28  1  0  0  0  0
 24 25  1  0  0  0  0
 26 27  1  0  0  0  0
 28 29  1  1  0  0  0
M  END
>  <CHROM.1>
-172.83372331,-134.27832107,68.15838699,-147.50070089,66.53345754,154.28753411
0.06742811,-10.97848771,30.30212862,-1.28492794,-0.77652359,2.87080593

>  <Name>
2et3_lig

>  <RI>
0

>  <Rbt.Current_Directory>
/home/itssahil/PROJECTS/Mol_Feturizer/New_Systems/rnas/2et3

>  <Rbt.Executable>
rbdock ($Id: //depot/dev/client3/rdock/2013.1/src/exe/rbdock.cxx#4 $)

>  <Rbt.Library>
libRbt.so (2013.1, Build901 2013/11/27)

>  <Rbt.Parameter_File>
/export/apps/rDock/src/rDock_2013.1_src/data/scripts/dock_solv.prm

>  <Rbt.Receptor>
prm/blind_docking_100.prm

>  <SCORE>
-12.6493

>  <SCORE.INTER>
-11.9372

>  <SCORE.INTER.CONST>
1

>  <SCORE.INTER.POLAR>
-0.673837

>  <SCORE.INTER.ROT>
6

>  <SCORE.INTER.SOLV>
22.4423

>  <SCORE.INTER.VDW>
-20.7928

>  <SCORE.INTER.norm>
-0.385071

>  <SCORE.INTRA>
-2.99311

>  <SCORE.INTRA.DIHEDRAL>
-8.51755

>  <SCORE.INTRA.DIHEDRAL.0>
22.2484

>  <SCORE.INTRA.POLAR>
0

>  <SCORE.INTRA.POLAR.0>
0

>  <SCORE.INTRA.REPUL>
0

>  <SCORE.INTRA.REPUL.0>
0

>  <SCORE.INTRA.SOLV>
-1.05437

>  <SCORE.INTRA.SOLV.lig_0>
-75.7198

>  <SCORE.INTRA.VDW>
1.79285

>  <SCORE.INTRA.VDW.0>
-3.34171

>  <SCORE.INTRA.norm>
-0.0965521

>  <SCORE.RESTR>
2.28102

>  <SCORE.RESTR.CAVITY>
2.28102

>  <SCORE.RESTR.norm>
0.0735813

>  <SCORE.SYSTEM>
0

>  <SCORE.SYSTEM.CONST>
0

>  <SCORE.SYSTEM.DIHEDRAL>
0

>  <SCORE.SYSTEM.SOLV>
0

>  <SCORE.SYSTEM.norm>
0

>  <SCORE.heavy>
31

>  <SCORE.norm>
-0.408041

>  <RMSD>
5.833

$$$$
2et3_lig
 OpenBabel11021811423D
libRbt.so/2013.1/901 2013/11/27
 31 33  0  0  0  0  0  0  0  0999 V2000
   -1.6252   -5.2687   31.9622 C   0  0  2  0  0  0  0  0  0  0  0  0
   -0.9391   -5.8145   30.8057 O   0  0  0  0  0  0  0  0  0  0  0  0
   -0.7502   -9.8590   29.4229 C   0  0  2  0  0  0  0  0  0  0  0  0
   -0.4605  -11.2596   29.4101 N   0  0  0  0  0  0  0  0  0  0  0  0
   -3.7686  -10.1725   29.3109 C   0  0  2  0  0  0  0  0  0  0  0  0
   -1.9920   -3.8034   31.7034 C   0  0  2  0  0  0  0  0  0  0  0  0
   -2.7783   -3.7339   30.5105 N   0  0  0  0  0  0  0  0  0  0  0  0
    0.5831   -9.0511   29.5312 C   0  0  0  0  0  0  0  0  0  0  0  0
   -5.1659  -10.6311   29.7829 C   0  0  2  0  0  0  0  0  0  0  0  0
   -5.5935   -9.7895   30.8304 O   0  0  0  0  0  0  0  0  0  0  0  0
   -0.6980   -2.9257   31.6015 C   0  0  0  0  0  0  0  0  0  0  0  0
    0.2735   -7.5095   29.5547 C   0  0  2  0  0  0  0  0  0  0  0  0
    1.5262   -6.7440   29.6571 N   0  0  0  0  0  0  0  0  0  0  0  0
   -5.0528  -12.1402   30.2487 C   0  0  1  0  0  0  0  0  0  0  0  0
   -6.3622  -12.6533   30.7693 N   0  0  0  0  0  0  0  0  0  0  0  0
    0.0730   -3.0434   32.9538 C   0  0  0  0  0  0  0  0  0  0  0  0
   -0.6796   -7.1813   30.7674 C   0  0  2  0  0  0  0  0  0  0  0  0
   -4.5426  -13.0678   29.0227 C   0  0  1  0  0  0  0  0  0  0  0  0
   -5.4618  -13.0532   27.9502 O   0  0  0  0  0  0  0  0  0  0  0  0
    0.4148   -4.5769   33.2109 C   0  0  2  0  0  0  0  0  0  0  0  0
   -0.7763   -5.4238   33.1752 O   0  0  0  0  0  0  0  0  0  0  0  0
   -2.0132   -8.0124   30.6307 C   0  0  2  0  0  0  0  0  0  0  0  0
   -2.8910   -7.7279   31.7153 O   0  0  0  0  0  0  0  0  0  0  0  0
   -3.1863  -12.5099   28.4912 C   0  0  0  0  0  0  0  0  0  0  0  0
   -3.2978  -11.0428   28.1948 O   0  0  0  0  0  0  0  0  0  0  0  0
    1.1815   -4.8337   34.4868 C   0  0  0  0  0  0  0  0  0  0  0  0
    0.4620   -4.3732   35.6453 N   0  0  0  0  0  0  0  0  0  0  0  0
   -1.6842   -9.5464   30.6072 C   0  0  1  0  0  0  0  0  0  0  0  0
   -2.8974  -10.2774   30.4764 O   0  0  0  0  0  0  0  0  0  0  0  0
   -4.3652  -14.5642   29.3141 C   0  0  0  0  0  0  0  0  0  0  0  0
   -6.7483  -12.2475   32.1311 C   0  0  0  0  0  0  0  0  0  0  0  0
  1  2  1  6  0  0  0
  1  6  1  0  0  0  0
  1 21  1  0  0  0  0
  3  4  1  1  0  0  0
  3  8  1  0  0  0  0
  3 28  1  0  0  0  0
  5  9  1  0  0  0  0
  5 25  1  0  0  0  0
  5 29  1  1  0  0  0
  6  7  1  6  0  0  0
  6 11  1  0  0  0  0
  8 12  1  0  0  0  0
  9 10  1  1  0  0  0
  9 14  1  0  0  0  0
 11 16  1  0  0  0  0
 12 13  1  1  0  0  0
 12 17  1  0  0  0  0
 14 15  1  6  0  0  0
 14 18  1  0  0  0  0
 15 31  1  0  0  0  0
 16 20  1  0  0  0  0
 17  2  1  6  0  0  0
 17 22  1  0  0  0  0
 18 19  1  6  0  0  0
 18 24  1  0  0  0  0
 18 30  1  0  0  0  0
 20 21  1  0  0  0  0
 20 26  1  1  0  0  0
 22 23  1  1  0  0  0
 22 28  1  0  0  0  0
 24 25  1  0  0  0  0
 26 27  1  0  0  0  0
 28 29  1  6  0  0  0
M  END
>  <CHROM.1>
-171.52172655,-157.83900756,-77.73140720,-170.56072165,58.89806788,-57.38930543
-2.27149115,-8.50791941,30.77067895,1.03806289,0.39382593,0.58881824

>  <Name>
2et3_lig

>  <RI>
0

>  <Rbt.Current_Directory>
/home/itssahil/PROJECTS/Mol_Feturizer/New_Systems/rnas/2et3

>  <Rbt.Executable>
rbdock ($Id: //depot/dev/client3/rdock/2013.1/src/exe/rbdock.cxx#4 $)

>  <Rbt.Library>
libRbt.so (2013.1, Build901 2013/11/27)

>  <Rbt.Parameter_File>
/export/apps/rDock/src/rDock_2013.1_src/data/scripts/dock_solv.prm

>  <Rbt.Receptor>
prm/pocket_docking_6.prm

>  <SCORE>
-14.9235

>  <SCORE.INTER>
-5.79823

>  <SCORE.INTER.CONST>
1

>  <SCORE.INTER.POLAR>
-0.938083

>  <SCORE.INTER.ROT>
6

>  <SCORE.INTER.SOLV>
8.17418

>  <SCORE.INTER.VDW>
-11.0633

>  <SCORE.INTER.norm>
-0.18704

>  <SCORE.INTRA>
-9.12529

>  <SCORE.INTRA.DIHEDRAL>
-18.8663

>  <SCORE.INTRA.DIHEDRAL.0>
22.2484

>  <SCORE.INTRA.POLAR>
0

>  <SCORE.INTRA.POLAR.0>
0

>  <SCORE.INTRA.REPUL>
0

>  <SCORE.INTRA.REPUL.0>
0

>  <SCORE.INTRA.SOLV>
-0.974676

>  <SCORE.INTRA.SOLV.lig_0>
-75.7198

>  <SCORE.INTRA.VDW>
0.795222

>  <SCORE.INTRA.VDW.0>
-3.34171

>  <SCORE.INTRA.norm>
-0.294364

>  <SCORE.RESTR>
0

>  <SCORE.RESTR.CAVITY>
0

>  <SCORE.RESTR.norm>
0

>  <SCORE.SYSTEM>
0

>  <SCORE.SYSTEM.CONST>
0

>  <SCORE.SYSTEM.DIHEDRAL>
0

>  <SCORE.SYSTEM.SOLV>
0

>  <SCORE.SYSTEM.norm>
0

>  <SCORE.heavy>
31

>  <SCORE.norm>
-0.481404

>  <RMSD>
5.847

$$$$
2et3_lig
 OpenBabel11021811423D
libRbt.so/2013.1/901 2013/11/27
 31 33  0  0  0  0  0  0  0  0999 V2000
   -1.8122   -5.8426   31.6191 C   0  0  2  0  0  0  0  0  0  0  0  0
   -1.3617   -5.9773   32.9921 O   0  0  0  0  0  0  0  0  0  0  0  0
   -2.5471   -8.8117   35.9698 C   0  0  2  0  0  0  0  0  0  0  0  0
   -3.3834   -9.5227   36.8868 N   0  0  0  0  0  0  0  0  0  0  0  0
   -3.9878  -11.3525   34.8217 C   0  0  2  0  0  0  0  0  0  0  0  0
   -0.7290   -5.1519   30.7836 C   0  0  2  0  0  0  0  0  0  0  0  0
    0.4828   -5.9036   30.8966 N   0  0  0  0  0  0  0  0  0  0  0  0
   -2.5116   -7.2991   36.3607 C   0  0  0  0  0  0  0  0  0  0  0  0
   -3.7590  -12.6826   34.0707 C   0  0  2  0  0  0  0  0  0  0  0  0
   -2.4069  -13.0585   34.2082 O   0  0  0  0  0  0  0  0  0  0  0  0
   -0.5412   -3.6682   31.2510 C   0  0  0  0  0  0  0  0  0  0  0  0
   -1.6009   -6.5076   35.3521 C   0  0  2  0  0  0  0  0  0  0  0  0
   -1.5646   -5.0821   35.7157 N   0  0  0  0  0  0  0  0  0  0  0  0
   -4.1577  -12.4618   32.5544 C   0  0  1  0  0  0  0  0  0  0  0  0
   -3.9203  -13.6979   31.7391 N   0  0  0  0  0  0  0  0  0  0  0  0
   -1.9020   -2.9269   31.0632 C   0  0  0  0  0  0  0  0  0  0  0  0
   -2.1516   -6.6939   33.8863 C   0  0  2  0  0  0  0  0  0  0  0  0
   -5.7106  -12.0148   32.4430 C   0  0  1  0  0  0  0  0  0  0  0  0
   -6.5714  -13.0208   32.9353 O   0  0  0  0  0  0  0  0  0  0  0  0
   -3.0131   -3.6821   31.9176 C   0  0  2  0  0  0  0  0  0  0  0  0
   -3.1026   -5.1015   31.5793 O   0  0  0  0  0  0  0  0  0  0  0  0
   -2.1773   -8.2285   33.5229 C   0  0  2  0  0  0  0  0  0  0  0  0
   -2.6685   -8.4192   32.2000 O   0  0  0  0  0  0  0  0  0  0  0  0
   -5.9361  -10.7350   33.3060 C   0  0  0  0  0  0  0  0  0  0  0  0
   -5.4154  -10.9381   34.6990 O   0  0  0  0  0  0  0  0  0  0  0  0
   -4.3850   -3.0546   31.8397 C   0  0  0  0  0  0  0  0  0  0  0  0
   -4.8689   -2.9926   30.4855 N   0  0  0  0  0  0  0  0  0  0  0  0
   -3.0885   -9.0011   34.5402 C   0  0  1  0  0  0  0  0  0  0  0  0
   -3.0928  -10.3823   34.2004 O   0  0  0  0  0  0  0  0  0  0  0  0
   -6.2541  -11.7452   31.0332 C   0  0  0  0  0  0  0  0  0  0  0  0
   -2.6434  -13.7867   31.0113 C   0  0  0  0  0  0  0  0  0  0  0  0
  1  2  1  1  0  0  0
  1  6  1  0  0  0  0
  1 21  1  0  0  0  0
  3  4  1  1  0  0  0
  3  8  1  0  0  0  0
  3 28  1  0  0  0  0
  5  9  1  0  0  0  0
  5 25  1  0  0  0  0
  5 29  1  6  0  0  0
  6  7  1  1  0  0  0
  6 11  1  0  0  0  0
  8 12  1  0  0  0  0
  9 10  1  6  0  0  0
  9 14  1  0  0  0  0
 11 16  1  0  0  0  0
 12 13  1  1  0  0  0
 12 17  1  0  0  0  0
 14 15  1  6  0  0  0
 14 18  1  0  0  0  0
 15 31  1  0  0  0  0
 16 20  1  0  0  0  0
 17  2  1  6  0  0  0
 17 22  1  0  0  0  0
 18 19  1  1  0  0  0
 18 24  1  0  0  0  0
 18 30  1  0  0  0  0
 20 21  1  0  0  0  0
 20 26  1  6  0  0  0
 22 23  1  6  0  0  0
 22 28  1  0  0  0  0
 24 25  1  0  0  0  0
 26 27  1  0  0  0  0
 28 29  1  6  0  0  0
M  END
>  <CHROM.1>
-174.01607606,174.54800442,-95.53253295,-170.57703070,58.48531496,68.79935356
-3.14102335,-8.42372352,33.08018223,0.87429995,-1.12330438,-0.79594846

>  <Name>
2et3_lig

>  <RI>
0

>  <Rbt.Current_Directory>
/home/itssahil/PROJECTS/Mol_Feturizer/New_Systems/rnas/2et3

>  <Rbt.Executable>
rbdock ($Id: //depot/dev/client3/rdock/2013.1/src/exe/rbdock.cxx#4 $)

>  <Rbt.Library>
libRbt.so (2013.1, Build901 2013/11/27)

>  <Rbt.Parameter_File>
/export/apps/rDock/src/rDock_2013.1_src/data/scripts/dock_solv.prm

>  <Rbt.Receptor>
prm/pocket_docking_6.prm

>  <SCORE>
-18.741

>  <SCORE.INTER>
-8.27498

>  <SCORE.INTER.CONST>
1

>  <SCORE.INTER.POLAR>
-0.997501

>  <SCORE.INTER.ROT>
6

>  <SCORE.INTER.SOLV>
12.3232

>  <SCORE.INTER.VDW>
-13.8994

>  <SCORE.INTER.norm>
-0.266935

>  <SCORE.INTRA>
-10.466

>  <SCORE.INTRA.DIHEDRAL>
-20.1848

>  <SCORE.INTRA.DIHEDRAL.0>
22.2484

>  <SCORE.INTRA.POLAR>
0

>  <SCORE.INTRA.POLAR.0>
0

>  <SCORE.INTRA.REPUL>
0

>  <SCORE.INTRA.REPUL.0>
0

>  <SCORE.INTRA.SOLV>
-1.88295

>  <SCORE.INTRA.SOLV.lig_0>
-75.7198

>  <SCORE.INTRA.VDW>
0.567844

>  <SCORE.INTRA.VDW.0>
-3.34171

>  <SCORE.INTRA.norm>
-0.337614

>  <SCORE.RESTR>
0

>  <SCORE.RESTR.CAVITY>
0

>  <SCORE.RESTR.norm>
0

>  <SCORE.SYSTEM>
0

>  <SCORE.SYSTEM.CONST>
0

>  <SCORE.SYSTEM.DIHEDRAL>
0

>  <SCORE.SYSTEM.SOLV>
0

>  <SCORE.SYSTEM.norm>
0

>  <SCORE.heavy>
31

>  <SCORE.norm>
-0.604548

>  <RMSD>
5.850

$$$$
2et3_lig
 OpenBabel11021811423D
libRbt.so/2013.1/901 2013/11/27
 31 33  0  0  0  0  0  0  0  0999 V2000
    1.3588   -8.6095   28.0032 C   0  0  2  0  0  0  0  0  0  0  0  0
    1.4106   -8.5816   29.4533 O   0  0  0  0  0  0  0  0  0  0  0  0
   -0.9753  -10.2298   32.5992 C   0  0  2  0  0  0  0  0  0  0  0  0
   -2.1331  -10.6723   33.3130 N   0  0  0  0  0  0  0  0  0  0  0  0
   -1.1074  -13.4795   30.6665 C   0  0  2  0  0  0  0  0  0  0  0  0
    2.7278   -8.2303   27.4283 C   0  0  2  0  0  0  0  0  0  0  0  0
    3.7100   -9.1217   27.9636 N   0  0  0  0  0  0  0  0  0  0  0  0
   -1.0991   -8.7010   32.3001 C   0  0  0  0  0  0  0  0  0  0  0  0
   -1.9109  -14.5004   31.5018 C   0  0  2  0  0  0  0  0  0  0  0  0
   -3.0320  -13.8526   32.0604 O   0  0  0  0  0  0  0  0  0  0  0  0
    3.0605   -6.7334   27.7509 C   0  0  0  0  0  0  0  0  0  0  0  0
    0.1662   -8.2073   31.5075 C   0  0  2  0  0  0  0  0  0  0  0  0
    0.0542   -6.7678   31.2228 N   0  0  0  0  0  0  0  0  0  0  0  0
   -0.9500  -15.0821   32.6177 C   0  0  1  0  0  0  0  0  0  0  0  0
   -1.6675  -16.0521   33.5082 N   0  0  0  0  0  0  0  0  0  0  0  0
    1.9540   -5.8426   27.1038 C   0  0  0  0  0  0  0  0  0  0  0  0
    0.3044   -9.0298   30.1692 C   0  0  2  0  0  0  0  0  0  0  0  0
    0.3309  -15.8006   31.9347 C   0  0  1  0  0  0  0  0  0  0  0  0
   -0.0605  -16.8997   31.1383 O   0  0  0  0  0  0  0  0  0  0  0  0
    0.5418   -6.2775   27.6965 C   0  0  2  0  0  0  0  0  0  0  0  0
    0.2812   -7.7048   27.5169 O   0  0  0  0  0  0  0  0  0  0  0  0
    0.4249  -10.5664   30.5039 C   0  0  2  0  0  0  0  0  0  0  0  0
    0.5545  -11.3283   29.3079 O   0  0  0  0  0  0  0  0  0  0  0  0
    1.0547  -14.7773   31.0060 C   0  0  0  0  0  0  0  0  0  0  0  0
    0.0803  -14.1440   30.0562 O   0  0  0  0  0  0  0  0  0  0  0  0
   -0.6244   -5.4782   27.1645 C   0  0  0  0  0  0  0  0  0  0  0  0
   -0.7914   -5.6549   25.7459 N   0  0  0  0  0  0  0  0  0  0  0  0
   -0.8445  -11.0397   31.2956 C   0  0  1  0  0  0  0  0  0  0  0  0
   -0.7136  -12.4244   31.5938 O   0  0  0  0  0  0  0  0  0  0  0  0
    1.3726  -16.4073   32.8846 C   0  0  0  0  0  0  0  0  0  0  0  0
   -2.1522  -17.2979   32.8908 C   0  0  0  0  0  0  0  0  0  0  0  0
  1  2  1  1  0  0  0
  1  6  1  0  0  0  0
  1 21  1  0  0  0  0
  3  4  1  6  0  0  0
  3  8  1  0  0  0  0
  3 28  1  0  0  0  0
  5  9  1  0  0  0  0
  5 25  1  0  0  0  0
  5 29  1  1  0  0  0
  6  7  1  1  0  0  0
  6 11  1  0  0  0  0
  8 12  1  0  0  0  0
  9 10  1  1  0  0  0
  9 14  1  0  0  0  0
 11 16  1  0  0  0  0
 12 13  1  6  0  0  0
 12 17  1  0  0  0  0
 14 15  1  6  0  0  0
 14 18  1  0  0  0  0
 15 31  1  0  0  0  0
 16 20  1  0  0  0  0
 17  2  1  1  0  0  0
 17 22  1  0  0  0  0
 18 19  1  6  0  0  0
 18 24  1  0  0  0  0
 18 30  1  0  0  0  0
 20 21  1  0  0  0  0
 20 26  1  6  0  0  0
 22 23  1  6  0  0  0
 22 28  1  0  0  0  0
 24 25  1  0  0  0  0
 26 27  1  0  0  0  0
 28 29  1  1  0  0  0
M  END
>  <CHROM.1>
-173.47831957,-133.93345161,64.91717020,-147.01040757,63.15680266,154.15561645
0.03315067,-11.00591978,30.31780503,-1.30018155,-0.75655551,2.86464395

>  <Name>
2et3_lig

>  <RI>
0

>  <Rbt.Current_Directory>
/home/itssahil/PROJECTS/Mol_Feturizer/New_Systems/rnas/2et3

>  <Rbt.Executable>
rbdock ($Id: //depot/dev/client3/rdock/2013.1/src/exe/rbdock.cxx#4 $)

>  <Rbt.Library>
libRbt.so (2013.1, Build901 2013/11/27)

>  <Rbt.Parameter_File>
/export/apps/rDock/src/rDock_2013.1_src/data/scripts/dock_solv.prm

>  <Rbt.Receptor>
prm/blind_docking_100.prm

>  <SCORE>
-13.2673

>  <SCORE.INTER>
-12.4198

>  <SCORE.INTER.CONST>
1

>  <SCORE.INTER.POLAR>
-0.663073

>  <SCORE.INTER.ROT>
6

>  <SCORE.INTER.SOLV>
22.0378

>  <SCORE.INTER.VDW>
-21.0156

>  <SCORE.INTER.norm>
-0.40064

>  <SCORE.INTRA>
-3.27465

>  <SCORE.INTRA.DIHEDRAL>
-8.55337

>  <SCORE.INTRA.DIHEDRAL.0>
22.2484

>  <SCORE.INTRA.POLAR>
0

>  <SCORE.INTRA.POLAR.0>
0

>  <SCORE.INTRA.REPUL>
0

>  <SCORE.INTRA.REPUL.0>
0

>  <SCORE.INTRA.SOLV>
-1.00691

>  <SCORE.INTRA.SOLV.lig_0>
-75.7198

>  <SCORE.INTRA.VDW>
1.50549

>  <SCORE.INTRA.VDW.0>
-3.34171

>  <SCORE.INTRA.norm>
-0.105634

>  <SCORE.RESTR>
2.42714

>  <SCORE.RESTR.CAVITY>
2.42714

>  <SCORE.RESTR.norm>
0.0782949

>  <SCORE.SYSTEM>
0

>  <SCORE.SYSTEM.CONST>
0

>  <SCORE.SYSTEM.DIHEDRAL>
0

>  <SCORE.SYSTEM.SOLV>
0

>  <SCORE.SYSTEM.norm>
0

>  <SCORE.heavy>
31

>  <SCORE.norm>
-0.427979

>  <RMSD>
5.851

$$$$
2et3_lig
 OpenBabel11021811423D
libRbt.so/2013.1/901 2013/11/27
 31 33  0  0  0  0  0  0  0  0999 V2000
    0.2553   -8.0438   28.7409 C   0  0  2  0  0  0  0  0  0  0  0  0
    0.0703   -7.7866   30.1572 O   0  0  0  0  0  0  0  0  0  0  0  0
   -1.4272  -10.4905   33.1158 C   0  0  2  0  0  0  0  0  0  0  0  0
   -2.3493  -11.3109   33.8383 N   0  0  0  0  0  0  0  0  0  0  0  0
   -1.0221  -13.2126   30.4812 C   0  0  2  0  0  0  0  0  0  0  0  0
    1.2957   -7.0745   28.1697 C   0  0  2  0  0  0  0  0  0  0  0  0
    2.5064   -7.2115   28.9191 N   0  0  0  0  0  0  0  0  0  0  0  0
   -1.9027   -9.0027   33.1648 C   0  0  0  0  0  0  0  0  0  0  0  0
   -2.0337  -14.3055   30.8910 C   0  0  2  0  0  0  0  0  0  0  0  0
   -3.2558  -13.6914   31.2342 O   0  0  0  0  0  0  0  0  0  0  0  0
    0.7512   -5.6056   28.2037 C   0  0  0  0  0  0  0  0  0  0  0  0
   -0.8988   -8.0940   32.3651 C   0  0  2  0  0  0  0  0  0  0  0  0
   -1.3426   -6.6916   32.4078 N   0  0  0  0  0  0  0  0  0  0  0  0
   -1.4169  -15.1103   32.1070 C   0  0  1  0  0  0  0  0  0  0  0  0
   -2.3600  -16.1666   32.6005 N   0  0  0  0  0  0  0  0  0  0  0  0
   -0.5473   -5.5519   27.3390 C   0  0  0  0  0  0  0  0  0  0  0  0
   -0.8005   -8.6011   30.8752 C   0  0  2  0  0  0  0  0  0  0  0  0
   -0.0081  -15.7834   31.6760 C   0  0  1  0  0  0  0  0  0  0  0  0
   -0.1835  -16.7184   30.6317 O   0  0  0  0  0  0  0  0  0  0  0  0
   -1.5979   -6.5883   27.9367 C   0  0  2  0  0  0  0  0  0  0  0  0
   -1.0498   -7.9402   28.0322 O   0  0  0  0  0  0  0  0  0  0  0  0
   -0.3211  -10.1037   30.8594 C   0  0  2  0  0  0  0  0  0  0  0  0
   -0.2218  -10.5811   29.5215 O   0  0  0  0  0  0  0  0  0  0  0  0
    0.9520  -14.6689   31.1568 C   0  0  0  0  0  0  0  0  0  0  0  0
    0.2780  -13.8387   30.1037 O   0  0  0  0  0  0  0  0  0  0  0  0
   -2.9160   -6.6263   27.1999 C   0  0  0  0  0  0  0  0  0  0  0  0
   -3.6684   -5.4134   27.3863 N   0  0  0  0  0  0  0  0  0  0  0  0
   -1.3332  -10.9936   31.6630 C   0  0  1  0  0  0  0  0  0  0  0  0
   -0.8802  -12.3418   31.6431 O   0  0  0  0  0  0  0  0  0  0  0  0
    0.7311  -16.5913   32.7514 C   0  0  0  0  0  0  0  0  0  0  0  0
   -3.2425  -15.8069   33.7230 C   0  0  0  0  0  0  0  0  0  0  0  0
  1  2  1  1  0  0  0
  1  6  1  0  0  0  0
  1 21  1  0  0  0  0
  3  4  1  1  0  0  0
  3  8  1  0  0  0  0
  3 28  1  0  0  0  0
  5  9  1  0  0  0  0
  5 25  1  0  0  0  0
  5 29  1  1  0  0  0
  6  7  1  1  0  0  0
  6 11  1  0  0  0  0
  8 12  1  0  0  0  0
  9 10  1  1  0  0  0
  9 14  1  0  0  0  0
 11 16  1  0  0  0  0
 12 13  1  6  0  0  0
 12 17  1  0  0  0  0
 14 15  1  6  0  0  0
 14 18  1  0  0  0  0
 15 31  1  0  0  0  0
 16 20  1  0  0  0  0
 17  2  1  6  0  0  0
 17 22  1  0  0  0  0
 18 19  1  6  0  0  0
 18 24  1  0  0  0  0
 18 30  1  0  0  0  0
 20 21  1  0  0  0  0
 20 26  1  6  0  0  0
 22 23  1  6  0  0  0
 22 28  1  0  0  0  0
 24 25  1  0  0  0  0
 26 27  1  0  0  0  0
 28 29  1  1  0  0  0
M  END
>  <CHROM.1>
-177.49721615,-112.50365323,-94.22648646,-177.13085036,-68.74471353,163.12881885
-0.90350941,-10.75792030,30.60220139,-1.50599173,-0.84102341,2.81550849

>  <Name>
2et3_lig

>  <RI>
0

>  <Rbt.Current_Directory>
/home/itssahil/PROJECTS/Mol_Feturizer/New_Systems/rnas/2et3

>  <Rbt.Executable>
rbdock ($Id: //depot/dev/client3/rdock/2013.1/src/exe/rbdock.cxx#4 $)

>  <Rbt.Library>
libRbt.so (2013.1, Build901 2013/11/27)

>  <Rbt.Parameter_File>
/export/apps/rDock/src/rDock_2013.1_src/data/scripts/dock_solv.prm

>  <Rbt.Receptor>
prm/pocket_docking_6.prm

>  <SCORE>
-22.9251

>  <SCORE.INTER>
-15.6182

>  <SCORE.INTER.CONST>
1

>  <SCORE.INTER.POLAR>
-0.896191

>  <SCORE.INTER.ROT>
6

>  <SCORE.INTER.SOLV>
11.7306

>  <SCORE.INTER.VDW>
-18.935

>  <SCORE.INTER.norm>
-0.503812

>  <SCORE.INTRA>
-7.30695

>  <SCORE.INTRA.DIHEDRAL>
-12.7988

>  <SCORE.INTRA.DIHEDRAL.0>
22.2484

>  <SCORE.INTRA.POLAR>
0

>  <SCORE.INTRA.POLAR.0>
0

>  <SCORE.INTRA.REPUL>
0

>  <SCORE.INTRA.REPUL.0>
0

>  <SCORE.INTRA.SOLV>
-3.31979

>  <SCORE.INTRA.SOLV.lig_0>
-75.7198

>  <SCORE.INTRA.VDW>
0.752356

>  <SCORE.INTRA.VDW.0>
-3.34171

>  <SCORE.INTRA.norm>
-0.235708

>  <SCORE.RESTR>
0

>  <SCORE.RESTR.CAVITY>
0

>  <SCORE.RESTR.norm>
0

>  <SCORE.SYSTEM>
0

>  <SCORE.SYSTEM.CONST>
0

>  <SCORE.SYSTEM.DIHEDRAL>
0

>  <SCORE.SYSTEM.SOLV>
0

>  <SCORE.SYSTEM.norm>
0

>  <SCORE.heavy>
31

>  <SCORE.norm>
-0.73952

>  <RMSD>
5.874

$$$$
2et3_lig
 OpenBabel11021811423D
libRbt.so/2013.1/901 2013/11/27
 31 33  0  0  0  0  0  0  0  0999 V2000
   -3.0288  -13.1846   31.9919 C   0  0  2  0  0  0  0  0  0  0  0  0
   -3.1697  -13.1165   33.4347 O   0  0  0  0  0  0  0  0  0  0  0  0
   -5.2539   -9.4041   33.8597 C   0  0  2  0  0  0  0  0  0  0  0  0
   -6.0586   -8.3777   34.4467 N   0  0  0  0  0  0  0  0  0  0  0  0
   -2.2340   -8.2135   35.8532 C   0  0  2  0  0  0  0  0  0  0  0  0
   -2.1619  -14.3898   31.6121 C   0  0  2  0  0  0  0  0  0  0  0  0
   -2.7523  -15.5690   32.1662 N   0  0  0  0  0  0  0  0  0  0  0  0
   -6.0956  -10.7138   33.7239 C   0  0  0  0  0  0  0  0  0  0  0  0
   -2.9773   -7.6079   37.0642 C   0  0  2  0  0  0  0  0  0  0  0  0
   -3.9629   -8.5185   37.4975 O   0  0  0  0  0  0  0  0  0  0  0  0
   -0.6908  -14.1839   32.1110 C   0  0  0  0  0  0  0  0  0  0  0  0
   -5.2157  -11.8510   33.0871 C   0  0  2  0  0  0  0  0  0  0  0  0
   -6.0038  -13.0869   32.9574 N   0  0  0  0  0  0  0  0  0  0  0  0
   -3.6085   -6.2288   36.6096 C   0  0  1  0  0  0  0  0  0  0  0  0
   -4.3923   -5.5923   37.7184 N   0  0  0  0  0  0  0  0  0  0  0  0
   -0.1266  -12.8962   31.4325 C   0  0  0  0  0  0  0  0  0  0  0  0
   -3.9409  -12.0955   33.9824 C   0  0  2  0  0  0  0  0  0  0  0  0
   -2.4461   -5.2206   36.1037 C   0  0  1  0  0  0  0  0  0  0  0  0
   -1.5407   -4.9167   37.1445 O   0  0  0  0  0  0  0  0  0  0  0  0
   -1.0620  -11.6675   31.8198 C   0  0  2  0  0  0  0  0  0  0  0  0
   -2.4628  -11.9076   31.4769 O   0  0  0  0  0  0  0  0  0  0  0  0
   -3.1150  -10.7571   34.1020 C   0  0  2  0  0  0  0  0  0  0  0  0
   -1.9558  -10.9568   34.9046 O   0  0  0  0  0  0  0  0  0  0  0  0
   -1.6384   -5.9069   34.9591 C   0  0  0  0  0  0  0  0  0  0  0  0
   -1.1780   -7.2715   35.3816 O   0  0  0  0  0  0  0  0  0  0  0  0
   -0.6174  -10.3455   31.2397 C   0  0  0  0  0  0  0  0  0  0  0  0
   -1.4974   -9.2715   31.6194 N   0  0  0  0  0  0  0  0  0  0  0  0
   -4.0091   -9.6349   34.7372 C   0  0  1  0  0  0  0  0  0  0  0  0
   -3.2496   -8.4358   34.8297 O   0  0  0  0  0  0  0  0  0  0  0  0
   -2.8948   -3.8376   35.6123 C   0  0  0  0  0  0  0  0  0  0  0  0
   -5.6205   -4.8715   37.3440 C   0  0  0  0  0  0  0  0  0  0  0  0
  1  2  1  1  0  0  0
  1  6  1  0  0  0  0
  1 21  1  0  0  0  0
  3  4  1  1  0  0  0
  3  8  1  0  0  0  0
  3 28  1  0  0  0  0
  5  9  1  0  0  0  0
  5 25  1  0  0  0  0
  5 29  1  6  0  0  0
  6  7  1  1  0  0  0
  6 11  1  0  0  0  0
  8 12  1  0  0  0  0
  9 10  1  6  0  0  0
  9 14  1  0  0  0  0
 11 16  1  0  0  0  0
 12 13  1  1  0  0  0
 12 17  1  0  0  0  0
 14 15  1  1  0  0  0
 14 18  1  0  0  0  0
 15 31  1  0  0  0  0
 16 20  1  0  0  0  0
 17  2  1  6  0  0  0
 17 22  1  0  0  0  0
 18 19  1  1  0  0  0
 18 24  1  0  0  0  0
 18 30  1  0  0  0  0
 20 21  1  0  0  0  0
 20 26  1  6  0  0  0
 22 23  1  1  0  0  0
 22 28  1  0  0  0  0
 24 25  1  0  0  0  0
 26 27  1  0  0  0  0
 28 29  1  6  0  0  0
M  END
>  <CHROM.1>
-179.14875034,-88.19471081,-143.41335174,39.09522327,179.94112640,162.91758248
-3.04696177,-9.64268258,34.24897985,1.46947630,-0.33955477,-2.64173738

>  <Name>
2et3_lig

>  <RI>
2.5794e+07

>  <Rbt.Current_Directory>
/home/itssahil/PROJECTS/Mol_Feturizer/New_Systems/rnas/2et3

>  <Rbt.Executable>
rbdock ($Id: //depot/dev/client3/rdock/2013.1/src/exe/rbdock.cxx#4 $)

>  <Rbt.Library>
libRbt.so (2013.1, Build901 2013/11/27)

>  <Rbt.Parameter_File>
/export/apps/rDock/src/rDock_2013.1_src/data/scripts/dock_solv.prm

>  <Rbt.Receptor>
prm/pocket_docking_5.prm

>  <SCORE>
-20.997

>  <SCORE.INTER>
-14.5648

>  <SCORE.INTER.CONST>
1

>  <SCORE.INTER.POLAR>
-1.61426

>  <SCORE.INTER.ROT>
6

>  <SCORE.INTER.SOLV>
11.1618

>  <SCORE.INTER.VDW>
-15.6496

>  <SCORE.INTER.norm>
-0.469833

>  <SCORE.INTRA>
-6.43214

>  <SCORE.INTRA.DIHEDRAL>
-14.7252

>  <SCORE.INTRA.DIHEDRAL.0>
22.2484

>  <SCORE.INTRA.POLAR>
0

>  <SCORE.INTRA.POLAR.0>
0

>  <SCORE.INTRA.REPUL>
0

>  <SCORE.INTRA.REPUL.0>
0

>  <SCORE.INTRA.SOLV>
1.23325

>  <SCORE.INTRA.SOLV.lig_0>
-75.7198

>  <SCORE.INTRA.VDW>
0.313839

>  <SCORE.INTRA.VDW.0>
-3.34171

>  <SCORE.INTRA.norm>
-0.207488

>  <SCORE.RESTR>
0

>  <SCORE.RESTR.CAVITY>
0

>  <SCORE.RESTR.norm>
0

>  <SCORE.SYSTEM>
0

>  <SCORE.SYSTEM.CONST>
0

>  <SCORE.SYSTEM.DIHEDRAL>
0

>  <SCORE.SYSTEM.SOLV>
0

>  <SCORE.SYSTEM.norm>
0

>  <SCORE.heavy>
31

>  <SCORE.norm>
-0.677321

>  <RMSD>
5.892

$$$$
2et3_lig
 OpenBabel11021811423D
libRbt.so/2013.1/901 2013/11/27
 31 33  0  0  0  0  0  0  0  0999 V2000
   -1.7326   -5.7831   31.6600 C   0  0  2  0  0  0  0  0  0  0  0  0
   -1.2664   -5.8958   33.0297 O   0  0  0  0  0  0  0  0  0  0  0  0
   -2.3886   -8.7496   36.0135 C   0  0  2  0  0  0  0  0  0  0  0  0
   -3.2038   -9.4628   36.9474 N   0  0  0  0  0  0  0  0  0  0  0  0
   -3.9051  -11.2614   34.8606 C   0  0  2  0  0  0  0  0  0  0  0  0
   -0.7007   -5.0205   30.8223 C   0  0  2  0  0  0  0  0  0  0  0  0
    0.5572   -5.6939   30.9245 N   0  0  0  0  0  0  0  0  0  0  0  0
   -2.3295   -7.2411   36.4175 C   0  0  0  0  0  0  0  0  0  0  0  0
   -3.6671  -12.5985   34.1249 C   0  0  2  0  0  0  0  0  0  0  0  0
   -2.3183  -12.9761   34.2879 O   0  0  0  0  0  0  0  0  0  0  0  0
   -0.6051   -3.5301   31.2968 C   0  0  0  0  0  0  0  0  0  0  0  0
   -1.4419   -6.4471   35.3905 C   0  0  2  0  0  0  0  0  0  0  0  0
   -1.3835   -5.0255   35.7664 N   0  0  0  0  0  0  0  0  0  0  0  0
   -4.0402  -12.3899   32.6004 C   0  0  1  0  0  0  0  0  0  0  0  0
   -3.7923  -13.6335   31.7998 N   0  0  0  0  0  0  0  0  0  0  0  0
   -2.0116   -2.8762   31.1206 C   0  0  0  0  0  0  0  0  0  0  0  0
   -2.0361   -6.6148   33.9395 C   0  0  2  0  0  0  0  0  0  0  0  0
   -5.5901  -11.9406   32.4596 C   0  0  1  0  0  0  0  0  0  0  0  0
   -6.4612  -12.9404   32.9464 O   0  0  0  0  0  0  0  0  0  0  0  0
   -3.0672   -3.7051   31.9770 C   0  0  2  0  0  0  0  0  0  0  0  0
   -3.0679   -5.1256   31.6314 O   0  0  0  0  0  0  0  0  0  0  0  0
   -2.0847   -8.1456   33.5625 C   0  0  2  0  0  0  0  0  0  0  0  0
   -2.6154   -8.3196   32.2526 O   0  0  0  0  0  0  0  0  0  0  0  0
   -5.8268  -10.6529   33.3077 C   0  0  0  0  0  0  0  0  0  0  0  0
   -5.3295  -10.8450   34.7108 O   0  0  0  0  0  0  0  0  0  0  0  0
   -4.4767   -3.1661   31.9101 C   0  0  0  0  0  0  0  0  0  0  0  0
   -5.3802   -3.9275   32.7321 N   0  0  0  0  0  0  0  0  0  0  0  0
   -2.9724   -8.9208   34.5984 C   0  0  1  0  0  0  0  0  0  0  0  0
   -2.9978  -10.2986   34.2457 O   0  0  0  0  0  0  0  0  0  0  0  0
   -6.1097  -11.6820   31.0388 C   0  0  0  0  0  0  0  0  0  0  0  0
   -2.4479  -13.8040   31.2239 C   0  0  0  0  0  0  0  0  0  0  0  0
  1  2  1  1  0  0  0
  1  6  1  0  0  0  0
  1 21  1  0  0  0  0
  3  4  1  1  0  0  0
  3  8  1  0  0  0  0
  3 28  1  0  0  0  0
  5  9  1  0  0  0  0
  5 25  1  0  0  0  0
  5 29  1  6  0  0  0
  6  7  1  1  0  0  0
  6 11  1  0  0  0  0
  8 12  1  0  0  0  0
  9 10  1  6  0  0  0
  9 14  1  0  0  0  0
 11 16  1  0  0  0  0
 12 13  1  1  0  0  0
 12 17  1  0  0  0  0
 14 15  1  6  0  0  0
 14 18  1  0  0  0  0
 15 31  1  0  0  0  0
 16 20  1  0  0  0  0
 17  2  1  6  0  0  0
 17 22  1  0  0  0  0
 18 19  1  1  0  0  0
 18 24  1  0  0  0  0
 18 30  1  0  0  0  0
 20 21  1  0  0  0  0
 20 26  1  6  0  0  0
 22 23  1  6  0  0  0
 22 28  1  0  0  0  0
 24 25  1  0  0  0  0
 26 27  1  0  0  0  0
 28 29  1  6  0  0  0
M  END
>  <CHROM.1>
-176.93984563,176.21275361,-88.57747981,-172.66430440,-178.27332708,70.33897955
-3.07354593,-8.38918649,33.19973920,0.78869081,-1.16341779,-0.85554395

>  <Name>
2et3_lig

>  <RI>
0

>  <Rbt.Current_Directory>
/home/itssahil/PROJECTS/Mol_Feturizer/New_Systems/rnas/2et3

>  <Rbt.Executable>
rbdock ($Id: //depot/dev/client3/rdock/2013.1/src/exe/rbdock.cxx#4 $)

>  <Rbt.Library>
libRbt.so (2013.1, Build901 2013/11/27)

>  <Rbt.Parameter_File>
/export/apps/rDock/src/rDock_2013.1_src/data/scripts/dock_solv.prm

>  <Rbt.Receptor>
prm/pocket_docking_7.prm

>  <SCORE>
-19.0559

>  <SCORE.INTER>
-8.05328

>  <SCORE.INTER.CONST>
1

>  <SCORE.INTER.POLAR>
-0.977768

>  <SCORE.INTER.ROT>
6

>  <SCORE.INTER.SOLV>
12.529

>  <SCORE.INTER.VDW>
-13.886

>  <SCORE.INTER.norm>
-0.259783

>  <SCORE.INTRA>
-11.0026

>  <SCORE.INTRA.DIHEDRAL>
-20.6201

>  <SCORE.INTRA.DIHEDRAL.0>
22.2484

>  <SCORE.INTRA.POLAR>
0

>  <SCORE.INTRA.POLAR.0>
0

>  <SCORE.INTRA.REPUL>
0

>  <SCORE.INTRA.REPUL.0>
0

>  <SCORE.INTRA.SOLV>
-2.66598

>  <SCORE.INTRA.SOLV.lig_0>
-75.7198

>  <SCORE.INTRA.VDW>
0.640405

>  <SCORE.INTRA.VDW.0>
-3.34171

>  <SCORE.INTRA.norm>
-0.354924

>  <SCORE.RESTR>
0

>  <SCORE.RESTR.CAVITY>
0

>  <SCORE.RESTR.norm>
0

>  <SCORE.SYSTEM>
0

>  <SCORE.SYSTEM.CONST>
0

>  <SCORE.SYSTEM.DIHEDRAL>
0

>  <SCORE.SYSTEM.SOLV>
0

>  <SCORE.SYSTEM.norm>
0

>  <SCORE.heavy>
31

>  <SCORE.norm>
-0.614707

>  <RMSD>
5.895

$$$$
2et3_lig
 OpenBabel11021811423D
libRbt.so/2013.1/901 2013/11/27
 31 33  0  0  0  0  0  0  0  0999 V2000
   -0.0104   -7.5731   28.0313 C   0  0  2  0  0  0  0  0  0  0  0  0
   -0.0003   -7.2760   29.4518 O   0  0  0  0  0  0  0  0  0  0  0  0
   -0.8419   -9.9649   32.6718 C   0  0  2  0  0  0  0  0  0  0  0  0
   -1.5850  -10.8173   33.5474 N   0  0  0  0  0  0  0  0  0  0  0  0
   -0.5276  -12.6932   30.0124 C   0  0  2  0  0  0  0  0  0  0  0  0
    0.7402   -6.4772   27.2672 C   0  0  2  0  0  0  0  0  0  0  0  0
    2.0633   -6.3735   27.8009 N   0  0  0  0  0  0  0  0  0  0  0  0
   -1.4068   -8.5102   32.7557 C   0  0  0  0  0  0  0  0  0  0  0  0
   -1.7079  -13.6416   30.3178 C   0  0  2  0  0  0  0  0  0  0  0  0
   -2.8702  -12.8715   30.5286 O   0  0  0  0  0  0  0  0  0  0  0  0
   -0.0344   -5.1181   27.3592 C   0  0  0  0  0  0  0  0  0  0  0  0
   -0.6009   -7.5672   31.7891 C   0  0  2  0  0  0  0  0  0  0  0  0
   -1.1295   -6.1959   31.8641 N   0  0  0  0  0  0  0  0  0  0  0  0
   -1.3286  -14.4973   31.5949 C   0  0  1  0  0  0  0  0  0  0  0  0
   -2.4453  -15.4166   31.9907 N   0  0  0  0  0  0  0  0  0  0  0  0
   -1.4476   -5.3242   26.7290 C   0  0  0  0  0  0  0  0  0  0  0  0
   -0.6939   -8.1193   30.3149 C   0  0  2  0  0  0  0  0  0  0  0  0
    0.0194  -15.3512   31.3166 C   0  0  1  0  0  0  0  0  0  0  0  0
   -0.1652  -16.2741   30.2632 O   0  0  0  0  0  0  0  0  0  0  0  0
   -2.1921   -6.4865   27.5224 C   0  0  2  0  0  0  0  0  0  0  0  0
   -1.4127   -7.7230   27.5547 O   0  0  0  0  0  0  0  0  0  0  0  0
   -0.1192   -9.5872   30.2636 C   0  0  2  0  0  0  0  0  0  0  0  0
   -0.1903  -10.1042   28.9386 O   0  0  0  0  0  0  0  0  0  0  0  0
    1.1630  -14.3767   30.8970 C   0  0  0  0  0  0  0  0  0  0  0  0
    0.7136  -13.4858   29.7758 O   0  0  0  0  0  0  0  0  0  0  0  0
   -3.5876   -6.7795   27.0238 C   0  0  0  0  0  0  0  0  0  0  0  0
   -4.4967   -5.7019   27.3139 N   0  0  0  0  0  0  0  0  0  0  0  0
   -0.9339  -10.5119   31.2348 C   0  0  1  0  0  0  0  0  0  0  0  0
   -0.3965  -11.8278   31.1796 O   0  0  0  0  0  0  0  0  0  0  0  0
    0.5335  -16.2278   32.4667 C   0  0  0  0  0  0  0  0  0  0  0  0
   -2.9854  -15.2689   33.3525 C   0  0  0  0  0  0  0  0  0  0  0  0
  1  2  1  1  0  0  0
  1  6  1  0  0  0  0
  1 21  1  0  0  0  0
  3  4  1  1  0  0  0
  3  8  1  0  0  0  0
  3 28  1  0  0  0  0
  5  9  1  0  0  0  0
  5 25  1  0  0  0  0
  5 29  1  1  0  0  0
  6  7  1  1  0  0  0
  6 11  1  0  0  0  0
  8 12  1  0  0  0  0
  9 10  1  1  0  0  0
  9 14  1  0  0  0  0
 11 16  1  0  0  0  0
 12 13  1  6  0  0  0
 12 17  1  0  0  0  0
 14 15  1  6  0  0  0
 14 18  1  0  0  0  0
 15 31  1  0  0  0  0
 16 20  1  0  0  0  0
 17  2  1  6  0  0  0
 17 22  1  0  0  0  0
 18 19  1  6  0  0  0
 18 24  1  0  0  0  0
 18 30  1  0  0  0  0
 20 21  1  0  0  0  0
 20 26  1  6  0  0  0
 22 23  1  6  0  0  0
 22 28  1  0  0  0  0
 24 25  1  0  0  0  0
 26 27  1  0  0  0  0
 28 29  1  1  0  0  0
M  END
>  <CHROM.1>
176.66868912,-98.68273885,-121.84837175,-177.33618198,-69.05541342,170.10825175
-0.89980913,-10.31296796,30.09483626,-1.62408400,-1.04337689,2.69999492

>  <Name>
2et3_lig

>  <RI>
0

>  <Rbt.Current_Directory>
/home/itssahil/PROJECTS/Mol_Feturizer/New_Systems/rnas/2et3

>  <Rbt.Executable>
rbdock ($Id: //depot/dev/client3/rdock/2013.1/src/exe/rbdock.cxx#4 $)

>  <Rbt.Library>
libRbt.so (2013.1, Build901 2013/11/27)

>  <Rbt.Parameter_File>
/export/apps/rDock/src/rDock_2013.1_src/data/scripts/dock_solv.prm

>  <Rbt.Receptor>
prm/pocket_docking_6.prm

>  <SCORE>
-20.7856

>  <SCORE.INTER>
-12.4779

>  <SCORE.INTER.CONST>
1

>  <SCORE.INTER.POLAR>
0

>  <SCORE.INTER.ROT>
6

>  <SCORE.INTER.SOLV>
12.101

>  <SCORE.INTER.VDW>
-19.9523

>  <SCORE.INTER.norm>
-0.402514

>  <SCORE.INTRA>
-8.30804

>  <SCORE.INTRA.DIHEDRAL>
-14.8889

>  <SCORE.INTRA.DIHEDRAL.0>
22.2484

>  <SCORE.INTRA.POLAR>
0

>  <SCORE.INTRA.POLAR.0>
0

>  <SCORE.INTRA.REPUL>
0

>  <SCORE.INTRA.REPUL.0>
0

>  <SCORE.INTRA.SOLV>
-3.58363

>  <SCORE.INTRA.SOLV.lig_0>
-75.7198

>  <SCORE.INTRA.VDW>
0.928239

>  <SCORE.INTRA.VDW.0>
-3.34171

>  <SCORE.INTRA.norm>
-0.268001

>  <SCORE.RESTR>
0.000334959

>  <SCORE.RESTR.CAVITY>
0.000334959

>  <SCORE.RESTR.norm>
1.08051e-05

>  <SCORE.SYSTEM>
0

>  <SCORE.SYSTEM.CONST>
0

>  <SCORE.SYSTEM.DIHEDRAL>
0

>  <SCORE.SYSTEM.SOLV>
0

>  <SCORE.SYSTEM.norm>
0

>  <SCORE.heavy>
31

>  <SCORE.norm>
-0.670505

>  <RMSD>
5.913

$$$$
2et3_lig
 OpenBabel11021811423D
libRbt.so/2013.1/901 2013/11/27
 31 33  0  0  0  0  0  0  0  0999 V2000
    1.6684   -8.6274   27.9076 C   0  0  2  0  0  0  0  0  0  0  0  0
    1.6301   -8.5489   29.3563 O   0  0  0  0  0  0  0  0  0  0  0  0
   -0.9796  -10.1197   32.3610 C   0  0  2  0  0  0  0  0  0  0  0  0
   -2.1906  -10.5067   33.0162 N   0  0  0  0  0  0  0  0  0  0  0  0
   -2.0094  -13.1002   31.5371 C   0  0  2  0  0  0  0  0  0  0  0  0
    3.0590   -8.2269   27.4035 C   0  0  2  0  0  0  0  0  0  0  0  0
    4.0310   -9.0699   28.0286 N   0  0  0  0  0  0  0  0  0  0  0  0
   -0.9985   -8.5796   32.0961 C   0  0  0  0  0  0  0  0  0  0  0  0
   -1.6516  -14.0966   32.6616 C   0  0  2  0  0  0  0  0  0  0  0  0
   -1.2832  -13.3723   33.8140 O   0  0  0  0  0  0  0  0  0  0  0  0
    3.3294   -6.7107   27.6920 C   0  0  0  0  0  0  0  0  0  0  0  0
    0.3261   -8.1463   31.3677 C   0  0  2  0  0  0  0  0  0  0  0  0
    0.3131   -6.6965   31.1155 N   0  0  0  0  0  0  0  0  0  0  0  0
   -0.4721  -15.0162   32.1419 C   0  0  1  0  0  0  0  0  0  0  0  0
   -0.0288  -15.9874   33.1950 N   0  0  0  0  0  0  0  0  0  0  0  0
    2.2402   -5.8759   26.9479 C   0  0  0  0  0  0  0  0  0  0  0  0
    0.4701   -8.9448   30.0156 C   0  0  2  0  0  0  0  0  0  0  0  0
   -0.9305  -15.8153   30.8095 C   0  0  1  0  0  0  0  0  0  0  0  0
   -2.0165  -16.6785   31.0762 O   0  0  0  0  0  0  0  0  0  0  0  0
    0.8070   -6.3328   27.4692 C   0  0  2  0  0  0  0  0  0  0  0  0
    0.5979   -7.7725   27.3252 O   0  0  0  0  0  0  0  0  0  0  0  0
    0.4838  -10.4932   30.3157 C   0  0  2  0  0  0  0  0  0  0  0  0
    0.6169  -11.2340   29.1068 O   0  0  0  0  0  0  0  0  0  0  0  0
   -1.3967  -14.7869   29.7331 C   0  0  0  0  0  0  0  0  0  0  0  0
   -2.4124  -13.8433   30.3082 O   0  0  0  0  0  0  0  0  0  0  0  0
   -0.3461   -5.5873   26.8396 C   0  0  0  0  0  0  0  0  0  0  0  0
   -1.6148   -6.0287   27.3568 N   0  0  0  0  0  0  0  0  0  0  0  0
   -0.8437  -10.9060   31.0434 C   0  0  1  0  0  0  0  0  0  0  0  0
   -0.8089  -12.3025   31.3114 O   0  0  0  0  0  0  0  0  0  0  0  0
    0.1086  -16.7446   30.1675 C   0  0  0  0  0  0  0  0  0  0  0  0
    1.3242  -16.5524   33.0600 C   0  0  0  0  0  0  0  0  0  0  0  0
  1  2  1  1  0  0  0
  1  6  1  0  0  0  0
  1 21  1  0  0  0  0
  3  4  1  6  0  0  0
  3  8  1  0  0  0  0
  3 28  1  0  0  0  0
  5  9  1  0  0  0  0
  5 25  1  0  0  0  0
  5 29  1  6  0  0  0
  6  7  1  1  0  0  0
  6 11  1  0  0  0  0
  8 12  1  0  0  0  0
  9 10  1  1  0  0  0
  9 14  1  0  0  0  0
 11 16  1  0  0  0  0
 12 13  1  6  0  0  0
 12 17  1  0  0  0  0
 14 15  1  1  0  0  0
 14 18  1  0  0  0  0
 15 31  1  0  0  0  0
 16 20  1  0  0  0  0
 17  2  1  1  0  0  0
 17 22  1  0  0  0  0
 18 19  1  1  0  0  0
 18 24  1  0  0  0  0
 18 30  1  0  0  0  0
 20 21  1  0  0  0  0
 20 26  1  6  0  0  0
 22 23  1  6  0  0  0
 22 28  1  0  0  0  0
 24 25  1  0  0  0  0
 26 27  1  0  0  0  0
 28 29  1  1  0  0  0
M  END
>  <CHROM.1>
-176.56651828,-141.01702219,-158.49340988,-151.17582418,-179.35254567,81.77712372
0.02179094,-10.91295261,30.21520489,-1.21722457,-0.83516717,2.96834202

>  <Name>
2et3_lig

>  <RI>
0

>  <Rbt.Current_Directory>
/home/itssahil/PROJECTS/Mol_Feturizer/New_Systems/rnas/2et3

>  <Rbt.Executable>
rbdock ($Id: //depot/dev/client3/rdock/2013.1/src/exe/rbdock.cxx#4 $)

>  <Rbt.Library>
libRbt.so (2013.1, Build901 2013/11/27)

>  <Rbt.Parameter_File>
/export/apps/rDock/src/rDock_2013.1_src/data/scripts/dock_solv.prm

>  <Rbt.Receptor>
prm/blind_docking_100.prm

>  <SCORE>
-15.1194

>  <SCORE.INTER>
-13.2241

>  <SCORE.INTER.CONST>
1

>  <SCORE.INTER.POLAR>
-0.981827

>  <SCORE.INTER.ROT>
6

>  <SCORE.INTER.SOLV>
17.9149

>  <SCORE.INTER.VDW>
-19.115

>  <SCORE.INTER.norm>
-0.426584

>  <SCORE.INTRA>
-5.42762

>  <SCORE.INTRA.DIHEDRAL>
-10.9785

>  <SCORE.INTRA.DIHEDRAL.0>
22.2484

>  <SCORE.INTRA.POLAR>
0

>  <SCORE.INTRA.POLAR.0>
0

>  <SCORE.INTRA.REPUL>
0

>  <SCORE.INTRA.REPUL.0>
0

>  <SCORE.INTRA.SOLV>
-1.06648

>  <SCORE.INTRA.SOLV.lig_0>
-75.7198

>  <SCORE.INTRA.VDW>
0.594866

>  <SCORE.INTRA.VDW.0>
-3.34171

>  <SCORE.INTRA.norm>
-0.175084

>  <SCORE.RESTR>
3.53231

>  <SCORE.RESTR.CAVITY>
3.53231

>  <SCORE.RESTR.norm>
0.113945

>  <SCORE.SYSTEM>
0

>  <SCORE.SYSTEM.CONST>
0

>  <SCORE.SYSTEM.DIHEDRAL>
0

>  <SCORE.SYSTEM.SOLV>
0

>  <SCORE.SYSTEM.norm>
0

>  <SCORE.heavy>
31

>  <SCORE.norm>
-0.487723

>  <RMSD>
5.972

$$$$
2et3_lig
 OpenBabel11021811423D
libRbt.so/2013.1/901 2013/11/27
 31 33  0  0  0  0  0  0  0  0999 V2000
   -2.0380  -12.1398   29.9559 C   0  0  2  0  0  0  0  0  0  0  0  0
   -3.3376  -12.1272   30.6017 O   0  0  0  0  0  0  0  0  0  0  0  0
   -4.8125   -9.6124   33.7333 C   0  0  2  0  0  0  0  0  0  0  0  0
   -4.9195   -8.9946   35.0188 N   0  0  0  0  0  0  0  0  0  0  0  0
   -2.6137   -7.0212   33.9447 C   0  0  2  0  0  0  0  0  0  0  0  0
   -2.1833  -12.6216   28.5084 C   0  0  2  0  0  0  0  0  0  0  0  0
   -3.1249  -11.7780   27.8393 N   0  0  0  0  0  0  0  0  0  0  0  0
   -4.9889  -11.1582   33.8807 C   0  0  0  0  0  0  0  0  0  0  0  0
   -2.9567   -5.5625   33.5704 C   0  0  2  0  0  0  0  0  0  0  0  0
   -4.3541   -5.3881   33.6446 O   0  0  0  0  0  0  0  0  0  0  0  0
   -2.6201  -14.1260   28.4742 C   0  0  0  0  0  0  0  0  0  0  0  0
   -4.8640  -11.8471   32.4725 C   0  0  2  0  0  0  0  0  0  0  0  0
   -5.0289  -13.3033   32.6060 N   0  0  0  0  0  0  0  0  0  0  0  0
   -2.4059   -5.2906   32.1111 C   0  0  1  0  0  0  0  0  0  0  0  0
   -2.7393   -3.9036   31.6485 N   0  0  0  0  0  0  0  0  0  0  0  0
   -1.5210  -14.9645   29.1992 C   0  0  0  0  0  0  0  0  0  0  0  0
   -3.4619  -11.5018   31.8389 C   0  0  2  0  0  0  0  0  0  0  0  0
   -0.8029   -5.5189   32.0661 C   0  0  1  0  0  0  0  0  0  0  0  0
   -0.1308   -4.6137   32.9171 O   0  0  0  0  0  0  0  0  0  0  0  0
   -1.3711  -14.4239   30.6892 C   0  0  2  0  0  0  0  0  0  0  0  0
   -1.0940  -12.9891   30.7329 O   0  0  0  0  0  0  0  0  0  0  0  0
   -3.3136   -9.9372   31.7054 C   0  0  2  0  0  0  0  0  0  0  0  0
   -2.0541   -9.6032   31.1311 O   0  0  0  0  0  0  0  0  0  0  0  0
   -0.4793   -6.9626   32.5607 C   0  0  0  0  0  0  0  0  0  0  0  0
   -1.1379   -7.2286   33.8829 O   0  0  0  0  0  0  0  0  0  0  0  0
   -0.3452  -15.1639   31.5148 C   0  0  0  0  0  0  0  0  0  0  0  0
   -0.3902  -14.7736   32.8995 N   0  0  0  0  0  0  0  0  0  0  0  0
   -3.4427   -9.2680   33.1188 C   0  0  1  0  0  0  0  0  0  0  0  0
   -3.3135   -7.8586   32.9765 O   0  0  0  0  0  0  0  0  0  0  0  0
   -0.1114   -5.3089   30.7121 C   0  0  0  0  0  0  0  0  0  0  0  0
   -3.4945   -3.7791   30.3906 C   0  0  0  0  0  0  0  0  0  0  0  0
  1  2  1  1  0  0  0
  1  6  1  0  0  0  0
  1 21  1  0  0  0  0
  3  4  1  1  0  0  0
  3  8  1  0  0  0  0
  3 28  1  0  0  0  0
  5  9  1  0  0  0  0
  5 25  1  0  0  0  0
  5 29  1  6  0  0  0
  6  7  1  1  0  0  0
  6 11  1  0  0  0  0
  8 12  1  0  0  0  0
  9 10  1  6  0  0  0
  9 14  1  0  0  0  0
 11 16  1  0  0  0  0
 12 13  1  1  0  0  0
 12 17  1  0  0  0  0
 14 15  1  1  0  0  0
 14 18  1  0  0  0  0
 15 31  1  0  0  0  0
 16 20  1  0  0  0  0
 17  2  1  6  0  0  0
 17 22  1  0  0  0  0
 18 19  1  1  0  0  0
 18 24  1  0  0  0  0
 18 30  1  0  0  0  0
 20 21  1  0  0  0  0
 20 26  1  6  0  0  0
 22 23  1  1  0  0  0
 22 28  1  0  0  0  0
 24 25  1  0  0  0  0
 26 27  1  0  0  0  0
 28 29  1  6  0  0  0
M  END
>  <CHROM.1>
-168.84155921,-168.65410913,-123.45591877,-169.10826127,-171.30944942,97.54848347
-2.54389778,-9.59112078,31.82103372,-1.55534039,0.83144398,0.22906801

>  <Name>
2et3_lig

>  <RI>
0

>  <Rbt.Current_Directory>
/home/itssahil/PROJECTS/Mol_Feturizer/New_Systems/rnas/2et3

>  <Rbt.Executable>
rbdock ($Id: //depot/dev/client3/rdock/2013.1/src/exe/rbdock.cxx#4 $)

>  <Rbt.Library>
libRbt.so (2013.1, Build901 2013/11/27)

>  <Rbt.Parameter_File>
/export/apps/rDock/src/rDock_2013.1_src/data/scripts/dock_solv.prm

>  <Rbt.Receptor>
prm/pocket_docking_7.prm

>  <SCORE>
-18.1403

>  <SCORE.INTER>
-9.514

>  <SCORE.INTER.CONST>
1

>  <SCORE.INTER.POLAR>
-2.56396

>  <SCORE.INTER.ROT>
6

>  <SCORE.INTER.SOLV>
9.81953

>  <SCORE.INTER.VDW>
-8.66932

>  <SCORE.INTER.norm>
-0.306903

>  <SCORE.INTRA>
-8.62633

>  <SCORE.INTRA.DIHEDRAL>
-13.8591

>  <SCORE.INTRA.DIHEDRAL.0>
22.2484

>  <SCORE.INTRA.POLAR>
0

>  <SCORE.INTRA.POLAR.0>
0

>  <SCORE.INTRA.REPUL>
0

>  <SCORE.INTRA.REPUL.0>
0

>  <SCORE.INTRA.SOLV>
-2.96763

>  <SCORE.INTRA.SOLV.lig_0>
-75.7198

>  <SCORE.INTRA.VDW>
-0.212986

>  <SCORE.INTRA.VDW.0>
-3.34171

>  <SCORE.INTRA.norm>
-0.278269

>  <SCORE.RESTR>
0

>  <SCORE.RESTR.CAVITY>
0

>  <SCORE.RESTR.norm>
0

>  <SCORE.SYSTEM>
0

>  <SCORE.SYSTEM.CONST>
0

>  <SCORE.SYSTEM.DIHEDRAL>
0

>  <SCORE.SYSTEM.SOLV>
0

>  <SCORE.SYSTEM.norm>
0

>  <SCORE.heavy>
31

>  <SCORE.norm>
-0.585172

>  <RMSD>
6.100

$$$$
2et3_lig
 OpenBabel11021811423D
libRbt.so/2013.1/901 2013/11/27
 31 33  0  0  0  0  0  0  0  0999 V2000
    4.5751   -9.4881   26.3797 C   0  0  2  0  0  0  0  0  0  0  0  0
    4.3521   -8.1903   26.9897 O   0  0  0  0  0  0  0  0  0  0  0  0
    1.0504   -5.5735   27.7369 C   0  0  2  0  0  0  0  0  0  0  0  0
   -0.2938   -5.0861   27.7680 N   0  0  0  0  0  0  0  0  0  0  0  0
   -0.1813   -7.4799   30.6325 C   0  0  2  0  0  0  0  0  0  0  0  0
    5.9993   -9.9655   26.6830 C   0  0  2  0  0  0  0  0  0  0  0  0
    6.1823   -9.9826   28.1016 N   0  0  0  0  0  0  0  0  0  0  0  0
    1.4854   -5.8113   26.2548 C   0  0  0  0  0  0  0  0  0  0  0  0
   -1.5842   -7.1321   30.0879 C   0  0  2  0  0  0  0  0  0  0  0  0
   -1.6147   -7.3947   28.7028 O   0  0  0  0  0  0  0  0  0  0  0  0
    7.0479   -9.0446   25.9704 C   0  0  0  0  0  0  0  0  0  0  0  0
    2.9600   -6.3559   26.2114 C   0  0  2  0  0  0  0  0  0  0  0  0
    3.3744   -6.5820   24.8175 N   0  0  0  0  0  0  0  0  0  0  0  0
   -1.8663   -5.6067   30.4046 C   0  0  1  0  0  0  0  0  0  0  0  0
   -3.1961   -5.1712   29.8652 N   0  0  0  0  0  0  0  0  0  0  0  0
    6.7864   -9.1149   24.4330 C   0  0  0  0  0  0  0  0  0  0  0  0
    3.0535   -7.6924   27.0432 C   0  0  2  0  0  0  0  0  0  0  0  0
   -1.8044   -5.3457   32.0021 C   0  0  1  0  0  0  0  0  0  0  0  0
   -2.8006   -6.0812   32.6819 O   0  0  0  0  0  0  0  0  0  0  0  0
    5.2926   -8.6423   24.1505 C   0  0  2  0  0  0  0  0  0  0  0  0
    4.3135   -9.4121   24.9162 O   0  0  0  0  0  0  0  0  0  0  0  0
    2.6067   -7.4205   28.5312 C   0  0  2  0  0  0  0  0  0  0  0  0
    2.6872   -8.6152   29.3019 O   0  0  0  0  0  0  0  0  0  0  0  0
   -0.4182   -5.8151   32.5422 C   0  0  0  0  0  0  0  0  0  0  0  0
   -0.1265   -7.2194   32.1002 O   0  0  0  0  0  0  0  0  0  0  0  0
    4.9094   -8.6450   22.6894 C   0  0  0  0  0  0  0  0  0  0  0  0
    3.6189   -8.0450   22.4735 N   0  0  0  0  0  0  0  0  0  0  0  0
    1.1351   -6.8765   28.5541 C   0  0  1  0  0  0  0  0  0  0  0  0
    0.7539   -6.6311   29.9023 O   0  0  0  0  0  0  0  0  0  0  0  0
   -2.0429   -3.9062   32.4782 C   0  0  0  0  0  0  0  0  0  0  0  0
   -3.1868   -4.3187   28.6647 C   0  0  0  0  0  0  0  0  0  0  0  0
  1  2  1  6  0  0  0
  1  6  1  0  0  0  0
  1 21  1  0  0  0  0
  3  4  1  6  0  0  0
  3  8  1  0  0  0  0
  3 28  1  0  0  0  0
  5  9  1  0  0  0  0
  5 25  1  0  0  0  0
  5 29  1  6  0  0  0
  6  7  1  1  0  0  0
  6 11  1  0  0  0  0
  8 12  1  0  0  0  0
  9 10  1  6  0  0  0
  9 14  1  0  0  0  0
 11 16  1  0  0  0  0
 12 13  1  6  0  0  0
 12 17  1  0  0  0  0
 14 15  1  1  0  0  0
 14 18  1  0  0  0  0
 15 31  1  0  0  0  0
 16 20  1  0  0  0  0
 17  2  1  1  0  0  0
 17 22  1  0  0  0  0
 18 19  1  1  0  0  0
 18 24  1  0  0  0  0
 18 30  1  0  0  0  0
 20 21  1  0  0  0  0
 20 26  1  6  0  0  0
 22 23  1  1  0  0  0
 22 28  1  0  0  0  0
 24 25  1  0  0  0  0
 26 27  1  0  0  0  0
 28 29  1  1  0  0  0
M  END
>  <CHROM.1>
-168.35390160,-75.48263240,-105.89525469,-117.64100893,-172.30697822,132.87398014
1.67846182,-7.18378710,28.07047112,-0.55936540,-0.55291598,1.78373101

>  <Name>
2et3_lig

>  <RI>
2.5794e+07

>  <Rbt.Current_Directory>
/home/itssahil/PROJECTS/Mol_Feturizer/New_Systems/rnas/2et3

>  <Rbt.Executable>
rbdock ($Id: //depot/dev/client3/rdock/2013.1/src/exe/rbdock.cxx#4 $)

>  <Rbt.Library>
libRbt.so (2013.1, Build901 2013/11/27)

>  <Rbt.Parameter_File>
/export/apps/rDock/src/rDock_2013.1_src/data/scripts/dock_solv.prm

>  <Rbt.Receptor>
prm/pocket_docking_5.prm

>  <SCORE>
-15.3677

>  <SCORE.INTER>
-14.425

>  <SCORE.INTER.CONST>
1

>  <SCORE.INTER.POLAR>
-0.938083

>  <SCORE.INTER.ROT>
6

>  <SCORE.INTER.SOLV>
17.3599

>  <SCORE.INTER.VDW>
-19.8764

>  <SCORE.INTER.norm>
-0.465323

>  <SCORE.INTRA>
-0.942731

>  <SCORE.INTRA.DIHEDRAL>
-5.49063

>  <SCORE.INTRA.DIHEDRAL.0>
22.2484

>  <SCORE.INTRA.POLAR>
0

>  <SCORE.INTRA.POLAR.0>
0

>  <SCORE.INTRA.REPUL>
0

>  <SCORE.INTRA.REPUL.0>
0

>  <SCORE.INTRA.SOLV>
5.65543

>  <SCORE.INTRA.SOLV.lig_0>
-75.7198

>  <SCORE.INTRA.VDW>
-1.02513

>  <SCORE.INTRA.VDW.0>
-3.34171

>  <SCORE.INTRA.norm>
-0.0304107

>  <SCORE.RESTR>
0

>  <SCORE.RESTR.CAVITY>
0

>  <SCORE.RESTR.norm>
0

>  <SCORE.SYSTEM>
0

>  <SCORE.SYSTEM.CONST>
0

>  <SCORE.SYSTEM.DIHEDRAL>
0

>  <SCORE.SYSTEM.SOLV>
0

>  <SCORE.SYSTEM.norm>
0

>  <SCORE.heavy>
31

>  <SCORE.norm>
-0.495733

>  <RMSD>
6.120

$$$$
2et3_lig
 OpenBabel11021811423D
libRbt.so/2013.1/901 2013/11/27
 31 33  0  0  0  0  0  0  0  0999 V2000
   -0.7128   -8.6450   30.6764 C   0  0  2  0  0  0  0  0  0  0  0  0
   -1.8560   -9.0884   29.9001 O   0  0  0  0  0  0  0  0  0  0  0  0
   -2.5801  -12.8085   27.9144 C   0  0  2  0  0  0  0  0  0  0  0  0
   -2.3978  -13.9071   27.0169 N   0  0  0  0  0  0  0  0  0  0  0  0
   -0.1496  -14.1826   30.5344 C   0  0  2  0  0  0  0  0  0  0  0  0
   -1.1266   -7.4903   31.5950 C   0  0  2  0  0  0  0  0  0  0  0  0
   -2.2152   -7.9266   32.4139 N   0  0  0  0  0  0  0  0  0  0  0  0
   -2.7479  -11.4880   27.0958 C   0  0  0  0  0  0  0  0  0  0  0  0
   -0.0342  -15.7192   30.6410 C   0  0  2  0  0  0  0  0  0  0  0  0
    0.2298  -16.2476   29.3605 O   0  0  0  0  0  0  0  0  0  0  0  0
   -1.5028   -6.2263   30.7487 C   0  0  0  0  0  0  0  0  0  0  0  0
   -2.9403  -10.2728   28.0752 C   0  0  2  0  0  0  0  0  0  0  0  0
   -3.0983   -9.0264   27.3090 N   0  0  0  0  0  0  0  0  0  0  0  0
   -1.3935  -16.2706   31.2370 C   0  0  1  0  0  0  0  0  0  0  0  0
   -1.3843  -17.7672   31.3306 N   0  0  0  0  0  0  0  0  0  0  0  0
   -0.2491   -5.8120   29.9161 C   0  0  0  0  0  0  0  0  0  0  0  0
   -1.7009  -10.1759   29.0454 C   0  0  2  0  0  0  0  0  0  0  0  0
   -1.6667  -15.6261   32.6977 C   0  0  1  0  0  0  0  0  0  0  0  0
   -0.6567  -15.9886   33.6164 O   0  0  0  0  0  0  0  0  0  0  0  0
    0.1755   -7.0386   28.9942 C   0  0  2  0  0  0  0  0  0  0  0  0
    0.4000   -8.2601   29.7655 O   0  0  0  0  0  0  0  0  0  0  0  0
   -1.5571  -11.5223   29.8544 C   0  0  2  0  0  0  0  0  0  0  0  0
   -0.4445  -11.4548   30.7406 O   0  0  0  0  0  0  0  0  0  0  0  0
   -1.6615  -14.0707   32.5780 C   0  0  0  0  0  0  0  0  0  0  0  0
   -0.4196  -13.5983   31.8799 O   0  0  0  0  0  0  0  0  0  0  0  0
    1.3741   -6.7659   28.1161 C   0  0  0  0  0  0  0  0  0  0  0  0
    2.5672   -6.5491   28.8916 N   0  0  0  0  0  0  0  0  0  0  0  0
   -1.3681  -12.7222   28.8612 C   0  0  1  0  0  0  0  0  0  0  0  0
   -1.2477  -13.9264   29.6087 O   0  0  0  0  0  0  0  0  0  0  0  0
   -2.9588  -16.0485   33.4101 C   0  0  0  0  0  0  0  0  0  0  0  0
   -1.5585  -18.5191   30.0766 C   0  0  0  0  0  0  0  0  0  0  0  0
  1  2  1  6  0  0  0
  1  6  1  0  0  0  0
  1 21  1  0  0  0  0
  3  4  1  6  0  0  0
  3  8  1  0  0  0  0
  3 28  1  0  0  0  0
  5  9  1  0  0  0  0
  5 25  1  0  0  0  0
  5 29  1  6  0  0  0
  6  7  1  6  0  0  0
  6 11  1  0  0  0  0
  8 12  1  0  0  0  0
  9 10  1  6  0  0  0
  9 14  1  0  0  0  0
 11 16  1  0  0  0  0
 12 13  1  6  0  0  0
 12 17  1  0  0  0  0
 14 15  1  1  0  0  0
 14 18  1  0  0  0  0
 15 31  1  0  0  0  0
 16 20  1  0  0  0  0
 17  2  1  1  0  0  0
 17 22  1  0  0  0  0
 18 19  1  1  0  0  0
 18 24  1  0  0  0  0
 18 30  1  0  0  0  0
 20 21  1  0  0  0  0
 20 26  1  1  0  0  0
 22 23  1  1  0  0  0
 22 28  1  0  0  0  0
 24 25  1  0  0  0  0
 26 27  1  0  0  0  0
 28 29  1  1  0  0  0
M  END
>  <CHROM.1>
-177.07558836,-155.79012583,-75.46578981,-167.03804543,64.92825990,176.24006258
-1.10808106,-11.82052620,30.14874011,-1.16903660,1.33632356,2.56268179

>  <Name>
2et3_lig

>  <RI>
0

>  <Rbt.Current_Directory>
/home/itssahil/PROJECTS/Mol_Feturizer/New_Systems/rnas/2et3

>  <Rbt.Executable>
rbdock ($Id: //depot/dev/client3/rdock/2013.1/src/exe/rbdock.cxx#4 $)

>  <Rbt.Library>
libRbt.so (2013.1, Build901 2013/11/27)

>  <Rbt.Parameter_File>
/export/apps/rDock/src/rDock_2013.1_src/data/scripts/dock_solv.prm

>  <Rbt.Receptor>
prm/pocket_docking_7.prm

>  <SCORE>
-22.3243

>  <SCORE.INTER>
-13.5542

>  <SCORE.INTER.CONST>
1

>  <SCORE.INTER.POLAR>
-1.84622

>  <SCORE.INTER.ROT>
6

>  <SCORE.INTER.SOLV>
12.4522

>  <SCORE.INTER.VDW>
-14.6328

>  <SCORE.INTER.norm>
-0.437231

>  <SCORE.INTRA>
-8.77013

>  <SCORE.INTRA.DIHEDRAL>
-18.3671

>  <SCORE.INTRA.DIHEDRAL.0>
22.2484

>  <SCORE.INTRA.POLAR>
0

>  <SCORE.INTRA.POLAR.0>
0

>  <SCORE.INTRA.REPUL>
0

>  <SCORE.INTRA.REPUL.0>
0

>  <SCORE.INTRA.SOLV>
-2.99688

>  <SCORE.INTRA.SOLV.lig_0>
-75.7198

>  <SCORE.INTRA.VDW>
1.91186

>  <SCORE.INTRA.VDW.0>
-3.34171

>  <SCORE.INTRA.norm>
-0.282907

>  <SCORE.RESTR>
0

>  <SCORE.RESTR.CAVITY>
0

>  <SCORE.RESTR.norm>
0

>  <SCORE.SYSTEM>
0

>  <SCORE.SYSTEM.CONST>
0

>  <SCORE.SYSTEM.DIHEDRAL>
0

>  <SCORE.SYSTEM.SOLV>
0

>  <SCORE.SYSTEM.norm>
0

>  <SCORE.heavy>
31

>  <SCORE.norm>
-0.720139

>  <RMSD>
6.143

$$$$
2et3_lig
 OpenBabel11021811423D
libRbt.so/2013.1/901 2013/11/27
 31 33  0  0  0  0  0  0  0  0999 V2000
   -0.9677   -5.2698   32.7071 C   0  0  2  0  0  0  0  0  0  0  0  0
   -0.7376   -5.5996   34.1015 O   0  0  0  0  0  0  0  0  0  0  0  0
   -2.5388   -8.6715   36.4733 C   0  0  2  0  0  0  0  0  0  0  0  0
   -3.5463   -9.4133   37.1662 N   0  0  0  0  0  0  0  0  0  0  0  0
   -3.7972  -10.9865   35.0083 C   0  0  2  0  0  0  0  0  0  0  0  0
    0.0378   -4.2062   32.2533 C   0  0  2  0  0  0  0  0  0  0  0  0
    1.3599   -4.6960   32.4946 N   0  0  0  0  0  0  0  0  0  0  0  0
   -2.4436   -7.2323   37.0749 C   0  0  0  0  0  0  0  0  0  0  0  0
   -3.4934  -12.2637   34.1946 C   0  0  2  0  0  0  0  0  0  0  0  0
   -2.1246  -12.5753   34.3271 O   0  0  0  0  0  0  0  0  0  0  0  0
   -0.2271   -2.8516   32.9950 C   0  0  0  0  0  0  0  0  0  0  0  0
   -1.3436   -6.4062   36.3130 C   0  0  2  0  0  0  0  0  0  0  0  0
   -1.2504   -5.0496   36.8756 N   0  0  0  0  0  0  0  0  0  0  0  0
   -3.8916  -11.9883   32.6871 C   0  0  1  0  0  0  0  0  0  0  0  0
   -3.5837  -13.1680   31.8140 N   0  0  0  0  0  0  0  0  0  0  0  0
   -1.6763   -2.3865   32.6480 C   0  0  0  0  0  0  0  0  0  0  0  0
   -1.6967   -6.3484   34.7772 C   0  0  2  0  0  0  0  0  0  0  0  0
   -5.4648  -11.6175   32.5822 C   0  0  1  0  0  0  0  0  0  0  0  0
   -6.2756  -12.6902   33.0153 O   0  0  0  0  0  0  0  0  0  0  0  0
   -2.6958   -3.5215   33.1031 C   0  0  2  0  0  0  0  0  0  0  0  0
   -2.3748   -4.8221   32.5175 O   0  0  0  0  0  0  0  0  0  0  0  0
   -1.7876   -7.8137   34.2008 C   0  0  2  0  0  0  0  0  0  0  0  0
   -2.1024   -7.7844   32.8123 O   0  0  0  0  0  0  0  0  0  0  0  0
   -5.7635  -10.3959   33.5052 C   0  0  0  0  0  0  0  0  0  0  0  0
   -5.2435  -10.6411   34.8917 O   0  0  0  0  0  0  0  0  0  0  0  0
   -4.1461   -3.1911   32.8401 C   0  0  0  0  0  0  0  0  0  0  0  0
   -5.0281   -4.2034   33.3587 N   0  0  0  0  0  0  0  0  0  0  0  0
   -2.8879   -8.6223   34.9739 C   0  0  1  0  0  0  0  0  0  0  0  0
   -2.9495   -9.9413   34.4449 O   0  0  0  0  0  0  0  0  0  0  0  0
   -6.0110  -11.3063   31.1821 C   0  0  0  0  0  0  0  0  0  0  0  0
   -2.2309  -13.2410   31.2370 C   0  0  0  0  0  0  0  0  0  0  0  0
  1  2  1  1  0  0  0
  1  6  1  0  0  0  0
  1 21  1  0  0  0  0
  3  4  1  1  0  0  0
  3  8  1  0  0  0  0
  3 28  1  0  0  0  0
  5  9  1  0  0  0  0
  5 25  1  0  0  0  0
  5 29  1  6  0  0  0
  6  7  1  1  0  0  0
  6 11  1  0  0  0  0
  8 12  1  0  0  0  0
  9 10  1  6  0  0  0
  9 14  1  0  0  0  0
 11 16  1  0  0  0  0
 12 13  1  1  0  0  0
 12 17  1  0  0  0  0
 14 15  1  6  0  0  0
 14 18  1  0  0  0  0
 15 31  1  0  0  0  0
 16 20  1  0  0  0  0
 17  2  1  6  0  0  0
 17 22  1  0  0  0  0
 18 19  1  1  0  0  0
 18 24  1  0  0  0  0
 18 30  1  0  0  0  0
 20 21  1  0  0  0  0
 20 26  1  6  0  0  0
 22 23  1  6  0  0  0
 22 28  1  0  0  0  0
 24 25  1  0  0  0  0
 26 27  1  0  0  0  0
 28 29  1  6  0  0  0
M  END
>  <CHROM.1>
167.79934512,-176.59945142,-87.70253371,-171.82360278,-175.70410151,54.79837078
-2.81971285,-8.07289111,33.80493398,0.59869415,-1.14021168,-0.89352944

>  <Name>
2et3_lig

>  <RI>
0

>  <Rbt.Current_Directory>
/home/itssahil/PROJECTS/Mol_Feturizer/New_Systems/rnas/2et3

>  <Rbt.Executable>
rbdock ($Id: //depot/dev/client3/rdock/2013.1/src/exe/rbdock.cxx#4 $)

>  <Rbt.Library>
libRbt.so (2013.1, Build901 2013/11/27)

>  <Rbt.Parameter_File>
/export/apps/rDock/src/rDock_2013.1_src/data/scripts/dock_solv.prm

>  <Rbt.Receptor>
prm/pocket_docking_6.prm

>  <SCORE>
-17.9103

>  <SCORE.INTER>
-8.11884

>  <SCORE.INTER.CONST>
1

>  <SCORE.INTER.POLAR>
-1.28504

>  <SCORE.INTER.ROT>
6

>  <SCORE.INTER.SOLV>
15.1708

>  <SCORE.INTER.VDW>
-13.7861

>  <SCORE.INTER.norm>
-0.261898

>  <SCORE.INTRA>
-9.79149

>  <SCORE.INTRA.DIHEDRAL>
-20.2654

>  <SCORE.INTRA.DIHEDRAL.0>
22.2484

>  <SCORE.INTRA.POLAR>
0

>  <SCORE.INTRA.POLAR.0>
0

>  <SCORE.INTRA.REPUL>
0

>  <SCORE.INTRA.REPUL.0>
0

>  <SCORE.INTRA.SOLV>
-2.02503

>  <SCORE.INTRA.SOLV.lig_0>
-75.7198

>  <SCORE.INTRA.VDW>
1.3537

>  <SCORE.INTRA.VDW.0>
-3.34171

>  <SCORE.INTRA.norm>
-0.315855

>  <SCORE.RESTR>
0

>  <SCORE.RESTR.CAVITY>
0

>  <SCORE.RESTR.norm>
0

>  <SCORE.SYSTEM>
0

>  <SCORE.SYSTEM.CONST>
0

>  <SCORE.SYSTEM.DIHEDRAL>
0

>  <SCORE.SYSTEM.SOLV>
0

>  <SCORE.SYSTEM.norm>
0

>  <SCORE.heavy>
31

>  <SCORE.norm>
-0.577753

>  <RMSD>
6.180

$$$$
2et3_lig
 OpenBabel11021811423D
libRbt.so/2013.1/901 2013/11/27
 31 33  0  0  0  0  0  0  0  0999 V2000
   -0.5987   -5.5567   31.6126 C   0  0  2  0  0  0  0  0  0  0  0  0
   -1.4766   -6.1317   32.6151 O   0  0  0  0  0  0  0  0  0  0  0  0
   -3.6159   -9.8369   32.5839 C   0  0  2  0  0  0  0  0  0  0  0  0
   -4.5370  -10.8499   32.1706 N   0  0  0  0  0  0  0  0  0  0  0  0
   -0.8505  -11.3165   32.0268 C   0  0  2  0  0  0  0  0  0  0  0  0
    0.3256   -4.5229   32.2647 C   0  0  2  0  0  0  0  0  0  0  0  0
    1.0416   -5.1576   33.3279 N   0  0  0  0  0  0  0  0  0  0  0  0
   -4.3996   -8.5330   32.9415 C   0  0  0  0  0  0  0  0  0  0  0  0
   -0.1640  -12.4400   31.2192 C   0  0  2  0  0  0  0  0  0  0  0  0
    0.3780  -11.8892   30.0396 O   0  0  0  0  0  0  0  0  0  0  0  0
   -0.5018   -3.2923   32.7712 C   0  0  0  0  0  0  0  0  0  0  0  0
   -3.3935   -7.4103   33.3890 C   0  0  2  0  0  0  0  0  0  0  0  0
   -4.1268   -6.1799   33.7264 N   0  0  0  0  0  0  0  0  0  0  0  0
   -1.2494  -13.5495   30.9066 C   0  0  1  0  0  0  0  0  0  0  0  0
   -0.6751  -14.6614   30.0804 N   0  0  0  0  0  0  0  0  0  0  0  0
   -1.2194   -2.6535   31.5409 C   0  0  0  0  0  0  0  0  0  0  0  0
   -2.3561   -7.1402   32.2324 C   0  0  2  0  0  0  0  0  0  0  0  0
   -1.8580  -14.1419   32.2859 C   0  0  1  0  0  0  0  0  0  0  0  0
   -0.8586  -14.7736   33.0589 O   0  0  0  0  0  0  0  0  0  0  0  0
   -2.1487   -3.7565   30.8667 C   0  0  2  0  0  0  0  0  0  0  0  0
   -1.4063   -4.9646   30.5110 O   0  0  0  0  0  0  0  0  0  0  0  0
   -1.5841   -8.4732   31.8936 C   0  0  2  0  0  0  0  0  0  0  0  0
   -0.6383   -8.2505   30.8526 O   0  0  0  0  0  0  0  0  0  0  0  0
   -2.4396  -12.9677   33.1324 C   0  0  0  0  0  0  0  0  0  0  0  0
   -1.4243  -11.8730   33.2860 O   0  0  0  0  0  0  0  0  0  0  0  0
   -2.9209   -3.2638   29.6656 C   0  0  0  0  0  0  0  0  0  0  0  0
   -3.9641   -2.3455   30.0402 N   0  0  0  0  0  0  0  0  0  0  0  0
   -2.6037   -9.5809   31.4514 C   0  0  1  0  0  0  0  0  0  0  0  0
   -1.8897  -10.7756   31.1575 O   0  0  0  0  0  0  0  0  0  0  0  0
   -2.9398  -15.2230   32.1573 C   0  0  0  0  0  0  0  0  0  0  0  0
   -1.3212  -14.9390   28.7867 C   0  0  0  0  0  0  0  0  0  0  0  0
  1  2  1  1  0  0  0
  1  6  1  0  0  0  0
  1 21  1  0  0  0  0
  3  4  1  6  0  0  0
  3  8  1  0  0  0  0
  3 28  1  0  0  0  0
  5  9  1  0  0  0  0
  5 25  1  0  0  0  0
  5 29  1  6  0  0  0
  6  7  1  1  0  0  0
  6 11  1  0  0  0  0
  8 12  1  0  0  0  0
  9 10  1  6  0  0  0
  9 14  1  0  0  0  0
 11 16  1  0  0  0  0
 12 13  1  6  0  0  0
 12 17  1  0  0  0  0
 14 15  1  1  0  0  0
 14 18  1  0  0  0  0
 15 31  1  0  0  0  0
 16 20  1  0  0  0  0
 17  2  1  1  0  0  0
 17 22  1  0  0  0  0
 18 19  1  1  0  0  0
 18 24  1  0  0  0  0
 18 30  1  0  0  0  0
 20 21  1  0  0  0  0
 20 26  1  6  0  0  0
 22 23  1  6  0  0  0
 22 28  1  0  0  0  0
 24 25  1  0  0  0  0
 26 27  1  0  0  0  0
 28 29  1  1  0  0  0
M  END
>  <CHROM.1>
-177.16268926,-169.46158419,-122.05692516,-168.84305496,-70.61311570,-73.89227294
-1.76857223,-8.96084290,31.74662222,-1.59844019,-0.44653809,3.14041124

>  <Name>
2et3_lig

>  <RI>
3.86414e+07

>  <Rbt.Current_Directory>
/home/itssahil/PROJECTS/Mol_Feturizer/New_Systems/rnas/2et3

>  <Rbt.Executable>
rbdock ($Id: //depot/dev/client3/rdock/2013.1/src/exe/rbdock.cxx#4 $)

>  <Rbt.Library>
libRbt.so (2013.1, Build901 2013/11/27)

>  <Rbt.Parameter_File>
/export/apps/rDock/src/rDock_2013.1_src/data/scripts/dock_solv.prm

>  <Rbt.Receptor>
prm/pocket_docking_8.prm

>  <SCORE>
-19.6729

>  <SCORE.INTER>
-9.63272

>  <SCORE.INTER.CONST>
1

>  <SCORE.INTER.POLAR>
-1.60703

>  <SCORE.INTER.ROT>
6

>  <SCORE.INTER.SOLV>
11.2001

>  <SCORE.INTER.VDW>
-12.3984

>  <SCORE.INTER.norm>
-0.310733

>  <SCORE.INTRA>
-10.0402

>  <SCORE.INTRA.DIHEDRAL>
-18.4521

>  <SCORE.INTRA.DIHEDRAL.0>
22.2484

>  <SCORE.INTRA.POLAR>
0

>  <SCORE.INTRA.POLAR.0>
0

>  <SCORE.INTRA.REPUL>
0

>  <SCORE.INTRA.REPUL.0>
0

>  <SCORE.INTRA.SOLV>
-2.16595

>  <SCORE.INTRA.SOLV.lig_0>
-75.7198

>  <SCORE.INTRA.VDW>
0.268798

>  <SCORE.INTRA.VDW.0>
-3.34171

>  <SCORE.INTRA.norm>
-0.323878

>  <SCORE.RESTR>
0

>  <SCORE.RESTR.CAVITY>
0

>  <SCORE.RESTR.norm>
0

>  <SCORE.SYSTEM>
0

>  <SCORE.SYSTEM.CONST>
0

>  <SCORE.SYSTEM.DIHEDRAL>
0

>  <SCORE.SYSTEM.SOLV>
0

>  <SCORE.SYSTEM.norm>
0

>  <SCORE.heavy>
31

>  <SCORE.norm>
-0.634611

>  <RMSD>
6.180

$$$$
2et3_lig
 OpenBabel11021811423D
libRbt.so/2013.1/901 2013/11/27
 31 33  0  0  0  0  0  0  0  0999 V2000
   -1.0282   -5.3799   33.1039 C   0  0  2  0  0  0  0  0  0  0  0  0
   -1.3062   -5.3716   34.5283 O   0  0  0  0  0  0  0  0  0  0  0  0
   -4.0653   -7.8665   36.6423 C   0  0  2  0  0  0  0  0  0  0  0  0
   -5.3103   -8.4074   37.0928 N   0  0  0  0  0  0  0  0  0  0  0  0
   -5.1532  -10.2771   35.1293 C   0  0  2  0  0  0  0  0  0  0  0  0
    0.2814   -4.6338   32.8271 C   0  0  2  0  0  0  0  0  0  0  0  0
    1.3233   -5.2401   33.5972 N   0  0  0  0  0  0  0  0  0  0  0  0
   -3.9768   -6.3580   37.0408 C   0  0  0  0  0  0  0  0  0  0  0  0
   -4.9487  -11.5932   34.3471 C   0  0  2  0  0  0  0  0  0  0  0  0
   -3.7211  -12.1689   34.7344 O   0  0  0  0  0  0  0  0  0  0  0  0
    0.1228   -3.1102   33.1569 C   0  0  0  0  0  0  0  0  0  0  0  0
   -2.6140   -5.7524   36.5415 C   0  0  2  0  0  0  0  0  0  0  0  0
   -2.5259   -4.3314   36.9139 N   0  0  0  0  0  0  0  0  0  0  0  0
   -4.9776  -11.2518   32.8013 C   0  0  1  0  0  0  0  0  0  0  0  0
   -4.7382  -12.4735   31.9652 N   0  0  0  0  0  0  0  0  0  0  0  0
   -1.0110   -2.5355   32.2508 C   0  0  0  0  0  0  0  0  0  0  0  0
   -2.5011   -5.9257   34.9782 C   0  0  2  0  0  0  0  0  0  0  0  0
   -6.3955  -10.5775   32.4032 C   0  0  1  0  0  0  0  0  0  0  0  0
   -7.4694  -11.4664   32.6317 O   0  0  0  0  0  0  0  0  0  0  0  0
   -2.3501   -3.3473   32.5377 C   0  0  2  0  0  0  0  0  0  0  0  0
   -2.1739   -4.7877   32.3603 O   0  0  0  0  0  0  0  0  0  0  0  0
   -2.5959   -7.4561   34.6084 C   0  0  2  0  0  0  0  0  0  0  0  0
   -2.4923   -7.6357   33.1996 O   0  0  0  0  0  0  0  0  0  0  0  0
   -6.6278   -9.3164   33.2915 C   0  0  0  0  0  0  0  0  0  0  0  0
   -6.4518   -9.6528   34.7436 O   0  0  0  0  0  0  0  0  0  0  0  0
   -3.5407   -2.8793   31.7344 C   0  0  0  0  0  0  0  0  0  0  0  0
   -3.3147   -3.0078   30.3186 N   0  0  0  0  0  0  0  0  0  0  0  0
   -3.9601   -8.0425   35.1157 C   0  0  1  0  0  0  0  0  0  0  0  0
   -4.0233   -9.4232   34.7794 O   0  0  0  0  0  0  0  0  0  0  0  0
   -6.5809  -10.1713   30.9348 C   0  0  0  0  0  0  0  0  0  0  0  0
   -3.3385  -12.8146   31.6606 C   0  0  0  0  0  0  0  0  0  0  0  0
  1  2  1  1  0  0  0
  1  6  1  0  0  0  0
  1 21  1  0  0  0  0
  3  4  1  6  0  0  0
  3  8  1  0  0  0  0
  3 28  1  0  0  0  0
  5  9  1  0  0  0  0
  5 25  1  0  0  0  0
  5 29  1  6  0  0  0
  6  7  1  1  0  0  0
  6 11  1  0  0  0  0
  8 12  1  0  0  0  0
  9 10  1  1  0  0  0
  9 14  1  0  0  0  0
 11 16  1  0  0  0  0
 12 13  1  6  0  0  0
 12 17  1  0  0  0  0
 14 15  1  6  0  0  0
 14 18  1  0  0  0  0
 15 31  1  0  0  0  0
 16 20  1  0  0  0  0
 17  2  1  1  0  0  0
 17 22  1  0  0  0  0
 18 19  1  1  0  0  0
 18 24  1  0  0  0  0
 18 30  1  0  0  0  0
 20 21  1  0  0  0  0
 20 26  1  6  0  0  0
 22 23  1  6  0  0  0
 22 28  1  0  0  0  0
 24 25  1  0  0  0  0
 26 27  1  0  0  0  0
 28 29  1  1  0  0  0
M  END
>  <CHROM.1>
175.88790228,169.03314562,-87.78084686,-177.67836810,60.60135205,58.57526865
-3.48505759,-7.56698411,33.78628695,0.06072511,-1.04752102,-1.51860006

>  <Name>
2et3_lig

>  <RI>
0

>  <Rbt.Current_Directory>
/home/itssahil/PROJECTS/Mol_Feturizer/New_Systems/rnas/2et3

>  <Rbt.Executable>
rbdock ($Id: //depot/dev/client3/rdock/2013.1/src/exe/rbdock.cxx#4 $)

>  <Rbt.Library>
libRbt.so (2013.1, Build901 2013/11/27)

>  <Rbt.Parameter_File>
/export/apps/rDock/src/rDock_2013.1_src/data/scripts/dock_solv.prm

>  <Rbt.Receptor>
prm/pocket_docking_7.prm

>  <SCORE>
-18.4993

>  <SCORE.INTER>
-8.92839

>  <SCORE.INTER.CONST>
1

>  <SCORE.INTER.POLAR>
-0.947304

>  <SCORE.INTER.ROT>
6

>  <SCORE.INTER.SOLV>
15.1676

>  <SCORE.INTER.VDW>
-15.4505

>  <SCORE.INTER.norm>
-0.288013

>  <SCORE.INTRA>
-9.57088

>  <SCORE.INTRA.DIHEDRAL>
-20.8531

>  <SCORE.INTRA.DIHEDRAL.0>
22.2484

>  <SCORE.INTRA.POLAR>
0

>  <SCORE.INTRA.POLAR.0>
0

>  <SCORE.INTRA.REPUL>
0

>  <SCORE.INTRA.REPUL.0>
0

>  <SCORE.INTRA.SOLV>
-1.56263

>  <SCORE.INTRA.SOLV.lig_0>
-75.7198

>  <SCORE.INTRA.VDW>
1.63698

>  <SCORE.INTRA.VDW.0>
-3.34171

>  <SCORE.INTRA.norm>
-0.308738

>  <SCORE.RESTR>
0

>  <SCORE.RESTR.CAVITY>
0

>  <SCORE.RESTR.norm>
0

>  <SCORE.SYSTEM>
0

>  <SCORE.SYSTEM.CONST>
0

>  <SCORE.SYSTEM.DIHEDRAL>
0

>  <SCORE.SYSTEM.SOLV>
0

>  <SCORE.SYSTEM.norm>
0

>  <SCORE.heavy>
31

>  <SCORE.norm>
-0.596751

>  <RMSD>
6.206

$$$$
2et3_lig
 OpenBabel11021811423D
libRbt.so/2013.1/901 2013/11/27
 31 33  0  0  0  0  0  0  0  0999 V2000
    0.1338   -7.7451   29.7441 C   0  0  2  0  0  0  0  0  0  0  0  0
    0.0929   -9.1596   29.4223 O   0  0  0  0  0  0  0  0  0  0  0  0
   -1.2763  -12.2069   32.0955 C   0  0  2  0  0  0  0  0  0  0  0  0
   -2.1767  -13.0328   32.8389 N   0  0  0  0  0  0  0  0  0  0  0  0
   -0.0162  -14.3759   30.1560 C   0  0  2  0  0  0  0  0  0  0  0  0
   -0.9783   -7.0094   28.9890 C   0  0  2  0  0  0  0  0  0  0  0  0
   -2.2315   -7.6153   29.3187 N   0  0  0  0  0  0  0  0  0  0  0  0
   -1.4715  -10.7138   32.5133 C   0  0  0  0  0  0  0  0  0  0  0  0
   -0.2526  -15.8335   29.7028 C   0  0  2  0  0  0  0  0  0  0  0  0
   -0.8940  -15.8234   28.4471 O   0  0  0  0  0  0  0  0  0  0  0  0
   -0.7037   -7.0387   27.4466 C   0  0  0  0  0  0  0  0  0  0  0  0
   -0.4911   -9.7969   31.6941 C   0  0  2  0  0  0  0  0  0  0  0  0
   -0.6714   -8.3893   32.0837 N   0  0  0  0  0  0  0  0  0  0  0  0
   -1.1310  -16.5516   30.8072 C   0  0  1  0  0  0  0  0  0  0  0  0
   -1.4484  -17.9656   30.4217 N   0  0  0  0  0  0  0  0  0  0  0  0
    0.6640   -6.3328   27.1862 C   0  0  0  0  0  0  0  0  0  0  0  0
   -0.7576   -9.9856   30.1514 C   0  0  2  0  0  0  0  0  0  0  0  0
   -0.3668  -16.5252   32.2351 C   0  0  1  0  0  0  0  0  0  0  0  0
    0.8535  -17.2346   32.1780 O   0  0  0  0  0  0  0  0  0  0  0  0
    1.7942   -7.0990   28.0048 C   0  0  2  0  0  0  0  0  0  0  0  0
    1.4798   -7.1923   29.4295 O   0  0  0  0  0  0  0  0  0  0  0  0
   -0.5551  -11.5005   29.7619 C   0  0  2  0  0  0  0  0  0  0  0  0
   -0.7876  -11.6927   28.3703 O   0  0  0  0  0  0  0  0  0  0  0  0
   -0.0378  -15.0472   32.6103 C   0  0  0  0  0  0  0  0  0  0  0  0
    0.6709  -14.3599   31.4797 O   0  0  0  0  0  0  0  0  0  0  0  0
    3.1809   -6.5266   27.8279 C   0  0  0  0  0  0  0  0  0  0  0  0
    3.5618   -6.4660   26.4412 N   0  0  0  0  0  0  0  0  0  0  0  0
   -1.5396  -12.3990   30.5900 C   0  0  1  0  0  0  0  0  0  0  0  0
   -1.3367  -13.7601   30.2301 O   0  0  0  0  0  0  0  0  0  0  0  0
   -1.0945  -17.1713   33.4219 C   0  0  0  0  0  0  0  0  0  0  0  0
   -0.3175  -18.8259   30.0356 C   0  0  0  0  0  0  0  0  0  0  0  0
  1  2  1  6  0  0  0
  1  6  1  0  0  0  0
  1 21  1  0  0  0  0
  3  4  1  1  0  0  0
  3  8  1  0  0  0  0
  3 28  1  0  0  0  0
  5  9  1  0  0  0  0
  5 25  1  0  0  0  0
  5 29  1  1  0  0  0
  6  7  1  6  0  0  0
  6 11  1  0  0  0  0
  8 12  1  0  0  0  0
  9 10  1  6  0  0  0
  9 14  1  0  0  0  0
 11 16  1  0  0  0  0
 12 13  1  1  0  0  0
 12 17  1  0  0  0  0
 14 15  1  6  0  0  0
 14 18  1  0  0  0  0
 15 31  1  0  0  0  0
 16 20  1  0  0  0  0
 17  2  1  6  0  0  0
 17 22  1  0  0  0  0
 18 19  1  6  0  0  0
 18 24  1  0  0  0  0
 18 30  1  0  0  0  0
 20 21  1  0  0  0  0
 20 26  1  1  0  0  0
 22 23  1  6  0  0  0
 22 28  1  0  0  0  0
 24 25  1  0  0  0  0
 26 27  1  0  0  0  0
 28 29  1  6  0  0  0
M  END
>  <CHROM.1>
-85.65144874,-178.69662151,51.93772696,-52.69631279,-55.49569188,-72.31339160
-0.24924126,-11.83553443,30.17239515,1.29802288,1.02302377,-0.05397424

>  <Name>
2et3_lig

>  <RI>
0

>  <Rbt.Current_Directory>
/home/itssahil/PROJECTS/Mol_Feturizer/New_Systems/rnas/2et3

>  <Rbt.Executable>
rbdock ($Id: //depot/dev/client3/rdock/2013.1/src/exe/rbdock.cxx#4 $)

>  <Rbt.Library>
libRbt.so (2013.1, Build901 2013/11/27)

>  <Rbt.Parameter_File>
/export/apps/rDock/src/rDock_2013.1_src/data/scripts/dock_solv.prm

>  <Rbt.Receptor>
prm/blind_docking_100.prm

>  <SCORE>
-12.0185

>  <SCORE.INTER>
-10.8381

>  <SCORE.INTER.CONST>
1

>  <SCORE.INTER.POLAR>
-0.938083

>  <SCORE.INTER.ROT>
6

>  <SCORE.INTER.SOLV>
12.5771

>  <SCORE.INTER.VDW>
-15.8908

>  <SCORE.INTER.norm>
-0.349615

>  <SCORE.INTRA>
-3.31895

>  <SCORE.INTRA.DIHEDRAL>
-18.2008

>  <SCORE.INTRA.DIHEDRAL.0>
22.2484

>  <SCORE.INTRA.POLAR>
0

>  <SCORE.INTRA.POLAR.0>
0

>  <SCORE.INTRA.REPUL>
0

>  <SCORE.INTRA.REPUL.0>
0

>  <SCORE.INTRA.SOLV>
3.13937

>  <SCORE.INTRA.SOLV.lig_0>
-75.7198

>  <SCORE.INTRA.VDW>
4.21175

>  <SCORE.INTRA.VDW.0>
-3.34171

>  <SCORE.INTRA.norm>
-0.107063

>  <SCORE.RESTR>
2.1385

>  <SCORE.RESTR.CAVITY>
2.1385

>  <SCORE.RESTR.norm>
0.0689838

>  <SCORE.SYSTEM>
0

>  <SCORE.SYSTEM.CONST>
0

>  <SCORE.SYSTEM.DIHEDRAL>
0

>  <SCORE.SYSTEM.SOLV>
0

>  <SCORE.SYSTEM.norm>
0

>  <SCORE.heavy>
31

>  <SCORE.norm>
-0.387694

>  <RMSD>
6.228

$$$$
2et3_lig
 OpenBabel11021811423D
libRbt.so/2013.1/901 2013/11/27
 31 33  0  0  0  0  0  0  0  0999 V2000
   -2.3205  -12.3790   32.6658 C   0  0  2  0  0  0  0  0  0  0  0  0
   -1.2971  -12.2364   31.6467 O   0  0  0  0  0  0  0  0  0  0  0  0
    0.5938   -8.5780   30.4862 C   0  0  2  0  0  0  0  0  0  0  0  0
    0.7743   -7.2958   29.8787 N   0  0  0  0  0  0  0  0  0  0  0  0
   -0.3468   -6.0998   32.2798 C   0  0  2  0  0  0  0  0  0  0  0  0
   -2.5617  -13.8647   32.9537 C   0  0  2  0  0  0  0  0  0  0  0  0
   -1.3187  -14.4639   33.3308 N   0  0  0  0  0  0  0  0  0  0  0  0
    0.3019   -9.6431   29.3806 C   0  0  0  0  0  0  0  0  0  0  0  0
   -0.0707   -5.4405   33.6490 C   0  0  2  0  0  0  0  0  0  0  0  0
    1.2100   -5.8287   34.0933 O   0  0  0  0  0  0  0  0  0  0  0  0
   -3.1934  -14.5682   31.7042 C   0  0  0  0  0  0  0  0  0  0  0  0
    0.0933  -11.0552   30.0405 C   0  0  2  0  0  0  0  0  0  0  0  0
   -0.1825  -12.0620   29.0032 N   0  0  0  0  0  0  0  0  0  0  0  0
   -1.2066   -5.9021   34.6509 C   0  0  1  0  0  0  0  0  0  0  0  0
   -0.9875   -5.3418   36.0245 N   0  0  0  0  0  0  0  0  0  0  0  0
   -4.5521  -13.8664   31.3906 C   0  0  0  0  0  0  0  0  0  0  0  0
   -1.0941  -10.9834   31.0757 C   0  0  2  0  0  0  0  0  0  0  0  0
   -2.6601   -5.4527   34.0950 C   0  0  1  0  0  0  0  0  0  0  0  0
   -2.7626   -4.0469   34.0022 O   0  0  0  0  0  0  0  0  0  0  0  0
   -4.2754  -12.3212   31.1250 C   0  0  2  0  0  0  0  0  0  0  0  0
   -3.5656  -11.6866   32.2343 O   0  0  0  0  0  0  0  0  0  0  0  0
   -0.7710   -9.9000   32.1755 C   0  0  2  0  0  0  0  0  0  0  0  0
   -1.8303   -9.8215   33.1239 O   0  0  0  0  0  0  0  0  0  0  0  0
   -2.8616   -6.0374   32.6628 C   0  0  0  0  0  0  0  0  0  0  0  0
   -1.6942   -5.6961   31.7833 O   0  0  0  0  0  0  0  0  0  0  0  0
   -5.5118  -11.5208   30.7897 C   0  0  0  0  0  0  0  0  0  0  0  0
   -5.2056  -10.1325   30.5641 N   0  0  0  0  0  0  0  0  0  0  0  0
   -0.5646   -8.4996   31.4985 C   0  0  1  0  0  0  0  0  0  0  0  0
   -0.2676   -7.5390   32.5047 O   0  0  0  0  0  0  0  0  0  0  0  0
   -3.8770   -5.8390   34.9469 C   0  0  0  0  0  0  0  0  0  0  0  0
   -1.2348   -6.2415   37.1636 C   0  0  0  0  0  0  0  0  0  0  0  0
  1  2  1  6  0  0  0
  1  6  1  0  0  0  0
  1 21  1  0  0  0  0
  3  4  1  6  0  0  0
  3  8  1  0  0  0  0
  3 28  1  0  0  0  0
  5  9  1  0  0  0  0
  5 25  1  0  0  0  0
  5 29  1  1  0  0  0
  6  7  1  6  0  0  0
  6 11  1  0  0  0  0
  8 12  1  0  0  0  0
  9 10  1  1  0  0  0
  9 14  1  0  0  0  0
 11 16  1  0  0  0  0
 12 13  1  6  0  0  0
 12 17  1  0  0  0  0
 14 15  1  1  0  0  0
 14 18  1  0  0  0  0
 15 31  1  0  0  0  0
 16 20  1  0  0  0  0
 17  2  1  1  0  0  0
 17 22  1  0  0  0  0
 18 19  1  6  0  0  0
 18 24  1  0  0  0  0
 18 30  1  0  0  0  0
 20 21  1  0  0  0  0
 20 26  1  1  0  0  0
 22 23  1  1  0  0  0
 22 28  1  0  0  0  0
 24 25  1  0  0  0  0
 26 27  1  0  0  0  0
 28 29  1  1  0  0  0
M  END
>  <CHROM.1>
168.98784316,175.07830884,-138.60192413,177.92979403,179.80042196,75.50514583
-1.72351028,-9.13226050,32.38227138,1.80125836,-0.62314970,-2.65147491

>  <Name>
2et3_lig

>  <RI>
3.86414e+07

>  <Rbt.Current_Directory>
/home/itssahil/PROJECTS/Mol_Feturizer/New_Systems/rnas/2et3

>  <Rbt.Executable>
rbdock ($Id: //depot/dev/client3/rdock/2013.1/src/exe/rbdock.cxx#4 $)

>  <Rbt.Library>
libRbt.so (2013.1, Build901 2013/11/27)

>  <Rbt.Parameter_File>
/export/apps/rDock/src/rDock_2013.1_src/data/scripts/dock_solv.prm

>  <Rbt.Receptor>
prm/pocket_docking_8.prm

>  <SCORE>
-20.0586

>  <SCORE.INTER>
-10.235

>  <SCORE.INTER.CONST>
1

>  <SCORE.INTER.POLAR>
-1.89995

>  <SCORE.INTER.ROT>
6

>  <SCORE.INTER.SOLV>
14.3866

>  <SCORE.INTER.VDW>
-12.8857

>  <SCORE.INTER.norm>
-0.33016

>  <SCORE.INTRA>
-9.82363

>  <SCORE.INTRA.DIHEDRAL>
-19.3098

>  <SCORE.INTRA.DIHEDRAL.0>
22.2484

>  <SCORE.INTRA.POLAR>
0

>  <SCORE.INTRA.POLAR.0>
0

>  <SCORE.INTRA.REPUL>
0

>  <SCORE.INTRA.REPUL.0>
0

>  <SCORE.INTRA.SOLV>
-2.77135

>  <SCORE.INTRA.SOLV.lig_0>
-75.7198

>  <SCORE.INTRA.VDW>
1.21695

>  <SCORE.INTRA.VDW.0>
-3.34171

>  <SCORE.INTRA.norm>
-0.316891

>  <SCORE.RESTR>
0

>  <SCORE.RESTR.CAVITY>
0

>  <SCORE.RESTR.norm>
0

>  <SCORE.SYSTEM>
0

>  <SCORE.SYSTEM.CONST>
0

>  <SCORE.SYSTEM.DIHEDRAL>
0

>  <SCORE.SYSTEM.SOLV>
0

>  <SCORE.SYSTEM.norm>
0

>  <SCORE.heavy>
31

>  <SCORE.norm>
-0.647052

>  <RMSD>
6.232

$$$$
2et3_lig
 OpenBabel11021811423D
libRbt.so/2013.1/901 2013/11/27
 31 33  0  0  0  0  0  0  0  0999 V2000
    0.9940   -8.6478   28.3885 C   0  0  2  0  0  0  0  0  0  0  0  0
    0.9070   -8.7806   29.8310 O   0  0  0  0  0  0  0  0  0  0  0  0
   -1.3989  -11.3105   32.3978 C   0  0  2  0  0  0  0  0  0  0  0  0
   -2.5300  -11.9998   32.9374 N   0  0  0  0  0  0  0  0  0  0  0  0
   -0.0783  -13.8578   31.8952 C   0  0  2  0  0  0  0  0  0  0  0  0
    2.3588   -8.0673   28.0029 C   0  0  2  0  0  0  0  0  0  0  0  0
    3.3816   -8.9088   28.5432 N   0  0  0  0  0  0  0  0  0  0  0  0
   -1.6488   -9.7691   32.4593 C   0  0  0  0  0  0  0  0  0  0  0  0
    0.4165  -15.1465   31.2021 C   0  0  2  0  0  0  0  0  0  0  0  0
    1.1391  -14.7938   30.0437 O   0  0  0  0  0  0  0  0  0  0  0  0
    2.4884   -6.5909   28.5116 C   0  0  0  0  0  0  0  0  0  0  0  0
   -0.4133   -9.0030   31.8598 C   0  0  2  0  0  0  0  0  0  0  0  0
   -0.6439   -7.5506   31.9149 N   0  0  0  0  0  0  0  0  0  0  0  0
   -0.8496  -16.0333   30.8594 C   0  0  1  0  0  0  0  0  0  0  0  0
   -0.4607  -17.2893   30.1383 N   0  0  0  0  0  0  0  0  0  0  0  0
    1.3532   -5.7500   27.8477 C   0  0  0  0  0  0  0  0  0  0  0  0
   -0.1723   -9.4719   30.3736 C   0  0  2  0  0  0  0  0  0  0  0  0
   -1.6594  -16.4003   32.2134 C   0  0  1  0  0  0  0  0  0  0  0  0
   -0.8660  -17.1682   33.0945 O   0  0  0  0  0  0  0  0  0  0  0  0
   -0.0497   -6.3921   28.2406 C   0  0  2  0  0  0  0  0  0  0  0  0
   -0.1291   -7.8086   27.8879 O   0  0  0  0  0  0  0  0  0  0  0  0
    0.0742  -11.0295   30.3447 C   0  0  2  0  0  0  0  0  0  0  0  0
    0.2981  -11.4740   29.0106 O   0  0  0  0  0  0  0  0  0  0  0  0
   -2.0441  -15.0807   32.9511 C   0  0  0  0  0  0  0  0  0  0  0  0
   -0.8387  -14.2046   33.1307 O   0  0  0  0  0  0  0  0  0  0  0  0
   -1.2442   -5.6608   27.6747 C   0  0  0  0  0  0  0  0  0  0  0  0
   -2.4852   -6.2288   28.1321 N   0  0  0  0  0  0  0  0  0  0  0  0
   -1.1672  -11.7760   30.9479 C   0  0  1  0  0  0  0  0  0  0  0  0
   -0.9227  -13.1770   30.9196 O   0  0  0  0  0  0  0  0  0  0  0  0
   -2.9286  -17.2481   32.0528 C   0  0  0  0  0  0  0  0  0  0  0  0
    0.3018  -18.2921   30.9007 C   0  0  0  0  0  0  0  0  0  0  0  0
  1  2  1  1  0  0  0
  1  6  1  0  0  0  0
  1 21  1  0  0  0  0
  3  4  1  6  0  0  0
  3  8  1  0  0  0  0
  3 28  1  0  0  0  0
  5  9  1  0  0  0  0
  5 25  1  0  0  0  0
  5 29  1  6  0  0  0
  6  7  1  1  0  0  0
  6 11  1  0  0  0  0
  8 12  1  0  0  0  0
  9 10  1  6  0  0  0
  9 14  1  0  0  0  0
 11 16  1  0  0  0  0
 12 13  1  6  0  0  0
 12 17  1  0  0  0  0
 14 15  1  1  0  0  0
 14 18  1  0  0  0  0
 15 31  1  0  0  0  0
 16 20  1  0  0  0  0
 17  2  1  1  0  0  0
 17 22  1  0  0  0  0
 18 19  1  1  0  0  0
 18 24  1  0  0  0  0
 18 30  1  0  0  0  0
 20 21  1  0  0  0  0
 20 26  1  6  0  0  0
 22 23  1  6  0  0  0
 22 28  1  0  0  0  0
 24 25  1  0  0  0  0
 26 27  1  0  0  0  0
 28 29  1  1  0  0  0
M  END
>  <CHROM.1>
-170.58330369,-155.95300009,67.91871170,-156.36771131,-176.14954776,-41.66682013
-0.28221536,-11.50007025,30.47540829,-1.37245977,-0.73949566,2.93906644

>  <Name>
2et3_lig

>  <RI>
0

>  <Rbt.Current_Directory>
/home/itssahil/PROJECTS/Mol_Feturizer/New_Systems/rnas/2et3

>  <Rbt.Executable>
rbdock ($Id: //depot/dev/client3/rdock/2013.1/src/exe/rbdock.cxx#4 $)

>  <Rbt.Library>
libRbt.so (2013.1, Build901 2013/11/27)

>  <Rbt.Parameter_File>
/export/apps/rDock/src/rDock_2013.1_src/data/scripts/dock_solv.prm

>  <Rbt.Receptor>
prm/blind_docking_100.prm

>  <SCORE>
-15.0021

>  <SCORE.INTER>
-10.5565

>  <SCORE.INTER.CONST>
1

>  <SCORE.INTER.POLAR>
-0.668623

>  <SCORE.INTER.ROT>
6

>  <SCORE.INTER.SOLV>
14.6993

>  <SCORE.INTER.VDW>
-17.3087

>  <SCORE.INTER.norm>
-0.340531

>  <SCORE.INTRA>
-5.47739

>  <SCORE.INTRA.DIHEDRAL>
-15.0969

>  <SCORE.INTRA.DIHEDRAL.0>
22.2484

>  <SCORE.INTRA.POLAR>
0

>  <SCORE.INTRA.POLAR.0>
0

>  <SCORE.INTRA.REPUL>
0

>  <SCORE.INTRA.REPUL.0>
0

>  <SCORE.INTRA.SOLV>
-0.747283

>  <SCORE.INTRA.SOLV.lig_0>
-75.7198

>  <SCORE.INTRA.VDW>
2.44471

>  <SCORE.INTRA.VDW.0>
-3.34171

>  <SCORE.INTRA.norm>
-0.17669

>  <SCORE.RESTR>
1.03175

>  <SCORE.RESTR.CAVITY>
1.03175

>  <SCORE.RESTR.norm>
0.0332823

>  <SCORE.SYSTEM>
0

>  <SCORE.SYSTEM.CONST>
0

>  <SCORE.SYSTEM.DIHEDRAL>
0

>  <SCORE.SYSTEM.SOLV>
0

>  <SCORE.SYSTEM.norm>
0

>  <SCORE.heavy>
31

>  <SCORE.norm>
-0.483938

>  <RMSD>
6.241

$$$$
2et3_lig
 OpenBabel11021811423D
libRbt.so/2013.1/901 2013/11/27
 31 33  0  0  0  0  0  0  0  0999 V2000
    1.4389   -6.5106   29.1263 C   0  0  2  0  0  0  0  0  0  0  0  0
    0.1920   -5.9703   28.6168 O   0  0  0  0  0  0  0  0  0  0  0  0
   -1.8561   -3.1599   31.1095 C   0  0  2  0  0  0  0  0  0  0  0  0
   -2.8148   -2.6358   32.0323 N   0  0  0  0  0  0  0  0  0  0  0  0
    1.0789   -3.7516   33.0634 C   0  0  2  0  0  0  0  0  0  0  0  0
    2.3804   -6.8296   27.9600 C   0  0  2  0  0  0  0  0  0  0  0  0
    2.5679   -5.6408   27.1869 N   0  0  0  0  0  0  0  0  0  0  0  0
   -2.5927   -3.6976   29.8405 C   0  0  0  0  0  0  0  0  0  0  0  0
    1.4036   -4.6297   34.2919 C   0  0  2  0  0  0  0  0  0  0  0  0
    0.9090   -5.9310   34.0671 O   0  0  0  0  0  0  0  0  0  0  0  0
    1.8028   -8.0025   27.0962 C   0  0  0  0  0  0  0  0  0  0  0  0
   -1.5465   -4.2841   28.8234 C   0  0  2  0  0  0  0  0  0  0  0  0
   -2.2354   -4.7923   27.6264 N   0  0  0  0  0  0  0  0  0  0  0  0
    0.7381   -3.9578   35.5617 C   0  0  1  0  0  0  0  0  0  0  0  0
    0.9661   -4.7756   36.7979 N   0  0  0  0  0  0  0  0  0  0  0  0
    1.6624   -9.2558   28.0161 C   0  0  0  0  0  0  0  0  0  0  0  0
   -0.7207   -5.4329   29.5197 C   0  0  2  0  0  0  0  0  0  0  0  0
    1.3199   -2.4610   35.7729 C   0  0  1  0  0  0  0  0  0  0  0  0
    2.7107   -2.4803   36.0195 O   0  0  0  0  0  0  0  0  0  0  0  0
    0.7042   -8.8872   29.2329 C   0  0  2  0  0  0  0  0  0  0  0  0
    1.1666   -7.7096   29.9655 O   0  0  0  0  0  0  0  0  0  0  0  0
    0.0080   -4.8603   30.7960 C   0  0  2  0  0  0  0  0  0  0  0  0
    0.7636   -5.8819   31.4388 O   0  0  0  0  0  0  0  0  0  0  0  0
    1.0813   -1.6329   34.4726 C   0  0  0  0  0  0  0  0  0  0  0  0
    1.6013   -2.3703   33.2732 O   0  0  0  0  0  0  0  0  0  0  0  0
    0.4662  -10.0241   30.1986 C   0  0  0  0  0  0  0  0  0  0  0  0
   -0.2460  -11.1113   29.5801 N   0  0  0  0  0  0  0  0  0  0  0  0
   -1.0509   -4.2786   31.7972 C   0  0  1  0  0  0  0  0  0  0  0  0
   -0.3744   -3.7614   32.9366 O   0  0  0  0  0  0  0  0  0  0  0  0
    0.7630   -1.6626   36.9595 C   0  0  0  0  0  0  0  0  0  0  0  0
    2.3486   -4.8670   37.2965 C   0  0  0  0  0  0  0  0  0  0  0  0
  1  2  1  6  0  0  0
  1  6  1  0  0  0  0
  1 21  1  0  0  0  0
  3  4  1  1  0  0  0
  3  8  1  0  0  0  0
  3 28  1  0  0  0  0
  5  9  1  0  0  0  0
  5 25  1  0  0  0  0
  5 29  1  1  0  0  0
  6  7  1  6  0  0  0
  6 11  1  0  0  0  0
  8 12  1  0  0  0  0
  9 10  1  6  0  0  0
  9 14  1  0  0  0  0
 11 16  1  0  0  0  0
 12 13  1  6  0  0  0
 12 17  1  0  0  0  0
 14 15  1  1  0  0  0
 14 18  1  0  0  0  0
 15 31  1  0  0  0  0
 16 20  1  0  0  0  0
 17  2  1  6  0  0  0
 17 22  1  0  0  0  0
 18 19  1  1  0  0  0
 18 24  1  0  0  0  0
 18 30  1  0  0  0  0
 20 21  1  0  0  0  0
 20 26  1  1  0  0  0
 22 23  1  1  0  0  0
 22 28  1  0  0  0  0
 24 25  1  0  0  0  0
 26 27  1  0  0  0  0
 28 29  1  1  0  0  0
M  END
>  <CHROM.1>
-170.63575243,-118.17223547,67.56583767,149.82822510,-65.03496923,-117.85785387
0.49595843,-5.19612460,31.67219954,-1.67290523,-0.95209114,0.91420278

>  <Name>
2et3_lig

>  <RI>
0

>  <Rbt.Current_Directory>
/home/itssahil/PROJECTS/Mol_Feturizer/New_Systems/rnas/2et3

>  <Rbt.Executable>
rbdock ($Id: //depot/dev/client3/rdock/2013.1/src/exe/rbdock.cxx#4 $)

>  <Rbt.Library>
libRbt.so (2013.1, Build901 2013/11/27)

>  <Rbt.Parameter_File>
/export/apps/rDock/src/rDock_2013.1_src/data/scripts/dock_solv.prm

>  <Rbt.Receptor>
prm/blind_docking_40.prm

>  <SCORE>
17.7288

>  <SCORE.INTER>
2.07163

>  <SCORE.INTER.CONST>
1

>  <SCORE.INTER.POLAR>
-1.14725

>  <SCORE.INTER.ROT>
6

>  <SCORE.INTER.SOLV>
20.0304

>  <SCORE.INTER.VDW>
-9.07154

>  <SCORE.INTER.norm>
0.0668267

>  <SCORE.INTRA>
5.92241

>  <SCORE.INTRA.DIHEDRAL>
-3.55237

>  <SCORE.INTRA.DIHEDRAL.0>
22.2484

>  <SCORE.INTRA.POLAR>
0

>  <SCORE.INTRA.POLAR.0>
0

>  <SCORE.INTRA.REPUL>
0

>  <SCORE.INTRA.REPUL.0>
0

>  <SCORE.INTRA.SOLV>
-3.56033

>  <SCORE.INTRA.SOLV.lig_0>
-75.7198

>  <SCORE.INTRA.VDW>
9.47876

>  <SCORE.INTRA.VDW.0>
-3.34171

>  <SCORE.INTRA.norm>
0.191045

>  <SCORE.RESTR>
9.73472

>  <SCORE.RESTR.CAVITY>
9.73472

>  <SCORE.RESTR.norm>
0.314023

>  <SCORE.SYSTEM>
0

>  <SCORE.SYSTEM.CONST>
0

>  <SCORE.SYSTEM.DIHEDRAL>
0

>  <SCORE.SYSTEM.SOLV>
0

>  <SCORE.SYSTEM.norm>
0

>  <SCORE.heavy>
31

>  <SCORE.norm>
0.571895

>  <RMSD>
6.246

$$$$
2et3_lig
 OpenBabel11021811423D
libRbt.so/2013.1/901 2013/11/27
 31 33  0  0  0  0  0  0  0  0999 V2000
   -1.5432   -6.4374   30.3968 C   0  0  2  0  0  0  0  0  0  0  0  0
   -1.2528   -6.7533   31.7832 O   0  0  0  0  0  0  0  0  0  0  0  0
   -2.3356  -10.1479   34.1519 C   0  0  2  0  0  0  0  0  0  0  0  0
   -3.1560  -11.1203   34.8053 N   0  0  0  0  0  0  0  0  0  0  0  0
   -2.5463  -11.9798   30.8032 C   0  0  2  0  0  0  0  0  0  0  0  0
   -0.5346   -5.4070   29.8778 C   0  0  2  0  0  0  0  0  0  0  0  0
    0.7849   -5.9278   30.0614 N   0  0  0  0  0  0  0  0  0  0  0  0
   -2.6764   -8.7245   34.6995 C   0  0  0  0  0  0  0  0  0  0  0  0
   -2.6072  -13.5213   30.8793 C   0  0  2  0  0  0  0  0  0  0  0  0
   -3.6093  -13.8943   31.7986 O   0  0  0  0  0  0  0  0  0  0  0  0
   -0.7280   -4.0355   30.6107 C   0  0  0  0  0  0  0  0  0  0  0  0
   -1.7848   -7.6474   33.9800 C   0  0  2  0  0  0  0  0  0  0  0  0
   -2.1023   -6.3047   34.4921 N   0  0  0  0  0  0  0  0  0  0  0  0
   -1.1793  -14.0450   31.3198 C   0  0  1  0  0  0  0  0  0  0  0  0
   -1.1630  -15.5375   31.4645 N   0  0  0  0  0  0  0  0  0  0  0  0
   -2.1803   -3.5377   30.3282 C   0  0  0  0  0  0  0  0  0  0  0  0
   -2.0235   -7.7197   32.4230 C   0  0  2  0  0  0  0  0  0  0  0  0
   -0.0573  -13.5803   30.2480 C   0  0  1  0  0  0  0  0  0  0  0  0
   -0.3049  -14.1340   28.9722 O   0  0  0  0  0  0  0  0  0  0  0  0
   -3.2046   -4.6391   30.8502 C   0  0  2  0  0  0  0  0  0  0  0  0
   -2.9461   -5.9558   30.2698 O   0  0  0  0  0  0  0  0  0  0  0  0
   -1.6734   -9.1666   31.9018 C   0  0  2  0  0  0  0  0  0  0  0  0
   -1.8788   -9.2529   30.4953 O   0  0  0  0  0  0  0  0  0  0  0  0
   -0.0996  -12.0273   30.1063 C   0  0  0  0  0  0  0  0  0  0  0  0
   -1.4985  -11.5597   29.8285 O   0  0  0  0  0  0  0  0  0  0  0  0
   -4.6573   -4.2746   30.6537 C   0  0  0  0  0  0  0  0  0  0  0  0
   -4.9868   -4.1213   29.2610 N   0  0  0  0  0  0  0  0  0  0  0  0
   -2.5710  -10.2267   32.6316 C   0  0  1  0  0  0  0  0  0  0  0  0
   -2.2357  -11.5238   32.1537 O   0  0  0  0  0  0  0  0  0  0  0  0
    1.3913  -13.9967   30.5376 C   0  0  0  0  0  0  0  0  0  0  0  0
   -1.6898  -16.0957   32.7211 C   0  0  0  0  0  0  0  0  0  0  0  0
  1  2  1  1  0  0  0
  1  6  1  0  0  0  0
  1 21  1  0  0  0  0
  3  4  1  1  0  0  0
  3  8  1  0  0  0  0
  3 28  1  0  0  0  0
  5  9  1  0  0  0  0
  5 25  1  0  0  0  0
  5 29  1  1  0  0  0
  6  7  1  1  0  0  0
  6 11  1  0  0  0  0
  8 12  1  0  0  0  0
  9 10  1  1  0  0  0
  9 14  1  0  0  0  0
 11 16  1  0  0  0  0
 12 13  1  1  0  0  0
 12 17  1  0  0  0  0
 14 15  1  6  0  0  0
 14 18  1  0  0  0  0
 15 31  1  0  0  0  0
 16 20  1  0  0  0  0
 17  2  1  6  0  0  0
 17 22  1  0  0  0  0
 18 19  1  6  0  0  0
 18 24  1  0  0  0  0
 18 30  1  0  0  0  0
 20 21  1  0  0  0  0
 20 26  1  6  0  0  0
 22 23  1  6  0  0  0
 22 28  1  0  0  0  0
 24 25  1  0  0  0  0
 26 27  1  0  0  0  0
 28 29  1  6  0  0  0
M  END
>  <CHROM.1>
-177.15435306,-155.70137122,-81.21483414,-166.02532270,62.14826133,170.00881594
-1.84044085,-9.50619854,31.41261067,-1.81911671,-1.05351758,2.88546413

>  <Name>
2et3_lig

>  <RI>
0

>  <Rbt.Current_Directory>
/home/itssahil/PROJECTS/Mol_Feturizer/New_Systems/rnas/2et3

>  <Rbt.Executable>
rbdock ($Id: //depot/dev/client3/rdock/2013.1/src/exe/rbdock.cxx#4 $)

>  <Rbt.Library>
libRbt.so (2013.1, Build901 2013/11/27)

>  <Rbt.Parameter_File>
/export/apps/rDock/src/rDock_2013.1_src/data/scripts/dock_solv.prm

>  <Rbt.Receptor>
prm/pocket_docking_6.prm

>  <SCORE>
-14.6078

>  <SCORE.INTER>
-5.64814

>  <SCORE.INTER.CONST>
1

>  <SCORE.INTER.POLAR>
-0.82819

>  <SCORE.INTER.ROT>
6

>  <SCORE.INTER.SOLV>
9.9996

>  <SCORE.INTER.VDW>
-11.938

>  <SCORE.INTER.norm>
-0.182198

>  <SCORE.INTRA>
-8.95964

>  <SCORE.INTRA.DIHEDRAL>
-17.7451

>  <SCORE.INTRA.DIHEDRAL.0>
22.2484

>  <SCORE.INTRA.POLAR>
0

>  <SCORE.INTRA.POLAR.0>
0

>  <SCORE.INTRA.REPUL>
0

>  <SCORE.INTRA.REPUL.0>
0

>  <SCORE.INTRA.SOLV>
-2.89397

>  <SCORE.INTRA.SOLV.lig_0>
-75.7198

>  <SCORE.INTRA.VDW>
1.35988

>  <SCORE.INTRA.VDW.0>
-3.34171

>  <SCORE.INTRA.norm>
-0.289021

>  <SCORE.RESTR>
0

>  <SCORE.RESTR.CAVITY>
0

>  <SCORE.RESTR.norm>
0

>  <SCORE.SYSTEM>
0

>  <SCORE.SYSTEM.CONST>
0

>  <SCORE.SYSTEM.DIHEDRAL>
0

>  <SCORE.SYSTEM.SOLV>
0

>  <SCORE.SYSTEM.norm>
0

>  <SCORE.heavy>
31

>  <SCORE.norm>
-0.471219

>  <RMSD>
6.247

$$$$
2et3_lig
 OpenBabel11021811423D
libRbt.so/2013.1/901 2013/11/27
 31 33  0  0  0  0  0  0  0  0999 V2000
   -0.8280   -5.2392   32.1528 C   0  0  2  0  0  0  0  0  0  0  0  0
   -1.5688   -5.8886   33.2185 O   0  0  0  0  0  0  0  0  0  0  0  0
   -3.7370   -9.5771   33.2388 C   0  0  2  0  0  0  0  0  0  0  0  0
   -4.7071  -10.5642   32.8781 N   0  0  0  0  0  0  0  0  0  0  0  0
   -1.1043  -11.0782   32.3543 C   0  0  2  0  0  0  0  0  0  0  0  0
    0.2410   -4.3186   32.7512 C   0  0  2  0  0  0  0  0  0  0  0  0
    1.0786   -5.0929   33.6143 N   0  0  0  0  0  0  0  0  0  0  0  0
   -4.4651   -8.2881   33.7395 C   0  0  0  0  0  0  0  0  0  0  0  0
   -0.4797  -12.1349   31.4169 C   0  0  2  0  0  0  0  0  0  0  0  0
    0.0049  -11.4904   30.2601 O   0  0  0  0  0  0  0  0  0  0  0  0
   -0.4297   -3.1218   33.5083 C   0  0  0  0  0  0  0  0  0  0  0  0
   -3.4057   -7.1935   34.1302 C   0  0  2  0  0  0  0  0  0  0  0  0
   -4.0865   -5.9771   34.6021 N   0  0  0  0  0  0  0  0  0  0  0  0
   -1.5968  -13.2026   31.0720 C   0  0  1  0  0  0  0  0  0  0  0  0
   -1.0850  -14.2452   30.1233 N   0  0  0  0  0  0  0  0  0  0  0  0
   -1.2946   -2.3249   32.4818 C   0  0  0  0  0  0  0  0  0  0  0  0
   -2.4942   -6.8729   32.8840 C   0  0  2  0  0  0  0  0  0  0  0  0
   -2.1376  -13.9052   32.4276 C   0  0  1  0  0  0  0  0  0  0  0  0
   -1.1067  -14.6109   33.0870 O   0  0  0  0  0  0  0  0  0  0  0  0
   -2.3757   -3.3116   31.8555 C   0  0  2  0  0  0  0  0  0  0  0  0
   -1.7641   -4.4996   31.2623 O   0  0  0  0  0  0  0  0  0  0  0  0
   -1.7761   -8.1919   32.4018 C   0  0  2  0  0  0  0  0  0  0  0  0
   -0.9439   -7.9238   31.2779 O   0  0  0  0  0  0  0  0  0  0  0  0
   -2.6546  -12.8024   33.4023 C   0  0  0  0  0  0  0  0  0  0  0  0
   -1.6165  -11.7351   33.5916 O   0  0  0  0  0  0  0  0  0  0  0  0
   -3.2978   -2.6610   30.8514 C   0  0  0  0  0  0  0  0  0  0  0  0
   -2.5726   -2.1144   29.7346 N   0  0  0  0  0  0  0  0  0  0  0  0
   -2.8481   -9.2717   32.0184 C   0  0  1  0  0  0  0  0  0  0  0  0
   -2.1816  -10.4543   31.5936 O   0  0  0  0  0  0  0  0  0  0  0  0
   -3.2405  -14.9605   32.2681 C   0  0  0  0  0  0  0  0  0  0  0  0
   -1.1839  -13.9496   28.6842 C   0  0  0  0  0  0  0  0  0  0  0  0
  1  2  1  1  0  0  0
  1  6  1  0  0  0  0
  1 21  1  0  0  0  0
  3  4  1  6  0  0  0
  3  8  1  0  0  0  0
  3 28  1  0  0  0  0
  5  9  1  0  0  0  0
  5 25  1  0  0  0  0
  5 29  1  6  0  0  0
  6  7  1  1  0  0  0
  6 11  1  0  0  0  0
  8 12  1  0  0  0  0
  9 10  1  6  0  0  0
  9 14  1  0  0  0  0
 11 16  1  0  0  0  0
 12 13  1  6  0  0  0
 12 17  1  0  0  0  0
 14 15  1  6  0  0  0
 14 18  1  0  0  0  0
 15 31  1  0  0  0  0
 16 20  1  0  0  0  0
 17  2  1  1  0  0  0
 17 22  1  0  0  0  0
 18 19  1  1  0  0  0
 18 24  1  0  0  0  0
 18 30  1  0  0  0  0
 20 21  1  0  0  0  0
 20 26  1  6  0  0  0
 22 23  1  6  0  0  0
 22 28  1  0  0  0  0
 24 25  1  0  0  0  0
 26 27  1  0  0  0  0
 28 29  1  1  0  0  0
M  END
>  <CHROM.1>
-173.39122219,-168.55383959,-87.10619938,-166.84294921,59.94128964,-70.82686485
-1.90708861,-8.65422571,32.20310564,-1.55914494,-0.76090404,-3.07724022

>  <Name>
2et3_lig

>  <RI>
0

>  <Rbt.Current_Directory>
/home/itssahil/PROJECTS/Mol_Feturizer/New_Systems/rnas/2et3

>  <Rbt.Executable>
rbdock ($Id: //depot/dev/client3/rdock/2013.1/src/exe/rbdock.cxx#4 $)

>  <Rbt.Library>
libRbt.so (2013.1, Build901 2013/11/27)

>  <Rbt.Parameter_File>
/export/apps/rDock/src/rDock_2013.1_src/data/scripts/dock_solv.prm

>  <Rbt.Receptor>
prm/pocket_docking_6.prm

>  <SCORE>
-17.9748

>  <SCORE.INTER>
-8.21187

>  <SCORE.INTER.CONST>
1

>  <SCORE.INTER.POLAR>
-1.66537

>  <SCORE.INTER.ROT>
6

>  <SCORE.INTER.SOLV>
12.449

>  <SCORE.INTER.VDW>
-11.673

>  <SCORE.INTER.norm>
-0.264899

>  <SCORE.INTRA>
-9.7629

>  <SCORE.INTRA.DIHEDRAL>
-19.3518

>  <SCORE.INTRA.DIHEDRAL.0>
22.2484

>  <SCORE.INTRA.POLAR>
0

>  <SCORE.INTRA.POLAR.0>
0

>  <SCORE.INTRA.REPUL>
0

>  <SCORE.INTRA.REPUL.0>
0

>  <SCORE.INTRA.SOLV>
-0.984785

>  <SCORE.INTRA.SOLV.lig_0>
-75.7198

>  <SCORE.INTRA.VDW>
0.405406

>  <SCORE.INTRA.VDW.0>
-3.34171

>  <SCORE.INTRA.norm>
-0.314932

>  <SCORE.RESTR>
0

>  <SCORE.RESTR.CAVITY>
0

>  <SCORE.RESTR.norm>
0

>  <SCORE.SYSTEM>
0

>  <SCORE.SYSTEM.CONST>
0

>  <SCORE.SYSTEM.DIHEDRAL>
0

>  <SCORE.SYSTEM.SOLV>
0

>  <SCORE.SYSTEM.norm>
0

>  <SCORE.heavy>
31

>  <SCORE.norm>
-0.579831

>  <RMSD>
6.270

$$$$
2et3_lig
 OpenBabel11021811423D
libRbt.so/2013.1/901 2013/11/27
 31 33  0  0  0  0  0  0  0  0999 V2000
   -0.2321   -6.3779   29.1435 C   0  0  2  0  0  0  0  0  0  0  0  0
   -0.3779   -4.9860   29.5277 O   0  0  0  0  0  0  0  0  0  0  0  0
   -2.1359   -2.9268   32.8406 C   0  0  2  0  0  0  0  0  0  0  0  0
   -3.0481   -2.6231   33.8994 N   0  0  0  0  0  0  0  0  0  0  0  0
   -0.1691   -5.4579   34.9321 C   0  0  2  0  0  0  0  0  0  0  0  0
    1.0264   -6.5497   28.2861 C   0  0  2  0  0  0  0  0  0  0  0  0
    2.1503   -6.0588   29.0222 N   0  0  0  0  0  0  0  0  0  0  0  0
   -2.8986   -2.9208   31.4766 C   0  0  0  0  0  0  0  0  0  0  0  0
   -0.0594   -5.1705   36.4457 C   0  0  2  0  0  0  0  0  0  0  0  0
   -1.3517   -4.9447   36.9629 O   0  0  0  0  0  0  0  0  0  0  0  0
    0.8587   -5.8104   26.9147 C   0  0  0  0  0  0  0  0  0  0  0  0
   -1.9046   -3.2625   30.3069 C   0  0  2  0  0  0  0  0  0  0  0  0
   -2.6183   -3.2587   29.0200 N   0  0  0  0  0  0  0  0  0  0  0  0
    0.8798   -3.9101   36.6363 C   0  0  1  0  0  0  0  0  0  0  0  0
    1.0034   -3.5317   38.0822 N   0  0  0  0  0  0  0  0  0  0  0  0
   -0.3684   -6.4329   26.1775 C   0  0  0  0  0  0  0  0  0  0  0  0
   -1.2423   -4.6690   30.5714 C   0  0  2  0  0  0  0  0  0  0  0  0
    2.3459   -4.2049   36.0139 C   0  0  1  0  0  0  0  0  0  0  0  0
    2.9814   -5.2757   36.6809 O   0  0  0  0  0  0  0  0  0  0  0  0
   -1.6536   -6.2667   27.1023 C   0  0  2  0  0  0  0  0  0  0  0  0
   -1.4565   -6.8388   28.4331 O   0  0  0  0  0  0  0  0  0  0  0  0
   -0.4835   -4.6437   31.9539 C   0  0  2  0  0  0  0  0  0  0  0  0
    0.1259   -5.9047   32.2110 O   0  0  0  0  0  0  0  0  0  0  0  0
    2.1919   -4.6061   34.5143 C   0  0  0  0  0  0  0  0  0  0  0  0
    1.1863   -5.7100   34.3627 O   0  0  0  0  0  0  0  0  0  0  0  0
   -2.9249   -6.8146   26.4979 C   0  0  0  0  0  0  0  0  0  0  0  0
   -2.8995   -8.2511   26.4096 N   0  0  0  0  0  0  0  0  0  0  0  0
   -1.4902   -4.2996   33.1073 C   0  0  1  0  0  0  0  0  0  0  0  0
   -0.7862   -4.2745   34.3431 O   0  0  0  0  0  0  0  0  0  0  0  0
    3.3771   -3.0719   36.1044 C   0  0  0  0  0  0  0  0  0  0  0  0
    0.1537   -2.4292   38.5623 C   0  0  0  0  0  0  0  0  0  0  0  0
  1  2  1  6  0  0  0
  1  6  1  0  0  0  0
  1 21  1  0  0  0  0
  3  4  1  1  0  0  0
  3  8  1  0  0  0  0
  3 28  1  0  0  0  0
  5  9  1  0  0  0  0
  5 25  1  0  0  0  0
  5 29  1  6  0  0  0
  6  7  1  1  0  0  0
  6 11  1  0  0  0  0
  8 12  1  0  0  0  0
  9 10  1  6  0  0  0
  9 14  1  0  0  0  0
 11 16  1  0  0  0  0
 12 13  1  6  0  0  0
 12 17  1  0  0  0  0
 14 15  1  1  0  0  0
 14 18  1  0  0  0  0
 15 31  1  0  0  0  0
 16 20  1  0  0  0  0
 17  2  1  6  0  0  0
 17 22  1  0  0  0  0
 18 19  1  1  0  0  0
 18 24  1  0  0  0  0
 18 30  1  0  0  0  0
 20 21  1  0  0  0  0
 20 26  1  6  0  0  0
 22 23  1  1  0  0  0
 22 28  1  0  0  0  0
 24 25  1  0  0  0  0
 26 27  1  0  0  0  0
 28 29  1  1  0  0  0
M  END
>  <CHROM.1>
-163.78353790,-156.67739986,-98.76698989,-146.79817654,68.80995466,174.30228643
-0.29865159,-4.89719622,32.19188379,-1.80928618,-0.39185823,1.24060365

>  <Name>
2et3_lig

>  <RI>
3.86414e+07

>  <Rbt.Current_Directory>
/home/itssahil/PROJECTS/Mol_Feturizer/New_Systems/rnas/2et3

>  <Rbt.Executable>
rbdock ($Id: //depot/dev/client3/rdock/2013.1/src/exe/rbdock.cxx#4 $)

>  <Rbt.Library>
libRbt.so (2013.1, Build901 2013/11/27)

>  <Rbt.Parameter_File>
/export/apps/rDock/src/rDock_2013.1_src/data/scripts/dock_solv.prm

>  <Rbt.Receptor>
prm/pocket_docking_8.prm

>  <SCORE>
-26.7149

>  <SCORE.INTER>
-20.2843

>  <SCORE.INTER.CONST>
1

>  <SCORE.INTER.POLAR>
-1.85439

>  <SCORE.INTER.ROT>
6

>  <SCORE.INTER.SOLV>
18.5358

>  <SCORE.INTER.VDW>
-21.1202

>  <SCORE.INTER.norm>
-0.654334

>  <SCORE.INTRA>
-6.43133

>  <SCORE.INTRA.DIHEDRAL>
-13.0095

>  <SCORE.INTRA.DIHEDRAL.0>
22.2484

>  <SCORE.INTRA.POLAR>
0

>  <SCORE.INTRA.POLAR.0>
0

>  <SCORE.INTRA.REPUL>
0

>  <SCORE.INTRA.REPUL.0>
0

>  <SCORE.INTRA.SOLV>
-1.62526

>  <SCORE.INTRA.SOLV.lig_0>
-75.7198

>  <SCORE.INTRA.VDW>
0.886064

>  <SCORE.INTRA.VDW.0>
-3.34171

>  <SCORE.INTRA.norm>
-0.207462

>  <SCORE.RESTR>
0.000737439

>  <SCORE.RESTR.CAVITY>
0.000737439

>  <SCORE.RESTR.norm>
2.37884e-05

>  <SCORE.SYSTEM>
0

>  <SCORE.SYSTEM.CONST>
0

>  <SCORE.SYSTEM.DIHEDRAL>
0

>  <SCORE.SYSTEM.SOLV>
0

>  <SCORE.SYSTEM.norm>
0

>  <SCORE.heavy>
31

>  <SCORE.norm>
-0.861772

>  <RMSD>
6.310

$$$$
2et3_lig
 OpenBabel11021811423D
libRbt.so/2013.1/901 2013/11/27
 31 33  0  0  0  0  0  0  0  0999 V2000
   -2.0810  -12.3088   33.1046 C   0  0  2  0  0  0  0  0  0  0  0  0
   -1.1470  -11.9867   32.0416 O   0  0  0  0  0  0  0  0  0  0  0  0
    0.2507   -8.1150   30.8744 C   0  0  2  0  0  0  0  0  0  0  0  0
    0.2349   -6.7891   30.3382 N   0  0  0  0  0  0  0  0  0  0  0  0
   -0.3789   -5.8282   32.8685 C   0  0  2  0  0  0  0  0  0  0  0  0
   -2.2464  -13.8289   33.2063 C   0  0  2  0  0  0  0  0  0  0  0  0
   -0.9572  -14.4156   33.4065 N   0  0  0  0  0  0  0  0  0  0  0  0
   -0.1215   -9.1366   29.7519 C   0  0  0  0  0  0  0  0  0  0  0  0
    0.1366   -5.2175   34.1902 C   0  0  2  0  0  0  0  0  0  0  0  0
    1.4364   -5.7029   34.4417 O   0  0  0  0  0  0  0  0  0  0  0  0
   -2.9497  -14.3894   31.9231 C   0  0  0  0  0  0  0  0  0  0  0  0
   -0.1152  -10.5971   30.3349 C   0  0  2  0  0  0  0  0  0  0  0  0
   -0.4657  -11.5631   29.2816 N   0  0  0  0  0  0  0  0  0  0  0  0
   -0.8749   -5.6188   35.3404 C   0  0  1  0  0  0  0  0  0  0  0  0
   -0.4221   -5.1029   36.6737 N   0  0  0  0  0  0  0  0  0  0  0  0
   -4.3527  -13.7148   31.8079 C   0  0  0  0  0  0  0  0  0  0  0  0
   -1.1327  -10.6901   31.5360 C   0  0  2  0  0  0  0  0  0  0  0  0
   -2.3567   -5.0581   35.0039 C   0  0  1  0  0  0  0  0  0  0  0  0
   -2.3700   -3.6469   34.9407 O   0  0  0  0  0  0  0  0  0  0  0  0
   -4.1524  -12.1371   31.7337 C   0  0  2  0  0  0  0  0  0  0  0  0
   -3.3799  -11.6228   32.8633 O   0  0  0  0  0  0  0  0  0  0  0  0
   -0.7322   -9.6472   32.6494 C   0  0  2  0  0  0  0  0  0  0  0  0
   -1.6373   -9.7171   33.7465 O   0  0  0  0  0  0  0  0  0  0  0  0
   -2.8021   -5.5984   33.6099 C   0  0  0  0  0  0  0  0  0  0  0  0
   -1.7508   -5.3217   32.5750 O   0  0  0  0  0  0  0  0  0  0  0  0
   -5.4388  -11.3563   31.6015 C   0  0  0  0  0  0  0  0  0  0  0  0
   -5.1984   -9.9398   31.5144 N   0  0  0  0  0  0  0  0  0  0  0  0
   -0.7423   -8.1975   32.0491 C   0  0  1  0  0  0  0  0  0  0  0  0
   -0.3720   -7.2737   33.0653 O   0  0  0  0  0  0  0  0  0  0  0  0
   -3.4640   -5.3756   36.0181 C   0  0  0  0  0  0  0  0  0  0  0  0
   -0.7726   -5.9049   37.8578 C   0  0  0  0  0  0  0  0  0  0  0  0
  1  2  1  6  0  0  0
  1  6  1  0  0  0  0
  1 21  1  0  0  0  0
  3  4  1  6  0  0  0
  3  8  1  0  0  0  0
  3 28  1  0  0  0  0
  5  9  1  0  0  0  0
  5 25  1  0  0  0  0
  5 29  1  1  0  0  0
  6  7  1  6  0  0  0
  6 11  1  0  0  0  0
  8 12  1  0  0  0  0
  9 10  1  1  0  0  0
  9 14  1  0  0  0  0
 11 16  1  0  0  0  0
 12 13  1  6  0  0  0
 12 17  1  0  0  0  0
 14 15  1  1  0  0  0
 14 18  1  0  0  0  0
 15 31  1  0  0  0  0
 16 20  1  0  0  0  0
 17  2  1  1  0  0  0
 17 22  1  0  0  0  0
 18 19  1  6  0  0  0
 18 24  1  0  0  0  0
 18 30  1  0  0  0  0
 20 21  1  0  0  0  0
 20 26  1  1  0  0  0
 22 23  1  1  0  0  0
 22 28  1  0  0  0  0
 24 25  1  0  0  0  0
 26 27  1  0  0  0  0
 28 29  1  1  0  0  0
M  END
>  <CHROM.1>
162.39559962,-177.89656767,-148.66509792,-176.30344188,-178.94858243,64.43312810
-1.62701763,-8.85783612,32.94796697,1.82967223,-0.76460537,-2.57271146

>  <Name>
2et3_lig

>  <RI>
0

>  <Rbt.Current_Directory>
/home/itssahil/PROJECTS/Mol_Feturizer/New_Systems/rnas/2et3

>  <Rbt.Executable>
rbdock ($Id: //depot/dev/client3/rdock/2013.1/src/exe/rbdock.cxx#4 $)

>  <Rbt.Library>
libRbt.so (2013.1, Build901 2013/11/27)

>  <Rbt.Parameter_File>
/export/apps/rDock/src/rDock_2013.1_src/data/scripts/dock_solv.prm

>  <Rbt.Receptor>
prm/pocket_docking_7.prm

>  <SCORE>
-21.95

>  <SCORE.INTER>
-12.4285

>  <SCORE.INTER.CONST>
1

>  <SCORE.INTER.POLAR>
-2.07766

>  <SCORE.INTER.ROT>
6

>  <SCORE.INTER.SOLV>
14.268

>  <SCORE.INTER.VDW>
-13.7162

>  <SCORE.INTER.norm>
-0.400921

>  <SCORE.INTRA>
-9.52149

>  <SCORE.INTRA.DIHEDRAL>
-19.8415

>  <SCORE.INTRA.DIHEDRAL.0>
22.2484

>  <SCORE.INTRA.POLAR>
0

>  <SCORE.INTRA.POLAR.0>
0

>  <SCORE.INTRA.REPUL>
0

>  <SCORE.INTRA.REPUL.0>
0

>  <SCORE.INTRA.SOLV>
-2.29291

>  <SCORE.INTRA.SOLV.lig_0>
-75.7198

>  <SCORE.INTRA.VDW>
1.54571

>  <SCORE.INTRA.VDW.0>
-3.34171

>  <SCORE.INTRA.norm>
-0.307145

>  <SCORE.RESTR>
0

>  <SCORE.RESTR.CAVITY>
0

>  <SCORE.RESTR.norm>
0

>  <SCORE.SYSTEM>
0

>  <SCORE.SYSTEM.CONST>
0

>  <SCORE.SYSTEM.DIHEDRAL>
0

>  <SCORE.SYSTEM.SOLV>
0

>  <SCORE.SYSTEM.norm>
0

>  <SCORE.heavy>
31

>  <SCORE.norm>
-0.708065

>  <RMSD>
6.329

$$$$
2et3_lig
 OpenBabel11021811423D
libRbt.so/2013.1/901 2013/11/27
 31 33  0  0  0  0  0  0  0  0999 V2000
   -0.9843  -12.8771   32.5585 C   0  0  2  0  0  0  0  0  0  0  0  0
   -2.3267  -12.3633   32.3586 O   0  0  0  0  0  0  0  0  0  0  0  0
   -4.8184   -9.8573   34.7707 C   0  0  2  0  0  0  0  0  0  0  0  0
   -5.5275   -9.3745   35.9151 N   0  0  0  0  0  0  0  0  0  0  0  0
   -2.9357   -7.4598   34.4830 C   0  0  2  0  0  0  0  0  0  0  0  0
   -0.2220  -12.8664   31.2291 C   0  0  2  0  0  0  0  0  0  0  0  0
   -0.2321  -11.5342   30.7083 N   0  0  0  0  0  0  0  0  0  0  0  0
   -5.3446  -11.2791   34.3920 C   0  0  0  0  0  0  0  0  0  0  0  0
   -2.0938   -6.3281   35.1123 C   0  0  2  0  0  0  0  0  0  0  0  0
   -0.7663   -6.7778   35.2669 O   0  0  0  0  0  0  0  0  0  0  0  0
   -0.8568  -13.8899   30.2267 C   0  0  0  0  0  0  0  0  0  0  0  0
   -4.5641  -11.8218   33.1392 C   0  0  2  0  0  0  0  0  0  0  0  0
   -5.0558  -13.1612   32.7787 N   0  0  0  0  0  0  0  0  0  0  0  0
   -2.7514   -5.9450   36.5008 C   0  0  1  0  0  0  0  0  0  0  0  0
   -1.9652   -4.8796   37.2047 N   0  0  0  0  0  0  0  0  0  0  0  0
   -0.7730  -15.3102   30.8690 C   0  0  0  0  0  0  0  0  0  0  0  0
   -3.0201  -11.8629   33.4568 C   0  0  2  0  0  0  0  0  0  0  0  0
   -4.2784   -5.4518   36.2801 C   0  0  1  0  0  0  0  0  0  0  0  0
   -4.3319   -4.2869   35.4829 O   0  0  0  0  0  0  0  0  0  0  0  0
   -1.5468  -15.2842   32.2601 C   0  0  2  0  0  0  0  0  0  0  0  0
   -1.0466  -14.2404   33.1532 O   0  0  0  0  0  0  0  0  0  0  0  0
   -2.5205  -10.4160   33.8370 C   0  0  2  0  0  0  0  0  0  0  0  0
   -1.1259  -10.4299   34.1245 O   0  0  0  0  0  0  0  0  0  0  0  0
   -5.0734   -6.5701   35.5380 C   0  0  0  0  0  0  0  0  0  0  0  0
   -4.3443   -7.0046   34.3001 O   0  0  0  0  0  0  0  0  0  0  0  0
   -1.5590  -16.6092   32.9853 C   0  0  0  0  0  0  0  0  0  0  0  0
   -0.3226  -16.8493   33.6820 N   0  0  0  0  0  0  0  0  0  0  0  0
   -3.3112   -9.8912   35.0866 C   0  0  1  0  0  0  0  0  0  0  0  0
   -2.8518   -8.5842   35.4088 O   0  0  0  0  0  0  0  0  0  0  0  0
   -5.0663   -5.0553   37.5362 C   0  0  0  0  0  0  0  0  0  0  0  0
   -0.8351   -5.3204   38.0394 C   0  0  0  0  0  0  0  0  0  0  0  0
  1  2  1  6  0  0  0
  1  6  1  0  0  0  0
  1 21  1  0  0  0  0
  3  4  1  1  0  0  0
  3  8  1  0  0  0  0
  3 28  1  0  0  0  0
  5  9  1  0  0  0  0
  5 25  1  0  0  0  0
  5 29  1  1  0  0  0
  6  7  1  6  0  0  0
  6 11  1  0  0  0  0
  8 12  1  0  0  0  0
  9 10  1  1  0  0  0
  9 14  1  0  0  0  0
 11 16  1  0  0  0  0
 12 13  1  1  0  0  0
 12 17  1  0  0  0  0
 14 15  1  6  0  0  0
 14 18  1  0  0  0  0
 15 31  1  0  0  0  0
 16 20  1  0  0  0  0
 17  2  1  6  0  0  0
 17 22  1  0  0  0  0
 18 19  1  6  0  0  0
 18 24  1  0  0  0  0
 18 30  1  0  0  0  0
 20 21  1  0  0  0  0
 20 26  1  1  0  0  0
 22 23  1  1  0  0  0
 22 28  1  0  0  0  0
 24 25  1  0  0  0  0
 26 27  1  0  0  0  0
 28 29  1  6  0  0  0
M  END
>  <CHROM.1>
-158.35602775,-169.31266334,-85.79245002,-160.93581431,79.84032128,-60.28502958
-2.64651645,-10.07426790,34.17021177,-1.35843594,0.16552239,0.40658863

>  <Name>
2et3_lig

>  <RI>
0

>  <Rbt.Current_Directory>
/home/itssahil/PROJECTS/Mol_Feturizer/New_Systems/rnas/2et3

>  <Rbt.Executable>
rbdock ($Id: //depot/dev/client3/rdock/2013.1/src/exe/rbdock.cxx#4 $)

>  <Rbt.Library>
libRbt.so (2013.1, Build901 2013/11/27)

>  <Rbt.Parameter_File>
/export/apps/rDock/src/rDock_2013.1_src/data/scripts/dock_solv.prm

>  <Rbt.Receptor>
prm/pocket_docking_6.prm

>  <SCORE>
-22.6463

>  <SCORE.INTER>
-15.1978

>  <SCORE.INTER.CONST>
1

>  <SCORE.INTER.POLAR>
-2.38692

>  <SCORE.INTER.ROT>
6

>  <SCORE.INTER.SOLV>
16.1044

>  <SCORE.INTER.VDW>
-15.1436

>  <SCORE.INTER.norm>
-0.490252

>  <SCORE.INTRA>
-7.4485

>  <SCORE.INTRA.DIHEDRAL>
-16.0862

>  <SCORE.INTRA.DIHEDRAL.0>
22.2484

>  <SCORE.INTRA.POLAR>
0

>  <SCORE.INTRA.POLAR.0>
0

>  <SCORE.INTRA.REPUL>
0

>  <SCORE.INTRA.REPUL.0>
0

>  <SCORE.INTRA.SOLV>
0.154539

>  <SCORE.INTRA.SOLV.lig_0>
-75.7198

>  <SCORE.INTRA.VDW>
0.517337

>  <SCORE.INTRA.VDW.0>
-3.34171

>  <SCORE.INTRA.norm>
-0.240274

>  <SCORE.RESTR>
0

>  <SCORE.RESTR.CAVITY>
0

>  <SCORE.RESTR.norm>
0

>  <SCORE.SYSTEM>
0

>  <SCORE.SYSTEM.CONST>
0

>  <SCORE.SYSTEM.DIHEDRAL>
0

>  <SCORE.SYSTEM.SOLV>
0

>  <SCORE.SYSTEM.norm>
0

>  <SCORE.heavy>
31

>  <SCORE.norm>
-0.730526

>  <RMSD>
6.330

$$$$
2et3_lig
 OpenBabel11021811423D
libRbt.so/2013.1/901 2013/11/27
 31 33  0  0  0  0  0  0  0  0999 V2000
   -2.2427  -15.0327   32.4878 C   0  0  2  0  0  0  0  0  0  0  0  0
   -1.2458  -14.0912   32.0125 O   0  0  0  0  0  0  0  0  0  0  0  0
   -1.0712   -9.8329   32.3903 C   0  0  2  0  0  0  0  0  0  0  0  0
   -1.4491   -8.4591   32.2658 N   0  0  0  0  0  0  0  0  0  0  0  0
   -3.1982  -10.5182   35.5004 C   0  0  2  0  0  0  0  0  0  0  0  0
   -1.6208  -16.4279   32.6108 C   0  0  2  0  0  0  0  0  0  0  0  0
   -0.4827  -16.3455   33.4733 N   0  0  0  0  0  0  0  0  0  0  0  0
   -0.8970  -10.4572   30.9683 C   0  0  0  0  0  0  0  0  0  0  0  0
   -4.6048  -10.0568   35.0598 C   0  0  2  0  0  0  0  0  0  0  0  0
   -4.8821  -10.5902   33.7842 O   0  0  0  0  0  0  0  0  0  0  0  0
   -1.2417  -16.9842   31.1958 C   0  0  0  0  0  0  0  0  0  0  0  0
   -0.4898  -11.9709   31.0954 C   0  0  2  0  0  0  0  0  0  0  0  0
   -0.3249  -12.5638   29.7587 N   0  0  0  0  0  0  0  0  0  0  0  0
   -4.6189   -8.4735   35.0519 C   0  0  1  0  0  0  0  0  0  0  0  0
   -5.9410   -7.9390   34.5879 N   0  0  0  0  0  0  0  0  0  0  0  0
   -2.5467  -17.0640   30.3429 C   0  0  0  0  0  0  0  0  0  0  0  0
   -1.5908  -12.7462   31.9159 C   0  0  2  0  0  0  0  0  0  0  0  0
   -4.2789   -7.9032   36.5294 C   0  0  1  0  0  0  0  0  0  0  0  0
   -5.2532   -8.3023   37.4711 O   0  0  0  0  0  0  0  0  0  0  0  0
   -3.1860  -15.6085   30.2566 C   0  0  2  0  0  0  0  0  0  0  0  0
   -3.4204  -15.0269   31.5773 O   0  0  0  0  0  0  0  0  0  0  0  0
   -1.7444  -12.0920   33.3428 C   0  0  2  0  0  0  0  0  0  0  0  0
   -2.7326  -12.7803   34.1028 O   0  0  0  0  0  0  0  0  0  0  0  0
   -2.9063   -8.4799   36.9952 C   0  0  0  0  0  0  0  0  0  0  0  0
   -2.8849   -9.9739   36.8533 O   0  0  0  0  0  0  0  0  0  0  0  0
   -4.4543  -15.5381   29.4391 C   0  0  0  0  0  0  0  0  0  0  0  0
   -4.9172  -14.1839   29.2852 N   0  0  0  0  0  0  0  0  0  0  0  0
   -2.1488  -10.5831   33.1956 C   0  0  1  0  0  0  0  0  0  0  0  0
   -2.2753  -10.0099   34.4913 O   0  0  0  0  0  0  0  0  0  0  0  0
   -4.2381   -6.3774   36.6900 C   0  0  0  0  0  0  0  0  0  0  0  0
   -5.9706   -7.2667   33.2781 C   0  0  0  0  0  0  0  0  0  0  0  0
  1  2  1  6  0  0  0
  1  6  1  0  0  0  0
  1 21  1  0  0  0  0
  3  4  1  6  0  0  0
  3  8  1  0  0  0  0
  3 28  1  0  0  0  0
  5  9  1  0  0  0  0
  5 25  1  0  0  0  0
  5 29  1  6  0  0  0
  6  7  1  1  0  0  0
  6 11  1  0  0  0  0
  8 12  1  0  0  0  0
  9 10  1  6  0  0  0
  9 14  1  0  0  0  0
 11 16  1  0  0  0  0
 12 13  1  6  0  0  0
 12 17  1  0  0  0  0
 14 15  1  1  0  0  0
 14 18  1  0  0  0  0
 15 31  1  0  0  0  0
 16 20  1  0  0  0  0
 17  2  1  1  0  0  0
 17 22  1  0  0  0  0
 18 19  1  1  0  0  0
 18 24  1  0  0  0  0
 18 30  1  0  0  0  0
 20 21  1  0  0  0  0
 20 26  1  1  0  0  0
 22 23  1  1  0  0  0
 22 28  1  0  0  0  0
 24 25  1  0  0  0  0
 26 27  1  0  0  0  0
 28 29  1  1  0  0  0
M  END
>  <CHROM.1>
-175.90105907,-75.00047388,-110.81638640,-167.68420986,-174.34967179,-178.77629261
-2.89370912,-11.71059137,33.19589108,-0.70148059,-1.25623707,1.42227728

>  <Name>
2et3_lig

>  <RI>
0

>  <Rbt.Current_Directory>
/home/itssahil/PROJECTS/Mol_Feturizer/New_Systems/rnas/2et3

>  <Rbt.Executable>
rbdock ($Id: //depot/dev/client3/rdock/2013.1/src/exe/rbdock.cxx#4 $)

>  <Rbt.Library>
libRbt.so (2013.1, Build901 2013/11/27)

>  <Rbt.Parameter_File>
/export/apps/rDock/src/rDock_2013.1_src/data/scripts/dock_solv.prm

>  <Rbt.Receptor>
prm/pocket_docking_6.prm

>  <SCORE>
-20.1076

>  <SCORE.INTER>
-9.89473

>  <SCORE.INTER.CONST>
1

>  <SCORE.INTER.POLAR>
-0.916515

>  <SCORE.INTER.ROT>
6

>  <SCORE.INTER.SOLV>
11.6007

>  <SCORE.INTER.VDW>
-15.0083

>  <SCORE.INTER.norm>
-0.319185

>  <SCORE.INTRA>
-10.2184

>  <SCORE.INTRA.DIHEDRAL>
-18.9668

>  <SCORE.INTRA.DIHEDRAL.0>
22.2484

>  <SCORE.INTRA.POLAR>
0

>  <SCORE.INTRA.POLAR.0>
0

>  <SCORE.INTRA.REPUL>
0

>  <SCORE.INTRA.REPUL.0>
0

>  <SCORE.INTRA.SOLV>
-3.24518

>  <SCORE.INTRA.SOLV.lig_0>
-75.7198

>  <SCORE.INTRA.VDW>
0.887606

>  <SCORE.INTRA.VDW.0>
-3.34171

>  <SCORE.INTRA.norm>
-0.329625

>  <SCORE.RESTR>
0.00550511

>  <SCORE.RESTR.CAVITY>
0.00550511

>  <SCORE.RESTR.norm>
0.000177584

>  <SCORE.SYSTEM>
0

>  <SCORE.SYSTEM.CONST>
0

>  <SCORE.SYSTEM.DIHEDRAL>
0

>  <SCORE.SYSTEM.SOLV>
0

>  <SCORE.SYSTEM.norm>
0

>  <SCORE.heavy>
31

>  <SCORE.norm>
-0.648632

>  <RMSD>
6.362

$$$$
2et3_lig
 OpenBabel11021811423D
libRbt.so/2013.1/901 2013/11/27
 31 33  0  0  0  0  0  0  0  0999 V2000
   -2.1250  -12.3389   31.6374 C   0  0  2  0  0  0  0  0  0  0  0  0
   -2.7057  -11.3804   30.7153 O   0  0  0  0  0  0  0  0  0  0  0  0
    0.4619   -8.5118   30.5060 C   0  0  2  0  0  0  0  0  0  0  0  0
    1.2457   -7.4116   30.0359 N   0  0  0  0  0  0  0  0  0  0  0  0
    0.0199   -5.8545   31.8139 C   0  0  2  0  0  0  0  0  0  0  0  0
   -3.1160  -13.4800   31.8909 C   0  0  2  0  0  0  0  0  0  0  0  0
   -3.4686  -14.0655   30.6343 N   0  0  0  0  0  0  0  0  0  0  0  0
    0.3820   -9.6081   29.3952 C   0  0  0  0  0  0  0  0  0  0  0  0
   -0.2032   -5.0523   33.1149 C   0  0  2  0  0  0  0  0  0  0  0  0
    0.1395   -5.8633   34.2164 O   0  0  0  0  0  0  0  0  0  0  0  0
   -4.3735  -12.9509   32.6616 C   0  0  0  0  0  0  0  0  0  0  0  0
   -0.4856  -10.8185   29.9003 C   0  0  2  0  0  0  0  0  0  0  0  0
   -0.5644  -11.8538   28.8574 N   0  0  0  0  0  0  0  0  0  0  0  0
   -1.7223   -4.6084   33.1602 C   0  0  1  0  0  0  0  0  0  0  0  0
   -2.0378   -3.8599   34.4207 N   0  0  0  0  0  0  0  0  0  0  0  0
   -3.8918  -12.3609   34.0242 C   0  0  0  0  0  0  0  0  0  0  0  0
   -1.9267  -10.3090   30.2881 C   0  0  2  0  0  0  0  0  0  0  0  0
   -2.0776   -3.6953   31.8704 C   0  0  1  0  0  0  0  0  0  0  0  0
   -1.3182   -2.5042   31.8591 O   0  0  0  0  0  0  0  0  0  0  0  0
   -2.8430  -11.1994   33.7316 C   0  0  2  0  0  0  0  0  0  0  0  0
   -1.7306  -11.6539   32.8989 O   0  0  0  0  0  0  0  0  0  0  0  0
   -1.8124   -9.2038   31.4076 C   0  0  2  0  0  0  0  0  0  0  0  0
   -3.1045   -8.7319   31.7758 O   0  0  0  0  0  0  0  0  0  0  0  0
   -1.7321   -4.4891   30.5727 C   0  0  0  0  0  0  0  0  0  0  0  0
   -0.3270   -5.0135   30.6320 O   0  0  0  0  0  0  0  0  0  0  0  0
   -2.3056  -10.5251   34.9719 C   0  0  0  0  0  0  0  0  0  0  0  0
   -1.1002   -9.7869   34.6999 N   0  0  0  0  0  0  0  0  0  0  0  0
   -0.9425   -8.0064   30.8864 C   0  0  1  0  0  0  0  0  0  0  0  0
   -0.8455   -7.0249   31.9114 O   0  0  0  0  0  0  0  0  0  0  0  0
   -3.5231   -3.1923   31.7551 C   0  0  0  0  0  0  0  0  0  0  0  0
   -2.3173   -4.6605   35.6245 C   0  0  0  0  0  0  0  0  0  0  0  0
  1  2  1  6  0  0  0
  1  6  1  0  0  0  0
  1 21  1  0  0  0  0
  3  4  1  6  0  0  0
  3  8  1  0  0  0  0
  3 28  1  0  0  0  0
  5  9  1  0  0  0  0
  5 25  1  0  0  0  0
  5 29  1  1  0  0  0
  6  7  1  6  0  0  0
  6 11  1  0  0  0  0
  8 12  1  0  0  0  0
  9 10  1  1  0  0  0
  9 14  1  0  0  0  0
 11 16  1  0  0  0  0
 12 13  1  6  0  0  0
 12 17  1  0  0  0  0
 14 15  1  1  0  0  0
 14 18  1  0  0  0  0
 15 31  1  0  0  0  0
 16 20  1  0  0  0  0
 17  2  1  1  0  0  0
 17 22  1  0  0  0  0
 18 19  1  1  0  0  0
 18 24  1  0  0  0  0
 18 30  1  0  0  0  0
 20 21  1  0  0  0  0
 20 26  1  1  0  0  0
 22 23  1  6  0  0  0
 22 28  1  0  0  0  0
 24 25  1  0  0  0  0
 26 27  1  0  0  0  0
 28 29  1  1  0  0  0
M  END
>  <CHROM.1>
-175.90888943,178.87144809,-82.11803472,44.90615962,162.63281903,52.34863561
-1.62885579,-8.34250834,32.01274612,-1.86889364,1.04997308,0.35712077

>  <Name>
2et3_lig

>  <RI>
2.5794e+07

>  <Rbt.Current_Directory>
/home/itssahil/PROJECTS/Mol_Feturizer/New_Systems/rnas/2et3

>  <Rbt.Executable>
rbdock ($Id: //depot/dev/client3/rdock/2013.1/src/exe/rbdock.cxx#4 $)

>  <Rbt.Library>
libRbt.so (2013.1, Build901 2013/11/27)

>  <Rbt.Parameter_File>
/export/apps/rDock/src/rDock_2013.1_src/data/scripts/dock_solv.prm

>  <Rbt.Receptor>
prm/pocket_docking_5.prm

>  <SCORE>
-16.3835

>  <SCORE.INTER>
-9.27172

>  <SCORE.INTER.CONST>
1

>  <SCORE.INTER.POLAR>
-1.53517

>  <SCORE.INTER.ROT>
6

>  <SCORE.INTER.SOLV>
13.8943

>  <SCORE.INTER.VDW>
-13.2954

>  <SCORE.INTER.norm>
-0.299088

>  <SCORE.INTRA>
-7.11175

>  <SCORE.INTRA.DIHEDRAL>
-19.3446

>  <SCORE.INTRA.DIHEDRAL.0>
22.2484

>  <SCORE.INTRA.POLAR>
0

>  <SCORE.INTRA.POLAR.0>
0

>  <SCORE.INTRA.REPUL>
0.0670345

>  <SCORE.INTRA.REPUL.0>
0

>  <SCORE.INTRA.SOLV>
1.61138

>  <SCORE.INTRA.SOLV.lig_0>
-75.7198

>  <SCORE.INTRA.VDW>
1.4197

>  <SCORE.INTRA.VDW.0>
-3.34171

>  <SCORE.INTRA.norm>
-0.229411

>  <SCORE.RESTR>
0

>  <SCORE.RESTR.CAVITY>
0

>  <SCORE.RESTR.norm>
0

>  <SCORE.SYSTEM>
0

>  <SCORE.SYSTEM.CONST>
0

>  <SCORE.SYSTEM.DIHEDRAL>
0

>  <SCORE.SYSTEM.SOLV>
0

>  <SCORE.SYSTEM.norm>
0

>  <SCORE.heavy>
31

>  <SCORE.norm>
-0.528499

>  <RMSD>
6.381

$$$$
2et3_lig
 OpenBabel11021811423D
libRbt.so/2013.1/901 2013/11/27
 31 33  0  0  0  0  0  0  0  0999 V2000
    0.1450   -8.2959   28.8762 C   0  0  2  0  0  0  0  0  0  0  0  0
   -0.0238   -8.2919   30.3176 O   0  0  0  0  0  0  0  0  0  0  0  0
   -1.7530  -11.3117   32.8071 C   0  0  2  0  0  0  0  0  0  0  0  0
   -2.7378  -12.1802   33.3740 N   0  0  0  0  0  0  0  0  0  0  0  0
   -0.1998  -13.6145   31.9009 C   0  0  2  0  0  0  0  0  0  0  0  0
    1.0991   -7.1701   28.4631 C   0  0  2  0  0  0  0  0  0  0  0  0
    2.3342   -7.3386   29.1648 N   0  0  0  0  0  0  0  0  0  0  0  0
   -2.1645   -9.8244   33.0538 C   0  0  0  0  0  0  0  0  0  0  0  0
    0.5098  -14.6033   30.9498 C   0  0  2  0  0  0  0  0  0  0  0  0
    1.0649  -13.8825   29.8724 O   0  0  0  0  0  0  0  0  0  0  0  0
    0.4515   -5.7721   28.7488 C   0  0  0  0  0  0  0  0  0  0  0  0
   -1.0912   -8.8617   32.4258 C   0  0  2  0  0  0  0  0  0  0  0  0
   -1.4745   -7.4595   32.6551 N   0  0  0  0  0  0  0  0  0  0  0  0
   -0.5602  -15.6629   30.4607 C   0  0  1  0  0  0  0  0  0  0  0  0
    0.0374  -16.6384   29.4911 N   0  0  0  0  0  0  0  0  0  0  0  0
   -0.8680   -5.6730   27.9206 C   0  0  0  0  0  0  0  0  0  0  0  0
   -0.9569   -9.1564   30.8826 C   0  0  2  0  0  0  0  0  0  0  0  0
   -1.1846  -16.4544   31.7285 C   0  0  1  0  0  0  0  0  0  0  0  0
   -0.1915  -17.1851   32.4179 O   0  0  0  0  0  0  0  0  0  0  0  0
   -1.8267   -6.8698   28.3486 C   0  0  2  0  0  0  0  0  0  0  0  0
   -1.1808   -8.1740   28.2102 O   0  0  0  0  0  0  0  0  0  0  0  0
   -0.5436  -10.6632   30.6667 C   0  0  2  0  0  0  0  0  0  0  0  0
   -0.4130  -10.9502   29.2781 O   0  0  0  0  0  0  0  0  0  0  0  0
   -1.7904  -15.4205   32.7273 C   0  0  0  0  0  0  0  0  0  0  0  0
   -0.7880  -14.3528   33.0558 O   0  0  0  0  0  0  0  0  0  0  0  0
   -3.1560   -6.8835   27.6314 C   0  0  0  0  0  0  0  0  0  0  0  0
   -3.9629   -5.7431   27.9782 N   0  0  0  0  0  0  0  0  0  0  0  0
   -1.6244  -11.6076   31.3009 C   0  0  1  0  0  0  0  0  0  0  0  0
   -1.2304  -12.9598   31.1024 O   0  0  0  0  0  0  0  0  0  0  0  0
   -2.2540  -17.5129   31.4256 C   0  0  0  0  0  0  0  0  0  0  0  0
   -0.7816  -17.0144   28.3266 C   0  0  0  0  0  0  0  0  0  0  0  0
  1  2  1  1  0  0  0
  1  6  1  0  0  0  0
  1 21  1  0  0  0  0
  3  4  1  6  0  0  0
  3  8  1  0  0  0  0
  3 28  1  0  0  0  0
  5  9  1  0  0  0  0
  5 25  1  0  0  0  0
  5 29  1  6  0  0  0
  6  7  1  1  0  0  0
  6 11  1  0  0  0  0
  8 12  1  0  0  0  0
  9 10  1  6  0  0  0
  9 14  1  0  0  0  0
 11 16  1  0  0  0  0
 12 13  1  6  0  0  0
 12 17  1  0  0  0  0
 14 15  1  6  0  0  0
 14 18  1  0  0  0  0
 15 31  1  0  0  0  0
 16 20  1  0  0  0  0
 17  2  1  1  0  0  0
 17 22  1  0  0  0  0
 18 19  1  1  0  0  0
 18 24  1  0  0  0  0
 18 30  1  0  0  0  0
 20 21  1  0  0  0  0
 20 26  1  6  0  0  0
 22 23  1  6  0  0  0
 22 28  1  0  0  0  0
 24 25  1  0  0  0  0
 26 27  1  0  0  0  0
 28 29  1  1  0  0  0
M  END
>  <CHROM.1>
173.76945032,-146.50154194,-138.91093115,-173.34122252,-65.94313978,-42.88571853
-0.86750329,-11.26032820,30.49322506,-1.60523581,-1.14102355,2.85690702

>  <Name>
2et3_lig

>  <RI>
0

>  <Rbt.Current_Directory>
/home/itssahil/PROJECTS/Mol_Feturizer/New_Systems/rnas/2et3

>  <Rbt.Executable>
rbdock ($Id: //depot/dev/client3/rdock/2013.1/src/exe/rbdock.cxx#4 $)

>  <Rbt.Library>
libRbt.so (2013.1, Build901 2013/11/27)

>  <Rbt.Parameter_File>
/export/apps/rDock/src/rDock_2013.1_src/data/scripts/dock_solv.prm

>  <Rbt.Receptor>
prm/pocket_docking_7.prm

>  <SCORE>
-23.1852

>  <SCORE.INTER>
-15.4719

>  <SCORE.INTER.CONST>
1

>  <SCORE.INTER.POLAR>
-1.68182

>  <SCORE.INTER.ROT>
6

>  <SCORE.INTER.SOLV>
10.8637

>  <SCORE.INTER.VDW>
-15.9297

>  <SCORE.INTER.norm>
-0.499092

>  <SCORE.INTRA>
-7.71335

>  <SCORE.INTRA.DIHEDRAL>
-15.0371

>  <SCORE.INTRA.DIHEDRAL.0>
22.2484

>  <SCORE.INTRA.POLAR>
0

>  <SCORE.INTRA.POLAR.0>
0

>  <SCORE.INTRA.REPUL>
0

>  <SCORE.INTRA.REPUL.0>
0

>  <SCORE.INTRA.SOLV>
-2.09157

>  <SCORE.INTRA.SOLV.lig_0>
-75.7198

>  <SCORE.INTRA.VDW>
0.850968

>  <SCORE.INTRA.VDW.0>
-3.34171

>  <SCORE.INTRA.norm>
-0.248818

>  <SCORE.RESTR>
0

>  <SCORE.RESTR.CAVITY>
0

>  <SCORE.RESTR.norm>
0

>  <SCORE.SYSTEM>
0

>  <SCORE.SYSTEM.CONST>
0

>  <SCORE.SYSTEM.DIHEDRAL>
0

>  <SCORE.SYSTEM.SOLV>
0

>  <SCORE.SYSTEM.norm>
0

>  <SCORE.heavy>
31

>  <SCORE.norm>
-0.74791

>  <RMSD>
6.404

$$$$
2et3_lig
 OpenBabel11021811423D
libRbt.so/2013.1/901 2013/11/27
 31 33  0  0  0  0  0  0  0  0999 V2000
    0.8901   -8.6278   28.4209 C   0  0  2  0  0  0  0  0  0  0  0  0
    0.8606   -8.7535   29.8664 O   0  0  0  0  0  0  0  0  0  0  0  0
   -1.3932  -11.2115   32.5469 C   0  0  2  0  0  0  0  0  0  0  0  0
   -2.5156  -11.8741   33.1359 N   0  0  0  0  0  0  0  0  0  0  0  0
    0.0377  -13.7582   31.8592 C   0  0  2  0  0  0  0  0  0  0  0  0
    2.2388   -8.0501   27.9784 C   0  0  2  0  0  0  0  0  0  0  0  0
    3.2818   -8.8897   28.4816 N   0  0  0  0  0  0  0  0  0  0  0  0
   -1.6139   -9.6652   32.5983 C   0  0  0  0  0  0  0  0  0  0  0  0
    0.7784  -14.6961   30.8808 C   0  0  2  0  0  0  0  0  0  0  0  0
    1.3219  -13.9256   29.8322 O   0  0  0  0  0  0  0  0  0  0  0  0
    2.3893   -6.5713   28.4744 C   0  0  0  0  0  0  0  0  0  0  0  0
   -0.3880   -8.9284   31.9446 C   0  0  2  0  0  0  0  0  0  0  0  0
   -0.5912   -7.4716   31.9901 N   0  0  0  0  0  0  0  0  0  0  0  0
   -0.2608  -15.7654   30.3485 C   0  0  1  0  0  0  0  0  0  0  0  0
    0.3678  -16.6922   29.3511 N   0  0  0  0  0  0  0  0  0  0  0  0
    1.2290   -5.7328   27.8521 C   0  0  0  0  0  0  0  0  0  0  0  0
   -0.2099   -9.4190   30.4565 C   0  0  2  0  0  0  0  0  0  0  0  0
   -0.8730  -16.6148   31.5844 C   0  0  1  0  0  0  0  0  0  0  0  0
    0.1341  -17.3429   32.2562 O   0  0  0  0  0  0  0  0  0  0  0  0
   -0.1575   -6.3720   28.3038 C   0  0  2  0  0  0  0  0  0  0  0  0
   -0.2516   -7.7902   27.9614 O   0  0  0  0  0  0  0  0  0  0  0  0
    0.0082  -10.9810   30.4380 C   0  0  2  0  0  0  0  0  0  0  0  0
    0.1751  -11.4451   29.1022 O   0  0  0  0  0  0  0  0  0  0  0  0
   -1.5115  -15.6309   32.6128 C   0  0  0  0  0  0  0  0  0  0  0  0
   -0.5389  -14.5498   32.9843 O   0  0  0  0  0  0  0  0  0  0  0  0
   -1.3732   -5.6427   27.7824 C   0  0  0  0  0  0  0  0  0  0  0  0
   -1.4489   -5.6878   26.3457 N   0  0  0  0  0  0  0  0  0  0  0  0
   -1.2230  -11.6981   31.0953 C   0  0  1  0  0  0  0  0  0  0  0  0
   -1.0042  -13.1034   31.0756 O   0  0  0  0  0  0  0  0  0  0  0  0
   -1.9129  -17.6893   31.2384 C   0  0  0  0  0  0  0  0  0  0  0  0
   -0.4961  -17.2063   28.2753 C   0  0  0  0  0  0  0  0  0  0  0  0
  1  2  1  1  0  0  0
  1  6  1  0  0  0  0
  1 21  1  0  0  0  0
  3  4  1  6  0  0  0
  3  8  1  0  0  0  0
  3 28  1  0  0  0  0
  5  9  1  0  0  0  0
  5 25  1  0  0  0  0
  5 29  1  6  0  0  0
  6  7  1  1  0  0  0
  6 11  1  0  0  0  0
  8 12  1  0  0  0  0
  9 10  1  6  0  0  0
  9 14  1  0  0  0  0
 11 16  1  0  0  0  0
 12 13  1  6  0  0  0
 12 17  1  0  0  0  0
 14 15  1  6  0  0  0
 14 18  1  0  0  0  0
 15 31  1  0  0  0  0
 16 20  1  0  0  0  0
 17  2  1  1  0  0  0
 17 22  1  0  0  0  0
 18 19  1  1  0  0  0
 18 24  1  0  0  0  0
 18 30  1  0  0  0  0
 20 21  1  0  0  0  0
 20 26  1  6  0  0  0
 22 23  1  6  0  0  0
 22 28  1  0  0  0  0
 24 25  1  0  0  0  0
 26 27  1  0  0  0  0
 28 29  1  1  0  0  0
M  END
>  <CHROM.1>
-171.80880827,-131.37554517,-147.65392356,-155.76515976,63.58782148,-53.13847240
-0.12896817,-11.39805067,30.22245642,-1.36850422,-1.03784270,3.02212849

>  <Name>
2et3_lig

>  <RI>
0

>  <Rbt.Current_Directory>
/home/itssahil/PROJECTS/Mol_Feturizer/New_Systems/rnas/2et3

>  <Rbt.Executable>
rbdock ($Id: //depot/dev/client3/rdock/2013.1/src/exe/rbdock.cxx#4 $)

>  <Rbt.Library>
libRbt.so (2013.1, Build901 2013/11/27)

>  <Rbt.Parameter_File>
/export/apps/rDock/src/rDock_2013.1_src/data/scripts/dock_solv.prm

>  <Rbt.Receptor>
prm/blind_docking_100.prm

>  <SCORE>
-18.3925

>  <SCORE.INTER>
-12.8399

>  <SCORE.INTER.CONST>
1

>  <SCORE.INTER.POLAR>
-0.894921

>  <SCORE.INTER.ROT>
6

>  <SCORE.INTER.SOLV>
19.7538

>  <SCORE.INTER.VDW>
-19.7615

>  <SCORE.INTER.norm>
-0.414191

>  <SCORE.INTRA>
-6.10031

>  <SCORE.INTRA.DIHEDRAL>
-11.7007

>  <SCORE.INTRA.DIHEDRAL.0>
22.2484

>  <SCORE.INTRA.POLAR>
0

>  <SCORE.INTRA.POLAR.0>
0

>  <SCORE.INTRA.REPUL>
0

>  <SCORE.INTRA.REPUL.0>
0

>  <SCORE.INTRA.SOLV>
-0.900925

>  <SCORE.INTRA.SOLV.lig_0>
-75.7198

>  <SCORE.INTRA.VDW>
0.200511

>  <SCORE.INTRA.VDW.0>
-3.34171

>  <SCORE.INTRA.norm>
-0.196784

>  <SCORE.RESTR>
0.547768

>  <SCORE.RESTR.CAVITY>
0.547768

>  <SCORE.RESTR.norm>
0.01767

>  <SCORE.SYSTEM>
0

>  <SCORE.SYSTEM.CONST>
0

>  <SCORE.SYSTEM.DIHEDRAL>
0

>  <SCORE.SYSTEM.SOLV>
0

>  <SCORE.SYSTEM.norm>
0

>  <SCORE.heavy>
31

>  <SCORE.norm>
-0.593305

>  <RMSD>
6.418

$$$$
2et3_lig
 OpenBabel11021811423D
libRbt.so/2013.1/901 2013/11/27
 31 33  0  0  0  0  0  0  0  0999 V2000
    0.8808   -8.6425   28.4384 C   0  0  2  0  0  0  0  0  0  0  0  0
    0.8413   -8.7601   29.8844 O   0  0  0  0  0  0  0  0  0  0  0  0
   -1.4047  -11.2384   32.5526 C   0  0  2  0  0  0  0  0  0  0  0  0
   -2.5247  -11.9090   33.1371 N   0  0  0  0  0  0  0  0  0  0  0  0
    0.0373  -13.7760   31.8660 C   0  0  2  0  0  0  0  0  0  0  0  0
    2.1755   -7.9432   28.0105 C   0  0  2  0  0  0  0  0  0  0  0  0
    3.2854   -8.6769   28.5360 N   0  0  0  0  0  0  0  0  0  0  0  0
   -1.6341   -9.6936   32.6081 C   0  0  0  0  0  0  0  0  0  0  0  0
    0.7858  -14.7119   30.8916 C   0  0  2  0  0  0  0  0  0  0  0  0
    1.3330  -13.9400   29.8460 O   0  0  0  0  0  0  0  0  0  0  0  0
    2.1783   -6.4533   28.4959 C   0  0  0  0  0  0  0  0  0  0  0  0
   -0.4109   -8.9480   31.9592 C   0  0  2  0  0  0  0  0  0  0  0  0
   -0.6223   -7.4925   32.0086 N   0  0  0  0  0  0  0  0  0  0  0  0
   -0.2478  -15.7839   30.3536 C   0  0  1  0  0  0  0  0  0  0  0  0
    0.3887  -16.7091   29.3597 N   0  0  0  0  0  0  0  0  0  0  0  0
    0.9536   -5.7327   27.8497 C   0  0  0  0  0  0  0  0  0  0  0  0
   -0.2268   -9.4332   30.4702 C   0  0  2  0  0  0  0  0  0  0  0  0
   -0.8646  -16.6349   31.5862 C   0  0  1  0  0  0  0  0  0  0  0  0
    0.1406  -17.3604   32.2635 O   0  0  0  0  0  0  0  0  0  0  0  0
   -0.3730   -6.4968   28.2867 C   0  0  2  0  0  0  0  0  0  0  0  0
   -0.3277   -7.9200   27.9553 O   0  0  0  0  0  0  0  0  0  0  0  0
    0.0001  -10.9939   30.4476 C   0  0  2  0  0  0  0  0  0  0  0  0
    0.1725  -11.4531   29.1107 O   0  0  0  0  0  0  0  0  0  0  0  0
   -1.5112  -15.6525   32.6111 C   0  0  0  0  0  0  0  0  0  0  0  0
   -0.5434  -14.5689   32.9879 O   0  0  0  0  0  0  0  0  0  0  0  0
   -1.6441   -5.8894   27.7415 C   0  0  0  0  0  0  0  0  0  0  0  0
   -1.8936   -4.5842   28.2949 N   0  0  0  0  0  0  0  0  0  0  0  0
   -1.2286  -11.7197   31.1000 C   0  0  1  0  0  0  0  0  0  0  0  0
   -1.0019  -13.1238   31.0766 O   0  0  0  0  0  0  0  0  0  0  0  0
   -1.8998  -17.7119   31.2345 C   0  0  0  0  0  0  0  0  0  0  0  0
   -0.4713  -17.2358   28.2868 C   0  0  0  0  0  0  0  0  0  0  0  0
  1  2  1  1  0  0  0
  1  6  1  0  0  0  0
  1 21  1  0  0  0  0
  3  4  1  6  0  0  0
  3  8  1  0  0  0  0
  3 28  1  0  0  0  0
  5  9  1  0  0  0  0
  5 25  1  0  0  0  0
  5 29  1  6  0  0  0
  6  7  1  1  0  0  0
  6 11  1  0  0  0  0
  8 12  1  0  0  0  0
  9 10  1  6  0  0  0
  9 14  1  0  0  0  0
 11 16  1  0  0  0  0
 12 13  1  6  0  0  0
 12 17  1  0  0  0  0
 14 15  1  6  0  0  0
 14 18  1  0  0  0  0
 15 31  1  0  0  0  0
 16 20  1  0  0  0  0
 17  2  1  1  0  0  0
 17 22  1  0  0  0  0
 18 19  1  1  0  0  0
 18 24  1  0  0  0  0
 18 30  1  0  0  0  0
 20 21  1  0  0  0  0
 20 26  1  6  0  0  0
 22 23  1  6  0  0  0
 22 28  1  0  0  0  0
 24 25  1  0  0  0  0
 26 27  1  0  0  0  0
 28 29  1  1  0  0  0
M  END
>  <CHROM.1>
-176.64789071,-131.68567493,-148.23373165,-156.42787722,-66.53963520,-52.80888966
-0.18003277,-11.37955114,30.29215451,-1.43153723,-0.95851615,2.99483281

>  <Name>
2et3_lig

>  <RI>
0

>  <Rbt.Current_Directory>
/home/itssahil/PROJECTS/Mol_Feturizer/New_Systems/rnas/2et3

>  <Rbt.Executable>
rbdock ($Id: //depot/dev/client3/rdock/2013.1/src/exe/rbdock.cxx#4 $)

>  <Rbt.Library>
libRbt.so (2013.1, Build901 2013/11/27)

>  <Rbt.Parameter_File>
/export/apps/rDock/src/rDock_2013.1_src/data/scripts/dock_solv.prm

>  <Rbt.Receptor>
prm/blind_docking_100.prm

>  <SCORE>
-18.6259

>  <SCORE.INTER>
-12.5182

>  <SCORE.INTER.CONST>
1

>  <SCORE.INTER.POLAR>
-0.902391

>  <SCORE.INTER.ROT>
6

>  <SCORE.INTER.SOLV>
17.6842

>  <SCORE.INTER.VDW>
-18.8323

>  <SCORE.INTER.norm>
-0.403814

>  <SCORE.INTRA>
-6.64341

>  <SCORE.INTRA.DIHEDRAL>
-12.0358

>  <SCORE.INTRA.DIHEDRAL.0>
22.2484

>  <SCORE.INTRA.POLAR>
0

>  <SCORE.INTRA.POLAR.0>
0

>  <SCORE.INTRA.REPUL>
0

>  <SCORE.INTRA.REPUL.0>
0

>  <SCORE.INTRA.SOLV>
-1.84841

>  <SCORE.INTRA.SOLV.lig_0>
-75.7198

>  <SCORE.INTRA.VDW>
0.298689

>  <SCORE.INTRA.VDW.0>
-3.34171

>  <SCORE.INTRA.norm>
-0.214304

>  <SCORE.RESTR>
0.535808

>  <SCORE.RESTR.CAVITY>
0.535808

>  <SCORE.RESTR.norm>
0.0172841

>  <SCORE.SYSTEM>
0

>  <SCORE.SYSTEM.CONST>
0

>  <SCORE.SYSTEM.DIHEDRAL>
0

>  <SCORE.SYSTEM.SOLV>
0

>  <SCORE.SYSTEM.norm>
0

>  <SCORE.heavy>
31

>  <SCORE.norm>
-0.600834

>  <RMSD>
6.452

$$$$
2et3_lig
 OpenBabel11021811423D
libRbt.so/2013.1/901 2013/11/27
 31 33  0  0  0  0  0  0  0  0999 V2000
   -4.4752  -12.8013   32.2618 C   0  0  2  0  0  0  0  0  0  0  0  0
   -4.9129  -12.5038   33.6132 O   0  0  0  0  0  0  0  0  0  0  0  0
   -5.3957   -8.2607   33.3489 C   0  0  2  0  0  0  0  0  0  0  0  0
   -5.8160   -6.9355   33.6849 N   0  0  0  0  0  0  0  0  0  0  0  0
   -2.4739   -8.1047   35.8058 C   0  0  2  0  0  0  0  0  0  0  0  0
   -4.1285  -14.2894   32.1452 C   0  0  2  0  0  0  0  0  0  0  0  0
   -5.2706  -15.0559   32.5376 N   0  0  0  0  0  0  0  0  0  0  0  0
   -6.6503   -9.1638   33.1195 C   0  0  0  0  0  0  0  0  0  0  0  0
   -3.2576   -7.5526   37.0168 C   0  0  2  0  0  0  0  0  0  0  0  0
   -4.4277   -8.3197   37.1922 O   0  0  0  0  0  0  0  0  0  0  0  0
   -2.8709  -14.6277   33.0167 C   0  0  0  0  0  0  0  0  0  0  0  0
   -6.1976  -10.6258   32.7580 C   0  0  2  0  0  0  0  0  0  0  0  0
   -7.3757  -11.4806   32.5414 N   0  0  0  0  0  0  0  0  0  0  0  0
   -3.5883   -6.0307   36.7315 C   0  0  1  0  0  0  0  0  0  0  0  0
   -4.3932   -5.4265   37.8431 N   0  0  0  0  0  0  0  0  0  0  0  0
   -1.6769  -13.7676   32.4957 C   0  0  0  0  0  0  0  0  0  0  0  0
   -5.2983  -11.2017   33.9183 C   0  0  2  0  0  0  0  0  0  0  0  0
   -2.2198   -5.1906   36.5189 C   0  0  1  0  0  0  0  0  0  0  0  0
   -1.4192   -5.2095   37.6826 O   0  0  0  0  0  0  0  0  0  0  0  0
   -2.0756  -12.2299   32.6010 C   0  0  2  0  0  0  0  0  0  0  0  0
   -3.3228  -11.9314   31.8991 O   0  0  0  0  0  0  0  0  0  0  0  0
   -4.0438  -10.2686   34.1267 C   0  0  2  0  0  0  0  0  0  0  0  0
   -3.2151  -10.7731   35.1691 O   0  0  0  0  0  0  0  0  0  0  0  0
   -1.3949   -5.8425   35.3664 C   0  0  0  0  0  0  0  0  0  0  0  0
   -1.2248   -7.3145   35.6051 O   0  0  0  0  0  0  0  0  0  0  0  0
   -0.9955  -11.2787   32.1424 C   0  0  0  0  0  0  0  0  0  0  0  0
   -1.4367   -9.9091   32.1814 N   0  0  0  0  0  0  0  0  0  0  0  0
   -4.5150   -8.8153   34.4845 C   0  0  1  0  0  0  0  0  0  0  0  0
   -3.3710   -7.9888   34.6612 O   0  0  0  0  0  0  0  0  0  0  0  0
   -2.3665   -3.6930   36.2167 C   0  0  0  0  0  0  0  0  0  0  0  0
   -5.6050   -4.6801   37.4652 C   0  0  0  0  0  0  0  0  0  0  0  0
  1  2  1  1  0  0  0
  1  6  1  0  0  0  0
  1 21  1  0  0  0  0
  3  4  1  1  0  0  0
  3  8  1  0  0  0  0
  3 28  1  0  0  0  0
  5  9  1  0  0  0  0
  5 25  1  0  0  0  0
  5 29  1  6  0  0  0
  6  7  1  1  0  0  0
  6 11  1  0  0  0  0
  8 12  1  0  0  0  0
  9 10  1  6  0  0  0
  9 14  1  0  0  0  0
 11 16  1  0  0  0  0
 12 13  1  1  0  0  0
 12 17  1  0  0  0  0
 14 15  1  1  0  0  0
 14 18  1  0  0  0  0
 15 31  1  0  0  0  0
 16 20  1  0  0  0  0
 17  2  1  6  0  0  0
 17 22  1  0  0  0  0
 18 19  1  1  0  0  0
 18 24  1  0  0  0  0
 18 30  1  0  0  0  0
 20 21  1  0  0  0  0
 20 26  1  6  0  0  0
 22 23  1  1  0  0  0
 22 28  1  0  0  0  0
 24 25  1  0  0  0  0
 26 27  1  0  0  0  0
 28 29  1  6  0  0  0
M  END
>  <CHROM.1>
-178.86125589,-71.69844449,-130.55608081,43.35926177,176.45758818,168.60971134
-3.70178218,-9.36767060,34.42367539,1.67168168,0.03816166,-2.63867603

>  <Name>
2et3_lig

>  <RI>
0

>  <Rbt.Current_Directory>
/home/itssahil/PROJECTS/Mol_Feturizer/New_Systems/rnas/2et3

>  <Rbt.Executable>
rbdock ($Id: //depot/dev/client3/rdock/2013.1/src/exe/rbdock.cxx#4 $)

>  <Rbt.Library>
libRbt.so (2013.1, Build901 2013/11/27)

>  <Rbt.Parameter_File>
/export/apps/rDock/src/rDock_2013.1_src/data/scripts/dock_solv.prm

>  <Rbt.Receptor>
prm/pocket_docking_7.prm

>  <SCORE>
-21.3263

>  <SCORE.INTER>
-13.287

>  <SCORE.INTER.CONST>
1

>  <SCORE.INTER.POLAR>
-1.60122

>  <SCORE.INTER.ROT>
6

>  <SCORE.INTER.SOLV>
12.5668

>  <SCORE.INTER.VDW>
-15.3095

>  <SCORE.INTER.norm>
-0.428614

>  <SCORE.INTRA>
-8.03924

>  <SCORE.INTRA.DIHEDRAL>
-18.3775

>  <SCORE.INTRA.DIHEDRAL.0>
22.2484

>  <SCORE.INTRA.POLAR>
0

>  <SCORE.INTRA.POLAR.0>
0

>  <SCORE.INTRA.REPUL>
0

>  <SCORE.INTRA.REPUL.0>
0

>  <SCORE.INTRA.SOLV>
1.55617

>  <SCORE.INTRA.SOLV.lig_0>
-75.7198

>  <SCORE.INTRA.VDW>
0.371435

>  <SCORE.INTRA.VDW.0>
-3.34171

>  <SCORE.INTRA.norm>
-0.25933

>  <SCORE.RESTR>
0

>  <SCORE.RESTR.CAVITY>
0

>  <SCORE.RESTR.norm>
0

>  <SCORE.SYSTEM>
0

>  <SCORE.SYSTEM.CONST>
0

>  <SCORE.SYSTEM.DIHEDRAL>
0

>  <SCORE.SYSTEM.SOLV>
0

>  <SCORE.SYSTEM.norm>
0

>  <SCORE.heavy>
31

>  <SCORE.norm>
-0.687944

>  <RMSD>
6.484

$$$$
2et3_lig
 OpenBabel11021811423D
libRbt.so/2013.1/901 2013/11/27
 31 33  0  0  0  0  0  0  0  0999 V2000
   -0.8108  -13.7884   32.1269 C   0  0  2  0  0  0  0  0  0  0  0  0
   -2.0181  -13.5067   31.3722 O   0  0  0  0  0  0  0  0  0  0  0  0
   -5.5143  -11.2571   32.3831 C   0  0  2  0  0  0  0  0  0  0  0  0
   -6.6733  -10.8329   33.1058 N   0  0  0  0  0  0  0  0  0  0  0  0
   -5.0436   -9.0501   34.5556 C   0  0  2  0  0  0  0  0  0  0  0  0
    0.3396  -14.1046   31.1651 C   0  0  2  0  0  0  0  0  0  0  0  0
    0.4953  -13.0054   30.2632 N   0  0  0  0  0  0  0  0  0  0  0  0
   -5.6950  -12.7424   31.9321 C   0  0  0  0  0  0  0  0  0  0  0  0
   -4.7511   -7.5423   34.3929 C   0  0  2  0  0  0  0  0  0  0  0  0
   -4.9609   -7.1788   33.0466 O   0  0  0  0  0  0  0  0  0  0  0  0
    0.0643  -15.4477   30.4064 C   0  0  0  0  0  0  0  0  0  0  0  0
   -4.4210  -13.2204   31.1437 C   0  0  2  0  0  0  0  0  0  0  0  0
   -4.5860  -14.6191   30.7171 N   0  0  0  0  0  0  0  0  0  0  0  0
   -3.2566   -7.2832   34.8469 C   0  0  1  0  0  0  0  0  0  0  0  0
   -2.8730   -5.8437   34.6757 N   0  0  0  0  0  0  0  0  0  0  0  0
   -0.0607  -16.5852   31.4681 C   0  0  0  0  0  0  0  0  0  0  0  0
   -3.1456  -13.0644   32.0579 C   0  0  2  0  0  0  0  0  0  0  0  0
   -3.0549   -7.7301   36.3907 C   0  0  1  0  0  0  0  0  0  0  0  0
   -3.8690   -6.9670   37.2571 O   0  0  0  0  0  0  0  0  0  0  0  0
   -1.2421  -16.2165   32.4697 C   0  0  2  0  0  0  0  0  0  0  0  0
   -1.0589  -14.9021   33.0830 O   0  0  0  0  0  0  0  0  0  0  0  0
   -2.9922  -11.5574   32.4975 C   0  0  2  0  0  0  0  0  0  0  0  0
   -1.8428  -11.3934   33.3220 O   0  0  0  0  0  0  0  0  0  0  0  0
   -3.4694   -9.2259   36.5470 C   0  0  0  0  0  0  0  0  0  0  0  0
   -4.8378   -9.4578   35.9756 O   0  0  0  0  0  0  0  0  0  0  0  0
   -1.4849  -17.2487   33.5456 C   0  0  0  0  0  0  0  0  0  0  0  0
   -0.3895  -17.3189   34.4767 N   0  0  0  0  0  0  0  0  0  0  0  0
   -4.2724  -11.0986   33.2803 C   0  0  1  0  0  0  0  0  0  0  0  0
   -4.1178   -9.7368   33.6614 O   0  0  0  0  0  0  0  0  0  0  0  0
   -1.6500   -7.5567   36.9839 C   0  0  0  0  0  0  0  0  0  0  0  0
   -2.3376   -5.4434   33.3637 C   0  0  0  0  0  0  0  0  0  0  0  0
  1  2  1  6  0  0  0
  1  6  1  0  0  0  0
  1 21  1  0  0  0  0
  3  4  1  1  0  0  0
  3  8  1  0  0  0  0
  3 28  1  0  0  0  0
  5  9  1  0  0  0  0
  5 25  1  0  0  0  0
  5 29  1  6  0  0  0
  6  7  1  6  0  0  0
  6 11  1  0  0  0  0
  8 12  1  0  0  0  0
  9 10  1  6  0  0  0
  9 14  1  0  0  0  0
 11 16  1  0  0  0  0
 12 13  1  1  0  0  0
 12 17  1  0  0  0  0
 14 15  1  1  0  0  0
 14 18  1  0  0  0  0
 15 31  1  0  0  0  0
 16 20  1  0  0  0  0
 17  2  1  6  0  0  0
 17 22  1  0  0  0  0
 18 19  1  1  0  0  0
 18 24  1  0  0  0  0
 18 30  1  0  0  0  0
 20 21  1  0  0  0  0
 20 26  1  1  0  0  0
 22 23  1  1  0  0  0
 22 28  1  0  0  0  0
 24 25  1  0  0  0  0
 26 27  1  0  0  0  0
 28 29  1  6  0  0  0
M  END
>  <CHROM.1>
-173.63602171,-164.65852941,-87.60786327,-163.75158656,67.72419321,68.15766575
-2.88673171,-11.40659976,33.33461224,-1.24633284,-0.36602443,0.50384458

>  <Name>
2et3_lig

>  <RI>
3.86414e+07

>  <Rbt.Current_Directory>
/home/itssahil/PROJECTS/Mol_Feturizer/New_Systems/rnas/2et3

>  <Rbt.Executable>
rbdock ($Id: //depot/dev/client3/rdock/2013.1/src/exe/rbdock.cxx#4 $)

>  <Rbt.Library>
libRbt.so (2013.1, Build901 2013/11/27)

>  <Rbt.Parameter_File>
/export/apps/rDock/src/rDock_2013.1_src/data/scripts/dock_solv.prm

>  <Rbt.Receptor>
prm/pocket_docking_8.prm

>  <SCORE>
-18.3856

>  <SCORE.INTER>
-8.74735

>  <SCORE.INTER.CONST>
1

>  <SCORE.INTER.POLAR>
-0.987136

>  <SCORE.INTER.ROT>
6

>  <SCORE.INTER.SOLV>
11.762

>  <SCORE.INTER.VDW>
-14.0618

>  <SCORE.INTER.norm>
-0.282173

>  <SCORE.INTRA>
-9.63822

>  <SCORE.INTRA.DIHEDRAL>
-18.4935

>  <SCORE.INTRA.DIHEDRAL.0>
22.2484

>  <SCORE.INTRA.POLAR>
0

>  <SCORE.INTRA.POLAR.0>
0

>  <SCORE.INTRA.REPUL>
0

>  <SCORE.INTRA.REPUL.0>
0

>  <SCORE.INTRA.SOLV>
-1.64885

>  <SCORE.INTRA.SOLV.lig_0>
-75.7198

>  <SCORE.INTRA.VDW>
0.432971

>  <SCORE.INTRA.VDW.0>
-3.34171

>  <SCORE.INTRA.norm>
-0.31091

>  <SCORE.RESTR>
0

>  <SCORE.RESTR.CAVITY>
0

>  <SCORE.RESTR.norm>
0

>  <SCORE.SYSTEM>
0

>  <SCORE.SYSTEM.CONST>
0

>  <SCORE.SYSTEM.DIHEDRAL>
0

>  <SCORE.SYSTEM.SOLV>
0

>  <SCORE.SYSTEM.norm>
0

>  <SCORE.heavy>
31

>  <SCORE.norm>
-0.593083

>  <RMSD>
6.488

$$$$
2et3_lig
 OpenBabel11021811423D
libRbt.so/2013.1/901 2013/11/27
 31 33  0  0  0  0  0  0  0  0999 V2000
   -2.9125  -12.2487   31.9680 C   0  0  2  0  0  0  0  0  0  0  0  0
   -2.0415  -11.3465   32.6986 O   0  0  0  0  0  0  0  0  0  0  0  0
    0.1266   -7.9074   31.3653 C   0  0  2  0  0  0  0  0  0  0  0  0
    0.3821   -6.6251   30.7857 N   0  0  0  0  0  0  0  0  0  0  0  0
   -0.0957   -5.4488   33.3725 C   0  0  2  0  0  0  0  0  0  0  0  0
   -3.9188  -12.8897   32.9297 C   0  0  2  0  0  0  0  0  0  0  0  0
   -4.6368  -11.8490   33.5987 N   0  0  0  0  0  0  0  0  0  0  0  0
   -0.4971   -8.8523   30.2881 C   0  0  0  0  0  0  0  0  0  0  0  0
    0.8898   -4.9781   34.4647 C   0  0  2  0  0  0  0  0  0  0  0  0
    2.1236   -5.6356   34.2812 O   0  0  0  0  0  0  0  0  0  0  0  0
   -3.1835  -13.8346   33.9405 C   0  0  0  0  0  0  0  0  0  0  0  0
   -0.7897  -10.2626   30.9192 C   0  0  2  0  0  0  0  0  0  0  0  0
   -1.3777  -11.1563   29.9086 N   0  0  0  0  0  0  0  0  0  0  0  0
    0.2500   -5.3090   35.8747 C   0  0  1  0  0  0  0  0  0  0  0  0
    1.1674   -4.9250   36.9971 N   0  0  0  0  0  0  0  0  0  0  0  0
   -2.4578  -14.9474   33.1209 C   0  0  0  0  0  0  0  0  0  0  0  0
   -1.7619  -10.0984   32.1498 C   0  0  2  0  0  0  0  0  0  0  0  0
   -1.1714   -4.5494   36.0369 C   0  0  1  0  0  0  0  0  0  0  0  0
   -1.0120   -3.1464   35.9948 O   0  0  0  0  0  0  0  0  0  0  0  0
   -1.4416  -14.2525   32.1112 C   0  0  2  0  0  0  0  0  0  0  0  0
   -2.0993  -13.2695   31.2519 O   0  0  0  0  0  0  0  0  0  0  0  0
   -1.1063   -9.1392   33.2165 C   0  0  2  0  0  0  0  0  0  0  0  0
   -1.9674   -8.9799   34.3394 O   0  0  0  0  0  0  0  0  0  0  0  0
   -2.1044   -4.9553   34.8544 C   0  0  0  0  0  0  0  0  0  0  0  0
   -1.4076   -4.7590   33.5396 O   0  0  0  0  0  0  0  0  0  0  0  0
   -0.6542  -15.2223   31.2619 C   0  0  0  0  0  0  0  0  0  0  0  0
    0.1812  -16.0785   32.0625 N   0  0  0  0  0  0  0  0  0  0  0  0
   -0.8204   -7.7391   32.5685 C   0  0  1  0  0  0  0  0  0  0  0  0
   -0.2235   -6.8920   33.5429 O   0  0  0  0  0  0  0  0  0  0  0  0
   -1.9329   -4.7780   37.3496 C   0  0  0  0  0  0  0  0  0  0  0  0
    1.7315   -3.5652   36.9674 C   0  0  0  0  0  0  0  0  0  0  0  0
  1  2  1  1  0  0  0
  1  6  1  0  0  0  0
  1 21  1  0  0  0  0
  3  4  1  6  0  0  0
  3  8  1  0  0  0  0
  3 28  1  0  0  0  0
  5  9  1  0  0  0  0
  5 25  1  0  0  0  0
  5 29  1  1  0  0  0
  6  7  1  1  0  0  0
  6 11  1  0  0  0  0
  8 12  1  0  0  0  0
  9 10  1  6  0  0  0
  9 14  1  0  0  0  0
 11 16  1  0  0  0  0
 12 13  1  6  0  0  0
 12 17  1  0  0  0  0
 14 15  1  1  0  0  0
 14 18  1  0  0  0  0
 15 31  1  0  0  0  0
 16 20  1  0  0  0  0
 17  2  1  1  0  0  0
 17 22  1  0  0  0  0
 18 19  1  6  0  0  0
 18 24  1  0  0  0  0
 18 30  1  0  0  0  0
 20 21  1  0  0  0  0
 20 26  1  6  0  0  0
 22 23  1  1  0  0  0
 22 28  1  0  0  0  0
 24 25  1  0  0  0  0
 26 27  1  0  0  0  0
 28 29  1  1  0  0  0
M  END
>  <CHROM.1>
-135.82601848,-166.58676753,49.99669223,-72.39983706,-62.28613379,73.48457859
-1.04857600,-8.84689066,33.37599382,1.90807678,-0.93538843,-2.51009675

>  <Name>
2et3_lig

>  <RI>
3.86414e+07

>  <Rbt.Current_Directory>
/home/itssahil/PROJECTS/Mol_Feturizer/New_Systems/rnas/2et3

>  <Rbt.Executable>
rbdock ($Id: //depot/dev/client3/rdock/2013.1/src/exe/rbdock.cxx#4 $)

>  <Rbt.Library>
libRbt.so (2013.1, Build901 2013/11/27)

>  <Rbt.Parameter_File>
/export/apps/rDock/src/rDock_2013.1_src/data/scripts/dock_solv.prm

>  <Rbt.Receptor>
prm/pocket_docking_8.prm

>  <SCORE>
-17.9857

>  <SCORE.INTER>
-13.2641

>  <SCORE.INTER.CONST>
1

>  <SCORE.INTER.POLAR>
-1.74041

>  <SCORE.INTER.ROT>
6

>  <SCORE.INTER.SOLV>
13.9239

>  <SCORE.INTER.VDW>
-15.2827

>  <SCORE.INTER.norm>
-0.427874

>  <SCORE.INTRA>
-4.72161

>  <SCORE.INTRA.DIHEDRAL>
-13.5784

>  <SCORE.INTRA.DIHEDRAL.0>
22.2484

>  <SCORE.INTRA.POLAR>
0

>  <SCORE.INTRA.POLAR.0>
0

>  <SCORE.INTRA.REPUL>
0

>  <SCORE.INTRA.REPUL.0>
0

>  <SCORE.INTRA.SOLV>
0.0609485

>  <SCORE.INTRA.SOLV.lig_0>
-75.7198

>  <SCORE.INTRA.VDW>
2.03711

>  <SCORE.INTRA.VDW.0>
-3.34171

>  <SCORE.INTRA.norm>
-0.15231

>  <SCORE.RESTR>
0

>  <SCORE.RESTR.CAVITY>
0

>  <SCORE.RESTR.norm>
0

>  <SCORE.SYSTEM>
0

>  <SCORE.SYSTEM.CONST>
0

>  <SCORE.SYSTEM.DIHEDRAL>
0

>  <SCORE.SYSTEM.SOLV>
0

>  <SCORE.SYSTEM.norm>
0

>  <SCORE.heavy>
31

>  <SCORE.norm>
-0.580184

>  <RMSD>
6.586

$$$$
2et3_lig
 OpenBabel11021811423D
libRbt.so/2013.1/901 2013/11/27
 31 33  0  0  0  0  0  0  0  0999 V2000
   -1.4128   -5.5877   34.5885 C   0  0  2  0  0  0  0  0  0  0  0  0
   -1.4746   -5.1897   33.1943 O   0  0  0  0  0  0  0  0  0  0  0  0
   -0.0689   -7.3955   29.8083 C   0  0  2  0  0  0  0  0  0  0  0  0
    0.8415   -8.0047   28.8888 N   0  0  0  0  0  0  0  0  0  0  0  0
   -1.3400   -9.9899   30.6126 C   0  0  2  0  0  0  0  0  0  0  0  0
   -2.0869   -4.5239   35.4615 C   0  0  2  0  0  0  0  0  0  0  0  0
   -3.4275   -4.3367   34.9989 N   0  0  0  0  0  0  0  0  0  0  0  0
    0.1743   -5.8521   29.8387 C   0  0  0  0  0  0  0  0  0  0  0  0
   -1.8132  -11.0346   31.6472 C   0  0  2  0  0  0  0  0  0  0  0  0
   -2.0423  -10.3870   32.8787 O   0  0  0  0  0  0  0  0  0  0  0  0
   -1.2664   -3.1894   35.4285 C   0  0  0  0  0  0  0  0  0  0  0  0
   -0.8171   -5.1747   30.8542 C   0  0  2  0  0  0  0  0  0  0  0  0
   -0.5916   -3.7208   30.8869 N   0  0  0  0  0  0  0  0  0  0  0  0
   -0.6922  -12.1464   31.7659 C   0  0  1  0  0  0  0  0  0  0  0  0
   -1.0522  -13.1812   32.7899 N   0  0  0  0  0  0  0  0  0  0  0  0
    0.1645   -3.4887   35.9759 C   0  0  0  0  0  0  0  0  0  0  0  0
   -0.6144   -5.8014   32.2870 C   0  0  2  0  0  0  0  0  0  0  0  0
   -0.4484  -12.8516   30.3282 C   0  0  1  0  0  0  0  0  0  0  0  0
   -1.6126  -13.5111   29.8754 O   0  0  0  0  0  0  0  0  0  0  0  0
    0.8288   -4.6163   35.0693 C   0  0  2  0  0  0  0  0  0  0  0  0
    0.0026   -5.8197   34.9873 O   0  0  0  0  0  0  0  0  0  0  0  0
   -0.8644   -7.3574   32.2229 C   0  0  2  0  0  0  0  0  0  0  0  0
   -0.6899   -7.9435   33.5089 O   0  0  0  0  0  0  0  0  0  0  0  0
   -0.0860  -11.7565   29.2780 C   0  0  0  0  0  0  0  0  0  0  0  0
   -1.0998  -10.6498   29.2968 O   0  0  0  0  0  0  0  0  0  0  0  0
    2.2329   -4.9923   35.4804 C   0  0  0  0  0  0  0  0  0  0  0  0
    3.1554   -3.9037   35.2911 N   0  0  0  0  0  0  0  0  0  0  0  0
    0.1319   -8.0148   31.2043 C   0  0  1  0  0  0  0  0  0  0  0  0
   -0.1139   -9.4150   31.1556 O   0  0  0  0  0  0  0  0  0  0  0  0
    0.6236  -13.9483   30.2678 C   0  0  0  0  0  0  0  0  0  0  0  0
   -2.3954  -13.7774   32.6981 C   0  0  0  0  0  0  0  0  0  0  0  0
  1  2  1  6  0  0  0
  1  6  1  0  0  0  0
  1 21  1  0  0  0  0
  3  4  1  6  0  0  0
  3  8  1  0  0  0  0
  3 28  1  0  0  0  0
  5  9  1  0  0  0  0
  5 25  1  0  0  0  0
  5 29  1  1  0  0  0
  6  7  1  6  0  0  0
  6 11  1  0  0  0  0
  8 12  1  0  0  0  0
  9 10  1  1  0  0  0
  9 14  1  0  0  0  0
 11 16  1  0  0  0  0
 12 13  1  1  0  0  0
 12 17  1  0  0  0  0
 14 15  1  1  0  0  0
 14 18  1  0  0  0  0
 15 31  1  0  0  0  0
 16 20  1  0  0  0  0
 17  2  1  1  0  0  0
 17 22  1  0  0  0  0
 18 19  1  6  0  0  0
 18 24  1  0  0  0  0
 18 30  1  0  0  0  0
 20 21  1  0  0  0  0
 20 26  1  1  0  0  0
 22 23  1  1  0  0  0
 22 28  1  0  0  0  0
 24 25  1  0  0  0  0
 26 27  1  0  0  0  0
 28 29  1  6  0  0  0
M  END
>  <CHROM.1>
162.16586451,-132.64847678,49.96303656,-177.73026098,-65.93427927,-52.87509876
-0.58603327,-8.03676973,32.34003367,1.31936490,1.26932108,0.68483932

>  <Name>
2et3_lig

>  <RI>
3.86414e+07

>  <Rbt.Current_Directory>
/home/itssahil/PROJECTS/Mol_Feturizer/New_Systems/rnas/2et3

>  <Rbt.Executable>
rbdock ($Id: //depot/dev/client3/rdock/2013.1/src/exe/rbdock.cxx#4 $)

>  <Rbt.Library>
libRbt.so (2013.1, Build901 2013/11/27)

>  <Rbt.Parameter_File>
/export/apps/rDock/src/rDock_2013.1_src/data/scripts/dock_solv.prm

>  <Rbt.Receptor>
prm/pocket_docking_8.prm

>  <SCORE>
-20.4617

>  <SCORE.INTER>
-15.0183

>  <SCORE.INTER.CONST>
1

>  <SCORE.INTER.POLAR>
-1.82868

>  <SCORE.INTER.ROT>
6

>  <SCORE.INTER.SOLV>
14.4253

>  <SCORE.INTER.VDW>
-16.3251

>  <SCORE.INTER.norm>
-0.484462

>  <SCORE.INTRA>
-5.44338

>  <SCORE.INTRA.DIHEDRAL>
-13.7376

>  <SCORE.INTRA.DIHEDRAL.0>
22.2484

>  <SCORE.INTRA.POLAR>
0

>  <SCORE.INTRA.POLAR.0>
0

>  <SCORE.INTRA.REPUL>
0

>  <SCORE.INTRA.REPUL.0>
0

>  <SCORE.INTRA.SOLV>
-2.18076

>  <SCORE.INTRA.SOLV.lig_0>
-75.7198

>  <SCORE.INTRA.VDW>
2.5158

>  <SCORE.INTRA.VDW.0>
-3.34171

>  <SCORE.INTRA.norm>
-0.175593

>  <SCORE.RESTR>
0

>  <SCORE.RESTR.CAVITY>
0

>  <SCORE.RESTR.norm>
0

>  <SCORE.SYSTEM>
0

>  <SCORE.SYSTEM.CONST>
0

>  <SCORE.SYSTEM.DIHEDRAL>
0

>  <SCORE.SYSTEM.SOLV>
0

>  <SCORE.SYSTEM.norm>
0

>  <SCORE.heavy>
31

>  <SCORE.norm>
-0.660055

>  <RMSD>
6.646

$$$$
2et3_lig
 OpenBabel11021811423D
libRbt.so/2013.1/901 2013/11/27
 31 33  0  0  0  0  0  0  0  0999 V2000
   -0.9557   -5.5615   32.6608 C   0  0  2  0  0  0  0  0  0  0  0  0
   -2.2127   -6.1920   33.0194 O   0  0  0  0  0  0  0  0  0  0  0  0
   -4.0029   -9.8478   31.7017 C   0  0  2  0  0  0  0  0  0  0  0  0
   -4.5329  -10.8386   30.8169 N   0  0  0  0  0  0  0  0  0  0  0  0
   -0.3677  -10.9400   31.1993 C   0  0  2  0  0  0  0  0  0  0  0  0
   -0.3559   -4.8663   33.8877 C   0  0  2  0  0  0  0  0  0  0  0  0
   -0.2116   -5.8315   34.9336 N   0  0  0  0  0  0  0  0  0  0  0  0
   -4.8271   -8.5276   31.5609 C   0  0  0  0  0  0  0  0  0  0  0  0
   -0.2965  -11.1918   29.6771 C   0  0  2  0  0  0  0  0  0  0  0  0
   -0.8933  -10.1049   29.0056 O   0  0  0  0  0  0  0  0  0  0  0  0
   -1.2547   -3.6601   34.3265 C   0  0  0  0  0  0  0  0  0  0  0  0
   -4.2456   -7.4291   32.5244 C   0  0  2  0  0  0  0  0  0  0  0  0
   -5.0183   -6.1834   32.3952 N   0  0  0  0  0  0  0  0  0  0  0  0
   -1.0433  -12.5543   29.3724 C   0  0  1  0  0  0  0  0  0  0  0  0
   -1.0620  -12.8529   27.9029 N   0  0  0  0  0  0  0  0  0  0  0  0
   -1.3272   -2.6536   33.1355 C   0  0  0  0  0  0  0  0  0  0  0  0
   -2.7264   -7.1793   32.1837 C   0  0  2  0  0  0  0  0  0  0  0  0
   -0.3381  -13.7713   30.1757 C   0  0  1  0  0  0  0  0  0  0  0  0
    1.0002  -13.9530   29.7616 O   0  0  0  0  0  0  0  0  0  0  0  0
   -1.9255   -3.4094   31.8684 C   0  0  2  0  0  0  0  0  0  0  0  0
   -1.1678   -4.6137   31.5325 O   0  0  0  0  0  0  0  0  0  0  0  0
   -1.9231   -8.5285   32.3326 C   0  0  2  0  0  0  0  0  0  0  0  0
   -0.5461   -8.3243   32.0326 O   0  0  0  0  0  0  0  0  0  0  0  0
   -0.3205  -13.4345   31.6988 C   0  0  0  0  0  0  0  0  0  0  0  0
    0.2669  -12.0733   31.9326 O   0  0  0  0  0  0  0  0  0  0  0  0
   -2.0676   -2.5407   30.6408 C   0  0  0  0  0  0  0  0  0  0  0  0
   -2.7294   -3.2351   29.5677 N   0  0  0  0  0  0  0  0  0  0  0  0
   -2.5183   -9.6116   31.3659 C   0  0  1  0  0  0  0  0  0  0  0  0
   -1.7860  -10.8213   31.5201 O   0  0  0  0  0  0  0  0  0  0  0  0
   -0.9537  -15.1661   29.9994 C   0  0  0  0  0  0  0  0  0  0  0  0
   -2.3801  -12.9370   27.2519 C   0  0  0  0  0  0  0  0  0  0  0  0
  1  2  1  1  0  0  0
  1  6  1  0  0  0  0
  1 21  1  0  0  0  0
  3  4  1  6  0  0  0
  3  8  1  0  0  0  0
  3 28  1  0  0  0  0
  5  9  1  0  0  0  0
  5 25  1  0  0  0  0
  5 29  1  1  0  0  0
  6  7  1  1  0  0  0
  6 11  1  0  0  0  0
  8 12  1  0  0  0  0
  9 10  1  6  0  0  0
  9 14  1  0  0  0  0
 11 16  1  0  0  0  0
 12 13  1  6  0  0  0
 12 17  1  0  0  0  0
 14 15  1  6  0  0  0
 14 18  1  0  0  0  0
 15 31  1  0  0  0  0
 16 20  1  0  0  0  0
 17  2  1  1  0  0  0
 17 22  1  0  0  0  0
 18 19  1  6  0  0  0
 18 24  1  0  0  0  0
 18 30  1  0  0  0  0
 20 21  1  0  0  0  0
 20 26  1  6  0  0  0
 22 23  1  6  0  0  0
 22 28  1  0  0  0  0
 24 25  1  0  0  0  0
 26 27  1  0  0  0  0
 28 29  1  1  0  0  0
M  END
>  <CHROM.1>
-161.86871786,-83.26999297,-118.06377847,-164.16869213,-174.43343602,176.28065391
-1.67321627,-8.70767751,31.33525463,-1.70309491,0.54758800,-2.77231641

>  <Name>
2et3_lig

>  <RI>
0

>  <Rbt.Current_Directory>
/home/itssahil/PROJECTS/Mol_Feturizer/New_Systems/rnas/2et3

>  <Rbt.Executable>
rbdock ($Id: //depot/dev/client3/rdock/2013.1/src/exe/rbdock.cxx#4 $)

>  <Rbt.Library>
libRbt.so (2013.1, Build901 2013/11/27)

>  <Rbt.Parameter_File>
/export/apps/rDock/src/rDock_2013.1_src/data/scripts/dock_solv.prm

>  <Rbt.Receptor>
prm/pocket_docking_7.prm

>  <SCORE>
-15.4127

>  <SCORE.INTER>
-6.63075

>  <SCORE.INTER.CONST>
1

>  <SCORE.INTER.POLAR>
-0.846058

>  <SCORE.INTER.ROT>
6

>  <SCORE.INTER.SOLV>
10.1253

>  <SCORE.INTER.VDW>
-12.5754

>  <SCORE.INTER.norm>
-0.213895

>  <SCORE.INTRA>
-8.78192

>  <SCORE.INTRA.DIHEDRAL>
-15.693

>  <SCORE.INTRA.DIHEDRAL.0>
22.2484

>  <SCORE.INTRA.POLAR>
0

>  <SCORE.INTRA.POLAR.0>
0

>  <SCORE.INTRA.REPUL>
0

>  <SCORE.INTRA.REPUL.0>
0

>  <SCORE.INTRA.SOLV>
-2.63286

>  <SCORE.INTRA.SOLV.lig_0>
-75.7198

>  <SCORE.INTRA.VDW>
0.38103

>  <SCORE.INTRA.VDW.0>
-3.34171

>  <SCORE.INTRA.norm>
-0.283288

>  <SCORE.RESTR>
0

>  <SCORE.RESTR.CAVITY>
0

>  <SCORE.RESTR.norm>
0

>  <SCORE.SYSTEM>
0

>  <SCORE.SYSTEM.CONST>
0

>  <SCORE.SYSTEM.DIHEDRAL>
0

>  <SCORE.SYSTEM.SOLV>
0

>  <SCORE.SYSTEM.norm>
0

>  <SCORE.heavy>
31

>  <SCORE.norm>
-0.497183

>  <RMSD>
6.702

$$$$
2et3_lig
 OpenBabel11021811423D
libRbt.so/2013.1/901 2013/11/27
 31 33  0  0  0  0  0  0  0  0999 V2000
   -2.2465  -11.5778   32.7840 C   0  0  2  0  0  0  0  0  0  0  0  0
   -2.8524  -10.7552   31.7533 O   0  0  0  0  0  0  0  0  0  0  0  0
    0.5446   -8.4324   30.5822 C   0  0  2  0  0  0  0  0  0  0  0  0
    1.3507   -7.5197   29.8322 N   0  0  0  0  0  0  0  0  0  0  0  0
    0.3068   -5.3766   31.4816 C   0  0  2  0  0  0  0  0  0  0  0  0
   -3.3016  -12.5087   33.3911 C   0  0  2  0  0  0  0  0  0  0  0  0
   -3.8868  -13.2820   32.3395 N   0  0  0  0  0  0  0  0  0  0  0  0
    0.1074   -9.6189   29.6639 C   0  0  0  0  0  0  0  0  0  0  0  0
    0.6053   -4.5102   32.7249 C   0  0  2  0  0  0  0  0  0  0  0  0
    1.5167   -5.1974   33.5528 O   0  0  0  0  0  0  0  0  0  0  0  0
   -4.3766  -11.6798   34.1738 C   0  0  0  0  0  0  0  0  0  0  0  0
   -0.7871  -10.6237   30.4784 C   0  0  2  0  0  0  0  0  0  0  0  0
   -1.2020  -11.7429   29.6176 N   0  0  0  0  0  0  0  0  0  0  0  0
   -0.7661   -4.2293   33.4646 C   0  0  1  0  0  0  0  0  0  0  0  0
   -0.5605   -3.4289   34.7160 N   0  0  0  0  0  0  0  0  0  0  0  0
   -3.6487  -10.8977   35.3119 C   0  0  0  0  0  0  0  0  0  0  0  0
   -2.0460   -9.8652   31.0499 C   0  0  2  0  0  0  0  0  0  0  0  0
   -1.7884   -3.4558   32.4744 C   0  0  1  0  0  0  0  0  0  0  0  0
   -1.2792   -2.1944   32.0936 O   0  0  0  0  0  0  0  0  0  0  0  0
   -2.5402   -9.9622   34.6557 C   0  0  2  0  0  0  0  0  0  0  0  0
   -1.6094  -10.7123   33.8141 O   0  0  0  0  0  0  0  0  0  0  0  0
   -1.5725   -8.6742   31.9692 C   0  0  2  0  0  0  0  0  0  0  0  0
   -2.6953   -7.9772   32.4995 O   0  0  0  0  0  0  0  0  0  0  0  0
   -1.9788   -4.3007   31.1769 C   0  0  0  0  0  0  0  0  0  0  0  0
   -0.6492   -4.6660   30.5839 O   0  0  0  0  0  0  0  0  0  0  0  0
   -1.7663   -9.1296   35.6506 C   0  0  0  0  0  0  0  0  0  0  0  0
   -2.6231   -8.2277   36.3746 N   0  0  0  0  0  0  0  0  0  0  0  0
   -0.6808   -7.6843   31.1404 C   0  0  1  0  0  0  0  0  0  0  0  0
   -0.2585   -6.6227   31.9877 O   0  0  0  0  0  0  0  0  0  0  0  0
   -3.1764   -3.1202   33.0368 C   0  0  0  0  0  0  0  0  0  0  0  0
   -0.1864   -4.1695   35.9324 C   0  0  0  0  0  0  0  0  0  0  0  0
  1  2  1  6  0  0  0
  1  6  1  0  0  0  0
  1 21  1  0  0  0  0
  3  4  1  6  0  0  0
  3  8  1  0  0  0  0
  3 28  1  0  0  0  0
  5  9  1  0  0  0  0
  5 25  1  0  0  0  0
  5 29  1  1  0  0  0
  6  7  1  6  0  0  0
  6 11  1  0  0  0  0
  8 12  1  0  0  0  0
  9 10  1  1  0  0  0
  9 14  1  0  0  0  0
 11 16  1  0  0  0  0
 12 13  1  6  0  0  0
 12 17  1  0  0  0  0
 14 15  1  1  0  0  0
 14 18  1  0  0  0  0
 15 31  1  0  0  0  0
 16 20  1  0  0  0  0
 17  2  1  1  0  0  0
 17 22  1  0  0  0  0
 18 19  1  6  0  0  0
 18 24  1  0  0  0  0
 18 30  1  0  0  0  0
 20 21  1  0  0  0  0
 20 26  1  1  0  0  0
 22 23  1  6  0  0  0
 22 28  1  0  0  0  0
 24 25  1  0  0  0  0
 26 27  1  0  0  0  0
 28 29  1  1  0  0  0
M  END
>  <CHROM.1>
-178.13238730,179.27382838,-83.75959741,51.80000495,-61.38417270,74.83673173
-1.41808600,-7.76481369,32.60249159,2.13357087,-1.06662398,-2.63053204

>  <Name>
2et3_lig

>  <RI>
0

>  <Rbt.Current_Directory>
/home/itssahil/PROJECTS/Mol_Feturizer/New_Systems/rnas/2et3

>  <Rbt.Executable>
rbdock ($Id: //depot/dev/client3/rdock/2013.1/src/exe/rbdock.cxx#4 $)

>  <Rbt.Library>
libRbt.so (2013.1, Build901 2013/11/27)

>  <Rbt.Parameter_File>
/export/apps/rDock/src/rDock_2013.1_src/data/scripts/dock_solv.prm

>  <Rbt.Receptor>
prm/pocket_docking_6.prm

>  <SCORE>
-22.8798

>  <SCORE.INTER>
-12.8642

>  <SCORE.INTER.CONST>
1

>  <SCORE.INTER.POLAR>
-1.50367

>  <SCORE.INTER.ROT>
6

>  <SCORE.INTER.SOLV>
11.1998

>  <SCORE.INTER.VDW>
-14.8972

>  <SCORE.INTER.norm>
-0.414973

>  <SCORE.INTRA>
-10.0156

>  <SCORE.INTRA.DIHEDRAL>
-20.292

>  <SCORE.INTRA.DIHEDRAL.0>
22.2484

>  <SCORE.INTRA.POLAR>
0

>  <SCORE.INTRA.POLAR.0>
0

>  <SCORE.INTRA.REPUL>
0

>  <SCORE.INTRA.REPUL.0>
0

>  <SCORE.INTRA.SOLV>
-1.18387

>  <SCORE.INTRA.SOLV.lig_0>
-75.7198

>  <SCORE.INTRA.VDW>
0.722325

>  <SCORE.INTRA.VDW.0>
-3.34171

>  <SCORE.INTRA.norm>
-0.323084

>  <SCORE.RESTR>
0

>  <SCORE.RESTR.CAVITY>
0

>  <SCORE.RESTR.norm>
0

>  <SCORE.SYSTEM>
0

>  <SCORE.SYSTEM.CONST>
0

>  <SCORE.SYSTEM.DIHEDRAL>
0

>  <SCORE.SYSTEM.SOLV>
0

>  <SCORE.SYSTEM.norm>
0

>  <SCORE.heavy>
31

>  <SCORE.norm>
-0.738058

>  <RMSD>
6.724

$$$$
2et3_lig
 OpenBabel11021811423D
libRbt.so/2013.1/901 2013/11/27
 31 33  0  0  0  0  0  0  0  0999 V2000
   -0.7574   -6.0858   33.3881 C   0  0  2  0  0  0  0  0  0  0  0  0
   -0.9106   -6.9025   34.5779 O   0  0  0  0  0  0  0  0  0  0  0  0
   -2.7654  -10.7382   34.9697 C   0  0  2  0  0  0  0  0  0  0  0  0
   -3.7865  -11.7396   34.9741 N   0  0  0  0  0  0  0  0  0  0  0  0
   -2.4209  -10.9547   31.1735 C   0  0  2  0  0  0  0  0  0  0  0  0
    0.3126   -5.0154   33.6285 C   0  0  2  0  0  0  0  0  0  0  0  0
    1.5279   -5.6638   34.0142 N   0  0  0  0  0  0  0  0  0  0  0  0
   -3.1070   -9.6396   36.0274 C   0  0  0  0  0  0  0  0  0  0  0  0
   -2.8009  -12.3319   30.5865 C   0  0  2  0  0  0  0  0  0  0  0  0
   -4.0322  -12.7403   31.1393 O   0  0  0  0  0  0  0  0  0  0  0  0
   -0.1719   -3.9916   34.7114 C   0  0  0  0  0  0  0  0  0  0  0  0
   -1.9935   -8.5292   36.0234 C   0  0  2  0  0  0  0  0  0  0  0  0
   -2.3110   -7.4918   37.0177 N   0  0  0  0  0  0  0  0  0  0  0  0
   -1.6354  -13.3471   30.9299 C   0  0  1  0  0  0  0  0  0  0  0  0
   -1.9468  -14.7278   30.4342 N   0  0  0  0  0  0  0  0  0  0  0  0
   -1.4800   -3.3189   34.1888 C   0  0  0  0  0  0  0  0  0  0  0  0
   -1.8799   -7.9013   34.5814 C   0  0  2  0  0  0  0  0  0  0  0  0
   -0.2382  -12.8320   30.2925 C   0  0  1  0  0  0  0  0  0  0  0  0
   -0.3076  -12.7723   28.8828 O   0  0  0  0  0  0  0  0  0  0  0  0
   -2.5623   -4.4552   33.9201 C   0  0  2  0  0  0  0  0  0  0  0  0
   -2.0677   -5.4880   33.0113 O   0  0  0  0  0  0  0  0  0  0  0  0
   -1.5371   -9.0335   33.5380 C   0  0  2  0  0  0  0  0  0  0  0  0
   -1.4262   -8.4868   32.2279 O   0  0  0  0  0  0  0  0  0  0  0  0
    0.0597  -11.3920   30.8131 C   0  0  0  0  0  0  0  0  0  0  0  0
   -1.1245  -10.4957   30.5960 O   0  0  0  0  0  0  0  0  0  0  0  0
   -3.8918   -3.9375   33.4240 C   0  0  0  0  0  0  0  0  0  0  0  0
   -3.7597   -3.2337   32.1754 N   0  0  0  0  0  0  0  0  0  0  0  0
   -2.6573  -10.1321   33.5578 C   0  0  1  0  0  0  0  0  0  0  0  0
   -2.3268  -11.1462   32.6167 O   0  0  0  0  0  0  0  0  0  0  0  0
    1.0011  -13.7008   30.5475 C   0  0  0  0  0  0  0  0  0  0  0  0
   -2.6937  -15.6142   31.3422 C   0  0  0  0  0  0  0  0  0  0  0  0
  1  2  1  1  0  0  0
  1  6  1  0  0  0  0
  1 21  1  0  0  0  0
  3  4  1  6  0  0  0
  3  8  1  0  0  0  0
  3 28  1  0  0  0  0
  5  9  1  0  0  0  0
  5 25  1  0  0  0  0
  5 29  1  1  0  0  0
  6  7  1  1  0  0  0
  6 11  1  0  0  0  0
  8 12  1  0  0  0  0
  9 10  1  1  0  0  0
  9 14  1  0  0  0  0
 11 16  1  0  0  0  0
 12 13  1  1  0  0  0
 12 17  1  0  0  0  0
 14 15  1  6  0  0  0
 14 18  1  0  0  0  0
 15 31  1  0  0  0  0
 16 20  1  0  0  0  0
 17  2  1  1  0  0  0
 17 22  1  0  0  0  0
 18 19  1  6  0  0  0
 18 24  1  0  0  0  0
 18 30  1  0  0  0  0
 20 21  1  0  0  0  0
 20 26  1  6  0  0  0
 22 23  1  6  0  0  0
 22 28  1  0  0  0  0
 24 25  1  0  0  0  0
 26 27  1  0  0  0  0
 28 29  1  6  0  0  0
M  END
>  <CHROM.1>
177.33422881,-147.57038553,-88.58900101,-172.75270166,60.50688202,167.00491204
-1.73123039,-9.18747375,32.84112594,-1.57191428,-0.95626963,-2.76804471

>  <Name>
2et3_lig

>  <RI>
0

>  <Rbt.Current_Directory>
/home/itssahil/PROJECTS/Mol_Feturizer/New_Systems/rnas/2et3

>  <Rbt.Executable>
rbdock ($Id: //depot/dev/client3/rdock/2013.1/src/exe/rbdock.cxx#4 $)

>  <Rbt.Library>
libRbt.so (2013.1, Build901 2013/11/27)

>  <Rbt.Parameter_File>
/export/apps/rDock/src/rDock_2013.1_src/data/scripts/dock_solv.prm

>  <Rbt.Receptor>
prm/pocket_docking_7.prm

>  <SCORE>
-19.9695

>  <SCORE.INTER>
-11.1147

>  <SCORE.INTER.CONST>
1

>  <SCORE.INTER.POLAR>
-1.81757

>  <SCORE.INTER.ROT>
6

>  <SCORE.INTER.SOLV>
15.9223

>  <SCORE.INTER.VDW>
-14.2587

>  <SCORE.INTER.norm>
-0.358539

>  <SCORE.INTRA>
-8.85474

>  <SCORE.INTRA.DIHEDRAL>
-16.3765

>  <SCORE.INTRA.DIHEDRAL.0>
22.2484

>  <SCORE.INTRA.POLAR>
0

>  <SCORE.INTRA.POLAR.0>
0

>  <SCORE.INTRA.REPUL>
0

>  <SCORE.INTRA.REPUL.0>
0

>  <SCORE.INTRA.SOLV>
-3.03703

>  <SCORE.INTRA.SOLV.lig_0>
-75.7198

>  <SCORE.INTRA.VDW>
0.852019

>  <SCORE.INTRA.VDW.0>
-3.34171

>  <SCORE.INTRA.norm>
-0.285637

>  <SCORE.RESTR>
0

>  <SCORE.RESTR.CAVITY>
0

>  <SCORE.RESTR.norm>
0

>  <SCORE.SYSTEM>
0

>  <SCORE.SYSTEM.CONST>
0

>  <SCORE.SYSTEM.DIHEDRAL>
0

>  <SCORE.SYSTEM.SOLV>
0

>  <SCORE.SYSTEM.norm>
0

>  <SCORE.heavy>
31

>  <SCORE.norm>
-0.644176

>  <RMSD>
6.726

$$$$
2et3_lig
 OpenBabel11021811423D
libRbt.so/2013.1/901 2013/11/27
 31 33  0  0  0  0  0  0  0  0999 V2000
   -3.3591   -4.7553   30.4396 C   0  0  2  0  0  0  0  0  0  0  0  0
   -2.4961   -5.0290   31.5738 O   0  0  0  0  0  0  0  0  0  0  0  0
   -1.5878   -8.6315   33.6959 C   0  0  2  0  0  0  0  0  0  0  0  0
   -1.7894   -9.8543   34.4098 N   0  0  0  0  0  0  0  0  0  0  0  0
   -2.1189  -10.3889   30.3498 C   0  0  2  0  0  0  0  0  0  0  0  0
   -2.6789   -3.7533   29.5007 C   0  0  2  0  0  0  0  0  0  0  0  0
   -1.4076   -4.2820   29.1130 N   0  0  0  0  0  0  0  0  0  0  0  0
   -2.2404   -7.4518   34.4862 C   0  0  0  0  0  0  0  0  0  0  0  0
   -2.6649  -11.7845   30.7240 C   0  0  2  0  0  0  0  0  0  0  0  0
   -3.6614  -11.6359   31.7105 O   0  0  0  0  0  0  0  0  0  0  0  0
   -2.5422   -2.3567   30.1979 C   0  0  0  0  0  0  0  0  0  0  0  0
   -2.0311   -6.1038   33.7038 C   0  0  2  0  0  0  0  0  0  0  0  0
   -2.6446   -4.9896   34.4439 N   0  0  0  0  0  0  0  0  0  0  0  0
   -1.4514  -12.6611   31.2398 C   0  0  1  0  0  0  0  0  0  0  0  0
   -1.9037  -14.0244   31.6708 N   0  0  0  0  0  0  0  0  0  0  0  0
   -3.9759   -1.8527   30.5546 C   0  0  0  0  0  0  0  0  0  0  0  0
   -2.6594   -6.2272   32.2628 C   0  0  2  0  0  0  0  0  0  0  0  0
   -0.3237  -12.7914   30.0843 C   0  0  1  0  0  0  0  0  0  0  0  0
   -0.8312  -13.4517   28.9432 O   0  0  0  0  0  0  0  0  0  0  0  0
   -4.6687   -2.9254   31.5054 C   0  0  2  0  0  0  0  0  0  0  0  0
   -4.6810   -4.2630   30.9155 O   0  0  0  0  0  0  0  0  0  0  0  0
   -1.9827   -7.4258   31.4926 C   0  0  2  0  0  0  0  0  0  0  0  0
   -2.5337   -7.5529   30.1856 O   0  0  0  0  0  0  0  0  0  0  0  0
    0.1236  -11.3631   29.6448 C   0  0  0  0  0  0  0  0  0  0  0  0
   -1.0682  -10.5187   29.2991 O   0  0  0  0  0  0  0  0  0  0  0  0
   -6.0650   -2.5519   31.9443 C   0  0  0  0  0  0  0  0  0  0  0  0
   -6.9698   -2.4594   30.8287 N   0  0  0  0  0  0  0  0  0  0  0  0
   -2.2004   -8.7605   32.2885 C   0  0  1  0  0  0  0  0  0  0  0  0
   -1.5776   -9.8266   31.5823 O   0  0  0  0  0  0  0  0  0  0  0  0
    0.9323  -13.6025   30.4310 C   0  0  0  0  0  0  0  0  0  0  0  0
   -2.4448  -14.1520   33.0342 C   0  0  0  0  0  0  0  0  0  0  0  0
  1  2  1  1  0  0  0
  1  6  1  0  0  0  0
  1 21  1  0  0  0  0
  3  4  1  1  0  0  0
  3  8  1  0  0  0  0
  3 28  1  0  0  0  0
  5  9  1  0  0  0  0
  5 25  1  0  0  0  0
  5 29  1  1  0  0  0
  6  7  1  1  0  0  0
  6 11  1  0  0  0  0
  8 12  1  0  0  0  0
  9 10  1  1  0  0  0
  9 14  1  0  0  0  0
 11 16  1  0  0  0  0
 12 13  1  1  0  0  0
 12 17  1  0  0  0  0
 14 15  1  6  0  0  0
 14 18  1  0  0  0  0
 15 31  1  0  0  0  0
 16 20  1  0  0  0  0
 17  2  1  6  0  0  0
 17 22  1  0  0  0  0
 18 19  1  6  0  0  0
 18 24  1  0  0  0  0
 18 30  1  0  0  0  0
 20 21  1  0  0  0  0
 20 26  1  6  0  0  0
 22 23  1  6  0  0  0
 22 28  1  0  0  0  0
 24 25  1  0  0  0  0
 26 27  1  0  0  0  0
 28 29  1  6  0  0  0
M  END
>  <CHROM.1>
-156.29557363,-108.24322220,-83.15430415,-159.63577175,62.98480822,166.32212678
-2.43516844,-8.02570383,31.34140740,-2.44460899,-1.18449692,2.32690468

>  <Name>
2et3_lig

>  <RI>
0

>  <Rbt.Current_Directory>
/home/itssahil/PROJECTS/Mol_Feturizer/New_Systems/rnas/2et3

>  <Rbt.Executable>
rbdock ($Id: //depot/dev/client3/rdock/2013.1/src/exe/rbdock.cxx#4 $)

>  <Rbt.Library>
libRbt.so (2013.1, Build901 2013/11/27)

>  <Rbt.Parameter_File>
/export/apps/rDock/src/rDock_2013.1_src/data/scripts/dock_solv.prm

>  <Rbt.Receptor>
prm/pocket_docking_7.prm

>  <SCORE>
-11.2564

>  <SCORE.INTER>
-5.7481

>  <SCORE.INTER.CONST>
1

>  <SCORE.INTER.POLAR>
0

>  <SCORE.INTER.ROT>
6

>  <SCORE.INTER.SOLV>
7.18234

>  <SCORE.INTER.VDW>
-13.8262

>  <SCORE.INTER.norm>
-0.185423

>  <SCORE.INTRA>
-5.50834

>  <SCORE.INTRA.DIHEDRAL>
-9.96856

>  <SCORE.INTRA.DIHEDRAL.0>
22.2484

>  <SCORE.INTRA.POLAR>
0

>  <SCORE.INTRA.POLAR.0>
0

>  <SCORE.INTRA.REPUL>
0

>  <SCORE.INTRA.REPUL.0>
0

>  <SCORE.INTRA.SOLV>
-1.3587

>  <SCORE.INTRA.SOLV.lig_0>
-75.7198

>  <SCORE.INTRA.VDW>
0.155285

>  <SCORE.INTRA.VDW.0>
-3.34171

>  <SCORE.INTRA.norm>
-0.177689

>  <SCORE.RESTR>
0

>  <SCORE.RESTR.CAVITY>
0

>  <SCORE.RESTR.norm>
0

>  <SCORE.SYSTEM>
0

>  <SCORE.SYSTEM.CONST>
0

>  <SCORE.SYSTEM.DIHEDRAL>
0

>  <SCORE.SYSTEM.SOLV>
0

>  <SCORE.SYSTEM.norm>
0

>  <SCORE.heavy>
31

>  <SCORE.norm>
-0.363111

>  <RMSD>
6.744

$$$$
2et3_lig
 OpenBabel11021811423D
libRbt.so/2013.1/901 2013/11/27
 31 33  0  0  0  0  0  0  0  0999 V2000
   -3.2845   -3.2281   34.4151 C   0  0  2  0  0  0  0  0  0  0  0  0
   -4.6590   -3.6900   34.3529 O   0  0  0  0  0  0  0  0  0  0  0  0
   -4.4008   -7.1004   36.9237 C   0  0  2  0  0  0  0  0  0  0  0  0
   -4.8152   -8.2156   37.7174 N   0  0  0  0  0  0  0  0  0  0  0  0
   -4.5873   -9.8527   35.4260 C   0  0  2  0  0  0  0  0  0  0  0  0
   -3.1737   -1.8427   33.7695 C   0  0  2  0  0  0  0  0  0  0  0  0
   -4.0844   -0.9582   34.4286 N   0  0  0  0  0  0  0  0  0  0  0  0
   -5.0327   -5.7900   37.4942 C   0  0  0  0  0  0  0  0  0  0  0  0
   -3.7058  -10.8341   34.6226 C   0  0  2  0  0  0  0  0  0  0  0  0
   -2.3496  -10.5415   34.8745 O   0  0  0  0  0  0  0  0  0  0  0  0
   -3.4572   -1.9322   32.2310 C   0  0  0  0  0  0  0  0  0  0  0  0
   -4.5892   -4.5589   36.6219 C   0  0  2  0  0  0  0  0  0  0  0  0
   -5.1823   -3.3221   37.1550 N   0  0  0  0  0  0  0  0  0  0  0  0
   -4.0683  -10.6730   33.0898 C   0  0  1  0  0  0  0  0  0  0  0  0
   -3.2203  -11.5613   32.2292 N   0  0  0  0  0  0  0  0  0  0  0  0
   -2.3999   -2.8919   31.6003 C   0  0  0  0  0  0  0  0  0  0  0  0
   -5.0299   -4.7869   35.1251 C   0  0  2  0  0  0  0  0  0  0  0  0
   -5.6361  -11.0004   32.8477 C   0  0  1  0  0  0  0  0  0  0  0  0
   -5.9401  -12.3375   33.1871 O   0  0  0  0  0  0  0  0  0  0  0  0
   -2.5178   -4.3126   32.3090 C   0  0  2  0  0  0  0  0  0  0  0  0
   -2.3865   -4.2197   33.7621 O   0  0  0  0  0  0  0  0  0  0  0  0
   -4.3787   -6.1159   34.5796 C   0  0  2  0  0  0  0  0  0  0  0  0
   -4.7613   -6.3392   33.2262 O   0  0  0  0  0  0  0  0  0  0  0  0
   -6.4975  -10.0731   33.7595 C   0  0  0  0  0  0  0  0  0  0  0  0
   -6.0290  -10.1485   35.1834 O   0  0  0  0  0  0  0  0  0  0  0  0
   -1.5563   -5.3498   31.7782 C   0  0  0  0  0  0  0  0  0  0  0  0
   -0.1858   -4.9383   31.9341 N   0  0  0  0  0  0  0  0  0  0  0  0
   -4.8309   -7.3315   35.4628 C   0  0  1  0  0  0  0  0  0  0  0  0
   -4.2283   -8.5177   34.9597 O   0  0  0  0  0  0  0  0  0  0  0  0
   -6.1553  -10.8756   31.4088 C   0  0  0  0  0  0  0  0  0  0  0  0
   -3.1058  -12.9734   32.6303 C   0  0  0  0  0  0  0  0  0  0  0  0
  1  2  1  6  0  0  0
  1  6  1  0  0  0  0
  1 21  1  0  0  0  0
  3  4  1  1  0  0  0
  3  8  1  0  0  0  0
  3 28  1  0  0  0  0
  5  9  1  0  0  0  0
  5 25  1  0  0  0  0
  5 29  1  6  0  0  0
  6  7  1  1  0  0  0
  6 11  1  0  0  0  0
  8 12  1  0  0  0  0
  9 10  1  6  0  0  0
  9 14  1  0  0  0  0
 11 16  1  0  0  0  0
 12 13  1  1  0  0  0
 12 17  1  0  0  0  0
 14 15  1  6  0  0  0
 14 18  1  0  0  0  0
 15 31  1  0  0  0  0
 16 20  1  0  0  0  0
 17  2  1  6  0  0  0
 17 22  1  0  0  0  0
 18 19  1  1  0  0  0
 18 24  1  0  0  0  0
 18 30  1  0  0  0  0
 20 21  1  0  0  0  0
 20 26  1  6  0  0  0
 22 23  1  6  0  0  0
 22 28  1  0  0  0  0
 24 25  1  0  0  0  0
 26 27  1  0  0  0  0
 28 29  1  6  0  0  0
M  END
>  <CHROM.1>
-166.59654206,179.83438114,48.78609448,51.55699026,59.53860293,68.86263490
-4.07692000,-7.02780659,34.14747174,1.25934653,1.03849167,0.31120253

>  <Name>
2et3_lig

>  <RI>
0

>  <Rbt.Current_Directory>
/home/itssahil/PROJECTS/Mol_Feturizer/New_Systems/rnas/2et3

>  <Rbt.Executable>
rbdock ($Id: //depot/dev/client3/rdock/2013.1/src/exe/rbdock.cxx#4 $)

>  <Rbt.Library>
libRbt.so (2013.1, Build901 2013/11/27)

>  <Rbt.Parameter_File>
/export/apps/rDock/src/rDock_2013.1_src/data/scripts/dock_solv.prm

>  <Rbt.Receptor>
prm/pocket_docking_6.prm

>  <SCORE>
-16.048

>  <SCORE.INTER>
-7.73667

>  <SCORE.INTER.CONST>
1

>  <SCORE.INTER.POLAR>
-0.498167

>  <SCORE.INTER.ROT>
6

>  <SCORE.INTER.SOLV>
12.9256

>  <SCORE.INTER.VDW>
-15.4058

>  <SCORE.INTER.norm>
-0.24957

>  <SCORE.INTRA>
-8.3113

>  <SCORE.INTRA.DIHEDRAL>
-20.4121

>  <SCORE.INTRA.DIHEDRAL.0>
22.2484

>  <SCORE.INTRA.POLAR>
0

>  <SCORE.INTRA.POLAR.0>
0

>  <SCORE.INTRA.REPUL>
0

>  <SCORE.INTRA.REPUL.0>
0

>  <SCORE.INTRA.SOLV>
0.00832535

>  <SCORE.INTRA.SOLV.lig_0>
-75.7198

>  <SCORE.INTRA.VDW>
1.89058

>  <SCORE.INTRA.VDW.0>
-3.34171

>  <SCORE.INTRA.norm>
-0.268106

>  <SCORE.RESTR>
0

>  <SCORE.RESTR.CAVITY>
0

>  <SCORE.RESTR.norm>
0

>  <SCORE.SYSTEM>
0

>  <SCORE.SYSTEM.CONST>
0

>  <SCORE.SYSTEM.DIHEDRAL>
0

>  <SCORE.SYSTEM.SOLV>
0

>  <SCORE.SYSTEM.norm>
0

>  <SCORE.heavy>
31

>  <SCORE.norm>
-0.517676

>  <RMSD>
6.756

$$$$
2et3_lig
 OpenBabel11021811423D
libRbt.so/2013.1/901 2013/11/27
 31 33  0  0  0  0  0  0  0  0999 V2000
   -2.1545  -11.7861   33.5490 C   0  0  2  0  0  0  0  0  0  0  0  0
   -1.3360  -11.3531   32.4316 O   0  0  0  0  0  0  0  0  0  0  0  0
   -0.1779   -7.3812   31.3411 C   0  0  2  0  0  0  0  0  0  0  0  0
   -0.2908   -6.0228   30.9082 N   0  0  0  0  0  0  0  0  0  0  0  0
   -0.6573   -5.2581   33.6400 C   0  0  2  0  0  0  0  0  0  0  0  0
   -2.3993  -13.2961   33.4577 C   0  0  2  0  0  0  0  0  0  0  0  0
   -1.1338  -13.9612   33.4091 N   0  0  0  0  0  0  0  0  0  0  0  0
   -0.7059   -8.3323   30.2191 C   0  0  0  0  0  0  0  0  0  0  0  0
    0.5497   -4.6638   34.3988 C   0  0  2  0  0  0  0  0  0  0  0  0
    1.7363   -5.0402   33.7365 O   0  0  0  0  0  0  0  0  0  0  0  0
   -3.2836  -13.6321   32.2085 C   0  0  0  0  0  0  0  0  0  0  0  0
   -0.5936   -9.8285   30.6901 C   0  0  2  0  0  0  0  0  0  0  0  0
   -1.0902  -10.7284   29.6369 N   0  0  0  0  0  0  0  0  0  0  0  0
    0.5071   -5.2069   35.8854 C   0  0  1  0  0  0  0  0  0  0  0  0
    1.6768   -4.7131   36.6835 N   0  0  0  0  0  0  0  0  0  0  0  0
   -4.6464  -12.8876   32.3674 C   0  0  0  0  0  0  0  0  0  0  0  0
   -1.4142  -10.0252   32.0223 C   0  0  2  0  0  0  0  0  0  0  0  0
   -0.8774   -4.7681   36.6025 C   0  0  1  0  0  0  0  0  0  0  0  0
   -0.9866   -3.3625   36.6921 O   0  0  0  0  0  0  0  0  0  0  0  0
   -4.3602  -11.3262   32.4893 C   0  0  2  0  0  0  0  0  0  0  0  0
   -3.4286  -11.0164   33.5725 O   0  0  0  0  0  0  0  0  0  0  0  0
   -0.8598   -9.0516   33.1325 C   0  0  2  0  0  0  0  0  0  0  0  0
   -1.5854   -9.2158   34.3467 O   0  0  0  0  0  0  0  0  0  0  0  0
   -2.0785   -5.2827   35.7505 C   0  0  0  0  0  0  0  0  0  0  0  0
   -1.9271   -4.8652   34.3168 O   0  0  0  0  0  0  0  0  0  0  0  0
   -5.6030  -10.4794   32.6315 C   0  0  0  0  0  0  0  0  0  0  0  0
   -6.4535  -10.5790   31.4745 N   0  0  0  0  0  0  0  0  0  0  0  0
   -0.9783   -7.5651   32.6442 C   0  0  1  0  0  0  0  0  0  0  0  0
   -0.4674   -6.7045   33.6549 O   0  0  0  0  0  0  0  0  0  0  0  0
   -1.0835   -5.2303   38.0515 C   0  0  0  0  0  0  0  0  0  0  0  0
    3.0156   -5.1470   36.2508 C   0  0  0  0  0  0  0  0  0  0  0  0
  1  2  1  6  0  0  0
  1  6  1  0  0  0  0
  1 21  1  0  0  0  0
  3  4  1  6  0  0  0
  3  8  1  0  0  0  0
  3 28  1  0  0  0  0
  5  9  1  0  0  0  0
  5 25  1  0  0  0  0
  5 29  1  1  0  0  0
  6  7  1  6  0  0  0
  6 11  1  0  0  0  0
  8 12  1  0  0  0  0
  9 10  1  6  0  0  0
  9 14  1  0  0  0  0
 11 16  1  0  0  0  0
 12 13  1  6  0  0  0
 12 17  1  0  0  0  0
 14 15  1  1  0  0  0
 14 18  1  0  0  0  0
 15 31  1  0  0  0  0
 16 20  1  0  0  0  0
 17  2  1  1  0  0  0
 17 22  1  0  0  0  0
 18 19  1  6  0  0  0
 18 24  1  0  0  0  0
 18 30  1  0  0  0  0
 20 21  1  0  0  0  0
 20 26  1  1  0  0  0
 22 23  1  1  0  0  0
 22 28  1  0  0  0  0
 24 25  1  0  0  0  0
 26 27  1  0  0  0  0
 28 29  1  1  0  0  0
M  END
>  <CHROM.1>
155.50365981,-152.19201515,-63.78128618,-172.62038211,-62.76460368,71.78076598
-1.37991715,-8.30803389,33.52428893,2.13057140,-0.72667457,-2.31020444

>  <Name>
2et3_lig

>  <RI>
0

>  <Rbt.Current_Directory>
/home/itssahil/PROJECTS/Mol_Feturizer/New_Systems/rnas/2et3

>  <Rbt.Executable>
rbdock ($Id: //depot/dev/client3/rdock/2013.1/src/exe/rbdock.cxx#4 $)

>  <Rbt.Library>
libRbt.so (2013.1, Build901 2013/11/27)

>  <Rbt.Parameter_File>
/export/apps/rDock/src/rDock_2013.1_src/data/scripts/dock_solv.prm

>  <Rbt.Receptor>
prm/pocket_docking_7.prm

>  <SCORE>
-21.6344

>  <SCORE.INTER>
-15.101

>  <SCORE.INTER.CONST>
1

>  <SCORE.INTER.POLAR>
-2.14689

>  <SCORE.INTER.ROT>
6

>  <SCORE.INTER.SOLV>
13.555

>  <SCORE.INTER.VDW>
-15.0294

>  <SCORE.INTER.norm>
-0.48713

>  <SCORE.INTRA>
-6.53338

>  <SCORE.INTRA.DIHEDRAL>
-15.3841

>  <SCORE.INTRA.DIHEDRAL.0>
22.2484

>  <SCORE.INTRA.POLAR>
0

>  <SCORE.INTRA.POLAR.0>
0

>  <SCORE.INTRA.REPUL>
0

>  <SCORE.INTRA.REPUL.0>
0

>  <SCORE.INTRA.SOLV>
-2.23172

>  <SCORE.INTRA.SOLV.lig_0>
-75.7198

>  <SCORE.INTRA.VDW>
2.2745

>  <SCORE.INTRA.VDW.0>
-3.34171

>  <SCORE.INTRA.norm>
-0.210754

>  <SCORE.RESTR>
0

>  <SCORE.RESTR.CAVITY>
0

>  <SCORE.RESTR.norm>
0

>  <SCORE.SYSTEM>
0

>  <SCORE.SYSTEM.CONST>
0

>  <SCORE.SYSTEM.DIHEDRAL>
0

>  <SCORE.SYSTEM.SOLV>
0

>  <SCORE.SYSTEM.norm>
0

>  <SCORE.heavy>
31

>  <SCORE.norm>
-0.697884

>  <RMSD>
6.787

$$$$
2et3_lig
 OpenBabel11021811423D
libRbt.so/2013.1/901 2013/11/27
 31 33  0  0  0  0  0  0  0  0999 V2000
   -1.6406  -11.7660   31.6431 C   0  0  2  0  0  0  0  0  0  0  0  0
   -0.4951  -11.1350   32.2723 O   0  0  0  0  0  0  0  0  0  0  0  0
   -2.2161   -7.3592   33.3154 C   0  0  2  0  0  0  0  0  0  0  0  0
   -2.3531   -6.0679   33.9147 N   0  0  0  0  0  0  0  0  0  0  0  0
   -0.0463   -5.5788   30.8480 C   0  0  2  0  0  0  0  0  0  0  0  0
   -1.2081  -13.0742   30.9724 C   0  0  2  0  0  0  0  0  0  0  0  0
   -0.5887  -13.9080   31.9559 N   0  0  0  0  0  0  0  0  0  0  0  0
   -2.0726   -8.4412   34.4339 C   0  0  0  0  0  0  0  0  0  0  0  0
   -0.6961   -4.4248   30.0531 C   0  0  2  0  0  0  0  0  0  0  0  0
   -1.5191   -3.6784   30.9214 O   0  0  0  0  0  0  0  0  0  0  0  0
   -0.2490  -12.7804   29.7686 C   0  0  0  0  0  0  0  0  0  0  0  0
   -1.9124   -9.8641   33.7837 C   0  0  2  0  0  0  0  0  0  0  0  0
   -1.7764  -10.8868   34.8331 N   0  0  0  0  0  0  0  0  0  0  0  0
   -1.5210   -5.0585   28.8594 C   0  0  1  0  0  0  0  0  0  0  0  0
   -2.2266   -4.0041   28.0597 N   0  0  0  0  0  0  0  0  0  0  0  0
   -1.0209  -11.8936   28.7416 C   0  0  0  0  0  0  0  0  0  0  0  0
   -0.6540   -9.8713   32.8335 C   0  0  2  0  0  0  0  0  0  0  0  0
   -0.5428   -5.9204   27.8982 C   0  0  1  0  0  0  0  0  0  0  0  0
    0.4456   -5.1034   27.3056 O   0  0  0  0  0  0  0  0  0  0  0  0
   -1.4829  -10.5567   29.4724 C   0  0  2  0  0  0  0  0  0  0  0  0
   -2.2691  -10.8258   30.6751 O   0  0  0  0  0  0  0  0  0  0  0  0
   -0.8277   -8.7690   31.7188 C   0  0  2  0  0  0  0  0  0  0  0  0
    0.2977   -8.7609   30.8463 O   0  0  0  0  0  0  0  0  0  0  0  0
    0.1873   -7.0026   28.7522 C   0  0  0  0  0  0  0  0  0  0  0  0
    0.8381   -6.3787   29.9521 O   0  0  0  0  0  0  0  0  0  0  0  0
   -2.2315   -9.5929   28.5822 C   0  0  0  0  0  0  0  0  0  0  0  0
   -3.4831  -10.1426   28.1316 N   0  0  0  0  0  0  0  0  0  0  0  0
   -0.9876   -7.3579   32.3861 C   0  0  1  0  0  0  0  0  0  0  0  0
   -1.1500   -6.3799   31.3661 O   0  0  0  0  0  0  0  0  0  0  0  0
   -1.1925   -6.6164   26.6944 C   0  0  0  0  0  0  0  0  0  0  0  0
   -3.6200   -4.2776   27.6702 C   0  0  0  0  0  0  0  0  0  0  0  0
  1  2  1  6  0  0  0
  1  6  1  0  0  0  0
  1 21  1  0  0  0  0
  3  4  1  1  0  0  0
  3  8  1  0  0  0  0
  3 28  1  0  0  0  0
  5  9  1  0  0  0  0
  5 25  1  0  0  0  0
  5 29  1  6  0  0  0
  6  7  1  1  0  0  0
  6 11  1  0  0  0  0
  8 12  1  0  0  0  0
  9 10  1  1  0  0  0
  9 14  1  0  0  0  0
 11 16  1  0  0  0  0
 12 13  1  1  0  0  0
 12 17  1  0  0  0  0
 14 15  1  6  0  0  0
 14 18  1  0  0  0  0
 15 31  1  0  0  0  0
 16 20  1  0  0  0  0
 17  2  1  6  0  0  0
 17 22  1  0  0  0  0
 18 19  1  6  0  0  0
 18 24  1  0  0  0  0
 18 30  1  0  0  0  0
 20 21  1  0  0  0  0
 20 26  1  6  0  0  0
 22 23  1  6  0  0  0
 22 28  1  0  0  0  0
 24 25  1  0  0  0  0
 26 27  1  0  0  0  0
 28 29  1  6  0  0  0
M  END
>  <CHROM.1>
174.22795645,-165.72951573,-136.41791787,50.18025603,64.53961512,143.30162157
-1.22042846,-8.27152017,30.57319142,-1.61688021,1.51548440,-0.37046312

>  <Name>
2et3_lig

>  <RI>
3.50789e+07

>  <Rbt.Current_Directory>
/home/itssahil/PROJECTS/Mol_Feturizer/New_Systems/rnas/2et3

>  <Rbt.Executable>
rbdock ($Id: //depot/dev/client3/rdock/2013.1/src/exe/rbdock.cxx#4 $)

>  <Rbt.Library>
libRbt.so (2013.1, Build901 2013/11/27)

>  <Rbt.Parameter_File>
/export/apps/rDock/src/rDock_2013.1_src/data/scripts/dock_solv.prm

>  <Rbt.Receptor>
prm/pocket_docking_4.prm

>  <SCORE>
-20.4847

>  <SCORE.INTER>
-13.5963

>  <SCORE.INTER.CONST>
1

>  <SCORE.INTER.POLAR>
-0.938083

>  <SCORE.INTER.ROT>
6

>  <SCORE.INTER.SOLV>
14.3606

>  <SCORE.INTER.VDW>
-18.3241

>  <SCORE.INTER.norm>
-0.43859

>  <SCORE.INTRA>
-6.88987

>  <SCORE.INTRA.DIHEDRAL>
-14.591

>  <SCORE.INTRA.DIHEDRAL.0>
22.2484

>  <SCORE.INTRA.POLAR>
0

>  <SCORE.INTRA.POLAR.0>
0

>  <SCORE.INTRA.REPUL>
0

>  <SCORE.INTRA.REPUL.0>
0

>  <SCORE.INTRA.SOLV>
-1.32703

>  <SCORE.INTRA.SOLV.lig_0>
-75.7198

>  <SCORE.INTRA.VDW>
1.06913

>  <SCORE.INTRA.VDW.0>
-3.34171

>  <SCORE.INTRA.norm>
-0.222254

>  <SCORE.RESTR>
0.00151688

>  <SCORE.RESTR.CAVITY>
0.00151688

>  <SCORE.RESTR.norm>
4.89315e-05

>  <SCORE.SYSTEM>
0

>  <SCORE.SYSTEM.CONST>
0

>  <SCORE.SYSTEM.DIHEDRAL>
0

>  <SCORE.SYSTEM.SOLV>
0

>  <SCORE.SYSTEM.norm>
0

>  <SCORE.heavy>
31

>  <SCORE.norm>
-0.660795

>  <RMSD>
6.789

$$$$
2et3_lig
 OpenBabel11021811423D
libRbt.so/2013.1/901 2013/11/27
 31 33  0  0  0  0  0  0  0  0999 V2000
   -0.8754   -6.2132   33.3605 C   0  0  2  0  0  0  0  0  0  0  0  0
   -1.0324   -7.0419   34.5415 O   0  0  0  0  0  0  0  0  0  0  0  0
   -2.9343  -10.8533   34.9445 C   0  0  2  0  0  0  0  0  0  0  0  0
   -3.9654  -11.8445   34.9402 N   0  0  0  0  0  0  0  0  0  0  0  0
   -2.5628  -11.1437   31.1611 C   0  0  2  0  0  0  0  0  0  0  0  0
    0.1656   -5.1210   33.6284 C   0  0  2  0  0  0  0  0  0  0  0  0
    1.3877   -5.7450   34.0323 N   0  0  0  0  0  0  0  0  0  0  0  0
   -3.2875   -9.7371   35.9796 C   0  0  0  0  0  0  0  0  0  0  0  0
   -2.8362  -12.5580   30.6037 C   0  0  2  0  0  0  0  0  0  0  0  0
   -4.0299  -13.0499   31.1707 O   0  0  0  0  0  0  0  0  0  0  0  0
   -0.3618   -4.1164   34.7091 C   0  0  0  0  0  0  0  0  0  0  0  0
   -2.1629   -8.6379   35.9849 C   0  0  2  0  0  0  0  0  0  0  0  0
   -2.4912   -7.5838   36.9580 N   0  0  0  0  0  0  0  0  0  0  0  0
   -1.5938  -13.4721   30.9614 C   0  0  1  0  0  0  0  0  0  0  0  0
   -1.7983  -14.8826   30.4951 N   0  0  0  0  0  0  0  0  0  0  0  0
   -1.6747   -3.4692   34.1668 C   0  0  0  0  0  0  0  0  0  0  0  0
   -2.0117   -8.0310   34.5374 C   0  0  2  0  0  0  0  0  0  0  0  0
   -0.2433  -12.8628   30.3068 C   0  0  1  0  0  0  0  0  0  0  0  0
   -0.3220  -12.8373   28.8966 O   0  0  0  0  0  0  0  0  0  0  0  0
   -2.7261   -4.6273   33.8700 C   0  0  2  0  0  0  0  0  0  0  0  0
   -2.1916   -5.6421   32.9634 O   0  0  0  0  0  0  0  0  0  0  0  0
   -1.6580   -9.1807   33.5171 C   0  0  2  0  0  0  0  0  0  0  0  0
   -1.5131   -8.6531   32.2024 O   0  0  0  0  0  0  0  0  0  0  0  0
   -0.0569  -11.3936   30.7970 C   0  0  0  0  0  0  0  0  0  0  0  0
   -1.3082  -10.5970   30.5680 O   0  0  0  0  0  0  0  0  0  0  0  0
   -4.0574   -4.1357   33.3526 C   0  0  0  0  0  0  0  0  0  0  0  0
   -4.9929   -5.2147   33.1725 N   0  0  0  0  0  0  0  0  0  0  0  0
   -2.7895  -10.2677   33.5272 C   0  0  1  0  0  0  0  0  0  0  0  0
   -2.4490  -11.2979   32.6073 O   0  0  0  0  0  0  0  0  0  0  0  0
    1.0609  -13.6269   30.5730 C   0  0  0  0  0  0  0  0  0  0  0  0
   -2.2142  -15.8698   31.5054 C   0  0  0  0  0  0  0  0  0  0  0  0
  1  2  1  1  0  0  0
  1  6  1  0  0  0  0
  1 21  1  0  0  0  0
  3  4  1  6  0  0  0
  3  8  1  0  0  0  0
  3 28  1  0  0  0  0
  5  9  1  0  0  0  0
  5 25  1  0  0  0  0
  5 29  1  1  0  0  0
  6  7  1  1  0  0  0
  6 11  1  0  0  0  0
  8 12  1  0  0  0  0
  9 10  1  1  0  0  0
  9 14  1  0  0  0  0
 11 16  1  0  0  0  0
 12 13  1  1  0  0  0
 12 17  1  0  0  0  0
 14 15  1  6  0  0  0
 14 18  1  0  0  0  0
 15 31  1  0  0  0  0
 16 20  1  0  0  0  0
 17  2  1  1  0  0  0
 17 22  1  0  0  0  0
 18 19  1  6  0  0  0
 18 24  1  0  0  0  0
 18 30  1  0  0  0  0
 20 21  1  0  0  0  0
 20 26  1  6  0  0  0
 22 23  1  6  0  0  0
 22 28  1  0  0  0  0
 24 25  1  0  0  0  0
 26 27  1  0  0  0  0
 28 29  1  6  0  0  0
M  END
>  <CHROM.1>
175.06103918,-150.93427922,-100.69192759,-170.70462673,-176.75909687,164.37933772
-1.85283545,-9.37704718,32.86463625,-1.61377674,-0.78137247,-2.77621327

>  <Name>
2et3_lig

>  <RI>
0

>  <Rbt.Current_Directory>
/home/itssahil/PROJECTS/Mol_Feturizer/New_Systems/rnas/2et3

>  <Rbt.Executable>
rbdock ($Id: //depot/dev/client3/rdock/2013.1/src/exe/rbdock.cxx#4 $)

>  <Rbt.Library>
libRbt.so (2013.1, Build901 2013/11/27)

>  <Rbt.Parameter_File>
/export/apps/rDock/src/rDock_2013.1_src/data/scripts/dock_solv.prm

>  <Rbt.Receptor>
prm/pocket_docking_6.prm

>  <SCORE>
-20.2027

>  <SCORE.INTER>
-10.9729

>  <SCORE.INTER.CONST>
1

>  <SCORE.INTER.POLAR>
-1.84801

>  <SCORE.INTER.ROT>
6

>  <SCORE.INTER.SOLV>
15.5605

>  <SCORE.INTER.VDW>
-13.942

>  <SCORE.INTER.norm>
-0.353963

>  <SCORE.INTRA>
-9.22987

>  <SCORE.INTRA.DIHEDRAL>
-16.0249

>  <SCORE.INTRA.DIHEDRAL.0>
22.2484

>  <SCORE.INTRA.POLAR>
0

>  <SCORE.INTRA.POLAR.0>
0

>  <SCORE.INTRA.REPUL>
0

>  <SCORE.INTRA.REPUL.0>
0

>  <SCORE.INTRA.SOLV>
-3.4613

>  <SCORE.INTRA.SOLV.lig_0>
-75.7198

>  <SCORE.INTRA.VDW>
0.51324

>  <SCORE.INTRA.VDW.0>
-3.34171

>  <SCORE.INTRA.norm>
-0.297738

>  <SCORE.RESTR>
0

>  <SCORE.RESTR.CAVITY>
0

>  <SCORE.RESTR.norm>
0

>  <SCORE.SYSTEM>
0

>  <SCORE.SYSTEM.CONST>
0

>  <SCORE.SYSTEM.DIHEDRAL>
0

>  <SCORE.SYSTEM.SOLV>
0

>  <SCORE.SYSTEM.norm>
0

>  <SCORE.heavy>
31

>  <SCORE.norm>
-0.651701

>  <RMSD>
6.795

$$$$
2et3_lig
 OpenBabel11021811423D
libRbt.so/2013.1/901 2013/11/27
 31 33  0  0  0  0  0  0  0  0999 V2000
   -4.9210   -9.9735   30.8933 C   0  0  2  0  0  0  0  0  0  0  0  0
   -3.9363   -9.3064   31.7247 O   0  0  0  0  0  0  0  0  0  0  0  0
   -0.0486   -7.8339   30.7127 C   0  0  2  0  0  0  0  0  0  0  0  0
    0.9676   -7.0754   30.0511 N   0  0  0  0  0  0  0  0  0  0  0  0
    0.3496   -4.8331   32.0375 C   0  0  2  0  0  0  0  0  0  0  0  0
   -6.3277   -9.7028   31.4375 C   0  0  2  0  0  0  0  0  0  0  0  0
   -6.5269   -8.2878   31.5029 N   0  0  0  0  0  0  0  0  0  0  0  0
   -0.7965   -8.7257   29.6699 C   0  0  0  0  0  0  0  0  0  0  0  0
    0.9227   -4.2904   33.3651 C   0  0  2  0  0  0  0  0  0  0  0  0
    1.8206   -5.2388   33.8969 O   0  0  0  0  0  0  0  0  0  0  0  0
   -6.5130  -10.3836   32.8366 C   0  0  0  0  0  0  0  0  0  0  0  0
   -1.9221   -9.5572   30.3873 C   0  0  2  0  0  0  0  0  0  0  0  0
   -2.6299  -10.3987   29.4093 N   0  0  0  0  0  0  0  0  0  0  0  0
   -0.2907   -4.0144   34.3440 C   0  0  1  0  0  0  0  0  0  0  0  0
    0.1827   -3.5266   35.6807 N   0  0  0  0  0  0  0  0  0  0  0  0
   -6.3060  -11.9203   32.6570 C   0  0  0  0  0  0  0  0  0  0  0  0
   -2.9255   -8.5761   31.1064 C   0  0  2  0  0  0  0  0  0  0  0  0
   -1.3049   -2.9350   33.6882 C   0  0  1  0  0  0  0  0  0  0  0  0
   -0.6694   -1.6897   33.4858 O   0  0  0  0  0  0  0  0  0  0  0  0
   -4.8498  -12.1700   32.0638 C   0  0  2  0  0  0  0  0  0  0  0  0
   -4.6223  -11.4303   30.8235 O   0  0  0  0  0  0  0  0  0  0  0  0
   -2.1415   -7.6897   32.1491 C   0  0  2  0  0  0  0  0  0  0  0  0
   -3.0308   -6.7977   32.8134 O   0  0  0  0  0  0  0  0  0  0  0  0
   -1.7756   -3.4579   32.2959 C   0  0  0  0  0  0  0  0  0  0  0  0
   -0.5973   -3.8420   31.4493 O   0  0  0  0  0  0  0  0  0  0  0  0
   -4.5088  -13.6267   31.8553 C   0  0  0  0  0  0  0  0  0  0  0  0
   -3.1552  -13.7991   31.3973 N   0  0  0  0  0  0  0  0  0  0  0  0
   -1.0226   -6.8697   31.4157 C   0  0  1  0  0  0  0  0  0  0  0  0
   -0.3233   -6.0834   32.3728 O   0  0  0  0  0  0  0  0  0  0  0  0
   -2.5488   -2.5665   34.5083 C   0  0  0  0  0  0  0  0  0  0  0  0
    0.3942   -4.5396   36.7283 C   0  0  0  0  0  0  0  0  0  0  0  0
  1  2  1  1  0  0  0
  1  6  1  0  0  0  0
  1 21  1  0  0  0  0
  3  4  1  6  0  0  0
  3  8  1  0  0  0  0
  3 28  1  0  0  0  0
  5  9  1  0  0  0  0
  5 25  1  0  0  0  0
  5 29  1  1  0  0  0
  6  7  1  1  0  0  0
  6 11  1  0  0  0  0
  8 12  1  0  0  0  0
  9 10  1  1  0  0  0
  9 14  1  0  0  0  0
 11 16  1  0  0  0  0
 12 13  1  6  0  0  0
 12 17  1  0  0  0  0
 14 15  1  1  0  0  0
 14 18  1  0  0  0  0
 15 31  1  0  0  0  0
 16 20  1  0  0  0  0
 17  2  1  1  0  0  0
 17 22  1  0  0  0  0
 18 19  1  6  0  0  0
 18 24  1  0  0  0  0
 18 30  1  0  0  0  0
 20 21  1  0  0  0  0
 20 26  1  6  0  0  0
 22 23  1  6  0  0  0
 22 28  1  0  0  0  0
 24 25  1  0  0  0  0
 26 27  1  0  0  0  0
 28 29  1  1  0  0  0
M  END
>  <CHROM.1>
-133.60033748,177.81923730,-92.98763105,-70.35539855,-176.39731131,86.58642785
-2.21055931,-7.41552759,32.24210583,2.13657607,-0.38562425,-2.61320840

>  <Name>
2et3_lig

>  <RI>
3.86414e+07

>  <Rbt.Current_Directory>
/home/itssahil/PROJECTS/Mol_Feturizer/New_Systems/rnas/2et3

>  <Rbt.Executable>
rbdock ($Id: //depot/dev/client3/rdock/2013.1/src/exe/rbdock.cxx#4 $)

>  <Rbt.Library>
libRbt.so (2013.1, Build901 2013/11/27)

>  <Rbt.Parameter_File>
/export/apps/rDock/src/rDock_2013.1_src/data/scripts/dock_solv.prm

>  <Rbt.Receptor>
prm/pocket_docking_8.prm

>  <SCORE>
-14.7607

>  <SCORE.INTER>
-9.05707

>  <SCORE.INTER.CONST>
1

>  <SCORE.INTER.POLAR>
-1.77664

>  <SCORE.INTER.ROT>
6

>  <SCORE.INTER.SOLV>
7.34504

>  <SCORE.INTER.VDW>
-10.1643

>  <SCORE.INTER.norm>
-0.292164

>  <SCORE.INTRA>
-5.70361

>  <SCORE.INTRA.DIHEDRAL>
-11.5855

>  <SCORE.INTRA.DIHEDRAL.0>
22.2484

>  <SCORE.INTRA.POLAR>
0

>  <SCORE.INTRA.POLAR.0>
0

>  <SCORE.INTRA.REPUL>
0

>  <SCORE.INTRA.REPUL.0>
0

>  <SCORE.INTRA.SOLV>
0.0527971

>  <SCORE.INTRA.SOLV.lig_0>
-75.7198

>  <SCORE.INTRA.VDW>
0.0627612

>  <SCORE.INTRA.VDW.0>
-3.34171

>  <SCORE.INTRA.norm>
-0.183988

>  <SCORE.RESTR>
0

>  <SCORE.RESTR.CAVITY>
0

>  <SCORE.RESTR.norm>
0

>  <SCORE.SYSTEM>
0

>  <SCORE.SYSTEM.CONST>
0

>  <SCORE.SYSTEM.DIHEDRAL>
0

>  <SCORE.SYSTEM.SOLV>
0

>  <SCORE.SYSTEM.norm>
0

>  <SCORE.heavy>
31

>  <SCORE.norm>
-0.476151

>  <RMSD>
6.816

$$$$
2et3_lig
 OpenBabel11021811423D
libRbt.so/2013.1/901 2013/11/27
 31 33  0  0  0  0  0  0  0  0999 V2000
   -0.9471  -16.5301   31.9243 C   0  0  2  0  0  0  0  0  0  0  0  0
   -0.0271  -15.4099   31.8550 O   0  0  0  0  0  0  0  0  0  0  0  0
   -0.7507  -11.1994   31.6206 C   0  0  2  0  0  0  0  0  0  0  0  0
   -1.2503   -9.9497   31.1368 N   0  0  0  0  0  0  0  0  0  0  0  0
   -2.2865  -11.3297   34.3603 C   0  0  2  0  0  0  0  0  0  0  0  0
   -0.3666  -17.6223   32.8290 C   0  0  2  0  0  0  0  0  0  0  0  0
   -0.0911  -17.0530   34.1120 N   0  0  0  0  0  0  0  0  0  0  0  0
    0.1567  -11.8560   30.5308 C   0  0  0  0  0  0  0  0  0  0  0  0
   -3.5462  -10.9627   35.1752 C   0  0  2  0  0  0  0  0  0  0  0  0
   -4.4840  -12.0098   35.0633 O   0  0  0  0  0  0  0  0  0  0  0  0
    0.9159  -18.2457   32.1795 C   0  0  0  0  0  0  0  0  0  0  0  0
    0.7038  -13.2355   31.0510 C   0  0  2  0  0  0  0  0  0  0  0  0
    1.5588  -13.8583   30.0278 N   0  0  0  0  0  0  0  0  0  0  0  0
   -4.1153   -9.5991   34.6064 C   0  0  1  0  0  0  0  0  0  0  0  0
   -5.3729   -9.1916   35.3144 N   0  0  0  0  0  0  0  0  0  0  0  0
    0.5093  -18.8634   30.8047 C   0  0  0  0  0  0  0  0  0  0  0  0
   -0.5059  -14.1794   31.4146 C   0  0  2  0  0  0  0  0  0  0  0  0
   -3.0023   -8.4296   34.7375 C   0  0  1  0  0  0  0  0  0  0  0  0
   -2.6697   -8.1860   36.0887 O   0  0  0  0  0  0  0  0  0  0  0  0
   -0.1166  -17.7144   29.8977 C   0  0  2  0  0  0  0  0  0  0  0  0
   -1.2334  -17.0366   30.5540 O   0  0  0  0  0  0  0  0  0  0  0  0
   -1.4026  -13.4891   32.5133 C   0  0  2  0  0  0  0  0  0  0  0  0
   -2.5005  -14.3273   32.8594 O   0  0  0  0  0  0  0  0  0  0  0  0
   -1.7012   -8.8792   34.0036 C   0  0  0  0  0  0  0  0  0  0  0  0
   -1.2739  -10.2400   34.4709 O   0  0  0  0  0  0  0  0  0  0  0  0
   -0.5400  -18.1743   28.5225 C   0  0  0  0  0  0  0  0  0  0  0  0
    0.5887  -18.5561   27.7150 N   0  0  0  0  0  0  0  0  0  0  0  0
   -1.9372  -12.1146   31.9773 C   0  0  1  0  0  0  0  0  0  0  0  0
   -2.7366  -11.5053   32.9838 O   0  0  0  0  0  0  0  0  0  0  0  0
   -3.3927   -7.0404   34.2150 C   0  0  0  0  0  0  0  0  0  0  0  0
   -6.6483   -9.6268   34.7210 C   0  0  0  0  0  0  0  0  0  0  0  0
  1  2  1  6  0  0  0
  1  6  1  0  0  0  0
  1 21  1  0  0  0  0
  3  4  1  6  0  0  0
  3  8  1  0  0  0  0
  3 28  1  0  0  0  0
  5  9  1  0  0  0  0
  5 25  1  0  0  0  0
  5 29  1  6  0  0  0
  6  7  1  1  0  0  0
  6 11  1  0  0  0  0
  8 12  1  0  0  0  0
  9 10  1  6  0  0  0
  9 14  1  0  0  0  0
 11 16  1  0  0  0  0
 12 13  1  6  0  0  0
 12 17  1  0  0  0  0
 14 15  1  1  0  0  0
 14 18  1  0  0  0  0
 15 31  1  0  0  0  0
 16 20  1  0  0  0  0
 17  2  1  1  0  0  0
 17 22  1  0  0  0  0
 18 19  1  1  0  0  0
 18 24  1  0  0  0  0
 18 30  1  0  0  0  0
 20 21  1  0  0  0  0
 20 26  1  6  0  0  0
 22 23  1  6  0  0  0
 22 28  1  0  0  0  0
 24 25  1  0  0  0  0
 26 27  1  0  0  0  0
 28 29  1  1  0  0  0
M  END
>  <CHROM.1>
-161.90803219,-166.52353865,-92.41189326,-164.87152460,-66.91610819,-69.35951697
-1.59525720,-13.08712531,32.58460677,0.98846901,-0.82539489,-3.12434955

>  <Name>
2et3_lig

>  <RI>
3.86414e+07

>  <Rbt.Current_Directory>
/home/itssahil/PROJECTS/Mol_Feturizer/New_Systems/rnas/2et3

>  <Rbt.Executable>
rbdock ($Id: //depot/dev/client3/rdock/2013.1/src/exe/rbdock.cxx#4 $)

>  <Rbt.Library>
libRbt.so (2013.1, Build901 2013/11/27)

>  <Rbt.Parameter_File>
/export/apps/rDock/src/rDock_2013.1_src/data/scripts/dock_solv.prm

>  <Rbt.Receptor>
prm/pocket_docking_8.prm

>  <SCORE>
-19.8568

>  <SCORE.INTER>
-10.6854

>  <SCORE.INTER.CONST>
1

>  <SCORE.INTER.POLAR>
-0.561582

>  <SCORE.INTER.ROT>
6

>  <SCORE.INTER.SOLV>
16.7243

>  <SCORE.INTER.VDW>
-18.4264

>  <SCORE.INTER.norm>
-0.344689

>  <SCORE.INTRA>
-9.17146

>  <SCORE.INTRA.DIHEDRAL>
-17.4252

>  <SCORE.INTRA.DIHEDRAL.0>
22.2484

>  <SCORE.INTRA.POLAR>
0

>  <SCORE.INTRA.POLAR.0>
0

>  <SCORE.INTRA.REPUL>
0

>  <SCORE.INTRA.REPUL.0>
0

>  <SCORE.INTRA.SOLV>
-1.43683

>  <SCORE.INTRA.SOLV.lig_0>
-75.7198

>  <SCORE.INTRA.VDW>
0.259544

>  <SCORE.INTRA.VDW.0>
-3.34171

>  <SCORE.INTRA.norm>
-0.295854

>  <SCORE.RESTR>
0

>  <SCORE.RESTR.CAVITY>
0

>  <SCORE.RESTR.norm>
0

>  <SCORE.SYSTEM>
0

>  <SCORE.SYSTEM.CONST>
0

>  <SCORE.SYSTEM.DIHEDRAL>
0

>  <SCORE.SYSTEM.SOLV>
0

>  <SCORE.SYSTEM.norm>
0

>  <SCORE.heavy>
31

>  <SCORE.norm>
-0.640543

>  <RMSD>
6.825

$$$$
2et3_lig
 OpenBabel11021811423D
libRbt.so/2013.1/901 2013/11/27
 31 33  0  0  0  0  0  0  0  0999 V2000
   -0.9972   -6.5206   32.9706 C   0  0  2  0  0  0  0  0  0  0  0  0
   -1.2641   -7.2554   34.1933 O   0  0  0  0  0  0  0  0  0  0  0  0
   -3.0878  -11.0581   34.9141 C   0  0  2  0  0  0  0  0  0  0  0  0
   -4.0500  -12.1150   34.8630 N   0  0  0  0  0  0  0  0  0  0  0  0
   -2.7537  -13.0613   32.4466 C   0  0  2  0  0  0  0  0  0  0  0  0
   -0.0714   -5.3365   33.2691 C   0  0  2  0  0  0  0  0  0  0  0  0
    1.1194   -5.8329   33.8869 N   0  0  0  0  0  0  0  0  0  0  0  0
   -3.7369   -9.7919   35.5604 C   0  0  0  0  0  0  0  0  0  0  0  0
   -1.7142  -14.1009   31.9730 C   0  0  2  0  0  0  0  0  0  0  0  0
   -0.8879  -14.4495   33.0612 O   0  0  0  0  0  0  0  0  0  0  0  0
   -0.8026   -4.2850   34.1721 C   0  0  0  0  0  0  0  0  0  0  0  0
   -2.6880   -8.6214   35.6128 C   0  0  2  0  0  0  0  0  0  0  0  0
   -3.2947   -7.4261   36.2202 N   0  0  0  0  0  0  0  0  0  0  0  0
   -0.8860  -13.4575   30.7868 C   0  0  1  0  0  0  0  0  0  0  0  0
    0.1827  -14.3881   30.2961 N   0  0  0  0  0  0  0  0  0  0  0  0
   -2.0655   -3.7838   33.4036 C   0  0  0  0  0  0  0  0  0  0  0  0
   -2.1766   -8.3057   34.1549 C   0  0  2  0  0  0  0  0  0  0  0  0
   -1.8736  -13.0564   29.5673 C   0  0  1  0  0  0  0  0  0  0  0  0
   -2.5148  -14.1945   29.0296 O   0  0  0  0  0  0  0  0  0  0  0  0
   -2.9935   -5.0367   33.0813 C   0  0  2  0  0  0  0  0  0  0  0  0
   -2.2786   -6.0829   32.3521 O   0  0  0  0  0  0  0  0  0  0  0  0
   -1.5299   -9.6015   33.5300 C   0  0  2  0  0  0  0  0  0  0  0  0
   -1.0575   -9.3372   32.2130 O   0  0  0  0  0  0  0  0  0  0  0  0
   -2.9817  -12.0977   30.1026 C   0  0  0  0  0  0  0  0  0  0  0  0
   -3.6474  -12.6831   31.3138 O   0  0  0  0  0  0  0  0  0  0  0  0
   -4.2686   -4.6894   32.3496 C   0  0  0  0  0  0  0  0  0  0  0  0
   -5.0946   -5.8483   32.1343 N   0  0  0  0  0  0  0  0  0  0  0  0
   -2.5899  -10.7577   33.4878 C   0  0  1  0  0  0  0  0  0  0  0  0
   -1.9863  -11.9180   32.9285 O   0  0  0  0  0  0  0  0  0  0  0  0
   -1.2265  -12.4034   28.3383 C   0  0  0  0  0  0  0  0  0  0  0  0
    1.5772  -13.9299   30.4133 C   0  0  0  0  0  0  0  0  0  0  0  0
  1  2  1  1  0  0  0
  1  6  1  0  0  0  0
  1 21  1  0  0  0  0
  3  4  1  6  0  0  0
  3  8  1  0  0  0  0
  3 28  1  0  0  0  0
  5  9  1  0  0  0  0
  5 25  1  0  0  0  0
  5 29  1  6  0  0  0
  6  7  1  1  0  0  0
  6 11  1  0  0  0  0
  8 12  1  0  0  0  0
  9 10  1  1  0  0  0
  9 14  1  0  0  0  0
 11 16  1  0  0  0  0
 12 13  1  6  0  0  0
 12 17  1  0  0  0  0
 14 15  1  6  0  0  0
 14 18  1  0  0  0  0
 15 31  1  0  0  0  0
 16 20  1  0  0  0  0
 17  2  1  1  0  0  0
 17 22  1  0  0  0  0
 18 19  1  6  0  0  0
 18 24  1  0  0  0  0
 18 30  1  0  0  0  0
 20 21  1  0  0  0  0
 20 26  1  6  0  0  0
 22 23  1  6  0  0  0
 22 28  1  0  0  0  0
 24 25  1  0  0  0  0
 26 27  1  0  0  0  0
 28 29  1  1  0  0  0
M  END
>  <CHROM.1>
174.73260676,-178.14317045,-118.51638865,-160.35297818,-177.53908902,74.99823148
-1.97851030,-9.76204712,32.63228288,-1.71678030,-1.00188114,-2.92104520

>  <Name>
2et3_lig

>  <RI>
0

>  <Rbt.Current_Directory>
/home/itssahil/PROJECTS/Mol_Feturizer/New_Systems/rnas/2et3

>  <Rbt.Executable>
rbdock ($Id: //depot/dev/client3/rdock/2013.1/src/exe/rbdock.cxx#4 $)

>  <Rbt.Library>
libRbt.so (2013.1, Build901 2013/11/27)

>  <Rbt.Parameter_File>
/export/apps/rDock/src/rDock_2013.1_src/data/scripts/dock_solv.prm

>  <Rbt.Receptor>
prm/pocket_docking_7.prm

>  <SCORE>
-25.5527

>  <SCORE.INTER>
-15.1252

>  <SCORE.INTER.CONST>
1

>  <SCORE.INTER.POLAR>
-2.68697

>  <SCORE.INTER.ROT>
6

>  <SCORE.INTER.SOLV>
15.5633

>  <SCORE.INTER.VDW>
-13.9147

>  <SCORE.INTER.norm>
-0.48791

>  <SCORE.INTRA>
-10.4274

>  <SCORE.INTRA.DIHEDRAL>
-17.9165

>  <SCORE.INTRA.DIHEDRAL.0>
22.2484

>  <SCORE.INTRA.POLAR>
0

>  <SCORE.INTRA.POLAR.0>
0

>  <SCORE.INTRA.REPUL>
0

>  <SCORE.INTRA.REPUL.0>
0

>  <SCORE.INTRA.SOLV>
-2.4735

>  <SCORE.INTRA.SOLV.lig_0>
-75.7198

>  <SCORE.INTRA.VDW>
-0.232459

>  <SCORE.INTRA.VDW.0>
-3.34171

>  <SCORE.INTRA.norm>
-0.336369

>  <SCORE.RESTR>
0

>  <SCORE.RESTR.CAVITY>
0

>  <SCORE.RESTR.norm>
0

>  <SCORE.SYSTEM>
0

>  <SCORE.SYSTEM.CONST>
0

>  <SCORE.SYSTEM.DIHEDRAL>
0

>  <SCORE.SYSTEM.SOLV>
0

>  <SCORE.SYSTEM.norm>
0

>  <SCORE.heavy>
31

>  <SCORE.norm>
-0.824279

>  <RMSD>
6.839

$$$$
2et3_lig
 OpenBabel11021811423D
libRbt.so/2013.1/901 2013/11/27
 31 33  0  0  0  0  0  0  0  0999 V2000
   -1.6740  -12.3545   31.9216 C   0  0  2  0  0  0  0  0  0  0  0  0
   -0.5666  -11.6056   32.4864 O   0  0  0  0  0  0  0  0  0  0  0  0
   -2.5157   -7.8706   33.2330 C   0  0  2  0  0  0  0  0  0  0  0  0
   -2.7265   -6.5413   33.7169 N   0  0  0  0  0  0  0  0  0  0  0  0
   -0.5972   -6.7770   30.1041 C   0  0  2  0  0  0  0  0  0  0  0  0
   -1.2734  -13.8239   31.7528 C   0  0  2  0  0  0  0  0  0  0  0  0
   -0.8538  -14.3310   33.0228 N   0  0  0  0  0  0  0  0  0  0  0  0
   -2.2742   -8.8334   34.4400 C   0  0  0  0  0  0  0  0  0  0  0  0
   -0.6614   -5.2656   29.7925 C   0  0  2  0  0  0  0  0  0  0  0  0
   -0.3295   -4.5442   30.9578 O   0  0  0  0  0  0  0  0  0  0  0  0
   -0.1505  -13.9634   30.6688 C   0  0  0  0  0  0  0  0  0  0  0  0
   -2.0327  -10.2965   33.9166 C   0  0  2  0  0  0  0  0  0  0  0  0
   -1.8042  -11.2072   35.0498 N   0  0  0  0  0  0  0  0  0  0  0  0
   -2.1256   -4.9325   29.2905 C   0  0  1  0  0  0  0  0  0  0  0  0
   -2.2891   -3.4686   29.0088 N   0  0  0  0  0  0  0  0  0  0  0  0
   -0.7109  -13.4133   29.3196 C   0  0  0  0  0  0  0  0  0  0  0  0
   -0.7982  -10.3087   32.9355 C   0  0  2  0  0  0  0  0  0  0  0  0
   -2.4720   -5.7938   27.9632 C   0  0  1  0  0  0  0  0  0  0  0  0
   -1.6048   -5.4664   26.8972 O   0  0  0  0  0  0  0  0  0  0  0  0
   -1.1458  -11.8966   29.5319 C   0  0  2  0  0  0  0  0  0  0  0  0
   -2.0956  -11.7411   30.6323 O   0  0  0  0  0  0  0  0  0  0  0  0
   -1.0711   -9.3274   31.7312 C   0  0  2  0  0  0  0  0  0  0  0  0
    0.0313   -9.3260   30.8299 O   0  0  0  0  0  0  0  0  0  0  0  0
   -2.2852   -7.3106   28.2764 C   0  0  0  0  0  0  0  0  0  0  0  0
   -0.9355   -7.5630   28.8824 O   0  0  0  0  0  0  0  0  0  0  0  0
   -1.6938  -11.2314   28.2912 C   0  0  0  0  0  0  0  0  0  0  0  0
   -2.9450  -11.8127   27.8807 N   0  0  0  0  0  0  0  0  0  0  0  0
   -1.3113   -7.8744   32.2727 C   0  0  1  0  0  0  0  0  0  0  0  0
   -1.5624   -7.0071   31.1736 O   0  0  0  0  0  0  0  0  0  0  0  0
   -3.8674   -5.5974   27.3550 C   0  0  0  0  0  0  0  0  0  0  0  0
   -3.1184   -2.6933   29.9465 C   0  0  0  0  0  0  0  0  0  0  0  0
  1  2  1  6  0  0  0
  1  6  1  0  0  0  0
  1 21  1  0  0  0  0
  3  4  1  1  0  0  0
  3  8  1  0  0  0  0
  3 28  1  0  0  0  0
  5  9  1  0  0  0  0
  5 25  1  0  0  0  0
  5 29  1  1  0  0  0
  6  7  1  1  0  0  0
  6 11  1  0  0  0  0
  8 12  1  0  0  0  0
  9 10  1  1  0  0  0
  9 14  1  0  0  0  0
 11 16  1  0  0  0  0
 12 13  1  1  0  0  0
 12 17  1  0  0  0  0
 14 15  1  6  0  0  0
 14 18  1  0  0  0  0
 15 31  1  0  0  0  0
 16 20  1  0  0  0  0
 17  2  1  6  0  0  0
 17 22  1  0  0  0  0
 18 19  1  6  0  0  0
 18 24  1  0  0  0  0
 18 30  1  0  0  0  0
 20 21  1  0  0  0  0
 20 26  1  6  0  0  0
 22 23  1  6  0  0  0
 22 28  1  0  0  0  0
 24 25  1  0  0  0  0
 26 27  1  0  0  0  0
 28 29  1  6  0  0  0
M  END
>  <CHROM.1>
-168.88944524,-139.20184842,-108.50832662,51.56854416,66.52895957,178.82271382
-1.58697536,-8.80780027,30.71970360,-0.01441712,1.46177327,-1.88409071

>  <Name>
2et3_lig

>  <RI>
2.5794e+07

>  <Rbt.Current_Directory>
/home/itssahil/PROJECTS/Mol_Feturizer/New_Systems/rnas/2et3

>  <Rbt.Executable>
rbdock ($Id: //depot/dev/client3/rdock/2013.1/src/exe/rbdock.cxx#4 $)

>  <Rbt.Library>
libRbt.so (2013.1, Build901 2013/11/27)

>  <Rbt.Parameter_File>
/export/apps/rDock/src/rDock_2013.1_src/data/scripts/dock_solv.prm

>  <Rbt.Receptor>
prm/pocket_docking_5.prm

>  <SCORE>
-14.3969

>  <SCORE.INTER>
-6.88967

>  <SCORE.INTER.CONST>
1

>  <SCORE.INTER.POLAR>
-0.738548

>  <SCORE.INTER.ROT>
6

>  <SCORE.INTER.SOLV>
14.1328

>  <SCORE.INTER.VDW>
-14.4422

>  <SCORE.INTER.norm>
-0.222247

>  <SCORE.INTRA>
-7.50726

>  <SCORE.INTRA.DIHEDRAL>
-14.3659

>  <SCORE.INTRA.DIHEDRAL.0>
22.2484

>  <SCORE.INTRA.POLAR>
0

>  <SCORE.INTRA.POLAR.0>
0

>  <SCORE.INTRA.REPUL>
0

>  <SCORE.INTRA.REPUL.0>
0

>  <SCORE.INTRA.SOLV>
-1.29375

>  <SCORE.INTRA.SOLV.lig_0>
-75.7198

>  <SCORE.INTRA.VDW>
0.322579

>  <SCORE.INTRA.VDW.0>
-3.34171

>  <SCORE.INTRA.norm>
-0.24217

>  <SCORE.RESTR>
0

>  <SCORE.RESTR.CAVITY>
0

>  <SCORE.RESTR.norm>
0

>  <SCORE.SYSTEM>
0

>  <SCORE.SYSTEM.CONST>
0

>  <SCORE.SYSTEM.DIHEDRAL>
0

>  <SCORE.SYSTEM.SOLV>
0

>  <SCORE.SYSTEM.norm>
0

>  <SCORE.heavy>
31

>  <SCORE.norm>
-0.464417

>  <RMSD>
6.843

$$$$
2et3_lig
 OpenBabel11021811423D
libRbt.so/2013.1/901 2013/11/27
 31 33  0  0  0  0  0  0  0  0999 V2000
   -2.2037   -7.4147   35.2941 C   0  0  2  0  0  0  0  0  0  0  0  0
   -3.0593   -7.0844   34.1693 O   0  0  0  0  0  0  0  0  0  0  0  0
   -2.9215   -8.8455   30.2724 C   0  0  2  0  0  0  0  0  0  0  0  0
   -2.4577   -9.1498   28.9541 N   0  0  0  0  0  0  0  0  0  0  0  0
   -0.7248  -11.4056   32.0833 C   0  0  2  0  0  0  0  0  0  0  0  0
   -2.8699   -6.9694   36.6003 C   0  0  2  0  0  0  0  0  0  0  0  0
   -4.1589   -7.5835   36.6873 N   0  0  0  0  0  0  0  0  0  0  0  0
   -3.2142   -7.3144   30.3824 C   0  0  0  0  0  0  0  0  0  0  0  0
   -0.2592  -12.6503   31.2961 C   0  0  2  0  0  0  0  0  0  0  0  0
    0.4018  -12.2289   30.1240 O   0  0  0  0  0  0  0  0  0  0  0  0
   -2.9627   -5.4064   36.6616 C   0  0  0  0  0  0  0  0  0  0  0  0
   -3.7167   -6.9691   31.8320 C   0  0  2  0  0  0  0  0  0  0  0  0
   -3.9934   -5.5278   31.9410 N   0  0  0  0  0  0  0  0  0  0  0  0
   -1.5365  -13.5269   30.9692 C   0  0  1  0  0  0  0  0  0  0  0  0
   -1.1783  -14.7384   30.1611 N   0  0  0  0  0  0  0  0  0  0  0  0
   -1.5124   -4.8335   36.5896 C   0  0  0  0  0  0  0  0  0  0  0  0
   -2.6288   -7.4079   32.8859 C   0  0  2  0  0  0  0  0  0  0  0  0
   -2.2746  -13.9741   32.3400 C   0  0  1  0  0  0  0  0  0  0  0  0
   -1.4335  -14.7829   33.1361 O   0  0  0  0  0  0  0  0  0  0  0  0
   -0.8353   -5.3353   35.2389 C   0  0  2  0  0  0  0  0  0  0  0  0
   -0.8641   -6.7915   35.1122 O   0  0  0  0  0  0  0  0  0  0  0  0
   -2.3542   -8.9549   32.7484 C   0  0  2  0  0  0  0  0  0  0  0  0
   -1.3760   -9.3735   33.6949 O   0  0  0  0  0  0  0  0  0  0  0  0
   -2.6281  -12.7001   33.1679 C   0  0  0  0  0  0  0  0  0  0  0  0
   -1.4196  -11.8257   33.3345 O   0  0  0  0  0  0  0  0  0  0  0  0
    0.5753   -4.8360   35.0322 C   0  0  0  0  0  0  0  0  0  0  0  0
    1.0901   -5.2067   33.7401 N   0  0  0  0  0  0  0  0  0  0  0  0
   -1.8560   -9.2800   31.2965 C   0  0  1  0  0  0  0  0  0  0  0  0
   -1.6211  -10.6789   31.1907 O   0  0  0  0  0  0  0  0  0  0  0  0
   -3.5460  -14.8219   32.1970 C   0  0  0  0  0  0  0  0  0  0  0  0
   -0.0927  -15.5905   30.6745 C   0  0  0  0  0  0  0  0  0  0  0  0
  1  2  1  6  0  0  0
  1  6  1  0  0  0  0
  1 21  1  0  0  0  0
  3  4  1  6  0  0  0
  3  8  1  0  0  0  0
  3 28  1  0  0  0  0
  5  9  1  0  0  0  0
  5 25  1  0  0  0  0
  5 29  1  6  0  0  0
  6  7  1  6  0  0  0
  6 11  1  0  0  0  0
  8 12  1  0  0  0  0
  9 10  1  6  0  0  0
  9 14  1  0  0  0  0
 11 16  1  0  0  0  0
 12 13  1  6  0  0  0
 12 17  1  0  0  0  0
 14 15  1  1  0  0  0
 14 18  1  0  0  0  0
 15 31  1  0  0  0  0
 16 20  1  0  0  0  0
 17  2  1  1  0  0  0
 17 22  1  0  0  0  0
 18 19  1  1  0  0  0
 18 24  1  0  0  0  0
 18 30  1  0  0  0  0
 20 21  1  0  0  0  0
 20 26  1  1  0  0  0
 22 23  1  1  0  0  0
 22 28  1  0  0  0  0
 24 25  1  0  0  0  0
 26 27  1  0  0  0  0
 28 29  1  1  0  0  0
M  END
>  <CHROM.1>
179.91016248,-155.00771535,51.73537096,179.54667573,-174.19855807,-176.10770291
-1.83715286,-9.50600299,32.89828821,-2.47404246,1.49022692,-1.80245794

>  <Name>
2et3_lig

>  <RI>
0

>  <Rbt.Current_Directory>
/home/itssahil/PROJECTS/Mol_Feturizer/New_Systems/rnas/2et3

>  <Rbt.Executable>
rbdock ($Id: //depot/dev/client3/rdock/2013.1/src/exe/rbdock.cxx#4 $)

>  <Rbt.Library>
libRbt.so (2013.1, Build901 2013/11/27)

>  <Rbt.Parameter_File>
/export/apps/rDock/src/rDock_2013.1_src/data/scripts/dock_solv.prm

>  <Rbt.Receptor>
prm/pocket_docking_6.prm

>  <SCORE>
-18.9756

>  <SCORE.INTER>
-11.286

>  <SCORE.INTER.CONST>
1

>  <SCORE.INTER.POLAR>
-2.42492

>  <SCORE.INTER.ROT>
6

>  <SCORE.INTER.SOLV>
11.0408

>  <SCORE.INTER.VDW>
-10.7212

>  <SCORE.INTER.norm>
-0.364064

>  <SCORE.INTRA>
-7.68959

>  <SCORE.INTRA.DIHEDRAL>
-19.1537

>  <SCORE.INTRA.DIHEDRAL.0>
22.2484

>  <SCORE.INTRA.POLAR>
0

>  <SCORE.INTRA.POLAR.0>
0

>  <SCORE.INTRA.REPUL>
0

>  <SCORE.INTRA.REPUL.0>
0

>  <SCORE.INTRA.SOLV>
-3.84767

>  <SCORE.INTRA.SOLV.lig_0>
-75.7198

>  <SCORE.INTRA.VDW>
3.81109

>  <SCORE.INTRA.VDW.0>
-3.34171

>  <SCORE.INTRA.norm>
-0.248051

>  <SCORE.RESTR>
0

>  <SCORE.RESTR.CAVITY>
0

>  <SCORE.RESTR.norm>
0

>  <SCORE.SYSTEM>
0

>  <SCORE.SYSTEM.CONST>
0

>  <SCORE.SYSTEM.DIHEDRAL>
0

>  <SCORE.SYSTEM.SOLV>
0

>  <SCORE.SYSTEM.norm>
0

>  <SCORE.heavy>
31

>  <SCORE.norm>
-0.612115

>  <RMSD>
6.885

$$$$
2et3_lig
 OpenBabel11021811423D
libRbt.so/2013.1/901 2013/11/27
 31 33  0  0  0  0  0  0  0  0999 V2000
   -2.2129  -11.2246   33.2186 C   0  0  2  0  0  0  0  0  0  0  0  0
   -2.8101  -10.7753   31.9746 O   0  0  0  0  0  0  0  0  0  0  0  0
    0.2860   -8.1957   30.5372 C   0  0  2  0  0  0  0  0  0  0  0  0
    1.0432   -7.3822   29.6370 N   0  0  0  0  0  0  0  0  0  0  0  0
   -0.4767   -5.1734   30.4423 C   0  0  2  0  0  0  0  0  0  0  0  0
   -3.1761  -12.1701   33.9442 C   0  0  2  0  0  0  0  0  0  0  0  0
   -3.5026  -13.2508   33.0657 N   0  0  0  0  0  0  0  0  0  0  0  0
    0.2353   -9.6619   29.9989 C   0  0  0  0  0  0  0  0  0  0  0  0
   -0.5821   -3.9394   31.3653 C   0  0  2  0  0  0  0  0  0  0  0  0
    0.1280   -4.1973   32.5560 O   0  0  0  0  0  0  0  0  0  0  0  0
   -4.4535  -11.3939   34.4144 C   0  0  0  0  0  0  0  0  0  0  0  0
   -0.6032  -10.5622   30.9785 C   0  0  2  0  0  0  0  0  0  0  0  0
   -0.6543  -11.9443   30.4756 N   0  0  0  0  0  0  0  0  0  0  0  0
   -2.1169   -3.6666   31.6421 C   0  0  1  0  0  0  0  0  0  0  0  0
   -2.3087   -2.5068   32.5733 N   0  0  0  0  0  0  0  0  0  0  0  0
   -3.9990  -10.2599   35.3861 C   0  0  0  0  0  0  0  0  0  0  0  0
   -2.0570   -9.9696   31.1255 C   0  0  2  0  0  0  0  0  0  0  0  0
   -2.8973   -3.3933   30.2492 C   0  0  1  0  0  0  0  0  0  0  0  0
   -2.4018   -2.2404   29.6004 O   0  0  0  0  0  0  0  0  0  0  0  0
   -2.9781   -9.3113   34.6162 C   0  0  2  0  0  0  0  0  0  0  0  0
   -1.8472  -10.0510   34.0583 O   0  0  0  0  0  0  0  0  0  0  0  0
   -1.9722   -8.4909   31.6676 C   0  0  2  0  0  0  0  0  0  0  0  0
   -3.2762   -7.9372   31.8115 O   0  0  0  0  0  0  0  0  0  0  0  0
   -2.6753   -4.6063   29.2938 C   0  0  0  0  0  0  0  0  0  0  0  0
   -1.2131   -4.9212   29.1699 O   0  0  0  0  0  0  0  0  0  0  0  0
   -2.4690   -8.1526   35.4409 C   0  0  0  0  0  0  0  0  0  0  0  0
   -1.2460   -7.6127   34.9075 N   0  0  0  0  0  0  0  0  0  0  0  0
   -1.1312   -7.6091   30.6790 C   0  0  1  0  0  0  0  0  0  0  0  0
   -1.0604   -6.2829   31.1884 O   0  0  0  0  0  0  0  0  0  0  0  0
   -4.4055   -3.1245   30.3417 C   0  0  0  0  0  0  0  0  0  0  0  0
   -2.4014   -2.8090   34.0114 C   0  0  0  0  0  0  0  0  0  0  0  0
  1  2  1  6  0  0  0
  1  6  1  0  0  0  0
  1 21  1  0  0  0  0
  3  4  1  6  0  0  0
  3  8  1  0  0  0  0
  3 28  1  0  0  0  0
  5  9  1  0  0  0  0
  5 25  1  0  0  0  0
  5 29  1  1  0  0  0
  6  7  1  6  0  0  0
  6 11  1  0  0  0  0
  8 12  1  0  0  0  0
  9 10  1  1  0  0  0
  9 14  1  0  0  0  0
 11 16  1  0  0  0  0
 12 13  1  6  0  0  0
 12 17  1  0  0  0  0
 14 15  1  1  0  0  0
 14 18  1  0  0  0  0
 15 31  1  0  0  0  0
 16 20  1  0  0  0  0
 17  2  1  1  0  0  0
 17 22  1  0  0  0  0
 18 19  1  6  0  0  0
 18 24  1  0  0  0  0
 18 30  1  0  0  0  0
 20 21  1  0  0  0  0
 20 26  1  1  0  0  0
 22 23  1  6  0  0  0
 22 28  1  0  0  0  0
 24 25  1  0  0  0  0
 26 27  1  0  0  0  0
 28 29  1  1  0  0  0
M  END
>  <CHROM.1>
-176.12584710,-178.97860164,-92.05221289,45.58174325,159.89161285,66.62885073
-1.91846266,-7.46245323,31.94430842,1.73578194,-1.02686888,2.98792540

>  <Name>
2et3_lig

>  <RI>
2.5794e+07

>  <Rbt.Current_Directory>
/home/itssahil/PROJECTS/Mol_Feturizer/New_Systems/rnas/2et3

>  <Rbt.Executable>
rbdock ($Id: //depot/dev/client3/rdock/2013.1/src/exe/rbdock.cxx#4 $)

>  <Rbt.Library>
libRbt.so (2013.1, Build901 2013/11/27)

>  <Rbt.Parameter_File>
/export/apps/rDock/src/rDock_2013.1_src/data/scripts/dock_solv.prm

>  <Rbt.Receptor>
prm/pocket_docking_5.prm

>  <SCORE>
-20.5188

>  <SCORE.INTER>
-12.0211

>  <SCORE.INTER.CONST>
1

>  <SCORE.INTER.POLAR>
-1.22464

>  <SCORE.INTER.ROT>
6

>  <SCORE.INTER.SOLV>
11.0027

>  <SCORE.INTER.VDW>
-15.1995

>  <SCORE.INTER.norm>
-0.387778

>  <SCORE.INTRA>
-8.49764

>  <SCORE.INTRA.DIHEDRAL>
-18.9128

>  <SCORE.INTRA.DIHEDRAL.0>
22.2484

>  <SCORE.INTRA.POLAR>
0

>  <SCORE.INTRA.POLAR.0>
0

>  <SCORE.INTRA.REPUL>
0.0160975

>  <SCORE.INTRA.REPUL.0>
0

>  <SCORE.INTRA.SOLV>
0.840295

>  <SCORE.INTRA.SOLV.lig_0>
-75.7198

>  <SCORE.INTRA.VDW>
0.458107

>  <SCORE.INTRA.VDW.0>
-3.34171

>  <SCORE.INTRA.norm>
-0.274118

>  <SCORE.RESTR>
0

>  <SCORE.RESTR.CAVITY>
0

>  <SCORE.RESTR.norm>
0

>  <SCORE.SYSTEM>
0

>  <SCORE.SYSTEM.CONST>
0

>  <SCORE.SYSTEM.DIHEDRAL>
0

>  <SCORE.SYSTEM.SOLV>
0

>  <SCORE.SYSTEM.norm>
0

>  <SCORE.heavy>
31

>  <SCORE.norm>
-0.661895

>  <RMSD>
6.930

$$$$
2et3_lig
 OpenBabel11021811423D
libRbt.so/2013.1/901 2013/11/27
 31 33  0  0  0  0  0  0  0  0999 V2000
   -4.7148   -9.4694   32.7318 C   0  0  2  0  0  0  0  0  0  0  0  0
   -3.5091  -10.0207   32.1415 O   0  0  0  0  0  0  0  0  0  0  0  0
    0.0290   -8.0599   30.7475 C   0  0  2  0  0  0  0  0  0  0  0  0
    0.8654   -7.1849   29.9856 N   0  0  0  0  0  0  0  0  0  0  0  0
    0.2631   -5.0675   31.9757 C   0  0  2  0  0  0  0  0  0  0  0  0
   -5.2924  -10.4585   33.7499 C   0  0  2  0  0  0  0  0  0  0  0  0
   -4.2853  -10.7524   34.7223 N   0  0  0  0  0  0  0  0  0  0  0  0
   -0.6872   -9.0641   29.7879 C   0  0  0  0  0  0  0  0  0  0  0  0
    0.8406   -4.4025   33.2446 C   0  0  2  0  0  0  0  0  0  0  0  0
    1.8109   -5.2572   33.8072 O   0  0  0  0  0  0  0  0  0  0  0  0
   -5.8012  -11.7523   33.0271 C   0  0  0  0  0  0  0  0  0  0  0  0
   -1.6163  -10.0250   30.6165 C   0  0  2  0  0  0  0  0  0  0  0  0
   -2.2936  -10.9726   29.7171 N   0  0  0  0  0  0  0  0  0  0  0  0
   -0.3581   -4.1340   34.2435 C   0  0  1  0  0  0  0  0  0  0  0  0
    0.1236   -3.5292   35.5284 N   0  0  0  0  0  0  0  0  0  0  0  0
   -6.9116  -11.3338   32.0128 C   0  0  0  0  0  0  0  0  0  0  0  0
   -2.6702   -9.1736   31.4233 C   0  0  2  0  0  0  0  0  0  0  0  0
   -1.4563   -3.1643   33.5526 C   0  0  1  0  0  0  0  0  0  0  0  0
   -0.9056   -1.8998   33.2473 O   0  0  0  0  0  0  0  0  0  0  0  0
   -6.2924  -10.2855   30.9870 C   0  0  2  0  0  0  0  0  0  0  0  0
   -5.6955   -9.1349   31.6629 O   0  0  0  0  0  0  0  0  0  0  0  0
   -1.9176   -8.1700   32.3794 C   0  0  2  0  0  0  0  0  0  0  0  0
   -2.8520   -7.3927   33.1212 O   0  0  0  0  0  0  0  0  0  0  0  0
   -1.9348   -3.8077   32.2145 C   0  0  0  0  0  0  0  0  0  0  0  0
   -0.7605   -4.1771   31.3558 O   0  0  0  0  0  0  0  0  0  0  0  0
   -7.2617   -9.8071   29.9317 C   0  0  0  0  0  0  0  0  0  0  0  0
   -6.6182   -8.9682   28.9550 N   0  0  0  0  0  0  0  0  0  0  0  0
   -0.9951   -7.2217   31.5356 C   0  0  1  0  0  0  0  0  0  0  0  0
   -0.3207   -6.3302   32.4152 O   0  0  0  0  0  0  0  0  0  0  0  0
   -2.6958   -2.8161   34.3882 C   0  0  0  0  0  0  0  0  0  0  0  0
    0.4751   -4.4569   36.6166 C   0  0  0  0  0  0  0  0  0  0  0  0
  1  2  1  6  0  0  0
  1  6  1  0  0  0  0
  1 21  1  0  0  0  0
  3  4  1  6  0  0  0
  3  8  1  0  0  0  0
  3 28  1  0  0  0  0
  5  9  1  0  0  0  0
  5 25  1  0  0  0  0
  5 29  1  1  0  0  0
  6  7  1  1  0  0  0
  6 11  1  0  0  0  0
  8 12  1  0  0  0  0
  9 10  1  1  0  0  0
  9 14  1  0  0  0  0
 11 16  1  0  0  0  0
 12 13  1  6  0  0  0
 12 17  1  0  0  0  0
 14 15  1  1  0  0  0
 14 18  1  0  0  0  0
 15 31  1  0  0  0  0
 16 20  1  0  0  0  0
 17  2  1  1  0  0  0
 17 22  1  0  0  0  0
 18 19  1  6  0  0  0
 18 24  1  0  0  0  0
 18 30  1  0  0  0  0
 20 21  1  0  0  0  0
 20 26  1  6  0  0  0
 22 23  1  6  0  0  0
 22 28  1  0  0  0  0
 24 25  1  0  0  0  0
 26 27  1  0  0  0  0
 28 29  1  1  0  0  0
M  END
>  <CHROM.1>
-165.81356883,177.97755034,-90.82765142,-167.52116344,-174.21487683,80.05714417
-2.35542982,-7.32048174,32.33724442,2.31794984,-0.45447845,-2.43001803

>  <Name>
2et3_lig

>  <RI>
0

>  <Rbt.Current_Directory>
/home/itssahil/PROJECTS/Mol_Feturizer/New_Systems/rnas/2et3

>  <Rbt.Executable>
rbdock ($Id: //depot/dev/client3/rdock/2013.1/src/exe/rbdock.cxx#4 $)

>  <Rbt.Library>
libRbt.so (2013.1, Build901 2013/11/27)

>  <Rbt.Parameter_File>
/export/apps/rDock/src/rDock_2013.1_src/data/scripts/dock_solv.prm

>  <Rbt.Receptor>
prm/pocket_docking_6.prm

>  <SCORE>
-19.578

>  <SCORE.INTER>
-9.38419

>  <SCORE.INTER.CONST>
1

>  <SCORE.INTER.POLAR>
-1.61324

>  <SCORE.INTER.ROT>
6

>  <SCORE.INTER.SOLV>
8.70938

>  <SCORE.INTER.VDW>
-11.3818

>  <SCORE.INTER.norm>
-0.302716

>  <SCORE.INTRA>
-10.194

>  <SCORE.INTRA.DIHEDRAL>
-17.8222

>  <SCORE.INTRA.DIHEDRAL.0>
22.2484

>  <SCORE.INTRA.POLAR>
0

>  <SCORE.INTRA.POLAR.0>
0

>  <SCORE.INTRA.REPUL>
0

>  <SCORE.INTRA.REPUL.0>
0

>  <SCORE.INTRA.SOLV>
-2.64538

>  <SCORE.INTRA.SOLV.lig_0>
-75.7198

>  <SCORE.INTRA.VDW>
0.0397586

>  <SCORE.INTRA.VDW.0>
-3.34171

>  <SCORE.INTRA.norm>
-0.328839

>  <SCORE.RESTR>
0.000196282

>  <SCORE.RESTR.CAVITY>
0.000196282

>  <SCORE.RESTR.norm>
6.33169e-06

>  <SCORE.SYSTEM>
0

>  <SCORE.SYSTEM.CONST>
0

>  <SCORE.SYSTEM.DIHEDRAL>
0

>  <SCORE.SYSTEM.SOLV>
0

>  <SCORE.SYSTEM.norm>
0

>  <SCORE.heavy>
31

>  <SCORE.norm>
-0.631549

>  <RMSD>
6.930

$$$$
2et3_lig
 OpenBabel11021811423D
libRbt.so/2013.1/901 2013/11/27
 31 33  0  0  0  0  0  0  0  0999 V2000
   -3.5713  -13.8873   30.6498 C   0  0  2  0  0  0  0  0  0  0  0  0
   -3.0477  -13.4512   31.9311 O   0  0  0  0  0  0  0  0  0  0  0  0
   -4.2963   -9.3589   31.9535 C   0  0  2  0  0  0  0  0  0  0  0  0
   -4.6360   -8.0634   32.4553 N   0  0  0  0  0  0  0  0  0  0  0  0
   -0.5274   -8.6847   31.8781 C   0  0  2  0  0  0  0  0  0  0  0  0
   -3.0569  -15.2954   30.3318 C   0  0  2  0  0  0  0  0  0  0  0  0
   -3.4233  -16.1678   31.4046 N   0  0  0  0  0  0  0  0  0  0  0  0
   -5.2513  -10.4272   32.5771 C   0  0  0  0  0  0  0  0  0  0  0  0
   -0.1118   -7.1977   31.9224 C   0  0  2  0  0  0  0  0  0  0  0  0
   -0.7708   -6.5709   33.0000 O   0  0  0  0  0  0  0  0  0  0  0  0
   -1.5071  -15.2722   30.1017 C   0  0  0  0  0  0  0  0  0  0  0  0
   -4.8793  -11.8567   32.0374 C   0  0  2  0  0  0  0  0  0  0  0  0
   -5.7757  -12.8667   32.6222 N   0  0  0  0  0  0  0  0  0  0  0  0
   -0.4976   -6.5416   30.5340 C   0  0  1  0  0  0  0  0  0  0  0  0
   -0.1694   -5.0786   30.5086 N   0  0  0  0  0  0  0  0  0  0  0  0
   -1.2116  -14.3211   28.8997 C   0  0  0  0  0  0  0  0  0  0  0  0
   -3.3757  -12.1779   32.3876 C   0  0  2  0  0  0  0  0  0  0  0  0
    0.2657   -7.3014   29.3242 C   0  0  1  0  0  0  0  0  0  0  0  0
    1.6679   -7.1780   29.4434 O   0  0  0  0  0  0  0  0  0  0  0  0
   -1.7820  -12.8753   29.2449 C   0  0  2  0  0  0  0  0  0  0  0  0
   -3.2019  -12.9079   29.5913 O   0  0  0  0  0  0  0  0  0  0  0  0
   -2.4387  -11.0826   31.7471 C   0  0  2  0  0  0  0  0  0  0  0  0
   -1.0741  -11.3561   32.0484 O   0  0  0  0  0  0  0  0  0  0  0  0
   -0.0817   -8.8213   29.3767 C   0  0  0  0  0  0  0  0  0  0  0  0
    0.1651   -9.3730   30.7505 O   0  0  0  0  0  0  0  0  0  0  0  0
   -1.5466  -11.8444   28.1661 C   0  0  0  0  0  0  0  0  0  0  0  0
   -2.2333  -12.1799   26.9464 N   0  0  0  0  0  0  0  0  0  0  0  0
   -2.8258   -9.6644   32.2957 C   0  0  1  0  0  0  0  0  0  0  0  0
   -1.9755   -8.6911   31.7016 O   0  0  0  0  0  0  0  0  0  0  0  0
   -0.0128   -6.7940   27.9027 C   0  0  0  0  0  0  0  0  0  0  0  0
   -1.2469   -4.1427   30.8711 C   0  0  0  0  0  0  0  0  0  0  0  0
  1  2  1  1  0  0  0
  1  6  1  0  0  0  0
  1 21  1  0  0  0  0
  3  4  1  1  0  0  0
  3  8  1  0  0  0  0
  3 28  1  0  0  0  0
  5  9  1  0  0  0  0
  5 25  1  0  0  0  0
  5 29  1  6  0  0  0
  6  7  1  1  0  0  0
  6 11  1  0  0  0  0
  8 12  1  0  0  0  0
  9 10  1  1  0  0  0
  9 14  1  0  0  0  0
 11 16  1  0  0  0  0
 12 13  1  1  0  0  0
 12 17  1  0  0  0  0
 14 15  1  1  0  0  0
 14 18  1  0  0  0  0
 15 31  1  0  0  0  0
 16 20  1  0  0  0  0
 17  2  1  6  0  0  0
 17 22  1  0  0  0  0
 18 19  1  1  0  0  0
 18 24  1  0  0  0  0
 18 30  1  0  0  0  0
 20 21  1  0  0  0  0
 20 26  1  6  0  0  0
 22 23  1  1  0  0  0
 22 28  1  0  0  0  0
 24 25  1  0  0  0  0
 26 27  1  0  0  0  0
 28 29  1  6  0  0  0
M  END
>  <CHROM.1>
178.51887748,-144.71426988,-94.09130417,39.08986973,63.60560270,178.02880914
-1.97926964,-10.33591598,30.79272471,2.08527287,-0.75714591,-2.78643671

>  <Name>
2et3_lig

>  <RI>
0

>  <Rbt.Current_Directory>
/home/itssahil/PROJECTS/Mol_Feturizer/New_Systems/rnas/2et3

>  <Rbt.Executable>
rbdock ($Id: //depot/dev/client3/rdock/2013.1/src/exe/rbdock.cxx#4 $)

>  <Rbt.Library>
libRbt.so (2013.1, Build901 2013/11/27)

>  <Rbt.Parameter_File>
/export/apps/rDock/src/rDock_2013.1_src/data/scripts/dock_solv.prm

>  <Rbt.Receptor>
prm/pocket_docking_6.prm

>  <SCORE>
-17.4031

>  <SCORE.INTER>
-10.0024

>  <SCORE.INTER.CONST>
1

>  <SCORE.INTER.POLAR>
-1.77985

>  <SCORE.INTER.ROT>
6

>  <SCORE.INTER.SOLV>
10.4158

>  <SCORE.INTER.VDW>
-11.8074

>  <SCORE.INTER.norm>
-0.32266

>  <SCORE.INTRA>
-7.40063

>  <SCORE.INTRA.DIHEDRAL>
-14.7431

>  <SCORE.INTRA.DIHEDRAL.0>
22.2484

>  <SCORE.INTRA.POLAR>
0

>  <SCORE.INTRA.POLAR.0>
0

>  <SCORE.INTRA.REPUL>
0

>  <SCORE.INTRA.REPUL.0>
0

>  <SCORE.INTRA.SOLV>
-1.67951

>  <SCORE.INTRA.SOLV.lig_0>
-75.7198

>  <SCORE.INTRA.VDW>
0.810661

>  <SCORE.INTRA.VDW.0>
-3.34171

>  <SCORE.INTRA.norm>
-0.23873

>  <SCORE.RESTR>
0

>  <SCORE.RESTR.CAVITY>
0

>  <SCORE.RESTR.norm>
0

>  <SCORE.SYSTEM>
0

>  <SCORE.SYSTEM.CONST>
0

>  <SCORE.SYSTEM.DIHEDRAL>
0

>  <SCORE.SYSTEM.SOLV>
0

>  <SCORE.SYSTEM.norm>
0

>  <SCORE.heavy>
31

>  <SCORE.norm>
-0.56139

>  <RMSD>
6.944

$$$$
2et3_lig
 OpenBabel11021811423D
libRbt.so/2013.1/901 2013/11/27
 31 33  0  0  0  0  0  0  0  0999 V2000
   -4.7159   -9.4390   32.8745 C   0  0  2  0  0  0  0  0  0  0  0  0
   -3.5083  -10.0045   32.3017 O   0  0  0  0  0  0  0  0  0  0  0  0
    0.0366   -8.0539   30.9106 C   0  0  2  0  0  0  0  0  0  0  0  0
    0.8790   -7.1968   30.1352 N   0  0  0  0  0  0  0  0  0  0  0  0
    0.2196   -5.0208   32.0354 C   0  0  2  0  0  0  0  0  0  0  0  0
   -5.3715  -10.4586   33.8121 C   0  0  2  0  0  0  0  0  0  0  0  0
   -4.4170  -10.8446   34.8050 N   0  0  0  0  0  0  0  0  0  0  0  0
   -0.6490   -9.0993   29.9730 C   0  0  0  0  0  0  0  0  0  0  0  0
    0.8522   -4.3521   33.2756 C   0  0  2  0  0  0  0  0  0  0  0  0
    1.8300   -5.2153   33.8115 O   0  0  0  0  0  0  0  0  0  0  0  0
   -5.8979  -11.6900   32.9985 C   0  0  0  0  0  0  0  0  0  0  0  0
   -1.5846  -10.0410   30.8163 C   0  0  2  0  0  0  0  0  0  0  0  0
   -2.2332  -11.0273   29.9376 N   0  0  0  0  0  0  0  0  0  0  0  0
   -0.3055   -4.0564   34.3145 C   0  0  1  0  0  0  0  0  0  0  0  0
    0.2312   -3.4462   35.5748 N   0  0  0  0  0  0  0  0  0  0  0  0
   -6.9491  -11.1732   31.9667 C   0  0  0  0  0  0  0  0  0  0  0  0
   -2.6639   -9.1737   31.5710 C   0  0  2  0  0  0  0  0  0  0  0  0
   -1.4141   -3.0775   33.6538 C   0  0  1  0  0  0  0  0  0  0  0  0
   -0.8569   -1.8242   33.3158 O   0  0  0  0  0  0  0  0  0  0  0  0
   -6.2496  -10.0958   31.0262 C   0  0  2  0  0  0  0  0  0  0  0  0
   -5.6385   -9.0082   31.7885 O   0  0  0  0  0  0  0  0  0  0  0  0
   -1.9418   -8.1285   32.5058 C   0  0  2  0  0  0  0  0  0  0  0  0
   -2.8996   -7.3362   33.2006 O   0  0  0  0  0  0  0  0  0  0  0  0
   -1.9500   -3.7268   32.3405 C   0  0  0  0  0  0  0  0  0  0  0  0
   -0.8130   -4.1216   31.4438 O   0  0  0  0  0  0  0  0  0  0  0  0
   -7.1560   -9.5226   29.9624 C   0  0  0  0  0  0  0  0  0  0  0  0
   -6.4573   -8.6043   29.1020 N   0  0  0  0  0  0  0  0  0  0  0  0
   -1.0124   -7.2001   31.6477 C   0  0  1  0  0  0  0  0  0  0  0  0
   -0.3657   -6.2706   32.5086 O   0  0  0  0  0  0  0  0  0  0  0  0
   -2.6173   -2.7032   34.5300 C   0  0  0  0  0  0  0  0  0  0  0  0
    0.7472   -4.3685   36.6001 C   0  0  0  0  0  0  0  0  0  0  0  0
  1  2  1  6  0  0  0
  1  6  1  0  0  0  0
  1 21  1  0  0  0  0
  3  4  1  6  0  0  0
  3  8  1  0  0  0  0
  3 28  1  0  0  0  0
  5  9  1  0  0  0  0
  5 25  1  0  0  0  0
  5 29  1  1  0  0  0
  6  7  1  1  0  0  0
  6 11  1  0  0  0  0
  8 12  1  0  0  0  0
  9 10  1  1  0  0  0
  9 14  1  0  0  0  0
 11 16  1  0  0  0  0
 12 13  1  6  0  0  0
 12 17  1  0  0  0  0
 14 15  1  1  0  0  0
 14 18  1  0  0  0  0
 15 31  1  0  0  0  0
 16 20  1  0  0  0  0
 17  2  1  1  0  0  0
 17 22  1  0  0  0  0
 18 19  1  6  0  0  0
 18 24  1  0  0  0  0
 18 30  1  0  0  0  0
 20 21  1  0  0  0  0
 20 26  1  6  0  0  0
 22 23  1  6  0  0  0
 22 28  1  0  0  0  0
 24 25  1  0  0  0  0
 26 27  1  0  0  0  0
 28 29  1  1  0  0  0
M  END
>  <CHROM.1>
-171.01982772,-178.00937560,-84.24451020,-168.95738802,-177.20052409,79.72441482
-2.33674013,-7.25509871,32.43061330,2.29391184,-0.38945299,-2.49864733

>  <Name>
2et3_lig

>  <RI>
0

>  <Rbt.Current_Directory>
/home/itssahil/PROJECTS/Mol_Feturizer/New_Systems/rnas/2et3

>  <Rbt.Executable>
rbdock ($Id: //depot/dev/client3/rdock/2013.1/src/exe/rbdock.cxx#4 $)

>  <Rbt.Library>
libRbt.so (2013.1, Build901 2013/11/27)

>  <Rbt.Parameter_File>
/export/apps/rDock/src/rDock_2013.1_src/data/scripts/dock_solv.prm

>  <Rbt.Receptor>
prm/pocket_docking_7.prm

>  <SCORE>
-19.7088

>  <SCORE.INTER>
-9.13661

>  <SCORE.INTER.CONST>
1

>  <SCORE.INTER.POLAR>
-1.63229

>  <SCORE.INTER.ROT>
6

>  <SCORE.INTER.SOLV>
9.51449

>  <SCORE.INTER.VDW>
-11.4216

>  <SCORE.INTER.norm>
-0.294729

>  <SCORE.INTRA>
-10.5722

>  <SCORE.INTRA.DIHEDRAL>
-18.8814

>  <SCORE.INTRA.DIHEDRAL.0>
22.2484

>  <SCORE.INTRA.POLAR>
0

>  <SCORE.INTRA.POLAR.0>
0

>  <SCORE.INTRA.REPUL>
0

>  <SCORE.INTRA.REPUL.0>
0

>  <SCORE.INTRA.SOLV>
-2.75206

>  <SCORE.INTRA.SOLV.lig_0>
-75.7198

>  <SCORE.INTRA.VDW>
0.244563

>  <SCORE.INTRA.VDW.0>
-3.34171

>  <SCORE.INTRA.norm>
-0.341038

>  <SCORE.RESTR>
0

>  <SCORE.RESTR.CAVITY>
0

>  <SCORE.RESTR.norm>
0

>  <SCORE.SYSTEM>
0

>  <SCORE.SYSTEM.CONST>
0

>  <SCORE.SYSTEM.DIHEDRAL>
0

>  <SCORE.SYSTEM.SOLV>
0

>  <SCORE.SYSTEM.norm>
0

>  <SCORE.heavy>
31

>  <SCORE.norm>
-0.635767

>  <RMSD>
6.944

$$$$
2et3_lig
 OpenBabel11021811423D
libRbt.so/2013.1/901 2013/11/27
 31 33  0  0  0  0  0  0  0  0999 V2000
   -1.3723   -7.8941   35.9288 C   0  0  2  0  0  0  0  0  0  0  0  0
   -2.6861   -8.4171   36.2552 O   0  0  0  0  0  0  0  0  0  0  0  0
   -4.7735  -11.6691   34.4185 C   0  0  2  0  0  0  0  0  0  0  0  0
   -5.4664  -12.4256   33.4219 N   0  0  0  0  0  0  0  0  0  0  0  0
   -2.8144  -13.3382   32.4412 C   0  0  2  0  0  0  0  0  0  0  0  0
   -1.1659   -6.5425   36.6209 C   0  0  2  0  0  0  0  0  0  0  0  0
   -1.3578   -6.7164   38.0277 N   0  0  0  0  0  0  0  0  0  0  0  0
   -5.5683  -10.3591   34.7259 C   0  0  0  0  0  0  0  0  0  0  0  0
   -1.3921  -13.7403   31.9928 C   0  0  2  0  0  0  0  0  0  0  0  0
   -0.7867  -14.4971   33.0172 O   0  0  0  0  0  0  0  0  0  0  0  0
   -2.1414   -5.4696   36.0270 C   0  0  0  0  0  0  0  0  0  0  0  0
   -4.8089   -9.5163   35.8149 C   0  0  2  0  0  0  0  0  0  0  0  0
   -5.5533   -8.2811   36.1077 N   0  0  0  0  0  0  0  0  0  0  0  0
   -0.5843  -12.4140   31.6844 C   0  0  1  0  0  0  0  0  0  0  0  0
    0.8299  -12.7133   31.2850 N   0  0  0  0  0  0  0  0  0  0  0  0
   -1.8364   -5.3311   34.5024 C   0  0  0  0  0  0  0  0  0  0  0  0
   -3.3551   -9.1818   35.3040 C   0  0  2  0  0  0  0  0  0  0  0  0
   -1.3220  -11.5676   30.5169 C   0  0  1  0  0  0  0  0  0  0  0  0
   -1.3667  -12.2937   29.3059 O   0  0  0  0  0  0  0  0  0  0  0  0
   -2.0299   -6.7541   33.8152 C   0  0  2  0  0  0  0  0  0  0  0  0
   -1.2200   -7.7916   34.4515 O   0  0  0  0  0  0  0  0  0  0  0  0
   -2.5805  -10.5219   35.0008 C   0  0  2  0  0  0  0  0  0  0  0  0
   -1.2621  -10.2424   34.5409 O   0  0  0  0  0  0  0  0  0  0  0  0
   -2.7926  -11.2773   30.9491 C   0  0  0  0  0  0  0  0  0  0  0  0
   -3.4802  -12.5436   31.3688 O   0  0  0  0  0  0  0  0  0  0  0  0
   -1.7817   -6.7597   32.3251 C   0  0  0  0  0  0  0  0  0  0  0  0
   -2.8284   -6.0823   31.6058 N   0  0  0  0  0  0  0  0  0  0  0  0
   -3.3535  -11.3492   33.9145 C   0  0  1  0  0  0  0  0  0  0  0  0
   -2.6439  -12.5556   33.6606 O   0  0  0  0  0  0  0  0  0  0  0  0
   -0.6708  -10.2396   30.1074 C   0  0  0  0  0  0  0  0  0  0  0  0
    1.0267  -13.6204   30.1419 C   0  0  0  0  0  0  0  0  0  0  0  0
  1  2  1  6  0  0  0
  1  6  1  0  0  0  0
  1 21  1  0  0  0  0
  3  4  1  6  0  0  0
  3  8  1  0  0  0  0
  3 28  1  0  0  0  0
  5  9  1  0  0  0  0
  5 25  1  0  0  0  0
  5 29  1  1  0  0  0
  6  7  1  1  0  0  0
  6 11  1  0  0  0  0
  8 12  1  0  0  0  0
  9 10  1  1  0  0  0
  9 14  1  0  0  0  0
 11 16  1  0  0  0  0
 12 13  1  6  0  0  0
 12 17  1  0  0  0  0
 14 15  1  6  0  0  0
 14 18  1  0  0  0  0
 15 31  1  0  0  0  0
 16 20  1  0  0  0  0
 17  2  1  1  0  0  0
 17 22  1  0  0  0  0
 18 19  1  6  0  0  0
 18 24  1  0  0  0  0
 18 30  1  0  0  0  0
 20 21  1  0  0  0  0
 20 26  1  6  0  0  0
 22 23  1  6  0  0  0
 22 28  1  0  0  0  0
 24 25  1  0  0  0  0
 26 27  1  0  0  0  0
 28 29  1  1  0  0  0
M  END
>  <CHROM.1>
147.41037042,136.25881574,55.98987083,-174.31750831,-71.50816350,80.31936482
-2.26906395,-10.10024787,33.49505976,-1.79329739,-0.74718017,-2.65279889

>  <Name>
2et3_lig

>  <RI>
0

>  <Rbt.Current_Directory>
/home/itssahil/PROJECTS/Mol_Feturizer/New_Systems/rnas/2et3

>  <Rbt.Executable>
rbdock ($Id: //depot/dev/client3/rdock/2013.1/src/exe/rbdock.cxx#4 $)

>  <Rbt.Library>
libRbt.so (2013.1, Build901 2013/11/27)

>  <Rbt.Parameter_File>
/export/apps/rDock/src/rDock_2013.1_src/data/scripts/dock_solv.prm

>  <Rbt.Receptor>
prm/pocket_docking_3.prm

>  <SCORE>
-13.9254

>  <SCORE.INTER>
-11.6865

>  <SCORE.INTER.CONST>
1

>  <SCORE.INTER.POLAR>
-1.82286

>  <SCORE.INTER.ROT>
6

>  <SCORE.INTER.SOLV>
17.6088

>  <SCORE.INTER.VDW>
-15.1844

>  <SCORE.INTER.norm>
-0.376983

>  <SCORE.INTRA>
-2.49255

>  <SCORE.INTRA.DIHEDRAL>
-9.62411

>  <SCORE.INTRA.DIHEDRAL.0>
22.2484

>  <SCORE.INTRA.POLAR>
0

>  <SCORE.INTRA.POLAR.0>
0

>  <SCORE.INTRA.REPUL>
0

>  <SCORE.INTRA.REPUL.0>
0

>  <SCORE.INTRA.SOLV>
-1.60188

>  <SCORE.INTRA.SOLV.lig_0>
-75.7198

>  <SCORE.INTRA.VDW>
3.12044

>  <SCORE.INTRA.VDW.0>
-3.34171

>  <SCORE.INTRA.norm>
-0.0804049

>  <SCORE.RESTR>
0.253581

>  <SCORE.RESTR.CAVITY>
0.253581

>  <SCORE.RESTR.norm>
0.00818004

>  <SCORE.SYSTEM>
0

>  <SCORE.SYSTEM.CONST>
0

>  <SCORE.SYSTEM.DIHEDRAL>
0

>  <SCORE.SYSTEM.SOLV>
0

>  <SCORE.SYSTEM.norm>
0

>  <SCORE.heavy>
31

>  <SCORE.norm>
-0.449207

>  <RMSD>
6.999

$$$$
2et3_lig
 OpenBabel11021811423D
libRbt.so/2013.1/901 2013/11/27
 31 33  0  0  0  0  0  0  0  0999 V2000
    3.6909   -5.1438   23.8084 C   0  0  2  0  0  0  0  0  0  0  0  0
    3.7750   -6.4001   24.5301 O   0  0  0  0  0  0  0  0  0  0  0  0
    2.1035   -7.6046   28.2800 C   0  0  2  0  0  0  0  0  0  0  0  0
    1.8019   -7.5966   29.6781 N   0  0  0  0  0  0  0  0  0  0  0  0
   -0.4738   -6.2546   29.1284 C   0  0  2  0  0  0  0  0  0  0  0  0
    3.6870   -5.4122   22.2996 C   0  0  2  0  0  0  0  0  0  0  0  0
    2.6050   -6.2973   21.9966 N   0  0  0  0  0  0  0  0  0  0  0  0
    3.6473   -7.7421   28.0798 C   0  0  0  0  0  0  0  0  0  0  0  0
   -1.6181   -7.2849   29.0073 C   0  0  2  0  0  0  0  0  0  0  0  0
   -1.0713   -8.5360   28.6550 O   0  0  0  0  0  0  0  0  0  0  0  0
    5.0667   -6.0000   21.8454 C   0  0  0  0  0  0  0  0  0  0  0  0
    3.9892   -7.7431   26.5448 C   0  0  2  0  0  0  0  0  0  0  0  0
    5.4423   -7.8719   26.3509 N   0  0  0  0  0  0  0  0  0  0  0  0
   -2.6356   -6.7581   27.9147 C   0  0  1  0  0  0  0  0  0  0  0  0
   -3.7598   -7.7270   27.6994 N   0  0  0  0  0  0  0  0  0  0  0  0
    6.1738   -4.9550   22.1903 C   0  0  0  0  0  0  0  0  0  0  0  0
    3.4555   -6.4141   25.8847 C   0  0  2  0  0  0  0  0  0  0  0  0
   -3.2254   -5.3134   28.3491 C   0  0  1  0  0  0  0  0  0  0  0  0
   -3.9519   -5.3973   29.5577 O   0  0  0  0  0  0  0  0  0  0  0  0
    6.1354   -4.6738   23.7569 C   0  0  2  0  0  0  0  0  0  0  0  0
    4.8119   -4.2513   24.2119 O   0  0  0  0  0  0  0  0  0  0  0  0
    1.8977   -6.3035   26.1054 C   0  0  2  0  0  0  0  0  0  0  0  0
    1.3939   -5.1105   25.5130 O   0  0  0  0  0  0  0  0  0  0  0  0
   -2.0394   -4.3260   28.5774 C   0  0  0  0  0  0  0  0  0  0  0  0
   -1.0266   -4.9230   29.5104 O   0  0  0  0  0  0  0  0  0  0  0  0
    7.1746   -3.6863   24.2331 C   0  0  0  0  0  0  0  0  0  0  0  0
    8.5125   -4.1661   24.0060 N   0  0  0  0  0  0  0  0  0  0  0  0
    1.5763   -6.3059   27.6413 C   0  0  1  0  0  0  0  0  0  0  0  0
    0.1681   -6.2128   27.8190 O   0  0  0  0  0  0  0  0  0  0  0  0
   -4.2208   -4.6535   27.3850 C   0  0  0  0  0  0  0  0  0  0  0  0
   -3.7068   -8.5571   26.4843 C   0  0  0  0  0  0  0  0  0  0  0  0
  1  2  1  1  0  0  0
  1  6  1  0  0  0  0
  1 21  1  0  0  0  0
  3  4  1  1  0  0  0
  3  8  1  0  0  0  0
  3 28  1  0  0  0  0
  5  9  1  0  0  0  0
  5 25  1  0  0  0  0
  5 29  1  6  0  0  0
  6  7  1  1  0  0  0
  6 11  1  0  0  0  0
  8 12  1  0  0  0  0
  9 10  1  6  0  0  0
  9 14  1  0  0  0  0
 11 16  1  0  0  0  0
 12 13  1  1  0  0  0
 12 17  1  0  0  0  0
 14 15  1  1  0  0  0
 14 18  1  0  0  0  0
 15 31  1  0  0  0  0
 16 20  1  0  0  0  0
 17  2  1  6  0  0  0
 17 22  1  0  0  0  0
 18 19  1  1  0  0  0
 18 24  1  0  0  0  0
 18 30  1  0  0  0  0
 20 21  1  0  0  0  0
 20 26  1  6  0  0  0
 22 23  1  1  0  0  0
 22 28  1  0  0  0  0
 24 25  1  0  0  0  0
 26 27  1  0  0  0  0
 28 29  1  6  0  0  0
M  END
>  <CHROM.1>
-163.96263610,-131.14278512,-103.40385096,-164.32789070,-62.69319716,56.67158211
1.54749109,-6.10766350,26.37270779,0.53211026,0.10177368,-1.16419814

>  <Name>
2et3_lig

>  <RI>
3.86414e+07

>  <Rbt.Current_Directory>
/home/itssahil/PROJECTS/Mol_Feturizer/New_Systems/rnas/2et3

>  <Rbt.Executable>
rbdock ($Id: //depot/dev/client3/rdock/2013.1/src/exe/rbdock.cxx#4 $)

>  <Rbt.Library>
libRbt.so (2013.1, Build901 2013/11/27)

>  <Rbt.Parameter_File>
/export/apps/rDock/src/rDock_2013.1_src/data/scripts/dock_solv.prm

>  <Rbt.Receptor>
prm/pocket_docking_8.prm

>  <SCORE>
-25.0137

>  <SCORE.INTER>
-19.0828

>  <SCORE.INTER.CONST>
1

>  <SCORE.INTER.POLAR>
-1.79753

>  <SCORE.INTER.ROT>
6

>  <SCORE.INTER.SOLV>
13.6248

>  <SCORE.INTER.VDW>
-18.8717

>  <SCORE.INTER.norm>
-0.615573

>  <SCORE.INTRA>
-5.93091

>  <SCORE.INTRA.DIHEDRAL>
-12.0942

>  <SCORE.INTRA.DIHEDRAL.0>
22.2484

>  <SCORE.INTRA.POLAR>
0

>  <SCORE.INTRA.POLAR.0>
0

>  <SCORE.INTRA.REPUL>
0

>  <SCORE.INTRA.REPUL.0>
0

>  <SCORE.INTRA.SOLV>
-1.3211

>  <SCORE.INTRA.SOLV.lig_0>
-75.7198

>  <SCORE.INTRA.VDW>
0.776747

>  <SCORE.INTRA.VDW.0>
-3.34171

>  <SCORE.INTRA.norm>
-0.19132

>  <SCORE.RESTR>
0

>  <SCORE.RESTR.CAVITY>
0

>  <SCORE.RESTR.norm>
0

>  <SCORE.SYSTEM>
0

>  <SCORE.SYSTEM.CONST>
0

>  <SCORE.SYSTEM.DIHEDRAL>
0

>  <SCORE.SYSTEM.SOLV>
0

>  <SCORE.SYSTEM.norm>
0

>  <SCORE.heavy>
31

>  <SCORE.norm>
-0.806893

>  <RMSD>
7.028

$$$$
2et3_lig
 OpenBabel11021811423D
libRbt.so/2013.1/901 2013/11/27
 31 33  0  0  0  0  0  0  0  0999 V2000
   -0.3130   -6.7067   29.8199 C   0  0  2  0  0  0  0  0  0  0  0  0
    0.0957   -5.7009   30.7829 O   0  0  0  0  0  0  0  0  0  0  0  0
   -0.8570   -5.4962   34.9491 C   0  0  2  0  0  0  0  0  0  0  0  0
   -0.8993   -5.8512   36.3339 N   0  0  0  0  0  0  0  0  0  0  0  0
    2.6025   -3.9986   35.4566 C   0  0  2  0  0  0  0  0  0  0  0  0
    0.7961   -6.9119   28.7825 C   0  0  2  0  0  0  0  0  0  0  0  0
    2.0025   -7.2605   29.4675 N   0  0  0  0  0  0  0  0  0  0  0  0
   -1.5023   -6.6368   34.0978 C   0  0  0  0  0  0  0  0  0  0  0  0
    2.8164   -3.5364   36.9148 C   0  0  2  0  0  0  0  0  0  0  0  0
    2.3378   -4.5365   37.7861 O   0  0  0  0  0  0  0  0  0  0  0  0
    0.9725   -5.6233   27.9086 C   0  0  0  0  0  0  0  0  0  0  0  0
   -1.4522   -6.2588   32.5721 C   0  0  2  0  0  0  0  0  0  0  0  0
   -2.0584   -7.3303   31.7659 N   0  0  0  0  0  0  0  0  0  0  0  0
    2.0464   -2.1669   37.1106 C   0  0  1  0  0  0  0  0  0  0  0  0
    2.1636   -1.6683   38.5201 N   0  0  0  0  0  0  0  0  0  0  0  0
   -0.3808   -5.3433   27.1826 C   0  0  0  0  0  0  0  0  0  0  0  0
    0.0439   -6.0146   32.1380 C   0  0  2  0  0  0  0  0  0  0  0  0
    2.6138   -1.0531   36.0804 C   0  0  1  0  0  0  0  0  0  0  0  0
    3.9781   -0.7774   36.3219 O   0  0  0  0  0  0  0  0  0  0  0  0
   -1.5184   -5.1637   28.2818 C   0  0  2  0  0  0  0  0  0  0  0  0
   -1.6003   -6.3090   29.1868 O   0  0  0  0  0  0  0  0  0  0  0  0
    0.6668   -4.8613   33.0154 C   0  0  2  0  0  0  0  0  0  0  0  0
    2.0185   -4.6217   32.6367 O   0  0  0  0  0  0  0  0  0  0  0  0
    2.4917   -1.5969   34.6234 C   0  0  0  0  0  0  0  0  0  0  0  0
    3.1103   -2.9600   34.5141 O   0  0  0  0  0  0  0  0  0  0  0  0
   -2.8862   -4.8680   27.7129 C   0  0  0  0  0  0  0  0  0  0  0  0
   -2.9472   -3.5580   27.1198 N   0  0  0  0  0  0  0  0  0  0  0  0
    0.6064   -5.2555   34.5330 C   0  0  1  0  0  0  0  0  0  0  0  0
    1.1655   -4.2012   35.3070 O   0  0  0  0  0  0  0  0  0  0  0  0
    1.9598    0.3344   36.1315 C   0  0  0  0  0  0  0  0  0  0  0  0
    3.5149   -1.6138   39.1024 C   0  0  0  0  0  0  0  0  0  0  0  0
  1  2  1  1  0  0  0
  1  6  1  0  0  0  0
  1 21  1  0  0  0  0
  3  4  1  1  0  0  0
  3  8  1  0  0  0  0
  3 28  1  0  0  0  0
  5  9  1  0  0  0  0
  5 25  1  0  0  0  0
  5 29  1  6  0  0  0
  6  7  1  1  0  0  0
  6 11  1  0  0  0  0
  8 12  1  0  0  0  0
  9 10  1  1  0  0  0
  9 14  1  0  0  0  0
 11 16  1  0  0  0  0
 12 13  1  6  0  0  0
 12 17  1  0  0  0  0
 14 15  1  1  0  0  0
 14 18  1  0  0  0  0
 15 31  1  0  0  0  0
 16 20  1  0  0  0  0
 17  2  1  6  0  0  0
 17 22  1  0  0  0  0
 18 19  1  1  0  0  0
 18 24  1  0  0  0  0
 18 30  1  0  0  0  0
 20 21  1  0  0  0  0
 20 26  1  6  0  0  0
 22 23  1  6  0  0  0
 22 28  1  0  0  0  0
 24 25  1  0  0  0  0
 26 27  1  0  0  0  0
 28 29  1  1  0  0  0
M  END
>  <CHROM.1>
-126.70988262,-142.59819210,50.03807541,-64.61838725,-68.99277361,160.69370780
0.73041991,-4.40869010,33.13200644,2.28443120,-0.97348309,-1.36572633

>  <Name>
2et3_lig

>  <RI>
0

>  <Rbt.Current_Directory>
/home/itssahil/PROJECTS/Mol_Feturizer/New_Systems/rnas/2et3

>  <Rbt.Executable>
rbdock ($Id: //depot/dev/client3/rdock/2013.1/src/exe/rbdock.cxx#4 $)

>  <Rbt.Library>
libRbt.so (2013.1, Build901 2013/11/27)

>  <Rbt.Parameter_File>
/export/apps/rDock/src/rDock_2013.1_src/data/scripts/dock_solv.prm

>  <Rbt.Receptor>
prm/blind_docking_40.prm

>  <SCORE>
-3.41553

>  <SCORE.INTER>
-13.7741

>  <SCORE.INTER.CONST>
1

>  <SCORE.INTER.POLAR>
-1.8635

>  <SCORE.INTER.ROT>
6

>  <SCORE.INTER.SOLV>
18.9093

>  <SCORE.INTER.VDW>
-16.8742

>  <SCORE.INTER.norm>
-0.444327

>  <SCORE.INTRA>
-2.32022

>  <SCORE.INTRA.DIHEDRAL>
-8.09194

>  <SCORE.INTRA.DIHEDRAL.0>
22.2484

>  <SCORE.INTRA.POLAR>
0

>  <SCORE.INTRA.POLAR.0>
0

>  <SCORE.INTRA.REPUL>
0

>  <SCORE.INTRA.REPUL.0>
0

>  <SCORE.INTRA.SOLV>
-1.05092

>  <SCORE.INTRA.SOLV.lig_0>
-75.7198

>  <SCORE.INTRA.VDW>
2.25121

>  <SCORE.INTRA.VDW.0>
-3.34171

>  <SCORE.INTRA.norm>
-0.0748458

>  <SCORE.RESTR>
12.6788

>  <SCORE.RESTR.CAVITY>
12.6788

>  <SCORE.RESTR.norm>
0.408994

>  <SCORE.SYSTEM>
0

>  <SCORE.SYSTEM.CONST>
0

>  <SCORE.SYSTEM.DIHEDRAL>
0

>  <SCORE.SYSTEM.SOLV>
0

>  <SCORE.SYSTEM.norm>
0

>  <SCORE.heavy>
31

>  <SCORE.norm>
-0.110178

>  <RMSD>
7.066

$$$$
2et3_lig
 OpenBabel11021811423D
libRbt.so/2013.1/901 2013/11/27
 31 33  0  0  0  0  0  0  0  0999 V2000
   -2.0280   -7.4523   34.3301 C   0  0  2  0  0  0  0  0  0  0  0  0
   -1.1651   -8.6110   34.4682 O   0  0  0  0  0  0  0  0  0  0  0  0
   -1.8393  -10.5051   30.6914 C   0  0  2  0  0  0  0  0  0  0  0  0
   -1.6566  -11.3928   29.5849 N   0  0  0  0  0  0  0  0  0  0  0  0
   -3.8028  -12.9706   32.8656 C   0  0  2  0  0  0  0  0  0  0  0  0
   -1.9297   -6.5803   35.5864 C   0  0  2  0  0  0  0  0  0  0  0  0
   -0.5586   -6.2273   35.7904 N   0  0  0  0  0  0  0  0  0  0  0  0
   -0.5737   -9.6023   30.8509 C   0  0  0  0  0  0  0  0  0  0  0  0
   -3.9374  -14.3846   32.2589 C   0  0  2  0  0  0  0  0  0  0  0  0
   -2.6645  -14.8266   31.8430 O   0  0  0  0  0  0  0  0  0  0  0  0
   -2.5287   -7.3335   36.8230 C   0  0  0  0  0  0  0  0  0  0  0  0
   -0.7622   -8.6285   32.0711 C   0  0  2  0  0  0  0  0  0  0  0  0
    0.4275   -7.7762   32.2259 N   0  0  0  0  0  0  0  0  0  0  0  0
   -4.9563  -14.3019   31.0497 C   0  0  1  0  0  0  0  0  0  0  0  0
   -5.1103  -15.6299   30.3704 N   0  0  0  0  0  0  0  0  0  0  0  0
   -4.0269   -7.6479   36.5175 C   0  0  0  0  0  0  0  0  0  0  0  0
   -1.0193   -9.4678   33.3811 C   0  0  2  0  0  0  0  0  0  0  0  0
   -6.3976  -13.7742   31.5671 C   0  0  1  0  0  0  0  0  0  0  0  0
   -6.9662  -14.6670   32.5025 O   0  0  0  0  0  0  0  0  0  0  0  0
   -4.1006   -8.5287   35.1933 C   0  0  2  0  0  0  0  0  0  0  0  0
   -3.4259   -7.8900   34.0646 O   0  0  0  0  0  0  0  0  0  0  0  0
   -2.2996  -10.3687   33.1881 C   0  0  2  0  0  0  0  0  0  0  0  0
   -2.5524  -11.1334   34.3624 O   0  0  0  0  0  0  0  0  0  0  0  0
   -6.2116  -12.3984   32.2787 C   0  0  0  0  0  0  0  0  0  0  0  0
   -5.1367  -12.4841   33.3226 O   0  0  0  0  0  0  0  0  0  0  0  0
   -5.5022   -8.9219   34.7899 C   0  0  0  0  0  0  0  0  0  0  0  0
   -6.1404   -9.7325   35.7936 N   0  0  0  0  0  0  0  0  0  0  0  0
   -2.0936  -11.3314   31.9662 C   0  0  1  0  0  0  0  0  0  0  0  0
   -3.2601  -12.1291   31.8046 O   0  0  0  0  0  0  0  0  0  0  0  0
   -7.4998  -13.6228   30.5098 C   0  0  0  0  0  0  0  0  0  0  0  0
   -4.0725  -16.0104   29.3975 C   0  0  0  0  0  0  0  0  0  0  0  0
  1  2  1  1  0  0  0
  1  6  1  0  0  0  0
  1 21  1  0  0  0  0
  3  4  1  6  0  0  0
  3  8  1  0  0  0  0
  3 28  1  0  0  0  0
  5  9  1  0  0  0  0
  5 25  1  0  0  0  0
  5 29  1  6  0  0  0
  6  7  1  1  0  0  0
  6 11  1  0  0  0  0
  8 12  1  0  0  0  0
  9 10  1  6  0  0  0
  9 14  1  0  0  0  0
 11 16  1  0  0  0  0
 12 13  1  1  0  0  0
 12 17  1  0  0  0  0
 14 15  1  1  0  0  0
 14 18  1  0  0  0  0
 15 31  1  0  0  0  0
 16 20  1  0  0  0  0
 17  2  1  1  0  0  0
 17 22  1  0  0  0  0
 18 19  1  1  0  0  0
 18 24  1  0  0  0  0
 18 30  1  0  0  0  0
 20 21  1  0  0  0  0
 20 26  1  6  0  0  0
 22 23  1  1  0  0  0
 22 28  1  0  0  0  0
 24 25  1  0  0  0  0
 26 27  1  0  0  0  0
 28 29  1  6  0  0  0
M  END
>  <CHROM.1>
-174.28889327,-126.53326006,-81.02768757,46.42998096,-61.82164080,-176.68135825
-3.37184183,-10.89162442,32.95003366,-1.12878674,-0.48668312,-2.42317152

>  <Name>
2et3_lig

>  <RI>
0

>  <Rbt.Current_Directory>
/home/itssahil/PROJECTS/Mol_Feturizer/New_Systems/rnas/2et3

>  <Rbt.Executable>
rbdock ($Id: //depot/dev/client3/rdock/2013.1/src/exe/rbdock.cxx#4 $)

>  <Rbt.Library>
libRbt.so (2013.1, Build901 2013/11/27)

>  <Rbt.Parameter_File>
/export/apps/rDock/src/rDock_2013.1_src/data/scripts/dock_solv.prm

>  <Rbt.Receptor>
prm/pocket_docking_6.prm

>  <SCORE>
-12.8047

>  <SCORE.INTER>
-6.26583

>  <SCORE.INTER.CONST>
1

>  <SCORE.INTER.POLAR>
-1.17109

>  <SCORE.INTER.ROT>
6

>  <SCORE.INTER.SOLV>
18.695

>  <SCORE.INTER.VDW>
-14.1053

>  <SCORE.INTER.norm>
-0.202124

>  <SCORE.INTRA>
-6.58363

>  <SCORE.INTRA.DIHEDRAL>
-13.673

>  <SCORE.INTRA.DIHEDRAL.0>
22.2484

>  <SCORE.INTRA.POLAR>
0

>  <SCORE.INTRA.POLAR.0>
0

>  <SCORE.INTRA.REPUL>
0

>  <SCORE.INTRA.REPUL.0>
0

>  <SCORE.INTRA.SOLV>
-1.74997

>  <SCORE.INTRA.SOLV.lig_0>
-75.7198

>  <SCORE.INTRA.VDW>
1.12785

>  <SCORE.INTRA.VDW.0>
-3.34171

>  <SCORE.INTRA.norm>
-0.212375

>  <SCORE.RESTR>
0.0447354

>  <SCORE.RESTR.CAVITY>
0.0447354

>  <SCORE.RESTR.norm>
0.00144308

>  <SCORE.SYSTEM>
0

>  <SCORE.SYSTEM.CONST>
0

>  <SCORE.SYSTEM.DIHEDRAL>
0

>  <SCORE.SYSTEM.SOLV>
0

>  <SCORE.SYSTEM.norm>
0

>  <SCORE.heavy>
31

>  <SCORE.norm>
-0.413056

>  <RMSD>
7.083

$$$$
2et3_lig
 OpenBabel11021811423D
libRbt.so/2013.1/901 2013/11/27
 31 33  0  0  0  0  0  0  0  0999 V2000
    0.0958  -12.9294   30.4900 C   0  0  2  0  0  0  0  0  0  0  0  0
   -1.1014  -12.4125   31.1270 O   0  0  0  0  0  0  0  0  0  0  0  0
   -2.0587   -8.7835   33.1814 C   0  0  2  0  0  0  0  0  0  0  0  0
   -1.9156   -7.6575   34.0516 N   0  0  0  0  0  0  0  0  0  0  0  0
    0.0648   -6.7067   30.9766 C   0  0  2  0  0  0  0  0  0  0  0  0
   -0.2628  -13.5406   29.1313 C   0  0  2  0  0  0  0  0  0  0  0  0
   -0.9225  -12.5456   28.3434 N   0  0  0  0  0  0  0  0  0  0  0  0
   -1.9640  -10.1024   34.0144 C   0  0  0  0  0  0  0  0  0  0  0  0
   -0.5196   -5.3562   30.5072 C   0  0  2  0  0  0  0  0  0  0  0  0
   -1.2558   -4.7843   31.5653 O   0  0  0  0  0  0  0  0  0  0  0  0
   -1.1515  -14.8168   29.3234 C   0  0  0  0  0  0  0  0  0  0  0  0
   -2.1116  -11.3466   33.0640 C   0  0  2  0  0  0  0  0  0  0  0  0
   -2.0226  -12.5914   33.8437 N   0  0  0  0  0  0  0  0  0  0  0  0
   -1.4273   -5.6316   29.2395 C   0  0  1  0  0  0  0  0  0  0  0  0
   -2.0751   -4.3728   28.7448 N   0  0  0  0  0  0  0  0  0  0  0  0
   -0.3382  -15.8492   30.1658 C   0  0  0  0  0  0  0  0  0  0  0  0
   -0.9886  -11.3015   31.9578 C   0  0  2  0  0  0  0  0  0  0  0  0
   -0.5482   -6.3036   28.0566 C   0  0  1  0  0  0  0  0  0  0  0  0
    0.4807   -5.4370   27.6253 O   0  0  0  0  0  0  0  0  0  0  0  0
    0.0454  -15.1782   31.5576 C   0  0  2  0  0  0  0  0  0  0  0  0
    0.7612  -13.9151   31.3854 O   0  0  0  0  0  0  0  0  0  0  0  0
   -1.1092   -9.9600   31.1372 C   0  0  2  0  0  0  0  0  0  0  0  0
   -0.1052   -9.9005   30.1291 O   0  0  0  0  0  0  0  0  0  0  0  0
    0.1237   -7.6039   28.5963 C   0  0  0  0  0  0  0  0  0  0  0  0
    0.8573   -7.3280   29.8763 O   0  0  0  0  0  0  0  0  0  0  0  0
    0.8252  -16.0806   32.4847 C   0  0  0  0  0  0  0  0  0  0  0  0
    0.0786  -17.2598   32.8366 N   0  0  0  0  0  0  0  0  0  0  0  0
   -0.9613   -8.7311   32.1017 C   0  0  1  0  0  0  0  0  0  0  0  0
   -1.0800   -7.5326   31.3449 O   0  0  0  0  0  0  0  0  0  0  0  0
   -1.2863   -6.6487   26.7559 C   0  0  0  0  0  0  0  0  0  0  0  0
   -3.4868   -4.4607   28.3354 C   0  0  0  0  0  0  0  0  0  0  0  0
  1  2  1  1  0  0  0
  1  6  1  0  0  0  0
  1 21  1  0  0  0  0
  3  4  1  1  0  0  0
  3  8  1  0  0  0  0
  3 28  1  0  0  0  0
  5  9  1  0  0  0  0
  5 25  1  0  0  0  0
  5 29  1  6  0  0  0
  6  7  1  6  0  0  0
  6 11  1  0  0  0  0
  8 12  1  0  0  0  0
  9 10  1  1  0  0  0
  9 14  1  0  0  0  0
 11 16  1  0  0  0  0
 12 13  1  1  0  0  0
 12 17  1  0  0  0  0
 14 15  1  6  0  0  0
 14 18  1  0  0  0  0
 15 31  1  0  0  0  0
 16 20  1  0  0  0  0
 17  2  1  6  0  0  0
 17 22  1  0  0  0  0
 18 19  1  6  0  0  0
 18 24  1  0  0  0  0
 18 30  1  0  0  0  0
 20 21  1  0  0  0  0
 20 26  1  6  0  0  0
 22 23  1  6  0  0  0
 22 28  1  0  0  0  0
 24 25  1  0  0  0  0
 26 27  1  0  0  0  0
 28 29  1  6  0  0  0
M  END
>  <CHROM.1>
-148.54102970,-165.50293453,-138.02718000,-151.10160666,-61.16092466,136.22041621
-0.80653145,-9.86438353,30.68413839,-1.22113691,1.30772079,-0.56720403

>  <Name>
2et3_lig

>  <RI>
0

>  <Rbt.Current_Directory>
/home/itssahil/PROJECTS/Mol_Feturizer/New_Systems/rnas/2et3

>  <Rbt.Executable>
rbdock ($Id: //depot/dev/client3/rdock/2013.1/src/exe/rbdock.cxx#4 $)

>  <Rbt.Library>
libRbt.so (2013.1, Build901 2013/11/27)

>  <Rbt.Parameter_File>
/export/apps/rDock/src/rDock_2013.1_src/data/scripts/dock_solv.prm

>  <Rbt.Receptor>
prm/blind_docking_100.prm

>  <SCORE>
-15.0387

>  <SCORE.INTER>
-13.4039

>  <SCORE.INTER.CONST>
1

>  <SCORE.INTER.POLAR>
-0.923843

>  <SCORE.INTER.ROT>
6

>  <SCORE.INTER.SOLV>
15.0679

>  <SCORE.INTER.VDW>
-18.4791

>  <SCORE.INTER.norm>
-0.432385

>  <SCORE.INTRA>
-4.26881

>  <SCORE.INTRA.DIHEDRAL>
-6.94848

>  <SCORE.INTRA.DIHEDRAL.0>
22.2484

>  <SCORE.INTRA.POLAR>
0

>  <SCORE.INTRA.POLAR.0>
0

>  <SCORE.INTRA.REPUL>
0

>  <SCORE.INTRA.REPUL.0>
0

>  <SCORE.INTRA.SOLV>
-1.82452

>  <SCORE.INTRA.SOLV.lig_0>
-75.7198

>  <SCORE.INTRA.VDW>
0.117687

>  <SCORE.INTRA.VDW.0>
-3.34171

>  <SCORE.INTRA.norm>
-0.137704

>  <SCORE.RESTR>
2.63405

>  <SCORE.RESTR.CAVITY>
2.63405

>  <SCORE.RESTR.norm>
0.0849693

>  <SCORE.SYSTEM>
0

>  <SCORE.SYSTEM.CONST>
0

>  <SCORE.SYSTEM.DIHEDRAL>
0

>  <SCORE.SYSTEM.SOLV>
0

>  <SCORE.SYSTEM.norm>
0

>  <SCORE.heavy>
31

>  <SCORE.norm>
-0.485119

>  <RMSD>
7.095

$$$$
2et3_lig
 OpenBabel11021811423D
libRbt.so/2013.1/901 2013/11/27
 31 33  0  0  0  0  0  0  0  0999 V2000
   -0.7089   -5.0625   35.0000 C   0  0  2  0  0  0  0  0  0  0  0  0
   -0.8933   -6.4616   35.3386 O   0  0  0  0  0  0  0  0  0  0  0  0
   -4.2963   -9.0313   35.6895 C   0  0  2  0  0  0  0  0  0  0  0  0
   -5.6191   -9.4679   36.0138 N   0  0  0  0  0  0  0  0  0  0  0  0
   -6.3963   -8.8203   33.5008 C   0  0  2  0  0  0  0  0  0  0  0  0
    0.7652   -4.7980   34.6750 C   0  0  2  0  0  0  0  0  0  0  0  0
    1.1652   -5.6791   33.6215 N   0  0  0  0  0  0  0  0  0  0  0  0
   -3.5513   -8.6076   36.9963 C   0  0  0  0  0  0  0  0  0  0  0  0
   -6.6955   -9.1938   32.0323 C   0  0  2  0  0  0  0  0  0  0  0  0
   -5.7468  -10.1432   31.5997 O   0  0  0  0  0  0  0  0  0  0  0  0
    1.6488   -4.9808   35.9560 C   0  0  0  0  0  0  0  0  0  0  0  0
   -2.0981   -8.1176   36.6481 C   0  0  2  0  0  0  0  0  0  0  0  0
   -1.3923   -7.7168   37.8756 N   0  0  0  0  0  0  0  0  0  0  0  0
   -6.6370   -7.8674   31.1697 C   0  0  1  0  0  0  0  0  0  0  0  0
   -6.8712   -8.1481   29.7153 N   0  0  0  0  0  0  0  0  0  0  0  0
    1.1568   -3.9619   37.0314 C   0  0  0  0  0  0  0  0  0  0  0  0
   -2.1765   -6.9133   35.6331 C   0  0  2  0  0  0  0  0  0  0  0  0
   -7.7282   -6.7993   31.7102 C   0  0  1  0  0  0  0  0  0  0  0  0
   -9.0435   -7.2977   31.5796 O   0  0  0  0  0  0  0  0  0  0  0  0
   -0.3825   -4.2406   37.3275 C   0  0  2  0  0  0  0  0  0  0  0  0
   -1.1961   -4.2029   36.1134 O   0  0  0  0  0  0  0  0  0  0  0  0
   -2.9345   -7.3712   34.3279 C   0  0  2  0  0  0  0  0  0  0  0  0
   -3.0133   -6.2983   33.3951 O   0  0  0  0  0  0  0  0  0  0  0  0
   -7.4720   -6.5309   33.2254 C   0  0  0  0  0  0  0  0  0  0  0  0
   -7.3937   -7.8228   33.9854 O   0  0  0  0  0  0  0  0  0  0  0  0
   -0.9859   -3.3299   38.3708 C   0  0  0  0  0  0  0  0  0  0  0  0
   -0.9403   -1.9492   37.9667 N   0  0  0  0  0  0  0  0  0  0  0  0
   -4.3803   -7.8578   34.6953 C   0  0  1  0  0  0  0  0  0  0  0  0
   -5.0441   -8.2727   33.5076 O   0  0  0  0  0  0  0  0  0  0  0  0
   -7.7907   -5.4471   30.9868 C   0  0  0  0  0  0  0  0  0  0  0  0
   -5.6950   -8.1260   28.8297 C   0  0  0  0  0  0  0  0  0  0  0  0
  1  2  1  1  0  0  0
  1  6  1  0  0  0  0
  1 21  1  0  0  0  0
  3  4  1  1  0  0  0
  3  8  1  0  0  0  0
  3 28  1  0  0  0  0
  5  9  1  0  0  0  0
  5 25  1  0  0  0  0
  5 29  1  6  0  0  0
  6  7  1  6  0  0  0
  6 11  1  0  0  0  0
  8 12  1  0  0  0  0
  9 10  1  6  0  0  0
  9 14  1  0  0  0  0
 11 16  1  0  0  0  0
 12 13  1  1  0  0  0
 12 17  1  0  0  0  0
 14 15  1  6  0  0  0
 14 18  1  0  0  0  0
 15 31  1  0  0  0  0
 16 20  1  0  0  0  0
 17  2  1  6  0  0  0
 17 22  1  0  0  0  0
 18 19  1  6  0  0  0
 18 24  1  0  0  0  0
 18 30  1  0  0  0  0
 20 21  1  0  0  0  0
 20 26  1  1  0  0  0
 22 23  1  6  0  0  0
 22 28  1  0  0  0  0
 24 25  1  0  0  0  0
 26 27  1  0  0  0  0
 28 29  1  6  0  0  0
M  END
>  <CHROM.1>
-178.34443640,-177.46209195,-104.18852418,-150.38453896,61.60459900,57.82933661
-3.66018032,-6.79369692,34.30208791,-0.28107704,-0.65717824,-1.02652840

>  <Name>
2et3_lig

>  <RI>
3.86414e+07

>  <Rbt.Current_Directory>
/home/itssahil/PROJECTS/Mol_Feturizer/New_Systems/rnas/2et3

>  <Rbt.Executable>
rbdock ($Id: //depot/dev/client3/rdock/2013.1/src/exe/rbdock.cxx#4 $)

>  <Rbt.Library>
libRbt.so (2013.1, Build901 2013/11/27)

>  <Rbt.Parameter_File>
/export/apps/rDock/src/rDock_2013.1_src/data/scripts/dock_solv.prm

>  <Rbt.Receptor>
prm/pocket_docking_8.prm

>  <SCORE>
-20.8823

>  <SCORE.INTER>
-12.1095

>  <SCORE.INTER.CONST>
1

>  <SCORE.INTER.POLAR>
-1.81537

>  <SCORE.INTER.ROT>
6

>  <SCORE.INTER.SOLV>
15.6994

>  <SCORE.INTER.VDW>
-14.8549

>  <SCORE.INTER.norm>
-0.39063

>  <SCORE.INTRA>
-8.77274

>  <SCORE.INTRA.DIHEDRAL>
-17.4773

>  <SCORE.INTRA.DIHEDRAL.0>
22.2484

>  <SCORE.INTRA.POLAR>
0

>  <SCORE.INTRA.POLAR.0>
0

>  <SCORE.INTRA.REPUL>
0

>  <SCORE.INTRA.REPUL.0>
0

>  <SCORE.INTRA.SOLV>
-0.762805

>  <SCORE.INTRA.SOLV.lig_0>
-75.7198

>  <SCORE.INTRA.VDW>
0.347303

>  <SCORE.INTRA.VDW.0>
-3.34171

>  <SCORE.INTRA.norm>
-0.282992

>  <SCORE.RESTR>
0

>  <SCORE.RESTR.CAVITY>
0

>  <SCORE.RESTR.norm>
0

>  <SCORE.SYSTEM>
0

>  <SCORE.SYSTEM.CONST>
0

>  <SCORE.SYSTEM.DIHEDRAL>
0

>  <SCORE.SYSTEM.SOLV>
0

>  <SCORE.SYSTEM.norm>
0

>  <SCORE.heavy>
31

>  <SCORE.norm>
-0.673622

>  <RMSD>
7.107

$$$$
2et3_lig
 OpenBabel11021811423D
libRbt.so/2013.1/901 2013/11/27
 31 33  0  0  0  0  0  0  0  0999 V2000
    0.0865  -12.9783   30.5127 C   0  0  2  0  0  0  0  0  0  0  0  0
   -1.1128  -12.4635   31.1475 O   0  0  0  0  0  0  0  0  0  0  0  0
   -2.0723   -8.8120   33.1605 C   0  0  2  0  0  0  0  0  0  0  0  0
   -1.9344   -7.6818   34.0260 N   0  0  0  0  0  0  0  0  0  0  0  0
    0.1160   -6.7888   30.9539 C   0  0  2  0  0  0  0  0  0  0  0  0
   -0.2685  -13.5897   29.1531 C   0  0  2  0  0  0  0  0  0  0  0  0
   -0.9282  -12.5955   28.3642 N   0  0  0  0  0  0  0  0  0  0  0  0
   -2.0063  -10.1262   34.0034 C   0  0  0  0  0  0  0  0  0  0  0  0
   -0.4360   -5.4227   30.4903 C   0  0  2  0  0  0  0  0  0  0  0  0
   -1.1447   -4.8307   31.5560 O   0  0  0  0  0  0  0  0  0  0  0  0
   -1.1556  -14.8674   29.3430 C   0  0  0  0  0  0  0  0  0  0  0  0
   -2.1484  -11.3751   33.0583 C   0  0  2  0  0  0  0  0  0  0  0  0
   -2.0863  -12.6157   33.8475 N   0  0  0  0  0  0  0  0  0  0  0  0
   -1.3645   -5.6730   29.2324 C   0  0  1  0  0  0  0  0  0  0  0  0
   -1.9826   -4.3968   28.7443 N   0  0  0  0  0  0  0  0  0  0  0  0
   -0.3423  -15.8987   30.1867 C   0  0  0  0  0  0  0  0  0  0  0  0
   -1.0046  -11.3483   31.9732 C   0  0  2  0  0  0  0  0  0  0  0  0
   -0.5170   -6.3691   28.0404 C   0  0  1  0  0  0  0  0  0  0  0  0
    0.5307   -5.5312   27.5978 O   0  0  0  0  0  0  0  0  0  0  0  0
    0.0374  -15.2276   31.5795 C   0  0  2  0  0  0  0  0  0  0  0  0
    0.7516  -13.9634   31.4091 O   0  0  0  0  0  0  0  0  0  0  0  0
   -1.0965  -10.0110   31.1420 C   0  0  2  0  0  0  0  0  0  0  0  0
   -0.0733   -9.9680   30.1525 O   0  0  0  0  0  0  0  0  0  0  0  0
    0.1245   -7.6874   28.5733 C   0  0  0  0  0  0  0  0  0  0  0  0
    0.8792   -7.4317   29.8453 O   0  0  0  0  0  0  0  0  0  0  0  0
    0.8167  -16.1291   32.5078 C   0  0  0  0  0  0  0  0  0  0  0  0
    0.0848  -17.3257   32.8309 N   0  0  0  0  0  0  0  0  0  0  0  0
   -0.9545   -8.7774   32.1012 C   0  0  1  0  0  0  0  0  0  0  0  0
   -1.0471   -7.5828   31.3347 O   0  0  0  0  0  0  0  0  0  0  0  0
   -1.2782   -6.6938   26.7479 C   0  0  0  0  0  0  0  0  0  0  0  0
   -3.3448   -4.4795   28.1915 C   0  0  0  0  0  0  0  0  0  0  0  0
  1  2  1  1  0  0  0
  1  6  1  0  0  0  0
  1 21  1  0  0  0  0
  3  4  1  1  0  0  0
  3  8  1  0  0  0  0
  3 28  1  0  0  0  0
  5  9  1  0  0  0  0
  5 25  1  0  0  0  0
  5 29  1  6  0  0  0
  6  7  1  6  0  0  0
  6 11  1  0  0  0  0
  8 12  1  0  0  0  0
  9 10  1  1  0  0  0
  9 14  1  0  0  0  0
 11 16  1  0  0  0  0
 12 13  1  1  0  0  0
 12 17  1  0  0  0  0
 14 15  1  6  0  0  0
 14 18  1  0  0  0  0
 15 31  1  0  0  0  0
 16 20  1  0  0  0  0
 17  2  1  6  0  0  0
 17 22  1  0  0  0  0
 18 19  1  6  0  0  0
 18 24  1  0  0  0  0
 18 30  1  0  0  0  0
 20 21  1  0  0  0  0
 20 26  1  6  0  0  0
 22 23  1  6  0  0  0
 22 28  1  0  0  0  0
 24 25  1  0  0  0  0
 26 27  1  0  0  0  0
 28 29  1  6  0  0  0
M  END
>  <CHROM.1>
-148.19956742,-164.89899442,-145.52835496,-152.45164692,-59.69422798,137.82884105
-0.78995400,-9.91551645,30.67918913,-1.25410586,1.30609710,-0.54046572

>  <Name>
2et3_lig

>  <RI>
0

>  <Rbt.Current_Directory>
/home/itssahil/PROJECTS/Mol_Feturizer/New_Systems/rnas/2et3

>  <Rbt.Executable>
rbdock ($Id: //depot/dev/client3/rdock/2013.1/src/exe/rbdock.cxx#4 $)

>  <Rbt.Library>
libRbt.so (2013.1, Build901 2013/11/27)

>  <Rbt.Parameter_File>
/export/apps/rDock/src/rDock_2013.1_src/data/scripts/dock_solv.prm

>  <Rbt.Receptor>
prm/blind_docking_100.prm

>  <SCORE>
-14.8296

>  <SCORE.INTER>
-13.0799

>  <SCORE.INTER.CONST>
1

>  <SCORE.INTER.POLAR>
-0.909672

>  <SCORE.INTER.ROT>
6

>  <SCORE.INTER.SOLV>
14.8808

>  <SCORE.INTER.VDW>
-18.248

>  <SCORE.INTER.norm>
-0.421934

>  <SCORE.INTRA>
-4.32542

>  <SCORE.INTRA.DIHEDRAL>
-7.50665

>  <SCORE.INTRA.DIHEDRAL.0>
22.2484

>  <SCORE.INTRA.POLAR>
0

>  <SCORE.INTRA.POLAR.0>
0

>  <SCORE.INTRA.REPUL>
0

>  <SCORE.INTRA.REPUL.0>
0

>  <SCORE.INTRA.SOLV>
-1.8612

>  <SCORE.INTRA.SOLV.lig_0>
-75.7198

>  <SCORE.INTRA.VDW>
0.358501

>  <SCORE.INTRA.VDW.0>
-3.34171

>  <SCORE.INTRA.norm>
-0.13953

>  <SCORE.RESTR>
2.57579

>  <SCORE.RESTR.CAVITY>
2.57579

>  <SCORE.RESTR.norm>
0.08309

>  <SCORE.SYSTEM>
0

>  <SCORE.SYSTEM.CONST>
0

>  <SCORE.SYSTEM.DIHEDRAL>
0

>  <SCORE.SYSTEM.SOLV>
0

>  <SCORE.SYSTEM.norm>
0

>  <SCORE.heavy>
31

>  <SCORE.norm>
-0.478374

>  <RMSD>
7.128

$$$$
2et3_lig
 OpenBabel11021811423D
libRbt.so/2013.1/901 2013/11/27
 31 33  0  0  0  0  0  0  0  0999 V2000
   -2.5386   -7.7430   35.6420 C   0  0  2  0  0  0  0  0  0  0  0  0
   -3.4060   -7.5117   34.5017 O   0  0  0  0  0  0  0  0  0  0  0  0
   -4.0743   -9.6123   30.8347 C   0  0  2  0  0  0  0  0  0  0  0  0
   -3.7925  -10.3258   29.6276 N   0  0  0  0  0  0  0  0  0  0  0  0
   -3.7187  -12.7508   32.9907 C   0  0  2  0  0  0  0  0  0  0  0  0
   -3.1866   -7.1758   36.9096 C   0  0  2  0  0  0  0  0  0  0  0  0
   -4.4776   -7.7712   37.0674 N   0  0  0  0  0  0  0  0  0  0  0  0
   -3.4233   -8.1933   30.7664 C   0  0  0  0  0  0  0  0  0  0  0  0
   -2.2680  -13.0893   32.5825 C   0  0  2  0  0  0  0  0  0  0  0  0
   -1.4736  -11.9320   32.7166 O   0  0  0  0  0  0  0  0  0  0  0  0
   -3.2704   -5.6132   36.8284 C   0  0  0  0  0  0  0  0  0  0  0  0
   -3.7207   -7.4044   32.0939 C   0  0  2  0  0  0  0  0  0  0  0  0
   -3.1092   -6.0671   32.0347 N   0  0  0  0  0  0  0  0  0  0  0  0
   -2.2916  -13.6180   31.0903 C   0  0  1  0  0  0  0  0  0  0  0  0
   -0.9100  -13.9272   30.5959 N   0  0  0  0  0  0  0  0  0  0  0  0
   -1.8181   -5.0585   36.6875 C   0  0  0  0  0  0  0  0  0  0  0  0
   -3.1646   -8.2163   33.3259 C   0  0  2  0  0  0  0  0  0  0  0  0
   -3.2277  -14.9350   30.9775 C   0  0  1  0  0  0  0  0  0  0  0  0
   -2.7218  -15.9939   31.7639 O   0  0  0  0  0  0  0  0  0  0  0  0
   -1.1601   -5.6861   35.3807 C   0  0  2  0  0  0  0  0  0  0  0  0
   -1.1980   -7.1475   35.3882 O   0  0  0  0  0  0  0  0  0  0  0  0
   -3.8379   -9.6421   33.3660 C   0  0  2  0  0  0  0  0  0  0  0  0
   -3.3518  -10.3918   34.4748 O   0  0  0  0  0  0  0  0  0  0  0  0
   -4.6550  -14.5931   31.5062 C   0  0  0  0  0  0  0  0  0  0  0  0
   -4.5782  -13.9634   32.8665 O   0  0  0  0  0  0  0  0  0  0  0  0
    0.2505   -5.2168   35.1127 C   0  0  0  0  0  0  0  0  0  0  0  0
    0.8235   -5.8716   33.9661 N   0  0  0  0  0  0  0  0  0  0  0  0
   -3.5319  -10.4127   32.0338 C   0  0  1  0  0  0  0  0  0  0  0  0
   -4.1527  -11.6914   32.0864 O   0  0  0  0  0  0  0  0  0  0  0  0
   -3.3697  -15.5665   29.5859 C   0  0  0  0  0  0  0  0  0  0  0  0
   -0.0868  -14.8255   31.4228 C   0  0  0  0  0  0  0  0  0  0  0  0
  1  2  1  6  0  0  0
  1  6  1  0  0  0  0
  1 21  1  0  0  0  0
  3  4  1  6  0  0  0
  3  8  1  0  0  0  0
  3 28  1  0  0  0  0
  5  9  1  0  0  0  0
  5 25  1  0  0  0  0
  5 29  1  6  0  0  0
  6  7  1  6  0  0  0
  6 11  1  0  0  0  0
  8 12  1  0  0  0  0
  9 10  1  6  0  0  0
  9 14  1  0  0  0  0
 11 16  1  0  0  0  0
 12 13  1  6  0  0  0
 12 17  1  0  0  0  0
 14 15  1  1  0  0  0
 14 18  1  0  0  0  0
 15 31  1  0  0  0  0
 16 20  1  0  0  0  0
 17  2  1  1  0  0  0
 17 22  1  0  0  0  0
 18 19  1  1  0  0  0
 18 24  1  0  0  0  0
 18 30  1  0  0  0  0
 20 21  1  0  0  0  0
 20 26  1  1  0  0  0
 22 23  1  1  0  0  0
 22 28  1  0  0  0  0
 24 25  1  0  0  0  0
 26 27  1  0  0  0  0
 28 29  1  1  0  0  0
M  END
>  <CHROM.1>
-164.89461239,-62.44913077,52.82232465,-154.36886604,176.67480258,171.09663469
-2.74921788,-10.11356349,33.10649873,1.28994188,1.24431529,0.74019541

>  <Name>
2et3_lig

>  <RI>
3.86414e+07

>  <Rbt.Current_Directory>
/home/itssahil/PROJECTS/Mol_Feturizer/New_Systems/rnas/2et3

>  <Rbt.Executable>
rbdock ($Id: //depot/dev/client3/rdock/2013.1/src/exe/rbdock.cxx#4 $)

>  <Rbt.Library>
libRbt.so (2013.1, Build901 2013/11/27)

>  <Rbt.Parameter_File>
/export/apps/rDock/src/rDock_2013.1_src/data/scripts/dock_solv.prm

>  <Rbt.Receptor>
prm/pocket_docking_8.prm

>  <SCORE>
-16.4555

>  <SCORE.INTER>
-9.05987

>  <SCORE.INTER.CONST>
1

>  <SCORE.INTER.POLAR>
-2.54698

>  <SCORE.INTER.ROT>
6

>  <SCORE.INTER.SOLV>
10.7115

>  <SCORE.INTER.VDW>
-8.72047

>  <SCORE.INTER.norm>
-0.292254

>  <SCORE.INTRA>
-7.39564

>  <SCORE.INTRA.DIHEDRAL>
-17.7581

>  <SCORE.INTRA.DIHEDRAL.0>
22.2484

>  <SCORE.INTRA.POLAR>
0

>  <SCORE.INTRA.POLAR.0>
0

>  <SCORE.INTRA.REPUL>
0

>  <SCORE.INTRA.REPUL.0>
0

>  <SCORE.INTRA.SOLV>
-1.61226

>  <SCORE.INTRA.SOLV.lig_0>
-75.7198

>  <SCORE.INTRA.VDW>
2.28952

>  <SCORE.INTRA.VDW.0>
-3.34171

>  <SCORE.INTRA.norm>
-0.238569

>  <SCORE.RESTR>
0

>  <SCORE.RESTR.CAVITY>
0

>  <SCORE.RESTR.norm>
0

>  <SCORE.SYSTEM>
0

>  <SCORE.SYSTEM.CONST>
0

>  <SCORE.SYSTEM.DIHEDRAL>
0

>  <SCORE.SYSTEM.SOLV>
0

>  <SCORE.SYSTEM.norm>
0

>  <SCORE.heavy>
31

>  <SCORE.norm>
-0.530823

>  <RMSD>
7.193

$$$$
2et3_lig
 OpenBabel11021811423D
libRbt.so/2013.1/901 2013/11/27
 31 33  0  0  0  0  0  0  0  0999 V2000
   -4.8697   -9.3040   31.6332 C   0  0  2  0  0  0  0  0  0  0  0  0
   -5.2674   -8.8279   32.9452 O   0  0  0  0  0  0  0  0  0  0  0  0
   -2.9396   -7.8205   36.3909 C   0  0  2  0  0  0  0  0  0  0  0  0
   -2.0067   -7.9590   37.4661 N   0  0  0  0  0  0  0  0  0  0  0  0
   -1.4051   -5.7183   34.3132 C   0  0  2  0  0  0  0  0  0  0  0  0
   -5.7846   -8.6990   30.5630 C   0  0  2  0  0  0  0  0  0  0  0  0
   -5.7341   -7.2737   30.6726 N   0  0  0  0  0  0  0  0  0  0  0  0
   -4.0825   -8.8741   36.5523 C   0  0  0  0  0  0  0  0  0  0  0  0
   -0.0664   -4.9573   34.4342 C   0  0  2  0  0  0  0  0  0  0  0  0
    0.9341   -5.6813   33.7536 O   0  0  0  0  0  0  0  0  0  0  0  0
   -7.2449   -9.2452   30.7199 C   0  0  0  0  0  0  0  0  0  0  0  0
   -5.1088   -8.7349   35.3689 C   0  0  2  0  0  0  0  0  0  0  0  0
   -6.1871   -9.7255   35.5161 N   0  0  0  0  0  0  0  0  0  0  0  0
    0.2665   -4.7972   35.9738 C   0  0  1  0  0  0  0  0  0  0  0  0
    1.5811   -4.1062   36.1818 N   0  0  0  0  0  0  0  0  0  0  0  0
   -7.2001  -10.7970   30.5567 C   0  0  0  0  0  0  0  0  0  0  0  0
   -4.3593   -8.9285   33.9951 C   0  0  2  0  0  0  0  0  0  0  0  0
   -0.9143   -3.9769   36.7198 C   0  0  1  0  0  0  0  0  0  0  0  0
   -1.0356   -2.6675   36.2036 O   0  0  0  0  0  0  0  0  0  0  0  0
   -6.2211  -11.3950   31.6606 C   0  0  2  0  0  0  0  0  0  0  0  0
   -4.8903  -10.7923   31.6062 O   0  0  0  0  0  0  0  0  0  0  0  0
   -3.2124   -7.8537   33.8633 C   0  0  2  0  0  0  0  0  0  0  0  0
   -2.5242   -8.0086   32.6263 O   0  0  0  0  0  0  0  0  0  0  0  0
   -2.2719   -4.7073   36.4814 C   0  0  0  0  0  0  0  0  0  0  0  0
   -2.4832   -4.9663   35.0182 O   0  0  0  0  0  0  0  0  0  0  0  0
   -6.0979  -12.9002   31.6272 C   0  0  0  0  0  0  0  0  0  0  0  0
   -5.2744  -13.3936   32.6996 N   0  0  0  0  0  0  0  0  0  0  0  0
   -2.2003   -8.0070   35.0525 C   0  0  1  0  0  0  0  0  0  0  0  0
   -1.1791   -7.0257   34.9197 O   0  0  0  0  0  0  0  0  0  0  0  0
   -0.7512   -3.7469   38.2285 C   0  0  0  0  0  0  0  0  0  0  0  0
    2.7946   -4.9374   36.1116 C   0  0  0  0  0  0  0  0  0  0  0  0
  1  2  1  1  0  0  0
  1  6  1  0  0  0  0
  1 21  1  0  0  0  0
  3  4  1  1  0  0  0
  3  8  1  0  0  0  0
  3 28  1  0  0  0  0
  5  9  1  0  0  0  0
  5 25  1  0  0  0  0
  5 29  1  1  0  0  0
  6  7  1  1  0  0  0
  6 11  1  0  0  0  0
  8 12  1  0  0  0  0
  9 10  1  6  0  0  0
  9 14  1  0  0  0  0
 11 16  1  0  0  0  0
 12 13  1  1  0  0  0
 12 17  1  0  0  0  0
 14 15  1  6  0  0  0
 14 18  1  0  0  0  0
 15 31  1  0  0  0  0
 16 20  1  0  0  0  0
 17  2  1  6  0  0  0
 17 22  1  0  0  0  0
 18 19  1  6  0  0  0
 18 24  1  0  0  0  0
 18 30  1  0  0  0  0
 20 21  1  0  0  0  0
 20 26  1  6  0  0  0
 22 23  1  6  0  0  0
 22 28  1  0  0  0  0
 24 25  1  0  0  0  0
 26 27  1  0  0  0  0
 28 29  1  6  0  0  0
M  END
>  <CHROM.1>
-161.40013868,177.37279504,-83.28876787,-164.54424613,-176.09294017,-89.38577217
-3.05145259,-7.57917295,34.18724175,-2.82831671,0.85283169,1.78710631

>  <Name>
2et3_lig

>  <RI>
3.86414e+07

>  <Rbt.Current_Directory>
/home/itssahil/PROJECTS/Mol_Feturizer/New_Systems/rnas/2et3

>  <Rbt.Executable>
rbdock ($Id: //depot/dev/client3/rdock/2013.1/src/exe/rbdock.cxx#4 $)

>  <Rbt.Library>
libRbt.so (2013.1, Build901 2013/11/27)

>  <Rbt.Parameter_File>
/export/apps/rDock/src/rDock_2013.1_src/data/scripts/dock_solv.prm

>  <Rbt.Receptor>
prm/pocket_docking_8.prm

>  <SCORE>
-24.1436

>  <SCORE.INTER>
-16.3882

>  <SCORE.INTER.CONST>
1

>  <SCORE.INTER.POLAR>
-2.65104

>  <SCORE.INTER.ROT>
6

>  <SCORE.INTER.SOLV>
12.5443

>  <SCORE.INTER.VDW>
-13.8701

>  <SCORE.INTER.norm>
-0.528651

>  <SCORE.INTRA>
-7.75545

>  <SCORE.INTRA.DIHEDRAL>
-15.4363

>  <SCORE.INTRA.DIHEDRAL.0>
22.2484

>  <SCORE.INTRA.POLAR>
0

>  <SCORE.INTRA.POLAR.0>
0

>  <SCORE.INTRA.REPUL>
0

>  <SCORE.INTRA.REPUL.0>
0

>  <SCORE.INTRA.SOLV>
-1.50353

>  <SCORE.INTRA.SOLV.lig_0>
-75.7198

>  <SCORE.INTRA.VDW>
0.714489

>  <SCORE.INTRA.VDW.0>
-3.34171

>  <SCORE.INTRA.norm>
-0.250176

>  <SCORE.RESTR>
0

>  <SCORE.RESTR.CAVITY>
0

>  <SCORE.RESTR.norm>
0

>  <SCORE.SYSTEM>
0

>  <SCORE.SYSTEM.CONST>
0

>  <SCORE.SYSTEM.DIHEDRAL>
0

>  <SCORE.SYSTEM.SOLV>
0

>  <SCORE.SYSTEM.norm>
0

>  <SCORE.heavy>
31

>  <SCORE.norm>
-0.778826

>  <RMSD>
7.199

$$$$
2et3_lig
 OpenBabel11021811423D
libRbt.so/2013.1/901 2013/11/27
 31 33  0  0  0  0  0  0  0  0999 V2000
   -1.1862   -5.7989   35.2370 C   0  0  2  0  0  0  0  0  0  0  0  0
   -1.6239   -4.8035   34.2758 O   0  0  0  0  0  0  0  0  0  0  0  0
   -1.7855   -5.1177   30.0118 C   0  0  2  0  0  0  0  0  0  0  0  0
   -1.3395   -5.2433   28.6587 N   0  0  0  0  0  0  0  0  0  0  0  0
   -1.4839   -8.0659   28.9423 C   0  0  2  0  0  0  0  0  0  0  0  0
   -1.6220   -5.3848   36.6467 C   0  0  2  0  0  0  0  0  0  0  0  0
   -3.0403   -5.1996   36.6496 N   0  0  0  0  0  0  0  0  0  0  0  0
   -1.1988   -3.8105   30.6357 C   0  0  0  0  0  0  0  0  0  0  0  0
   -2.3746   -9.3011   28.6844 C   0  0  2  0  0  0  0  0  0  0  0  0
   -3.7250   -8.8955   28.6679 O   0  0  0  0  0  0  0  0  0  0  0  0
   -0.8631   -4.0892   37.0950 C   0  0  0  0  0  0  0  0  0  0  0  0
   -1.6771   -3.6685   32.1270 C   0  0  2  0  0  0  0  0  0  0  0  0
   -1.1268   -2.4389   32.7193 N   0  0  0  0  0  0  0  0  0  0  0  0
   -2.0904  -10.3557   29.8307 C   0  0  1  0  0  0  0  0  0  0  0  0
   -2.9530  -11.5733   29.6821 N   0  0  0  0  0  0  0  0  0  0  0  0
    0.6668   -4.3988   37.0877 C   0  0  0  0  0  0  0  0  0  0  0  0
   -1.2218   -4.9344   32.9498 C   0  0  2  0  0  0  0  0  0  0  0  0
   -0.5273  -10.7806   29.8257 C   0  0  1  0  0  0  0  0  0  0  0  0
   -0.1697  -11.4097   28.6125 O   0  0  0  0  0  0  0  0  0  0  0  0
    1.0852   -4.8539   35.6205 C   0  0  2  0  0  0  0  0  0  0  0  0
    0.2880   -5.9820   35.1417 O   0  0  0  0  0  0  0  0  0  0  0  0
   -1.8272   -6.2354   32.2951 C   0  0  2  0  0  0  0  0  0  0  0  0
   -1.4309   -7.3916   33.0257 O   0  0  0  0  0  0  0  0  0  0  0  0
    0.3501   -9.4989   29.9707 C   0  0  0  0  0  0  0  0  0  0  0  0
   -0.0477   -8.4681   28.9548 O   0  0  0  0  0  0  0  0  0  0  0  0
    2.5544   -5.1696   35.4668 C   0  0  0  0  0  0  0  0  0  0  0  0
    3.3416   -3.9783   35.2861 N   0  0  0  0  0  0  0  0  0  0  0  0
   -1.3407   -6.3588   30.8084 C   0  0  1  0  0  0  0  0  0  0  0  0
   -1.9024   -7.5327   30.2342 O   0  0  0  0  0  0  0  0  0  0  0  0
   -0.0810  -11.7910   30.8913 C   0  0  0  0  0  0  0  0  0  0  0  0
   -3.8003  -11.9395   30.8293 C   0  0  0  0  0  0  0  0  0  0  0  0
  1  2  1  6  0  0  0
  1  6  1  0  0  0  0
  1 21  1  0  0  0  0
  3  4  1  6  0  0  0
  3  8  1  0  0  0  0
  3 28  1  0  0  0  0
  5  9  1  0  0  0  0
  5 25  1  0  0  0  0
  5 29  1  1  0  0  0
  6  7  1  6  0  0  0
  6 11  1  0  0  0  0
  8 12  1  0  0  0  0
  9 10  1  1  0  0  0
  9 14  1  0  0  0  0
 11 16  1  0  0  0  0
 12 13  1  1  0  0  0
 12 17  1  0  0  0  0
 14 15  1  6  0  0  0
 14 18  1  0  0  0  0
 15 31  1  0  0  0  0
 16 20  1  0  0  0  0
 17  2  1  1  0  0  0
 17 22  1  0  0  0  0
 18 19  1  6  0  0  0
 18 24  1  0  0  0  0
 18 30  1  0  0  0  0
 20 21  1  0  0  0  0
 20 26  1  1  0  0  0
 22 23  1  1  0  0  0
 22 28  1  0  0  0  0
 24 25  1  0  0  0  0
 26 27  1  0  0  0  0
 28 29  1  6  0  0  0
M  END
>  <CHROM.1>
174.30382008,-178.02581721,-123.70258078,-173.81519102,-81.22474546,70.14241157
-1.04031907,-6.96485464,32.13500264,-0.87182363,1.26975114,-2.99395037

>  <Name>
2et3_lig

>  <RI>
3.86414e+07

>  <Rbt.Current_Directory>
/home/itssahil/PROJECTS/Mol_Feturizer/New_Systems/rnas/2et3

>  <Rbt.Executable>
rbdock ($Id: //depot/dev/client3/rdock/2013.1/src/exe/rbdock.cxx#4 $)

>  <Rbt.Library>
libRbt.so (2013.1, Build901 2013/11/27)

>  <Rbt.Parameter_File>
/export/apps/rDock/src/rDock_2013.1_src/data/scripts/dock_solv.prm

>  <Rbt.Receptor>
prm/pocket_docking_8.prm

>  <SCORE>
-21.6026

>  <SCORE.INTER>
-11.2471

>  <SCORE.INTER.CONST>
1

>  <SCORE.INTER.POLAR>
-1.40461

>  <SCORE.INTER.ROT>
6

>  <SCORE.INTER.SOLV>
10.7948

>  <SCORE.INTER.VDW>
-14.0143

>  <SCORE.INTER.norm>
-0.362809

>  <SCORE.INTRA>
-10.3556

>  <SCORE.INTRA.DIHEDRAL>
-18.6727

>  <SCORE.INTRA.DIHEDRAL.0>
22.2484

>  <SCORE.INTRA.POLAR>
0

>  <SCORE.INTRA.POLAR.0>
0

>  <SCORE.INTRA.REPUL>
0

>  <SCORE.INTRA.REPUL.0>
0

>  <SCORE.INTRA.SOLV>
-3.27833

>  <SCORE.INTRA.SOLV.lig_0>
-75.7198

>  <SCORE.INTRA.VDW>
0.619923

>  <SCORE.INTRA.VDW.0>
-3.34171

>  <SCORE.INTRA.norm>
-0.334051

>  <SCORE.RESTR>
0

>  <SCORE.RESTR.CAVITY>
0

>  <SCORE.RESTR.norm>
0

>  <SCORE.SYSTEM>
0

>  <SCORE.SYSTEM.CONST>
0

>  <SCORE.SYSTEM.DIHEDRAL>
0

>  <SCORE.SYSTEM.SOLV>
0

>  <SCORE.SYSTEM.norm>
0

>  <SCORE.heavy>
31

>  <SCORE.norm>
-0.696859

>  <RMSD>
7.243

$$$$
2et3_lig
 OpenBabel11021811423D
libRbt.so/2013.1/901 2013/11/27
 31 33  0  0  0  0  0  0  0  0999 V2000
   -0.6010  -12.7853   29.6342 C   0  0  2  0  0  0  0  0  0  0  0  0
   -1.5763  -12.0361   30.4046 O   0  0  0  0  0  0  0  0  0  0  0  0
   -1.5658   -8.4658   32.7624 C   0  0  2  0  0  0  0  0  0  0  0  0
   -1.0793   -7.4134   33.5998 N   0  0  0  0  0  0  0  0  0  0  0  0
    0.1158   -6.2799   30.4919 C   0  0  2  0  0  0  0  0  0  0  0  0
   -1.3146  -13.6164   28.5626 C   0  0  2  0  0  0  0  0  0  0  0  0
   -2.1016  -12.7380   27.7532 N   0  0  0  0  0  0  0  0  0  0  0  0
   -1.3957   -9.8361   33.4941 C   0  0  0  0  0  0  0  0  0  0  0  0
   -0.5403   -5.0055   29.9166 C   0  0  2  0  0  0  0  0  0  0  0  0
   -1.4319   -4.4786   30.8736 O   0  0  0  0  0  0  0  0  0  0  0  0
   -2.1871  -14.7345   29.2290 C   0  0  0  0  0  0  0  0  0  0  0  0
   -1.9204  -11.0006   32.5767 C   0  0  2  0  0  0  0  0  0  0  0  0
   -1.7618  -12.2937   33.2612 N   0  0  0  0  0  0  0  0  0  0  0  0
   -1.2825   -5.4017   28.5753 C   0  0  1  0  0  0  0  0  0  0  0  0
   -1.9903   -4.2253   27.9719 N   0  0  0  0  0  0  0  0  0  0  0  0
   -1.2397  -15.6536   30.0624 C   0  0  0  0  0  0  0  0  0  0  0  0
   -1.1308  -10.9934   31.2117 C   0  0  2  0  0  0  0  0  0  0  0  0
   -0.2271   -6.0179   27.5122 C   0  0  1  0  0  0  0  0  0  0  0  0
    0.7555   -5.0682   27.1543 O   0  0  0  0  0  0  0  0  0  0  0  0
   -0.4908  -14.7602   31.1466 C   0  0  2  0  0  0  0  0  0  0  0  0
    0.2187  -13.6338   30.5421 O   0  0  0  0  0  0  0  0  0  0  0  0
   -1.3200   -9.5988   30.4996 C   0  0  2  0  0  0  0  0  0  0  0  0
   -0.6172   -9.5720   29.2615 O   0  0  0  0  0  0  0  0  0  0  0  0
    0.5036   -7.2321   28.1644 C   0  0  0  0  0  0  0  0  0  0  0  0
    1.0722   -6.8517   29.5003 O   0  0  0  0  0  0  0  0  0  0  0  0
    0.4513  -15.5325   32.0397 C   0  0  0  0  0  0  0  0  0  0  0  0
   -0.2402  -16.1479   33.1420 N   0  0  0  0  0  0  0  0  0  0  0  0
   -0.7931   -8.4504   31.4300 C   0  0  1  0  0  0  0  0  0  0  0  0
   -0.9789   -7.2020   30.7740 O   0  0  0  0  0  0  0  0  0  0  0  0
   -0.7915   -6.4681   26.1578 C   0  0  0  0  0  0  0  0  0  0  0  0
   -3.4521   -4.1641   28.1379 C   0  0  0  0  0  0  0  0  0  0  0  0
  1  2  1  1  0  0  0
  1  6  1  0  0  0  0
  1 21  1  0  0  0  0
  3  4  1  1  0  0  0
  3  8  1  0  0  0  0
  3 28  1  0  0  0  0
  5  9  1  0  0  0  0
  5 25  1  0  0  0  0
  5 29  1  6  0  0  0
  6  7  1  1  0  0  0
  6 11  1  0  0  0  0
  8 12  1  0  0  0  0
  9 10  1  1  0  0  0
  9 14  1  0  0  0  0
 11 16  1  0  0  0  0
 12 13  1  1  0  0  0
 12 17  1  0  0  0  0
 14 15  1  6  0  0  0
 14 18  1  0  0  0  0
 15 31  1  0  0  0  0
 16 20  1  0  0  0  0
 17  2  1  6  0  0  0
 17 22  1  0  0  0  0
 18 19  1  6  0  0  0
 18 24  1  0  0  0  0
 18 30  1  0  0  0  0
 20 21  1  0  0  0  0
 20 26  1  6  0  0  0
 22 23  1  6  0  0  0
 22 28  1  0  0  0  0
 24 25  1  0  0  0  0
 26 27  1  0  0  0  0
 28 29  1  6  0  0  0
M  END
>  <CHROM.1>
-165.27861576,-174.15077593,-103.45628056,-139.87408856,-83.45649028,117.47253612
-0.92204070,-9.55895167,30.16303247,-1.53312662,1.51829753,-0.28422512

>  <Name>
2et3_lig

>  <RI>
2.5794e+07

>  <Rbt.Current_Directory>
/home/itssahil/PROJECTS/Mol_Feturizer/New_Systems/rnas/2et3

>  <Rbt.Executable>
rbdock ($Id: //depot/dev/client3/rdock/2013.1/src/exe/rbdock.cxx#4 $)

>  <Rbt.Library>
libRbt.so (2013.1, Build901 2013/11/27)

>  <Rbt.Parameter_File>
/export/apps/rDock/src/rDock_2013.1_src/data/scripts/dock_solv.prm

>  <Rbt.Receptor>
prm/pocket_docking_5.prm

>  <SCORE>
-25.127

>  <SCORE.INTER>
-20.9597

>  <SCORE.INTER.CONST>
1

>  <SCORE.INTER.POLAR>
-2.50551

>  <SCORE.INTER.ROT>
6

>  <SCORE.INTER.SOLV>
16.5716

>  <SCORE.INTER.VDW>
-18.7453

>  <SCORE.INTER.norm>
-0.67612

>  <SCORE.INTRA>
-4.16731

>  <SCORE.INTRA.DIHEDRAL>
-5.70927

>  <SCORE.INTRA.DIHEDRAL.0>
22.2484

>  <SCORE.INTRA.POLAR>
0

>  <SCORE.INTRA.POLAR.0>
0

>  <SCORE.INTRA.REPUL>
0

>  <SCORE.INTRA.REPUL.0>
0

>  <SCORE.INTRA.SOLV>
-1.39327

>  <SCORE.INTRA.SOLV.lig_0>
-75.7198

>  <SCORE.INTRA.VDW>
-0.616036

>  <SCORE.INTRA.VDW.0>
-3.34171

>  <SCORE.INTRA.norm>
-0.134429

>  <SCORE.RESTR>
0

>  <SCORE.RESTR.CAVITY>
0

>  <SCORE.RESTR.norm>
0

>  <SCORE.SYSTEM>
0

>  <SCORE.SYSTEM.CONST>
0

>  <SCORE.SYSTEM.DIHEDRAL>
0

>  <SCORE.SYSTEM.SOLV>
0

>  <SCORE.SYSTEM.norm>
0

>  <SCORE.heavy>
31

>  <SCORE.norm>
-0.810549

>  <RMSD>
7.249

$$$$
2et3_lig
 OpenBabel11021811423D
libRbt.so/2013.1/901 2013/11/27
 31 33  0  0  0  0  0  0  0  0999 V2000
   -1.3631   -6.0396   34.2707 C   0  0  2  0  0  0  0  0  0  0  0  0
   -1.1843   -7.2759   35.0094 O   0  0  0  0  0  0  0  0  0  0  0  0
   -2.1460  -11.3700   34.2223 C   0  0  2  0  0  0  0  0  0  0  0  0
   -2.8898  -12.5144   33.7946 N   0  0  0  0  0  0  0  0  0  0  0  0
   -0.8438  -10.5381   30.7187 C   0  0  2  0  0  0  0  0  0  0  0  0
   -0.1845   -5.0986   34.5422 C   0  0  2  0  0  0  0  0  0  0  0  0
    1.0282   -5.7761   34.2008 N   0  0  0  0  0  0  0  0  0  0  0  0
   -2.9312  -10.6297   35.3527 C   0  0  0  0  0  0  0  0  0  0  0  0
   -2.1431  -10.5850   29.8849 C   0  0  2  0  0  0  0  0  0  0  0  0
   -3.1429   -9.8503   30.5550 O   0  0  0  0  0  0  0  0  0  0  0  0
   -0.1911   -4.6317   36.0380 C   0  0  0  0  0  0  0  0  0  0  0  0
   -2.1245   -9.3645   35.8233 C   0  0  2  0  0  0  0  0  0  0  0  0
   -2.8601   -8.6634   36.8877 N   0  0  0  0  0  0  0  0  0  0  0  0
   -2.5511  -12.1039   29.7020 C   0  0  1  0  0  0  0  0  0  0  0  0
   -3.8351  -12.2390   28.9391 N   0  0  0  0  0  0  0  0  0  0  0  0
   -1.5341   -3.8818   36.3038 C   0  0  0  0  0  0  0  0  0  0  0  0
   -1.8791   -8.4080   34.5938 C   0  0  2  0  0  0  0  0  0  0  0  0
   -1.3698  -12.9138   28.9455 C   0  0  1  0  0  0  0  0  0  0  0  0
   -1.1482  -12.4050   27.6464 O   0  0  0  0  0  0  0  0  0  0  0  0
   -2.7395   -4.8722   35.9860 C   0  0  2  0  0  0  0  0  0  0  0  0
   -2.6665   -5.4173   34.6314 O   0  0  0  0  0  0  0  0  0  0  0  0
   -1.0880   -9.1836   33.4711 C   0  0  2  0  0  0  0  0  0  0  0  0
   -0.8522   -8.3358   32.3515 O   0  0  0  0  0  0  0  0  0  0  0  0
   -0.0433  -12.7507   29.7502 C   0  0  0  0  0  0  0  0  0  0  0  0
    0.2336  -11.3014   30.0250 O   0  0  0  0  0  0  0  0  0  0  0  0
   -4.1075   -4.2757   36.2196 C   0  0  0  0  0  0  0  0  0  0  0  0
   -5.1579   -5.2153   35.9273 N   0  0  0  0  0  0  0  0  0  0  0  0
   -1.9069  -10.4424   33.0161 C   0  0  1  0  0  0  0  0  0  0  0  0
   -1.1745  -11.1312   32.0099 O   0  0  0  0  0  0  0  0  0  0  0  0
   -1.6028  -14.4112   28.7022 C   0  0  0  0  0  0  0  0  0  0  0  0
   -5.0845  -12.2103   29.7178 C   0  0  0  0  0  0  0  0  0  0  0  0
  1  2  1  1  0  0  0
  1  6  1  0  0  0  0
  1 21  1  0  0  0  0
  3  4  1  6  0  0  0
  3  8  1  0  0  0  0
  3 28  1  0  0  0  0
  5  9  1  0  0  0  0
  5 25  1  0  0  0  0
  5 29  1  1  0  0  0
  6  7  1  1  0  0  0
  6 11  1  0  0  0  0
  8 12  1  0  0  0  0
  9 10  1  1  0  0  0
  9 14  1  0  0  0  0
 11 16  1  0  0  0  0
 12 13  1  1  0  0  0
 12 17  1  0  0  0  0
 14 15  1  6  0  0  0
 14 18  1  0  0  0  0
 15 31  1  0  0  0  0
 16 20  1  0  0  0  0
 17  2  1  1  0  0  0
 17 22  1  0  0  0  0
 18 19  1  6  0  0  0
 18 24  1  0  0  0  0
 18 30  1  0  0  0  0
 20 21  1  0  0  0  0
 20 26  1  6  0  0  0
 22 23  1  6  0  0  0
 22 28  1  0  0  0  0
 24 25  1  0  0  0  0
 26 27  1  0  0  0  0
 28 29  1  6  0  0  0
M  END
>  <CHROM.1>
-159.62327622,-76.61298837,-88.07458797,-152.45947951,-179.54965252,177.14745569
-1.91688382,-9.17145619,32.83339711,-1.58905489,-0.59144163,-2.42592021

>  <Name>
2et3_lig

>  <RI>
0

>  <Rbt.Current_Directory>
/home/itssahil/PROJECTS/Mol_Feturizer/New_Systems/rnas/2et3

>  <Rbt.Executable>
rbdock ($Id: //depot/dev/client3/rdock/2013.1/src/exe/rbdock.cxx#4 $)

>  <Rbt.Library>
libRbt.so (2013.1, Build901 2013/11/27)

>  <Rbt.Parameter_File>
/export/apps/rDock/src/rDock_2013.1_src/data/scripts/dock_solv.prm

>  <Rbt.Receptor>
prm/pocket_docking_7.prm

>  <SCORE>
-20.4193

>  <SCORE.INTER>
-12.3168

>  <SCORE.INTER.CONST>
1

>  <SCORE.INTER.POLAR>
-1.96632

>  <SCORE.INTER.ROT>
6

>  <SCORE.INTER.SOLV>
14.8311

>  <SCORE.INTER.VDW>
-14.2005

>  <SCORE.INTER.norm>
-0.397315

>  <SCORE.INTRA>
-8.10253

>  <SCORE.INTRA.DIHEDRAL>
-15.2503

>  <SCORE.INTRA.DIHEDRAL.0>
22.2484

>  <SCORE.INTRA.POLAR>
0

>  <SCORE.INTRA.POLAR.0>
0

>  <SCORE.INTRA.REPUL>
0

>  <SCORE.INTRA.REPUL.0>
0

>  <SCORE.INTRA.SOLV>
-1.67974

>  <SCORE.INTRA.SOLV.lig_0>
-75.7198

>  <SCORE.INTRA.VDW>
0.362482

>  <SCORE.INTRA.VDW.0>
-3.34171

>  <SCORE.INTRA.norm>
-0.261372

>  <SCORE.RESTR>
0

>  <SCORE.RESTR.CAVITY>
0

>  <SCORE.RESTR.norm>
0

>  <SCORE.SYSTEM>
0

>  <SCORE.SYSTEM.CONST>
0

>  <SCORE.SYSTEM.DIHEDRAL>
0

>  <SCORE.SYSTEM.SOLV>
0

>  <SCORE.SYSTEM.norm>
0

>  <SCORE.heavy>
31

>  <SCORE.norm>
-0.658687

>  <RMSD>
7.259

$$$$
2et3_lig
 OpenBabel11021811423D
libRbt.so/2013.1/901 2013/11/27
 31 33  0  0  0  0  0  0  0  0999 V2000
   -5.2816  -10.5787   31.3802 C   0  0  2  0  0  0  0  0  0  0  0  0
   -5.7544   -9.2152   31.5331 O   0  0  0  0  0  0  0  0  0  0  0  0
   -3.4710   -7.3044   28.4604 C   0  0  2  0  0  0  0  0  0  0  0  0
   -3.0148   -6.2863   27.5655 N   0  0  0  0  0  0  0  0  0  0  0  0
   -1.1591   -5.4659   29.5475 C   0  0  2  0  0  0  0  0  0  0  0  0
   -6.0280  -11.4982   32.3528 C   0  0  2  0  0  0  0  0  0  0  0  0
   -7.4326  -11.3701   32.1145 N   0  0  0  0  0  0  0  0  0  0  0  0
   -4.9788   -7.6066   28.1822 C   0  0  0  0  0  0  0  0  0  0  0  0
    0.1552   -5.3300   30.3474 C   0  0  2  0  0  0  0  0  0  0  0  0
    0.8814   -6.5341   30.2413 O   0  0  0  0  0  0  0  0  0  0  0  0
   -5.6528  -11.1479   33.8333 C   0  0  0  0  0  0  0  0  0  0  0  0
   -5.4916   -8.7194   29.1680 C   0  0  2  0  0  0  0  0  0  0  0  0
   -6.9116   -9.0074   28.9104 N   0  0  0  0  0  0  0  0  0  0  0  0
   -0.2199   -4.9988   31.8496 C   0  0  1  0  0  0  0  0  0  0  0  0
    1.0036   -4.8960   32.7106 N   0  0  0  0  0  0  0  0  0  0  0  0
   -4.1133  -11.3447   34.0007 C   0  0  0  0  0  0  0  0  0  0  0  0
   -5.2819   -8.2428   30.6565 C   0  0  2  0  0  0  0  0  0  0  0  0
   -1.0670   -3.6202   31.9244 C   0  0  1  0  0  0  0  0  0  0  0  0
   -0.3080   -2.5247   31.4559 O   0  0  0  0  0  0  0  0  0  0  0  0
   -3.3651  -10.4008   32.9597 C   0  0  2  0  0  0  0  0  0  0  0  0
   -3.8080  -10.6304   31.5855 O   0  0  0  0  0  0  0  0  0  0  0  0
   -3.7532   -7.9441   30.9049 C   0  0  2  0  0  0  0  0  0  0  0  0
   -3.5408   -7.5152   32.2460 O   0  0  0  0  0  0  0  0  0  0  0  0
   -2.3277   -3.7462   31.0143 C   0  0  0  0  0  0  0  0  0  0  0  0
   -1.9420   -4.1994   29.6364 O   0  0  0  0  0  0  0  0  0  0  0  0
   -1.8580  -10.4794   33.0266 C   0  0  0  0  0  0  0  0  0  0  0  0
   -1.3785  -11.8073   32.7463 N   0  0  0  0  0  0  0  0  0  0  0  0
   -3.2598   -6.8339   29.9119 C   0  0  1  0  0  0  0  0  0  0  0  0
   -1.8792   -6.5843   30.1466 O   0  0  0  0  0  0  0  0  0  0  0  0
   -1.5234   -3.1627   33.3165 C   0  0  0  0  0  0  0  0  0  0  0  0
    0.8195   -5.0669   34.1615 C   0  0  0  0  0  0  0  0  0  0  0  0
  1  2  1  1  0  0  0
  1  6  1  0  0  0  0
  1 21  1  0  0  0  0
  3  4  1  6  0  0  0
  3  8  1  0  0  0  0
  3 28  1  0  0  0  0
  5  9  1  0  0  0  0
  5 25  1  0  0  0  0
  5 29  1  1  0  0  0
  6  7  1  1  0  0  0
  6 11  1  0  0  0  0
  8 12  1  0  0  0  0
  9 10  1  1  0  0  0
  9 14  1  0  0  0  0
 11 16  1  0  0  0  0
 12 13  1  6  0  0  0
 12 17  1  0  0  0  0
 14 15  1  1  0  0  0
 14 18  1  0  0  0  0
 15 31  1  0  0  0  0
 16 20  1  0  0  0  0
 17  2  1  1  0  0  0
 17 22  1  0  0  0  0
 18 19  1  6  0  0  0
 18 24  1  0  0  0  0
 18 30  1  0  0  0  0
 20 21  1  0  0  0  0
 20 26  1  6  0  0  0
 22 23  1  1  0  0  0
 22 28  1  0  0  0  0
 24 25  1  0  0  0  0
 26 27  1  0  0  0  0
 28 29  1  6  0  0  0
M  END
>  <CHROM.1>
-174.52109225,164.61404076,-159.01667698,52.54565196,60.65161590,69.79502344
-2.93211884,-7.51709987,31.23662628,2.47072958,0.68439835,2.39415305

>  <Name>
2et3_lig

>  <RI>
0

>  <Rbt.Current_Directory>
/home/itssahil/PROJECTS/Mol_Feturizer/New_Systems/rnas/2et3

>  <Rbt.Executable>
rbdock ($Id: //depot/dev/client3/rdock/2013.1/src/exe/rbdock.cxx#4 $)

>  <Rbt.Library>
libRbt.so (2013.1, Build901 2013/11/27)

>  <Rbt.Parameter_File>
/export/apps/rDock/src/rDock_2013.1_src/data/scripts/dock_solv.prm

>  <Rbt.Receptor>
prm/pocket_docking_6.prm

>  <SCORE>
-13.9011

>  <SCORE.INTER>
-5.64173

>  <SCORE.INTER.CONST>
1

>  <SCORE.INTER.POLAR>
-1.28233

>  <SCORE.INTER.ROT>
6

>  <SCORE.INTER.SOLV>
10.6578

>  <SCORE.INTER.VDW>
-10.6393

>  <SCORE.INTER.norm>
-0.181991

>  <SCORE.INTRA>
-8.25935

>  <SCORE.INTRA.DIHEDRAL>
-19.7658

>  <SCORE.INTRA.DIHEDRAL.0>
22.2484

>  <SCORE.INTRA.POLAR>
0

>  <SCORE.INTRA.POLAR.0>
0

>  <SCORE.INTRA.REPUL>
0

>  <SCORE.INTRA.REPUL.0>
0

>  <SCORE.INTRA.SOLV>
-0.280472

>  <SCORE.INTRA.SOLV.lig_0>
-75.7198

>  <SCORE.INTRA.VDW>
1.76379

>  <SCORE.INTRA.VDW.0>
-3.34171

>  <SCORE.INTRA.norm>
-0.266431

>  <SCORE.RESTR>
0

>  <SCORE.RESTR.CAVITY>
0

>  <SCORE.RESTR.norm>
0

>  <SCORE.SYSTEM>
0

>  <SCORE.SYSTEM.CONST>
0

>  <SCORE.SYSTEM.DIHEDRAL>
0

>  <SCORE.SYSTEM.SOLV>
0

>  <SCORE.SYSTEM.norm>
0

>  <SCORE.heavy>
31

>  <SCORE.norm>
-0.448422

>  <RMSD>
7.288

$$$$
2et3_lig
 OpenBabel11021811423D
libRbt.so/2013.1/901 2013/11/27
 31 33  0  0  0  0  0  0  0  0999 V2000
   -4.4303   -4.5032   31.5153 C   0  0  2  0  0  0  0  0  0  0  0  0
   -4.0593   -4.3892   32.9137 O   0  0  0  0  0  0  0  0  0  0  0  0
   -4.5316   -7.2711   36.0407 C   0  0  2  0  0  0  0  0  0  0  0  0
   -5.1743   -8.1347   36.9824 N   0  0  0  0  0  0  0  0  0  0  0  0
   -5.2599  -10.1788   34.9118 C   0  0  2  0  0  0  0  0  0  0  0  0
   -3.6207   -3.5045   30.6813 C   0  0  2  0  0  0  0  0  0  0  0  0
   -2.2287   -3.7460   30.9054 N   0  0  0  0  0  0  0  0  0  0  0  0
   -4.9319   -5.7892   36.3337 C   0  0  0  0  0  0  0  0  0  0  0  0
   -4.3755  -11.4075   34.6056 C   0  0  2  0  0  0  0  0  0  0  0  0
   -3.1186  -11.2303   35.2197 O   0  0  0  0  0  0  0  0  0  0  0  0
   -4.0241   -2.0347   31.0451 C   0  0  0  0  0  0  0  0  0  0  0  0
   -4.2364   -4.8327   35.2971 C   0  0  2  0  0  0  0  0  0  0  0  0
   -4.6106   -3.4356   35.5685 N   0  0  0  0  0  0  0  0  0  0  0  0
   -4.2494  -11.5383   33.0327 C   0  0  1  0  0  0  0  0  0  0  0  0
   -3.3635  -12.6852   32.6469 N   0  0  0  0  0  0  0  0  0  0  0  0
   -5.5453   -1.8621   30.7405 C   0  0  0  0  0  0  0  0  0  0  0  0
   -4.6550   -5.2466   33.8342 C   0  0  2  0  0  0  0  0  0  0  0  0
   -5.7145  -11.7220   32.3668 C   0  0  1  0  0  0  0  0  0  0  0  0
   -6.3367  -12.9090   32.8134 O   0  0  0  0  0  0  0  0  0  0  0  0
   -6.3584   -2.9299   31.5969 C   0  0  2  0  0  0  0  0  0  0  0  0
   -5.8965   -4.2968   31.3614 O   0  0  0  0  0  0  0  0  0  0  0  0
   -4.2403   -6.7453   33.5703 C   0  0  2  0  0  0  0  0  0  0  0  0
   -4.6064   -7.1389   32.2516 O   0  0  0  0  0  0  0  0  0  0  0  0
   -6.6207  -10.5247   32.7897 C   0  0  0  0  0  0  0  0  0  0  0  0
   -6.6005  -10.3469   34.2799 O   0  0  0  0  0  0  0  0  0  0  0  0
   -7.8558   -2.8612   31.4097 C   0  0  0  0  0  0  0  0  0  0  0  0
   -8.3943   -1.6049   31.8607 N   0  0  0  0  0  0  0  0  0  0  0  0
   -4.9419   -7.6833   34.6144 C   0  0  1  0  0  0  0  0  0  0  0  0
   -4.5501   -9.0277   34.3645 O   0  0  0  0  0  0  0  0  0  0  0  0
   -5.7693  -11.8493   30.8383 C   0  0  0  0  0  0  0  0  0  0  0  0
   -1.9115  -12.4406   32.6456 C   0  0  0  0  0  0  0  0  0  0  0  0
  1  2  1  1  0  0  0
  1  6  1  0  0  0  0
  1 21  1  0  0  0  0
  3  4  1  1  0  0  0
  3  8  1  0  0  0  0
  3 28  1  0  0  0  0
  5  9  1  0  0  0  0
  5 25  1  0  0  0  0
  5 29  1  6  0  0  0
  6  7  1  1  0  0  0
  6 11  1  0  0  0  0
  8 12  1  0  0  0  0
  9 10  1  1  0  0  0
  9 14  1  0  0  0  0
 11 16  1  0  0  0  0
 12 13  1  1  0  0  0
 12 17  1  0  0  0  0
 14 15  1  1  0  0  0
 14 18  1  0  0  0  0
 15 31  1  0  0  0  0
 16 20  1  0  0  0  0
 17  2  1  6  0  0  0
 17 22  1  0  0  0  0
 18 19  1  1  0  0  0
 18 24  1  0  0  0  0
 18 30  1  0  0  0  0
 20 21  1  0  0  0  0
 20 26  1  6  0  0  0
 22 23  1  6  0  0  0
 22 28  1  0  0  0  0
 24 25  1  0  0  0  0
 26 27  1  0  0  0  0
 28 29  1  6  0  0  0
M  END
>  <CHROM.1>
-177.95290423,-170.43051832,-82.99863196,-173.31393507,-63.50892629,75.77879726
-4.91222641,-7.27178415,33.18509163,2.07159856,-1.40410528,0.31846810

>  <Name>
2et3_lig

>  <RI>
3.86414e+07

>  <Rbt.Current_Directory>
/home/itssahil/PROJECTS/Mol_Feturizer/New_Systems/rnas/2et3

>  <Rbt.Executable>
rbdock ($Id: //depot/dev/client3/rdock/2013.1/src/exe/rbdock.cxx#4 $)

>  <Rbt.Library>
libRbt.so (2013.1, Build901 2013/11/27)

>  <Rbt.Parameter_File>
/export/apps/rDock/src/rDock_2013.1_src/data/scripts/dock_solv.prm

>  <Rbt.Receptor>
prm/pocket_docking_8.prm

>  <SCORE>
-18.948

>  <SCORE.INTER>
-8.36879

>  <SCORE.INTER.CONST>
1

>  <SCORE.INTER.POLAR>
-0.791429

>  <SCORE.INTER.ROT>
6

>  <SCORE.INTER.SOLV>
8.5176

>  <SCORE.INTER.VDW>
-13.3803

>  <SCORE.INTER.norm>
-0.269961

>  <SCORE.INTRA>
-10.5792

>  <SCORE.INTRA.DIHEDRAL>
-19.8206

>  <SCORE.INTRA.DIHEDRAL.0>
22.2484

>  <SCORE.INTRA.POLAR>
0

>  <SCORE.INTRA.POLAR.0>
0

>  <SCORE.INTRA.REPUL>
0

>  <SCORE.INTRA.REPUL.0>
0

>  <SCORE.INTRA.SOLV>
-2.98692

>  <SCORE.INTRA.SOLV.lig_0>
-75.7198

>  <SCORE.INTRA.VDW>
0.824586

>  <SCORE.INTRA.VDW.0>
-3.34171

>  <SCORE.INTRA.norm>
-0.341263

>  <SCORE.RESTR>
0

>  <SCORE.RESTR.CAVITY>
0

>  <SCORE.RESTR.norm>
0

>  <SCORE.SYSTEM>
0

>  <SCORE.SYSTEM.CONST>
0

>  <SCORE.SYSTEM.DIHEDRAL>
0

>  <SCORE.SYSTEM.SOLV>
0

>  <SCORE.SYSTEM.norm>
0

>  <SCORE.heavy>
31

>  <SCORE.norm>
-0.611224

>  <RMSD>
7.298

$$$$
2et3_lig
 OpenBabel11021811423D
libRbt.so/2013.1/901 2013/11/27
 31 33  0  0  0  0  0  0  0  0999 V2000
   -2.4309  -12.0661   33.0765 C   0  0  2  0  0  0  0  0  0  0  0  0
   -3.0389  -11.8406   31.7781 O   0  0  0  0  0  0  0  0  0  0  0  0
    0.3282  -10.3893   29.5730 C   0  0  2  0  0  0  0  0  0  0  0  0
    1.1490  -10.0387   28.4555 N   0  0  0  0  0  0  0  0  0  0  0  0
   -0.0540   -7.4546   28.4700 C   0  0  2  0  0  0  0  0  0  0  0  0
   -3.4780  -12.6167   34.0505 C   0  0  2  0  0  0  0  0  0  0  0  0
   -4.0417  -13.8059   33.4900 N   0  0  0  0  0  0  0  0  0  0  0  0
    0.0261  -11.9222   29.5384 C   0  0  0  0  0  0  0  0  0  0  0  0
    0.2334   -6.0333   29.0017 C   0  0  2  0  0  0  0  0  0  0  0  0
    1.0961   -6.1269   30.1132 O   0  0  0  0  0  0  0  0  0  0  0  0
   -4.5726  -11.5348   34.3454 C   0  0  0  0  0  0  0  0  0  0  0  0
   -0.8836  -12.3153   30.7594 C   0  0  2  0  0  0  0  0  0  0  0  0
   -1.1715  -13.7582   30.7311 N   0  0  0  0  0  0  0  0  0  0  0  0
   -1.1506   -5.3664   29.3848 C   0  0  1  0  0  0  0  0  0  0  0  0
   -0.9584   -3.9936   29.9570 N   0  0  0  0  0  0  0  0  0  0  0  0
   -3.8672  -10.2944   34.9782 C   0  0  0  0  0  0  0  0  0  0  0  0
   -2.2205  -11.4804   30.7115 C   0  0  2  0  0  0  0  0  0  0  0  0
   -2.1161   -5.2947   28.0862 C   0  0  1  0  0  0  0  0  0  0  0  0
   -1.5551   -4.4862   27.0727 O   0  0  0  0  0  0  0  0  0  0  0  0
   -2.7662   -9.7621   33.9588 C   0  0  2  0  0  0  0  0  0  0  0  0
   -1.8164  -10.8050   33.5745 O   0  0  0  0  0  0  0  0  0  0  0  0
   -1.8826   -9.9401   30.7456 C   0  0  2  0  0  0  0  0  0  0  0  0
   -3.0777   -9.1668   30.7069 O   0  0  0  0  0  0  0  0  0  0  0  0
   -2.2932   -6.7305   27.5024 C   0  0  0  0  0  0  0  0  0  0  0  0
   -0.9583   -7.3816   27.2860 O   0  0  0  0  0  0  0  0  0  0  0  0
   -2.0142   -8.5443   34.4417 C   0  0  0  0  0  0  0  0  0  0  0  0
   -2.8847   -7.4107   34.6122 N   0  0  0  0  0  0  0  0  0  0  0  0
   -0.9737   -9.5676   29.5220 C   0  0  1  0  0  0  0  0  0  0  0  0
   -0.6746   -8.1779   29.5745 O   0  0  0  0  0  0  0  0  0  0  0  0
   -3.5094   -4.6849   28.2921 C   0  0  0  0  0  0  0  0  0  0  0  0
   -1.7727   -3.6356   31.1304 C   0  0  0  0  0  0  0  0  0  0  0  0
  1  2  1  6  0  0  0
  1  6  1  0  0  0  0
  1 21  1  0  0  0  0
  3  4  1  6  0  0  0
  3  8  1  0  0  0  0
  3 28  1  0  0  0  0
  5  9  1  0  0  0  0
  5 25  1  0  0  0  0
  5 29  1  1  0  0  0
  6  7  1  6  0  0  0
  6 11  1  0  0  0  0
  8 12  1  0  0  0  0
  9 10  1  1  0  0  0
  9 14  1  0  0  0  0
 11 16  1  0  0  0  0
 12 13  1  6  0  0  0
 12 17  1  0  0  0  0
 14 15  1  6  0  0  0
 14 18  1  0  0  0  0
 15 31  1  0  0  0  0
 16 20  1  0  0  0  0
 17  2  1  1  0  0  0
 17 22  1  0  0  0  0
 18 19  1  6  0  0  0
 18 24  1  0  0  0  0
 18 30  1  0  0  0  0
 20 21  1  0  0  0  0
 20 26  1  1  0  0  0
 22 23  1  6  0  0  0
 22 28  1  0  0  0  0
 24 25  1  0  0  0  0
 26 27  1  0  0  0  0
 28 29  1  1  0  0  0
M  END
>  <CHROM.1>
-173.00984364,-173.78264136,-137.61822170,40.62794762,-63.13028846,70.96601832
-1.72207619,-8.87741283,30.78537475,-2.01605668,1.06063795,-0.21777919

>  <Name>
2et3_lig

>  <RI>
3.50789e+07

>  <Rbt.Current_Directory>
/home/itssahil/PROJECTS/Mol_Feturizer/New_Systems/rnas/2et3

>  <Rbt.Executable>
rbdock ($Id: //depot/dev/client3/rdock/2013.1/src/exe/rbdock.cxx#4 $)

>  <Rbt.Library>
libRbt.so (2013.1, Build901 2013/11/27)

>  <Rbt.Parameter_File>
/export/apps/rDock/src/rDock_2013.1_src/data/scripts/dock_solv.prm

>  <Rbt.Receptor>
prm/pocket_docking_4.prm

>  <SCORE>
-22.3938

>  <SCORE.INTER>
-13.3074

>  <SCORE.INTER.CONST>
1

>  <SCORE.INTER.POLAR>
-1.08274

>  <SCORE.INTER.ROT>
6

>  <SCORE.INTER.SOLV>
13.8623

>  <SCORE.INTER.VDW>
-17.4832

>  <SCORE.INTER.norm>
-0.42927

>  <SCORE.INTRA>
-9.08647

>  <SCORE.INTRA.DIHEDRAL>
-18.3982

>  <SCORE.INTRA.DIHEDRAL.0>
22.2484

>  <SCORE.INTRA.POLAR>
0

>  <SCORE.INTRA.POLAR.0>
0

>  <SCORE.INTRA.REPUL>
0

>  <SCORE.INTRA.REPUL.0>
0

>  <SCORE.INTRA.SOLV>
-1.28239

>  <SCORE.INTRA.SOLV.lig_0>
-75.7198

>  <SCORE.INTRA.VDW>
0.753805

>  <SCORE.INTRA.VDW.0>
-3.34171

>  <SCORE.INTRA.norm>
-0.293112

>  <SCORE.RESTR>
0

>  <SCORE.RESTR.CAVITY>
0

>  <SCORE.RESTR.norm>
0

>  <SCORE.SYSTEM>
0

>  <SCORE.SYSTEM.CONST>
0

>  <SCORE.SYSTEM.DIHEDRAL>
0

>  <SCORE.SYSTEM.SOLV>
0

>  <SCORE.SYSTEM.norm>
0

>  <SCORE.heavy>
31

>  <SCORE.norm>
-0.722382

>  <RMSD>
7.331

$$$$
2et3_lig
 OpenBabel11021811423D
libRbt.so/2013.1/901 2013/11/27
 31 33  0  0  0  0  0  0  0  0999 V2000
   -2.0705  -11.8225   33.1335 C   0  0  2  0  0  0  0  0  0  0  0  0
   -2.7515  -11.6027   31.8710 O   0  0  0  0  0  0  0  0  0  0  0  0
    0.5103  -10.1758   29.4981 C   0  0  2  0  0  0  0  0  0  0  0  0
    1.2592   -9.7883   28.3429 N   0  0  0  0  0  0  0  0  0  0  0  0
    0.2817   -7.1712   28.6587 C   0  0  2  0  0  0  0  0  0  0  0  0
   -2.9421  -12.6891   34.0486 C   0  0  2  0  0  0  0  0  0  0  0  0
   -3.2482  -13.9084   33.3661 N   0  0  0  0  0  0  0  0  0  0  0  0
    0.1154  -11.6834   29.3826 C   0  0  0  0  0  0  0  0  0  0  0  0
    0.2379   -5.6882   29.0883 C   0  0  2  0  0  0  0  0  0  0  0  0
    0.9355   -5.5442   30.3053 O   0  0  0  0  0  0  0  0  0  0  0  0
   -4.2377  -11.9125   34.4656 C   0  0  0  0  0  0  0  0  0  0  0  0
   -0.7163  -12.1163   30.6452 C   0  0  2  0  0  0  0  0  0  0  0  0
   -1.0913  -13.5355   30.5410 N   0  0  0  0  0  0  0  0  0  0  0  0
   -1.2815   -5.2648   29.2267 C   0  0  1  0  0  0  0  0  0  0  0  0
   -1.4152   -3.8444   29.6886 N   0  0  0  0  0  0  0  0  0  0  0  0
   -3.8024  -10.6198   35.2246 C   0  0  0  0  0  0  0  0  0  0  0  0
   -2.0004  -11.2092   30.7673 C   0  0  2  0  0  0  0  0  0  0  0  0
   -2.0487   -5.4622   27.8138 C   0  0  1  0  0  0  0  0  0  0  0  0
   -1.4978   -4.6349   26.8100 O   0  0  0  0  0  0  0  0  0  0  0  0
   -2.8756   -9.7542   34.2621 C   0  0  2  0  0  0  0  0  0  0  0  0
   -1.7324  -10.5157   33.7614 O   0  0  0  0  0  0  0  0  0  0  0  0
   -1.5694   -9.6961   30.8797 C   0  0  2  0  0  0  0  0  0  0  0  0
   -2.7154   -8.8587   30.9948 O   0  0  0  0  0  0  0  0  0  0  0  0
   -1.8875   -6.9424   27.3484 C   0  0  0  0  0  0  0  0  0  0  0  0
   -0.4426   -7.3481   27.3668 O   0  0  0  0  0  0  0  0  0  0  0  0
   -2.3944   -8.4575   34.8694 C   0  0  0  0  0  0  0  0  0  0  0  0
   -1.3443   -7.8582   34.0885 N   0  0  0  0  0  0  0  0  0  0  0  0
   -0.7400   -9.2836   29.6132 C   0  0  1  0  0  0  0  0  0  0  0  0
   -0.3551   -7.9198   29.7369 O   0  0  0  0  0  0  0  0  0  0  0  0
   -3.5418   -5.1085   27.7814 C   0  0  0  0  0  0  0  0  0  0  0  0
   -1.5717   -3.6212   31.1356 C   0  0  0  0  0  0  0  0  0  0  0  0
  1  2  1  6  0  0  0
  1  6  1  0  0  0  0
  1 21  1  0  0  0  0
  3  4  1  6  0  0  0
  3  8  1  0  0  0  0
  3 28  1  0  0  0  0
  5  9  1  0  0  0  0
  5 25  1  0  0  0  0
  5 29  1  1  0  0  0
  6  7  1  6  0  0  0
  6 11  1  0  0  0  0
  8 12  1  0  0  0  0
  9 10  1  1  0  0  0
  9 14  1  0  0  0  0
 11 16  1  0  0  0  0
 12 13  1  6  0  0  0
 12 17  1  0  0  0  0
 14 15  1  6  0  0  0
 14 18  1  0  0  0  0
 15 31  1  0  0  0  0
 16 20  1  0  0  0  0
 17  2  1  1  0  0  0
 17 22  1  0  0  0  0
 18 19  1  6  0  0  0
 18 24  1  0  0  0  0
 18 30  1  0  0  0  0
 20 21  1  0  0  0  0
 20 26  1  1  0  0  0
 22 23  1  6  0  0  0
 22 28  1  0  0  0  0
 24 25  1  0  0  0  0
 26 27  1  0  0  0  0
 28 29  1  1  0  0  0
M  END
>  <CHROM.1>
-160.44993222,167.67354843,-94.27122969,46.92172298,167.50244197,67.67386768
-1.51525465,-8.79245460,30.78101217,-2.03137681,1.12672776,-0.23046343

>  <Name>
2et3_lig

>  <RI>
3.50789e+07

>  <Rbt.Current_Directory>
/home/itssahil/PROJECTS/Mol_Feturizer/New_Systems/rnas/2et3

>  <Rbt.Executable>
rbdock ($Id: //depot/dev/client3/rdock/2013.1/src/exe/rbdock.cxx#4 $)

>  <Rbt.Library>
libRbt.so (2013.1, Build901 2013/11/27)

>  <Rbt.Parameter_File>
/export/apps/rDock/src/rDock_2013.1_src/data/scripts/dock_solv.prm

>  <Rbt.Receptor>
prm/pocket_docking_4.prm

>  <SCORE>
-22.9754

>  <SCORE.INTER>
-15.207

>  <SCORE.INTER.CONST>
1

>  <SCORE.INTER.POLAR>
-1.31198

>  <SCORE.INTER.ROT>
6

>  <SCORE.INTER.SOLV>
15.67

>  <SCORE.INTER.VDW>
-18.588

>  <SCORE.INTER.norm>
-0.490548

>  <SCORE.INTRA>
-7.77117

>  <SCORE.INTRA.DIHEDRAL>
-17.327

>  <SCORE.INTRA.DIHEDRAL.0>
22.2484

>  <SCORE.INTRA.POLAR>
0

>  <SCORE.INTRA.POLAR.0>
0

>  <SCORE.INTRA.REPUL>
0

>  <SCORE.INTRA.REPUL.0>
0

>  <SCORE.INTRA.SOLV>
1.23689

>  <SCORE.INTRA.SOLV.lig_0>
-75.7198

>  <SCORE.INTRA.VDW>
0.273875

>  <SCORE.INTRA.VDW.0>
-3.34171

>  <SCORE.INTRA.norm>
-0.250683

>  <SCORE.RESTR>
0.00273817

>  <SCORE.RESTR.CAVITY>
0.00273817

>  <SCORE.RESTR.norm>
8.83279e-05

>  <SCORE.SYSTEM>
0

>  <SCORE.SYSTEM.CONST>
0

>  <SCORE.SYSTEM.DIHEDRAL>
0

>  <SCORE.SYSTEM.SOLV>
0

>  <SCORE.SYSTEM.norm>
0

>  <SCORE.heavy>
31

>  <SCORE.norm>
-0.741142

>  <RMSD>
7.345

$$$$
2et3_lig
 OpenBabel11021811423D
libRbt.so/2013.1/901 2013/11/27
 31 33  0  0  0  0  0  0  0  0999 V2000
    3.7139   -5.2434   23.8422 C   0  0  2  0  0  0  0  0  0  0  0  0
    3.6709   -6.5157   24.5390 O   0  0  0  0  0  0  0  0  0  0  0  0
    2.0979   -7.6760   28.3450 C   0  0  2  0  0  0  0  0  0  0  0  0
    1.8431   -7.6589   29.7523 N   0  0  0  0  0  0  0  0  0  0  0  0
   -0.6353   -5.2015   27.3273 C   0  0  2  0  0  0  0  0  0  0  0  0
    3.6726   -5.4798   22.3287 C   0  0  2  0  0  0  0  0  0  0  0  0
    2.5023   -6.2412   22.0177 N   0  0  0  0  0  0  0  0  0  0  0  0
    3.6307   -7.8487   28.0941 C   0  0  0  0  0  0  0  0  0  0  0  0
   -1.7328   -4.8550   28.3574 C   0  0  2  0  0  0  0  0  0  0  0  0
   -1.1196   -4.4008   29.5432 O   0  0  0  0  0  0  0  0  0  0  0  0
    4.9806   -6.1990   21.8518 C   0  0  0  0  0  0  0  0  0  0  0  0
    3.9214   -7.8599   26.5487 C   0  0  2  0  0  0  0  0  0  0  0  0
    5.3640   -8.0218   26.3071 N   0  0  0  0  0  0  0  0  0  0  0  0
   -2.5995   -6.1570   28.6037 C   0  0  1  0  0  0  0  0  0  0  0  0
   -3.6651   -5.9202   29.6319 N   0  0  0  0  0  0  0  0  0  0  0  0
    6.1928   -5.2821   22.2076 C   0  0  0  0  0  0  0  0  0  0  0  0
    3.3963   -6.5203   25.9035 C   0  0  2  0  0  0  0  0  0  0  0  0
   -3.2701   -6.6542   27.2156 C   0  0  1  0  0  0  0  0  0  0  0  0
   -4.1546   -5.6833   26.6956 O   0  0  0  0  0  0  0  0  0  0  0  0
    6.1938   -5.0297   23.7795 C   0  0  2  0  0  0  0  0  0  0  0  0
    4.9244   -4.4807   24.2534 O   0  0  0  0  0  0  0  0  0  0  0  0
    1.8495   -6.3741   26.1753 C   0  0  2  0  0  0  0  0  0  0  0  0
    1.3534   -5.1711   25.5971 O   0  0  0  0  0  0  0  0  0  0  0  0
   -2.1453   -6.8838   26.1594 C   0  0  0  0  0  0  0  0  0  0  0  0
   -1.2599   -5.6760   26.0587 O   0  0  0  0  0  0  0  0  0  0  0  0
    7.3332   -4.1655   24.2660 C   0  0  0  0  0  0  0  0  0  0  0  0
    7.3833   -2.9055   23.5718 N   0  0  0  0  0  0  0  0  0  0  0  0
    1.5793   -6.3668   27.7210 C   0  0  1  0  0  0  0  0  0  0  0  0
    0.1802   -6.2416   27.9450 O   0  0  0  0  0  0  0  0  0  0  0  0
   -4.1349   -7.9205   27.2791 C   0  0  0  0  0  0  0  0  0  0  0  0
   -3.3760   -6.3518   31.0097 C   0  0  0  0  0  0  0  0  0  0  0  0
  1  2  1  1  0  0  0
  1  6  1  0  0  0  0
  1 21  1  0  0  0  0
  3  4  1  1  0  0  0
  3  8  1  0  0  0  0
  3 28  1  0  0  0  0
  5  9  1  0  0  0  0
  5 25  1  0  0  0  0
  5 29  1  1  0  0  0
  6  7  1  1  0  0  0
  6 11  1  0  0  0  0
  8 12  1  0  0  0  0
  9 10  1  1  0  0  0
  9 14  1  0  0  0  0
 11 16  1  0  0  0  0
 12 13  1  1  0  0  0
 12 17  1  0  0  0  0
 14 15  1  1  0  0  0
 14 18  1  0  0  0  0
 15 31  1  0  0  0  0
 16 20  1  0  0  0  0
 17  2  1  6  0  0  0
 17 22  1  0  0  0  0
 18 19  1  6  0  0  0
 18 24  1  0  0  0  0
 18 30  1  0  0  0  0
 20 21  1  0  0  0  0
 20 26  1  6  0  0  0
 22 23  1  1  0  0  0
 22 28  1  0  0  0  0
 24 25  1  0  0  0  0
 26 27  1  0  0  0  0
 28 29  1  6  0  0  0
M  END
>  <CHROM.1>
-165.70088678,-146.74458062,-97.79976705,-158.65752517,54.70291006,-171.65603486
1.49310223,-6.01475940,26.23609175,0.53840114,0.05334523,-1.29646577

>  <Name>
2et3_lig

>  <RI>
3.86414e+07

>  <Rbt.Current_Directory>
/home/itssahil/PROJECTS/Mol_Feturizer/New_Systems/rnas/2et3

>  <Rbt.Executable>
rbdock ($Id: //depot/dev/client3/rdock/2013.1/src/exe/rbdock.cxx#4 $)

>  <Rbt.Library>
libRbt.so (2013.1, Build901 2013/11/27)

>  <Rbt.Parameter_File>
/export/apps/rDock/src/rDock_2013.1_src/data/scripts/dock_solv.prm

>  <Rbt.Receptor>
prm/pocket_docking_8.prm

>  <SCORE>
-26.7764

>  <SCORE.INTER>
-19.8232

>  <SCORE.INTER.CONST>
1

>  <SCORE.INTER.POLAR>
-1.73859

>  <SCORE.INTER.ROT>
6

>  <SCORE.INTER.SOLV>
17.0439

>  <SCORE.INTER.VDW>
-20.7014

>  <SCORE.INTER.norm>
-0.639458

>  <SCORE.INTRA>
-6.95325

>  <SCORE.INTRA.DIHEDRAL>
-13.6413

>  <SCORE.INTRA.DIHEDRAL.0>
22.2484

>  <SCORE.INTRA.POLAR>
0

>  <SCORE.INTRA.POLAR.0>
0

>  <SCORE.INTRA.REPUL>
0

>  <SCORE.INTRA.REPUL.0>
0

>  <SCORE.INTRA.SOLV>
-2.56167

>  <SCORE.INTRA.SOLV.lig_0>
-75.7198

>  <SCORE.INTRA.VDW>
1.14825

>  <SCORE.INTRA.VDW.0>
-3.34171

>  <SCORE.INTRA.norm>
-0.224298

>  <SCORE.RESTR>
0

>  <SCORE.RESTR.CAVITY>
0

>  <SCORE.RESTR.norm>
0

>  <SCORE.SYSTEM>
0

>  <SCORE.SYSTEM.CONST>
0

>  <SCORE.SYSTEM.DIHEDRAL>
0

>  <SCORE.SYSTEM.SOLV>
0

>  <SCORE.SYSTEM.norm>
0

>  <SCORE.heavy>
31

>  <SCORE.norm>
-0.863756

>  <RMSD>
7.349

$$$$
2et3_lig
 OpenBabel11021811423D
libRbt.so/2013.1/901 2013/11/27
 31 33  0  0  0  0  0  0  0  0999 V2000
   -6.0877  -10.5827   32.5930 C   0  0  2  0  0  0  0  0  0  0  0  0
   -4.7752  -10.6888   31.9827 O   0  0  0  0  0  0  0  0  0  0  0  0
   -2.5407   -8.2001   34.6510 C   0  0  2  0  0  0  0  0  0  0  0  0
   -1.4258   -7.5157   35.2290 N   0  0  0  0  0  0  0  0  0  0  0  0
   -1.9656   -5.3095   33.4710 C   0  0  2  0  0  0  0  0  0  0  0  0
   -6.9563  -11.7700   32.1639 C   0  0  2  0  0  0  0  0  0  0  0  0
   -6.2797  -12.9805   32.5149 N   0  0  0  0  0  0  0  0  0  0  0  0
   -2.2824   -9.7410   34.6855 C   0  0  0  0  0  0  0  0  0  0  0  0
   -2.6791   -3.9401   33.4365 C   0  0  2  0  0  0  0  0  0  0  0  0
   -3.6873   -3.9250   34.4222 O   0  0  0  0  0  0  0  0  0  0  0  0
   -7.2628  -11.6967   30.6290 C   0  0  0  0  0  0  0  0  0  0  0  0
   -3.5000  -10.5015   34.0436 C   0  0  2  0  0  0  0  0  0  0  0  0
   -3.2614  -11.9534   34.0732 N   0  0  0  0  0  0  0  0  0  0  0  0
   -3.2732   -3.7357   31.9831 C   0  0  1  0  0  0  0  0  0  0  0  0
   -4.0272   -2.4439   31.8753 N   0  0  0  0  0  0  0  0  0  0  0  0
   -8.0234  -10.3620   30.3518 C   0  0  0  0  0  0  0  0  0  0  0  0
   -3.7122  -10.0028   32.5627 C   0  0  2  0  0  0  0  0  0  0  0  0
   -2.0860   -3.7775   30.8820 C   0  0  1  0  0  0  0  0  0  0  0  0
   -1.1621   -2.7278   31.0823 O   0  0  0  0  0  0  0  0  0  0  0  0
   -7.1115   -9.1491   30.8334 C   0  0  2  0  0  0  0  0  0  0  0  0
   -6.7102   -9.2792   32.2332 O   0  0  0  0  0  0  0  0  0  0  0  0
   -3.9679   -8.4464   32.5613 C   0  0  2  0  0  0  0  0  0  0  0  0
   -4.1660   -7.9752   31.2322 O   0  0  0  0  0  0  0  0  0  0  0  0
   -1.3099   -5.1237   31.0195 C   0  0  0  0  0  0  0  0  0  0  0  0
   -0.8865   -5.3469   32.4421 O   0  0  0  0  0  0  0  0  0  0  0  0
   -7.7240   -7.7871   30.6059 C   0  0  0  0  0  0  0  0  0  0  0  0
   -6.8208   -6.7269   30.9691 N   0  0  0  0  0  0  0  0  0  0  0  0
   -2.7444   -7.7055   33.2065 C   0  0  1  0  0  0  0  0  0  0  0  0
   -2.9971   -6.3057   33.2024 O   0  0  0  0  0  0  0  0  0  0  0  0
   -2.4978   -3.6086   29.4131 C   0  0  0  0  0  0  0  0  0  0  0  0
   -5.2919   -2.4660   31.1216 C   0  0  0  0  0  0  0  0  0  0  0  0
  1  2  1  6  0  0  0
  1  6  1  0  0  0  0
  1 21  1  0  0  0  0
  3  4  1  6  0  0  0
  3  8  1  0  0  0  0
  3 28  1  0  0  0  0
  5  9  1  0  0  0  0
  5 25  1  0  0  0  0
  5 29  1  6  0  0  0
  6  7  1  6  0  0  0
  6 11  1  0  0  0  0
  8 12  1  0  0  0  0
  9 10  1  1  0  0  0
  9 14  1  0  0  0  0
 11 16  1  0  0  0  0
 12 13  1  6  0  0  0
 12 17  1  0  0  0  0
 14 15  1  1  0  0  0
 14 18  1  0  0  0  0
 15 31  1  0  0  0  0
 16 20  1  0  0  0  0
 17  2  1  1  0  0  0
 17 22  1  0  0  0  0
 18 19  1  1  0  0  0
 18 24  1  0  0  0  0
 18 30  1  0  0  0  0
 20 21  1  0  0  0  0
 20 26  1  1  0  0  0
 22 23  1  6  0  0  0
 22 28  1  0  0  0  0
 24 25  1  0  0  0  0
 26 27  1  0  0  0  0
 28 29  1  1  0  0  0
M  END
>  <CHROM.1>
-158.68215291,-177.21285827,-138.81879672,60.05319098,-175.82193176,72.73106147
-4.09382557,-7.42919026,32.29051228,2.11933903,0.57881801,2.79584447

>  <Name>
2et3_lig

>  <RI>
3.86414e+07

>  <Rbt.Current_Directory>
/home/itssahil/PROJECTS/Mol_Feturizer/New_Systems/rnas/2et3

>  <Rbt.Executable>
rbdock ($Id: //depot/dev/client3/rdock/2013.1/src/exe/rbdock.cxx#4 $)

>  <Rbt.Library>
libRbt.so (2013.1, Build901 2013/11/27)

>  <Rbt.Parameter_File>
/export/apps/rDock/src/rDock_2013.1_src/data/scripts/dock_solv.prm

>  <Rbt.Receptor>
prm/pocket_docking_8.prm

>  <SCORE>
-17.4389

>  <SCORE.INTER>
-8.79912

>  <SCORE.INTER.CONST>
1

>  <SCORE.INTER.POLAR>
-1.69706

>  <SCORE.INTER.ROT>
6

>  <SCORE.INTER.SOLV>
9.09837

>  <SCORE.INTER.VDW>
-10.842

>  <SCORE.INTER.norm>
-0.283843

>  <SCORE.INTRA>
-8.63974

>  <SCORE.INTRA.DIHEDRAL>
-18.2786

>  <SCORE.INTRA.DIHEDRAL.0>
22.2484

>  <SCORE.INTRA.POLAR>
0

>  <SCORE.INTRA.POLAR.0>
0

>  <SCORE.INTRA.REPUL>
0.00128532

>  <SCORE.INTRA.REPUL.0>
0

>  <SCORE.INTRA.SOLV>
1.14391

>  <SCORE.INTRA.SOLV.lig_0>
-75.7198

>  <SCORE.INTRA.VDW>
-0.0788124

>  <SCORE.INTRA.VDW.0>
-3.34171

>  <SCORE.INTRA.norm>
-0.278701

>  <SCORE.RESTR>
0

>  <SCORE.RESTR.CAVITY>
0

>  <SCORE.RESTR.norm>
0

>  <SCORE.SYSTEM>
0

>  <SCORE.SYSTEM.CONST>
0

>  <SCORE.SYSTEM.DIHEDRAL>
0

>  <SCORE.SYSTEM.SOLV>
0

>  <SCORE.SYSTEM.norm>
0

>  <SCORE.heavy>
31

>  <SCORE.norm>
-0.562544

>  <RMSD>
7.355

$$$$
2et3_lig
 OpenBabel11021811423D
libRbt.so/2013.1/901 2013/11/27
 31 33  0  0  0  0  0  0  0  0999 V2000
   -1.7090   -7.0479   33.3873 C   0  0  2  0  0  0  0  0  0  0  0  0
   -0.6117   -6.6592   34.2539 O   0  0  0  0  0  0  0  0  0  0  0  0
   -0.0061   -2.9899   36.3696 C   0  0  2  0  0  0  0  0  0  0  0  0
    0.2092   -1.5949   36.6003 N   0  0  0  0  0  0  0  0  0  0  0  0
   -2.6420   -1.2316   36.5907 C   0  0  2  0  0  0  0  0  0  0  0  0
   -2.3201   -8.3629   33.8830 C   0  0  2  0  0  0  0  0  0  0  0  0
   -2.7244   -8.1932   35.2446 N   0  0  0  0  0  0  0  0  0  0  0  0
    1.1850   -3.5722   35.5423 C   0  0  0  0  0  0  0  0  0  0  0  0
   -3.9788   -1.1129   37.3552 C   0  0  2  0  0  0  0  0  0  0  0  0
   -3.8611   -1.7855   38.5889 O   0  0  0  0  0  0  0  0  0  0  0  0
   -1.2957   -9.5373   33.7203 C   0  0  0  0  0  0  0  0  0  0  0  0
    0.9524   -5.1046   35.2763 C   0  0  2  0  0  0  0  0  0  0  0  0
    2.0714   -5.6577   34.4969 N   0  0  0  0  0  0  0  0  0  0  0  0
   -5.1164   -1.7390   36.4491 C   0  0  1  0  0  0  0  0  0  0  0  0
   -6.4473   -1.7069   37.1394 N   0  0  0  0  0  0  0  0  0  0  0  0
   -0.9399   -9.6614   32.2054 C   0  0  0  0  0  0  0  0  0  0  0  0
   -0.4117   -5.3060   34.5112 C   0  0  2  0  0  0  0  0  0  0  0  0
   -5.2058   -0.9499   35.0374 C   0  0  1  0  0  0  0  0  0  0  0  0
   -5.5536    0.4060   35.2277 O   0  0  0  0  0  0  0  0  0  0  0  0
   -0.3355   -8.2739   31.7111 C   0  0  2  0  0  0  0  0  0  0  0  0
   -1.2321   -7.1512   31.9809 O   0  0  0  0  0  0  0  0  0  0  0  0
   -1.5919   -4.7071   35.3692 C   0  0  2  0  0  0  0  0  0  0  0  0
   -2.8351   -4.8820   34.6973 O   0  0  0  0  0  0  0  0  0  0  0  0
   -3.8093   -0.9872   34.3430 C   0  0  0  0  0  0  0  0  0  0  0  0
   -2.7381   -0.5186   35.2841 O   0  0  0  0  0  0  0  0  0  0  0  0
    0.0709   -8.2602   30.2563 C   0  0  0  0  0  0  0  0  0  0  0  0
    0.9127   -7.1344   29.9466 N   0  0  0  0  0  0  0  0  0  0  0  0
   -1.3414   -3.1795   35.6256 C   0  0  1  0  0  0  0  0  0  0  0  0
   -2.4114   -2.6602   36.4058 O   0  0  0  0  0  0  0  0  0  0  0  0
   -6.2550   -1.4449   34.0327 C   0  0  0  0  0  0  0  0  0  0  0  0
   -6.8900   -0.4124   37.6837 C   0  0  0  0  0  0  0  0  0  0  0  0
  1  2  1  1  0  0  0
  1  6  1  0  0  0  0
  1 21  1  0  0  0  0
  3  4  1  6  0  0  0
  3  8  1  0  0  0  0
  3 28  1  0  0  0  0
  5  9  1  0  0  0  0
  5 25  1  0  0  0  0
  5 29  1  6  0  0  0
  6  7  1  1  0  0  0
  6 11  1  0  0  0  0
  8 12  1  0  0  0  0
  9 10  1  1  0  0  0
  9 14  1  0  0  0  0
 11 16  1  0  0  0  0
 12 13  1  6  0  0  0
 12 17  1  0  0  0  0
 14 15  1  1  0  0  0
 14 18  1  0  0  0  0
 15 31  1  0  0  0  0
 16 20  1  0  0  0  0
 17  2  1  1  0  0  0
 17 22  1  0  0  0  0
 18 19  1  1  0  0  0
 18 24  1  0  0  0  0
 18 30  1  0  0  0  0
 20 21  1  0  0  0  0
 20 26  1  6  0  0  0
 22 23  1  6  0  0  0
 22 28  1  0  0  0  0
 24 25  1  0  0  0  0
 26 27  1  0  0  0  0
 28 29  1  1  0  0  0
M  END
>  <CHROM.1>
-144.17920113,173.61945638,52.01110951,-171.06574197,-165.02766053,72.89870037
-2.19409409,-4.20450667,34.82135681,1.06351665,0.12346558,-2.56605261

>  <Name>
2et3_lig

>  <RI>
3.86414e+07

>  <Rbt.Current_Directory>
/home/itssahil/PROJECTS/Mol_Feturizer/New_Systems/rnas/2et3

>  <Rbt.Executable>
rbdock ($Id: //depot/dev/client3/rdock/2013.1/src/exe/rbdock.cxx#4 $)

>  <Rbt.Library>
libRbt.so (2013.1, Build901 2013/11/27)

>  <Rbt.Parameter_File>
/export/apps/rDock/src/rDock_2013.1_src/data/scripts/dock_solv.prm

>  <Rbt.Receptor>
prm/pocket_docking_8.prm

>  <SCORE>
-21.4868

>  <SCORE.INTER>
-14.7761

>  <SCORE.INTER.CONST>
1

>  <SCORE.INTER.POLAR>
-2.73454

>  <SCORE.INTER.ROT>
6

>  <SCORE.INTER.SOLV>
14.6628

>  <SCORE.INTER.VDW>
-13.2232

>  <SCORE.INTER.norm>
-0.476647

>  <SCORE.INTRA>
-6.71073

>  <SCORE.INTRA.DIHEDRAL>
-15.2591

>  <SCORE.INTRA.DIHEDRAL.0>
22.2484

>  <SCORE.INTRA.POLAR>
0

>  <SCORE.INTRA.POLAR.0>
0

>  <SCORE.INTRA.REPUL>
0

>  <SCORE.INTRA.REPUL.0>
0

>  <SCORE.INTRA.SOLV>
-1.67663

>  <SCORE.INTRA.SOLV.lig_0>
-75.7198

>  <SCORE.INTRA.VDW>
1.75713

>  <SCORE.INTRA.VDW.0>
-3.34171

>  <SCORE.INTRA.norm>
-0.216475

>  <SCORE.RESTR>
0

>  <SCORE.RESTR.CAVITY>
0

>  <SCORE.RESTR.norm>
0

>  <SCORE.SYSTEM>
0

>  <SCORE.SYSTEM.CONST>
0

>  <SCORE.SYSTEM.DIHEDRAL>
0

>  <SCORE.SYSTEM.SOLV>
0

>  <SCORE.SYSTEM.norm>
0

>  <SCORE.heavy>
31

>  <SCORE.norm>
-0.693122

>  <RMSD>
7.361

$$$$
2et3_lig
 OpenBabel11021811423D
libRbt.so/2013.1/901 2013/11/27
 31 33  0  0  0  0  0  0  0  0999 V2000
   -2.2906   -6.8554   34.5843 C   0  0  2  0  0  0  0  0  0  0  0  0
   -0.9677   -7.2191   34.1111 O   0  0  0  0  0  0  0  0  0  0  0  0
   -1.8872   -8.2064   30.0508 C   0  0  2  0  0  0  0  0  0  0  0  0
   -1.6893   -8.5422   28.6747 N   0  0  0  0  0  0  0  0  0  0  0  0
   -1.7716  -11.2316   29.3729 C   0  0  2  0  0  0  0  0  0  0  0  0
   -2.1992   -6.3184   36.0166 C   0  0  2  0  0  0  0  0  0  0  0  0
   -1.2842   -5.2190   36.0341 N   0  0  0  0  0  0  0  0  0  0  0  0
   -1.2437   -6.8132   30.3459 C   0  0  0  0  0  0  0  0  0  0  0  0
   -2.6556  -12.4935   29.4815 C   0  0  2  0  0  0  0  0  0  0  0  0
   -3.9814  -12.1004   29.7570 O   0  0  0  0  0  0  0  0  0  0  0  0
   -1.7622   -7.4571   37.0005 C   0  0  0  0  0  0  0  0  0  0  0  0
   -1.4490   -6.4395   31.8596 C   0  0  2  0  0  0  0  0  0  0  0  0
   -0.8442   -5.1282   32.1429 N   0  0  0  0  0  0  0  0  0  0  0  0
   -2.0617  -13.4080   30.6295 C   0  0  1  0  0  0  0  0  0  0  0  0
   -2.8922  -14.6397   30.8345 N   0  0  0  0  0  0  0  0  0  0  0  0
   -2.8324   -8.5914   36.9319 C   0  0  0  0  0  0  0  0  0  0  0  0
   -0.8080   -7.5560   32.7701 C   0  0  2  0  0  0  0  0  0  0  0  0
   -0.5345  -13.8214   30.2825 C   0  0  1  0  0  0  0  0  0  0  0  0
   -0.4655  -14.5833   29.0950 O   0  0  0  0  0  0  0  0  0  0  0  0
   -2.9270   -9.1093   35.4294 C   0  0  2  0  0  0  0  0  0  0  0  0
   -3.2039   -8.0269   34.4865 O   0  0  0  0  0  0  0  0  0  0  0  0
   -1.4756   -8.9482   32.4476 C   0  0  2  0  0  0  0  0  0  0  0  0
   -0.9131   -9.9714   33.2626 O   0  0  0  0  0  0  0  0  0  0  0  0
    0.3072  -12.5263   30.0635 C   0  0  0  0  0  0  0  0  0  0  0  0
   -0.3636  -11.6212   29.0717 O   0  0  0  0  0  0  0  0  0  0  0  0
   -3.9205  -10.2283   35.2228 C   0  0  0  0  0  0  0  0  0  0  0  0
   -5.2735   -9.7905   35.4456 N   0  0  0  0  0  0  0  0  0  0  0  0
   -1.2622   -9.3027   30.9340 C   0  0  1  0  0  0  0  0  0  0  0  0
   -1.8768  -10.5563   30.6618 O   0  0  0  0  0  0  0  0  0  0  0  0
    0.1949  -14.7003   31.3077 C   0  0  0  0  0  0  0  0  0  0  0  0
   -3.8779  -14.6102   31.9280 C   0  0  0  0  0  0  0  0  0  0  0  0
  1  2  1  1  0  0  0
  1  6  1  0  0  0  0
  1 21  1  0  0  0  0
  3  4  1  6  0  0  0
  3  8  1  0  0  0  0
  3 28  1  0  0  0  0
  5  9  1  0  0  0  0
  5 25  1  0  0  0  0
  5 29  1  1  0  0  0
  6  7  1  6  0  0  0
  6 11  1  0  0  0  0
  8 12  1  0  0  0  0
  9 10  1  1  0  0  0
  9 14  1  0  0  0  0
 11 16  1  0  0  0  0
 12 13  1  6  0  0  0
 12 17  1  0  0  0  0
 14 15  1  6  0  0  0
 14 18  1  0  0  0  0
 15 31  1  0  0  0  0
 16 20  1  0  0  0  0
 17  2  1  1  0  0  0
 17 22  1  0  0  0  0
 18 19  1  6  0  0  0
 18 24  1  0  0  0  0
 18 30  1  0  0  0  0
 20 21  1  0  0  0  0
 20 26  1  1  0  0  0
 22 23  1  1  0  0  0
 22 28  1  0  0  0  0
 24 25  1  0  0  0  0
 26 27  1  0  0  0  0
 28 29  1  6  0  0  0
M  END
>  <CHROM.1>
-171.30141102,-176.21085184,-97.56613845,50.80893528,66.24985530,64.84264933
-1.87721310,-9.91811294,32.25044819,-1.74021048,-1.15186670,-2.62576928

>  <Name>
2et3_lig

>  <RI>
0

>  <Rbt.Current_Directory>
/home/itssahil/PROJECTS/Mol_Feturizer/New_Systems/rnas/2et3

>  <Rbt.Executable>
rbdock ($Id: //depot/dev/client3/rdock/2013.1/src/exe/rbdock.cxx#4 $)

>  <Rbt.Library>
libRbt.so (2013.1, Build901 2013/11/27)

>  <Rbt.Parameter_File>
/export/apps/rDock/src/rDock_2013.1_src/data/scripts/dock_solv.prm

>  <Rbt.Receptor>
prm/pocket_docking_6.prm

>  <SCORE>
-20.0075

>  <SCORE.INTER>
-10.3508

>  <SCORE.INTER.CONST>
1

>  <SCORE.INTER.POLAR>
-0.848528

>  <SCORE.INTER.ROT>
6

>  <SCORE.INTER.SOLV>
7.5758

>  <SCORE.INTER.VDW>
-14.1974

>  <SCORE.INTER.norm>
-0.333898

>  <SCORE.INTRA>
-9.65667

>  <SCORE.INTRA.DIHEDRAL>
-20.1482

>  <SCORE.INTRA.DIHEDRAL.0>
22.2484

>  <SCORE.INTRA.POLAR>
0

>  <SCORE.INTRA.POLAR.0>
0

>  <SCORE.INTRA.REPUL>
0

>  <SCORE.INTRA.REPUL.0>
0

>  <SCORE.INTRA.SOLV>
-0.333253

>  <SCORE.INTRA.SOLV.lig_0>
-75.7198

>  <SCORE.INTRA.VDW>
0.584058

>  <SCORE.INTRA.VDW.0>
-3.34171

>  <SCORE.INTRA.norm>
-0.311506

>  <SCORE.RESTR>
0

>  <SCORE.RESTR.CAVITY>
0

>  <SCORE.RESTR.norm>
0

>  <SCORE.SYSTEM>
0

>  <SCORE.SYSTEM.CONST>
0

>  <SCORE.SYSTEM.DIHEDRAL>
0

>  <SCORE.SYSTEM.SOLV>
0

>  <SCORE.SYSTEM.norm>
0

>  <SCORE.heavy>
31

>  <SCORE.norm>
-0.645404

>  <RMSD>
7.367

$$$$
2et3_lig
 OpenBabel11021811423D
libRbt.so/2013.1/901 2013/11/27
 31 33  0  0  0  0  0  0  0  0999 V2000
   -2.2640   -6.8588   34.6036 C   0  0  2  0  0  0  0  0  0  0  0  0
   -0.9394   -7.2132   34.1280 O   0  0  0  0  0  0  0  0  0  0  0  0
   -1.8527   -8.1693   30.0588 C   0  0  2  0  0  0  0  0  0  0  0  0
   -1.6527   -8.4916   28.6798 N   0  0  0  0  0  0  0  0  0  0  0  0
   -1.7318  -11.1804   29.3492 C   0  0  2  0  0  0  0  0  0  0  0  0
   -2.1760   -6.3386   36.0423 C   0  0  2  0  0  0  0  0  0  0  0  0
   -1.2642   -5.2368   36.0740 N   0  0  0  0  0  0  0  0  0  0  0  0
   -1.2174   -6.7751   30.3665 C   0  0  0  0  0  0  0  0  0  0  0  0
   -2.6326  -12.4320   29.4374 C   0  0  2  0  0  0  0  0  0  0  0  0
   -3.9532  -12.0256   29.7189 O   0  0  0  0  0  0  0  0  0  0  0  0
   -1.7370   -7.4875   37.0133 C   0  0  0  0  0  0  0  0  0  0  0  0
   -1.4250   -6.4163   31.8835 C   0  0  2  0  0  0  0  0  0  0  0  0
   -0.8280   -5.1040   32.1786 N   0  0  0  0  0  0  0  0  0  0  0  0
   -2.0516  -13.3726   30.5708 C   0  0  1  0  0  0  0  0  0  0  0  0
   -2.8985  -14.5963   30.7558 N   0  0  0  0  0  0  0  0  0  0  0  0
   -2.8039   -8.6240   36.9299 C   0  0  0  0  0  0  0  0  0  0  0  0
   -0.7776   -7.5371   32.7841 C   0  0  2  0  0  0  0  0  0  0  0  0
   -0.5298  -13.8008   30.2175 C   0  0  1  0  0  0  0  0  0  0  0  0
   -0.4706  -14.5445   29.0180 O   0  0  0  0  0  0  0  0  0  0  0  0
   -2.8950   -9.1244   35.4213 C   0  0  2  0  0  0  0  0  0  0  0  0
   -3.1737   -8.0318   34.4908 O   0  0  0  0  0  0  0  0  0  0  0  0
   -1.4370   -8.9302   32.4489 C   0  0  2  0  0  0  0  0  0  0  0  0
   -0.8685   -9.9574   33.2548 O   0  0  0  0  0  0  0  0  0  0  0  0
    0.3292  -12.5138   30.0194 C   0  0  0  0  0  0  0  0  0  0  0  0
   -0.3291  -11.5840   29.0422 O   0  0  0  0  0  0  0  0  0  0  0  0
   -3.8850  -10.2437   35.2002 C   0  0  0  0  0  0  0  0  0  0  0  0
   -5.2341   -9.8281   35.4811 N   0  0  0  0  0  0  0  0  0  0  0  0
   -1.2213   -9.2698   30.9323 C   0  0  1  0  0  0  0  0  0  0  0  0
   -1.8285  -10.5245   30.6487 O   0  0  0  0  0  0  0  0  0  0  0  0
    0.1872  -14.7058   31.2287 C   0  0  0  0  0  0  0  0  0  0  0  0
   -3.6494  -14.7081   32.0175 C   0  0  0  0  0  0  0  0  0  0  0  0
  1  2  1  1  0  0  0
  1  6  1  0  0  0  0
  1 21  1  0  0  0  0
  3  4  1  6  0  0  0
  3  8  1  0  0  0  0
  3 28  1  0  0  0  0
  5  9  1  0  0  0  0
  5 25  1  0  0  0  0
  5 29  1  1  0  0  0
  6  7  1  6  0  0  0
  6 11  1  0  0  0  0
  8 12  1  0  0  0  0
  9 10  1  1  0  0  0
  9 14  1  0  0  0  0
 11 16  1  0  0  0  0
 12 13  1  1  0  0  0
 12 17  1  0  0  0  0
 14 15  1  6  0  0  0
 14 18  1  0  0  0  0
 15 31  1  0  0  0  0
 16 20  1  0  0  0  0
 17  2  1  1  0  0  0
 17 22  1  0  0  0  0
 18 19  1  6  0  0  0
 18 24  1  0  0  0  0
 18 30  1  0  0  0  0
 20 21  1  0  0  0  0
 20 26  1  1  0  0  0
 22 23  1  1  0  0  0
 22 28  1  0  0  0  0
 24 25  1  0  0  0  0
 26 27  1  0  0  0  0
 28 29  1  6  0  0  0
M  END
>  <CHROM.1>
-171.46183007,-174.81018324,-111.57293061,50.68472967,63.79084415,64.13108038
-1.84444591,-9.90563488,32.24250461,-1.74663085,-1.16193584,-2.62485930

>  <Name>
2et3_lig

>  <RI>
0

>  <Rbt.Current_Directory>
/home/itssahil/PROJECTS/Mol_Feturizer/New_Systems/rnas/2et3

>  <Rbt.Executable>
rbdock ($Id: //depot/dev/client3/rdock/2013.1/src/exe/rbdock.cxx#4 $)

>  <Rbt.Library>
libRbt.so (2013.1, Build901 2013/11/27)

>  <Rbt.Parameter_File>
/export/apps/rDock/src/rDock_2013.1_src/data/scripts/dock_solv.prm

>  <Rbt.Receptor>
prm/pocket_docking_6.prm

>  <SCORE>
-19.9779

>  <SCORE.INTER>
-10.4091

>  <SCORE.INTER.CONST>
1

>  <SCORE.INTER.POLAR>
-0.848528

>  <SCORE.INTER.ROT>
6

>  <SCORE.INTER.SOLV>
7.81556

>  <SCORE.INTER.VDW>
-14.3162

>  <SCORE.INTER.norm>
-0.335779

>  <SCORE.INTRA>
-9.56874

>  <SCORE.INTRA.DIHEDRAL>
-19.9006

>  <SCORE.INTRA.DIHEDRAL.0>
22.2484

>  <SCORE.INTRA.POLAR>
0

>  <SCORE.INTRA.POLAR.0>
0

>  <SCORE.INTRA.REPUL>
0

>  <SCORE.INTRA.REPUL.0>
0

>  <SCORE.INTRA.SOLV>
-0.372355

>  <SCORE.INTRA.SOLV.lig_0>
-75.7198

>  <SCORE.INTRA.VDW>
0.567738

>  <SCORE.INTRA.VDW.0>
-3.34171

>  <SCORE.INTRA.norm>
-0.308669

>  <SCORE.RESTR>
0

>  <SCORE.RESTR.CAVITY>
0

>  <SCORE.RESTR.norm>
0

>  <SCORE.SYSTEM>
0

>  <SCORE.SYSTEM.CONST>
0

>  <SCORE.SYSTEM.DIHEDRAL>
0

>  <SCORE.SYSTEM.SOLV>
0

>  <SCORE.SYSTEM.norm>
0

>  <SCORE.heavy>
31

>  <SCORE.norm>
-0.644448

>  <RMSD>
7.381

$$$$
2et3_lig
 OpenBabel11021811423D
libRbt.so/2013.1/901 2013/11/27
 31 33  0  0  0  0  0  0  0  0999 V2000
   -1.9301   -8.3660   35.3571 C   0  0  2  0  0  0  0  0  0  0  0  0
   -3.0799   -8.8005   34.5854 O   0  0  0  0  0  0  0  0  0  0  0  0
   -1.0909  -10.4825   31.1912 C   0  0  2  0  0  0  0  0  0  0  0  0
   -0.8996  -11.1977   29.9675 N   0  0  0  0  0  0  0  0  0  0  0  0
   -0.6211   -7.3444   30.2839 C   0  0  2  0  0  0  0  0  0  0  0  0
   -2.3763   -7.9525   36.7636 C   0  0  2  0  0  0  0  0  0  0  0  0
   -3.0628   -9.0531   37.3665 N   0  0  0  0  0  0  0  0  0  0  0  0
   -1.6402  -11.4553   32.2840 C   0  0  0  0  0  0  0  0  0  0  0  0
   -0.4378   -6.5476   28.9736 C   0  0  2  0  0  0  0  0  0  0  0  0
   -1.6943   -6.0662   28.5518 O   0  0  0  0  0  0  0  0  0  0  0  0
   -3.2743   -6.6701   36.6974 C   0  0  0  0  0  0  0  0  0  0  0  0
   -1.8619  -10.6752   33.6313 C   0  0  2  0  0  0  0  0  0  0  0  0
   -2.3798  -11.5870   34.6638 N   0  0  0  0  0  0  0  0  0  0  0  0
    0.2129   -7.5141   27.9015 C   0  0  1  0  0  0  0  0  0  0  0  0
    0.3833   -6.8300   26.5780 N   0  0  0  0  0  0  0  0  0  0  0  0
   -2.4321   -5.5235   36.0549 C   0  0  0  0  0  0  0  0  0  0  0  0
   -2.8633   -9.4810   33.3908 C   0  0  2  0  0  0  0  0  0  0  0  0
    1.6436   -8.0572   28.4324 C   0  0  1  0  0  0  0  0  0  0  0  0
    2.5593   -6.9975   28.6163 O   0  0  0  0  0  0  0  0  0  0  0  0
   -1.9581   -5.9914   34.6089 C   0  0  2  0  0  0  0  0  0  0  0  0
   -1.2317   -7.2596   34.6471 O   0  0  0  0  0  0  0  0  0  0  0  0
   -2.2827   -8.5199   32.2831 C   0  0  2  0  0  0  0  0  0  0  0  0
   -3.1709   -7.4310   32.0527 O   0  0  0  0  0  0  0  0  0  0  0  0
    1.4437   -8.7549   29.8133 C   0  0  0  0  0  0  0  0  0  0  0  0
    0.6976   -7.8568   30.7564 O   0  0  0  0  0  0  0  0  0  0  0  0
   -1.1423   -4.9620   33.8628 C   0  0  0  0  0  0  0  0  0  0  0  0
   -0.8112   -5.4029   32.5332 N   0  0  0  0  0  0  0  0  0  0  0  0
   -2.0667   -9.3158   30.9481 C   0  0  1  0  0  0  0  0  0  0  0  0
   -1.5367   -8.4346   29.9653 O   0  0  0  0  0  0  0  0  0  0  0  0
    2.4025   -9.0228   27.5119 C   0  0  0  0  0  0  0  0  0  0  0  0
    1.2742   -5.6583   26.5380 C   0  0  0  0  0  0  0  0  0  0  0  0
  1  2  1  6  0  0  0
  1  6  1  0  0  0  0
  1 21  1  0  0  0  0
  3  4  1  6  0  0  0
  3  8  1  0  0  0  0
  3 28  1  0  0  0  0
  5  9  1  0  0  0  0
  5 25  1  0  0  0  0
  5 29  1  6  0  0  0
  6  7  1  6  0  0  0
  6 11  1  0  0  0  0
  8 12  1  0  0  0  0
  9 10  1  6  0  0  0
  9 14  1  0  0  0  0
 11 16  1  0  0  0  0
 12 13  1  1  0  0  0
 12 17  1  0  0  0  0
 14 15  1  6  0  0  0
 14 18  1  0  0  0  0
 15 31  1  0  0  0  0
 16 20  1  0  0  0  0
 17  2  1  1  0  0  0
 17 22  1  0  0  0  0
 18 19  1  1  0  0  0
 18 24  1  0  0  0  0
 18 30  1  0  0  0  0
 20 21  1  0  0  0  0
 20 26  1  1  0  0  0
 22 23  1  6  0  0  0
 22 28  1  0  0  0  0
 24 25  1  0  0  0  0
 26 27  1  0  0  0  0
 28 29  1  6  0  0  0
M  END
>  <CHROM.1>
-166.46017248,-173.24476513,62.26837376,51.00517097,-176.40649275,-86.15421713
-1.05804130,-8.01148189,31.79766396,-3.02523029,-1.13899290,-2.92452683

>  <Name>
2et3_lig

>  <RI>
3.50789e+07

>  <Rbt.Current_Directory>
/home/itssahil/PROJECTS/Mol_Feturizer/New_Systems/rnas/2et3

>  <Rbt.Executable>
rbdock ($Id: //depot/dev/client3/rdock/2013.1/src/exe/rbdock.cxx#4 $)

>  <Rbt.Library>
libRbt.so (2013.1, Build901 2013/11/27)

>  <Rbt.Parameter_File>
/export/apps/rDock/src/rDock_2013.1_src/data/scripts/dock_solv.prm

>  <Rbt.Receptor>
prm/pocket_docking_4.prm

>  <SCORE>
-16.5667

>  <SCORE.INTER>
-11.2693

>  <SCORE.INTER.CONST>
1

>  <SCORE.INTER.POLAR>
-1.24348

>  <SCORE.INTER.ROT>
6

>  <SCORE.INTER.SOLV>
14.8612

>  <SCORE.INTER.VDW>
-15.9217

>  <SCORE.INTER.norm>
-0.363526

>  <SCORE.INTRA>
-5.29736

>  <SCORE.INTRA.DIHEDRAL>
-17.671

>  <SCORE.INTRA.DIHEDRAL.0>
22.2484

>  <SCORE.INTRA.POLAR>
0

>  <SCORE.INTRA.POLAR.0>
0

>  <SCORE.INTRA.REPUL>
0.00566838

>  <SCORE.INTRA.REPUL.0>
0

>  <SCORE.INTRA.SOLV>
3.85281

>  <SCORE.INTRA.SOLV.lig_0>
-75.7198

>  <SCORE.INTRA.VDW>
1.58338

>  <SCORE.INTRA.VDW.0>
-3.34171

>  <SCORE.INTRA.norm>
-0.170883

>  <SCORE.RESTR>
0

>  <SCORE.RESTR.CAVITY>
0

>  <SCORE.RESTR.norm>
0

>  <SCORE.SYSTEM>
0

>  <SCORE.SYSTEM.CONST>
0

>  <SCORE.SYSTEM.DIHEDRAL>
0

>  <SCORE.SYSTEM.SOLV>
0

>  <SCORE.SYSTEM.norm>
0

>  <SCORE.heavy>
31

>  <SCORE.norm>
-0.534408

>  <RMSD>
7.427

$$$$
2et3_lig
 OpenBabel11021811423D
libRbt.so/2013.1/901 2013/11/27
 31 33  0  0  0  0  0  0  0  0999 V2000
   -3.1534  -12.4159   30.6687 C   0  0  2  0  0  0  0  0  0  0  0  0
   -3.4685  -11.6208   31.8412 O   0  0  0  0  0  0  0  0  0  0  0  0
   -1.7523   -7.9966   33.3331 C   0  0  2  0  0  0  0  0  0  0  0  0
   -0.7651   -7.0747   33.8033 N   0  0  0  0  0  0  0  0  0  0  0  0
   -0.2115   -6.4259   30.8787 C   0  0  2  0  0  0  0  0  0  0  0  0
   -4.3119  -13.3716   30.3639 C   0  0  2  0  0  0  0  0  0  0  0  0
   -5.5077  -12.6028   30.2054 N   0  0  0  0  0  0  0  0  0  0  0  0
   -1.8022   -9.2371   34.2822 C   0  0  0  0  0  0  0  0  0  0  0  0
   -0.7257   -5.1027   30.2700 C   0  0  2  0  0  0  0  0  0  0  0  0
   -1.6635   -4.5278   31.1523 O   0  0  0  0  0  0  0  0  0  0  0  0
   -4.4520  -14.4410   31.5006 C   0  0  0  0  0  0  0  0  0  0  0  0
   -2.8795  -10.2608   33.7677 C   0  0  2  0  0  0  0  0  0  0  0  0
   -2.9301  -11.4314   34.6581 N   0  0  0  0  0  0  0  0  0  0  0  0
   -1.3675   -5.4308   28.8603 C   0  0  1  0  0  0  0  0  0  0  0  0
   -1.9369   -4.2015   28.2172 N   0  0  0  0  0  0  0  0  0  0  0  0
   -3.1150  -15.2433   31.5760 C   0  0  0  0  0  0  0  0  0  0  0  0
   -2.5300  -10.6979   32.2935 C   0  0  2  0  0  0  0  0  0  0  0  0
   -0.2632   -6.1047   27.8855 C   0  0  1  0  0  0  0  0  0  0  0  0
    0.8093   -5.2201   27.6351 O   0  0  0  0  0  0  0  0  0  0  0  0
   -1.9270  -14.2233   31.8639 C   0  0  2  0  0  0  0  0  0  0  0  0
   -1.8722  -13.1441   30.8793 O   0  0  0  0  0  0  0  0  0  0  0  0
   -2.4850   -9.4258   31.3621 C   0  0  2  0  0  0  0  0  0  0  0  0
   -2.1742   -9.7990   30.0235 O   0  0  0  0  0  0  0  0  0  0  0  0
    0.3221   -7.3739   28.5785 C   0  0  0  0  0  0  0  0  0  0  0  0
    0.7907   -7.0495   29.9670 O   0  0  0  0  0  0  0  0  0  0  0  0
   -0.5685  -14.8737   31.9797 C   0  0  0  0  0  0  0  0  0  0  0  0
   -0.1819  -15.5265   30.7565 N   0  0  0  0  0  0  0  0  0  0  0  0
   -1.4069   -8.4163   31.8919 C   0  0  1  0  0  0  0  0  0  0  0  0
   -1.3867   -7.2744   31.0439 O   0  0  0  0  0  0  0  0  0  0  0  0
   -0.7307   -6.4987   26.4777 C   0  0  0  0  0  0  0  0  0  0  0  0
   -3.3524   -4.2492   27.8145 C   0  0  0  0  0  0  0  0  0  0  0  0
  1  2  1  1  0  0  0
  1  6  1  0  0  0  0
  1 21  1  0  0  0  0
  3  4  1  1  0  0  0
  3  8  1  0  0  0  0
  3 28  1  0  0  0  0
  5  9  1  0  0  0  0
  5 25  1  0  0  0  0
  5 29  1  6  0  0  0
  6  7  1  1  0  0  0
  6 11  1  0  0  0  0
  8 12  1  0  0  0  0
  9 10  1  1  0  0  0
  9 14  1  0  0  0  0
 11 16  1  0  0  0  0
 12 13  1  1  0  0  0
 12 17  1  0  0  0  0
 14 15  1  6  0  0  0
 14 18  1  0  0  0  0
 15 31  1  0  0  0  0
 16 20  1  0  0  0  0
 17  2  1  6  0  0  0
 17 22  1  0  0  0  0
 18 19  1  6  0  0  0
 18 24  1  0  0  0  0
 18 30  1  0  0  0  0
 20 21  1  0  0  0  0
 20 26  1  6  0  0  0
 22 23  1  6  0  0  0
 22 28  1  0  0  0  0
 24 25  1  0  0  0  0
 26 27  1  0  0  0  0
 28 29  1  6  0  0  0
M  END
>  <CHROM.1>
179.22154390,-162.40389187,-124.83291095,-163.82129015,62.14139624,85.72873961
-1.82335220,-9.35886754,30.80013931,-2.96541221,1.35559277,1.07631937

>  <Name>
2et3_lig

>  <RI>
0

>  <Rbt.Current_Directory>
/home/itssahil/PROJECTS/Mol_Feturizer/New_Systems/rnas/2et3

>  <Rbt.Executable>
rbdock ($Id: //depot/dev/client3/rdock/2013.1/src/exe/rbdock.cxx#4 $)

>  <Rbt.Library>
libRbt.so (2013.1, Build901 2013/11/27)

>  <Rbt.Parameter_File>
/export/apps/rDock/src/rDock_2013.1_src/data/scripts/dock_solv.prm

>  <Rbt.Receptor>
prm/pocket_docking_6.prm

>  <SCORE>
-21.0366

>  <SCORE.INTER>
-12.0847

>  <SCORE.INTER.CONST>
1

>  <SCORE.INTER.POLAR>
-1.68012

>  <SCORE.INTER.ROT>
6

>  <SCORE.INTER.SOLV>
12.0802

>  <SCORE.INTER.VDW>
-14.0828

>  <SCORE.INTER.norm>
-0.38983

>  <SCORE.INTRA>
-8.95184

>  <SCORE.INTRA.DIHEDRAL>
-15.4435

>  <SCORE.INTRA.DIHEDRAL.0>
22.2484

>  <SCORE.INTRA.POLAR>
0

>  <SCORE.INTRA.POLAR.0>
0

>  <SCORE.INTRA.REPUL>
0

>  <SCORE.INTRA.REPUL.0>
0

>  <SCORE.INTRA.SOLV>
-2.03866

>  <SCORE.INTRA.SOLV.lig_0>
-75.7198

>  <SCORE.INTRA.VDW>
-0.210756

>  <SCORE.INTRA.VDW.0>
-3.34171

>  <SCORE.INTRA.norm>
-0.288769

>  <SCORE.RESTR>
0

>  <SCORE.RESTR.CAVITY>
0

>  <SCORE.RESTR.norm>
0

>  <SCORE.SYSTEM>
0

>  <SCORE.SYSTEM.CONST>
0

>  <SCORE.SYSTEM.DIHEDRAL>
0

>  <SCORE.SYSTEM.SOLV>
0

>  <SCORE.SYSTEM.norm>
0

>  <SCORE.heavy>
31

>  <SCORE.norm>
-0.678599

>  <RMSD>
7.434

$$$$
2et3_lig
 OpenBabel11021811423D
libRbt.so/2013.1/901 2013/11/27
 31 33  0  0  0  0  0  0  0  0999 V2000
   -3.7595   -3.6391   33.8963 C   0  0  2  0  0  0  0  0  0  0  0  0
   -2.6628   -4.3241   34.5551 O   0  0  0  0  0  0  0  0  0  0  0  0
   -2.5557   -8.3129   36.0994 C   0  0  2  0  0  0  0  0  0  0  0  0
   -2.8620   -9.4396   36.9254 N   0  0  0  0  0  0  0  0  0  0  0  0
   -4.9135  -10.1345   35.1105 C   0  0  2  0  0  0  0  0  0  0  0  0
   -3.2142   -2.4896   33.0421 C   0  0  2  0  0  0  0  0  0  0  0  0
   -2.2598   -3.0208   32.1185 N   0  0  0  0  0  0  0  0  0  0  0  0
   -1.9726   -7.1621   36.9814 C   0  0  0  0  0  0  0  0  0  0  0  0
   -4.1047  -11.3006   34.5006 C   0  0  2  0  0  0  0  0  0  0  0  0
   -2.7499  -11.1565   34.8642 O   0  0  0  0  0  0  0  0  0  0  0  0
   -2.5886   -1.3797   33.9542 C   0  0  0  0  0  0  0  0  0  0  0  0
   -1.6409   -5.9153   36.0823 C   0  0  2  0  0  0  0  0  0  0  0  0
   -1.0917   -4.8283   36.9085 N   0  0  0  0  0  0  0  0  0  0  0  0
   -4.3004  -11.2613   32.9299 C   0  0  1  0  0  0  0  0  0  0  0  0
   -3.5067  -12.3374   32.2511 N   0  0  0  0  0  0  0  0  0  0  0  0
   -3.7085   -0.8450   34.9012 C   0  0  0  0  0  0  0  0  0  0  0  0
   -2.9462   -5.4412   35.3355 C   0  0  2  0  0  0  0  0  0  0  0  0
   -5.8695  -11.4118   32.5571 C   0  0  1  0  0  0  0  0  0  0  0  0
   -6.3831  -12.6551   32.9882 O   0  0  0  0  0  0  0  0  0  0  0  0
   -4.2761   -2.0637   35.7540 C   0  0  2  0  0  0  0  0  0  0  0  0
   -4.7410   -3.1625   34.9091 O   0  0  0  0  0  0  0  0  0  0  0  0
   -3.5109   -6.6233   34.4571 C   0  0  2  0  0  0  0  0  0  0  0  0
   -4.6895   -6.2148   33.7701 O   0  0  0  0  0  0  0  0  0  0  0  0
   -6.6757  -10.2899   33.2816 C   0  0  0  0  0  0  0  0  0  0  0  0
   -6.3538  -10.2699   34.7474 O   0  0  0  0  0  0  0  0  0  0  0  0
   -5.3623   -1.6811   36.7316 C   0  0  0  0  0  0  0  0  0  0  0  0
   -5.8111   -2.8111   37.5019 N   0  0  0  0  0  0  0  0  0  0  0  0
   -3.8340   -7.8576   35.3704 C   0  0  1  0  0  0  0  0  0  0  0  0
   -4.3344   -8.9140   34.5598 O   0  0  0  0  0  0  0  0  0  0  0  0
   -6.2333  -11.3783   31.0664 C   0  0  0  0  0  0  0  0  0  0  0  0
   -2.0780  -12.0701   32.0152 C   0  0  0  0  0  0  0  0  0  0  0  0
  1  2  1  1  0  0  0
  1  6  1  0  0  0  0
  1 21  1  0  0  0  0
  3  4  1  1  0  0  0
  3  8  1  0  0  0  0
  3 28  1  0  0  0  0
  5  9  1  0  0  0  0
  5 25  1  0  0  0  0
  5 29  1  6  0  0  0
  6  7  1  6  0  0  0
  6 11  1  0  0  0  0
  8 12  1  0  0  0  0
  9 10  1  6  0  0  0
  9 14  1  0  0  0  0
 11 16  1  0  0  0  0
 12 13  1  1  0  0  0
 12 17  1  0  0  0  0
 14 15  1  6  0  0  0
 14 18  1  0  0  0  0
 15 31  1  0  0  0  0
 16 20  1  0  0  0  0
 17  2  1  6  0  0  0
 17 22  1  0  0  0  0
 18 19  1  1  0  0  0
 18 24  1  0  0  0  0
 18 30  1  0  0  0  0
 20 21  1  0  0  0  0
 20 26  1  6  0  0  0
 22 23  1  1  0  0  0
 22 28  1  0  0  0  0
 24 25  1  0  0  0  0
 26 27  1  0  0  0  0
 28 29  1  6  0  0  0
M  END
>  <CHROM.1>
-177.22560689,-124.07971109,-81.45039033,-173.38559718,-178.31705240,68.90625945
-3.92484949,-7.14952925,34.50444341,1.38246856,-0.83624126,0.06362485

>  <Name>
2et3_lig

>  <RI>
0

>  <Rbt.Current_Directory>
/home/itssahil/PROJECTS/Mol_Feturizer/New_Systems/rnas/2et3

>  <Rbt.Executable>
rbdock ($Id: //depot/dev/client3/rdock/2013.1/src/exe/rbdock.cxx#4 $)

>  <Rbt.Library>
libRbt.so (2013.1, Build901 2013/11/27)

>  <Rbt.Parameter_File>
/export/apps/rDock/src/rDock_2013.1_src/data/scripts/dock_solv.prm

>  <Rbt.Receptor>
prm/pocket_docking_7.prm

>  <SCORE>
-15.115

>  <SCORE.INTER>
-8.37644

>  <SCORE.INTER.CONST>
1

>  <SCORE.INTER.POLAR>
-0.644126

>  <SCORE.INTER.ROT>
6

>  <SCORE.INTER.SOLV>
7.47841

>  <SCORE.INTER.VDW>
-13.53

>  <SCORE.INTER.norm>
-0.270208

>  <SCORE.INTRA>
-6.73853

>  <SCORE.INTRA.DIHEDRAL>
-13.9747

>  <SCORE.INTRA.DIHEDRAL.0>
22.2484

>  <SCORE.INTRA.POLAR>
0

>  <SCORE.INTRA.POLAR.0>
0

>  <SCORE.INTRA.REPUL>
0

>  <SCORE.INTRA.REPUL.0>
0

>  <SCORE.INTRA.SOLV>
-1.49095

>  <SCORE.INTRA.SOLV.lig_0>
-75.7198

>  <SCORE.INTRA.VDW>
0.994321

>  <SCORE.INTRA.VDW.0>
-3.34171

>  <SCORE.INTRA.norm>
-0.217372

>  <SCORE.RESTR>
0

>  <SCORE.RESTR.CAVITY>
0

>  <SCORE.RESTR.norm>
0

>  <SCORE.SYSTEM>
0

>  <SCORE.SYSTEM.CONST>
0

>  <SCORE.SYSTEM.DIHEDRAL>
0

>  <SCORE.SYSTEM.SOLV>
0

>  <SCORE.SYSTEM.norm>
0

>  <SCORE.heavy>
31

>  <SCORE.norm>
-0.48758

>  <RMSD>
7.461

$$$$
2et3_lig
 OpenBabel11021811423D
libRbt.so/2013.1/901 2013/11/27
 31 33  0  0  0  0  0  0  0  0999 V2000
   -1.2779   -5.7629   34.8421 C   0  0  2  0  0  0  0  0  0  0  0  0
   -1.1488   -7.1514   35.2440 O   0  0  0  0  0  0  0  0  0  0  0  0
   -2.2618  -10.8658   33.4354 C   0  0  2  0  0  0  0  0  0  0  0  0
   -3.0512  -11.8361   32.7418 N   0  0  0  0  0  0  0  0  0  0  0  0
   -1.9557  -10.1680   30.0279 C   0  0  2  0  0  0  0  0  0  0  0  0
    0.0735   -5.0544   34.9846 C   0  0  2  0  0  0  0  0  0  0  0  0
    1.0450   -5.7655   34.2122 N   0  0  0  0  0  0  0  0  0  0  0  0
   -3.0016  -10.4272   34.7403 C   0  0  0  0  0  0  0  0  0  0  0  0
   -0.8028  -10.2066   29.0007 C   0  0  2  0  0  0  0  0  0  0  0  0
    0.0064  -11.3310   29.2639 O   0  0  0  0  0  0  0  0  0  0  0  0
    0.4841   -4.9586   36.4937 C   0  0  0  0  0  0  0  0  0  0  0  0
   -2.1446   -9.3534   35.5053 C   0  0  2  0  0  0  0  0  0  0  0  0
   -2.8373   -8.9367   36.7350 N   0  0  0  0  0  0  0  0  0  0  0  0
    0.0096   -8.8535   29.1278 C   0  0  1  0  0  0  0  0  0  0  0  0
    1.1819   -8.8277   28.1929 N   0  0  0  0  0  0  0  0  0  0  0  0
   -0.6174   -4.1449   37.2431 C   0  0  0  0  0  0  0  0  0  0  0  0
   -1.8886   -8.1145   34.5640 C   0  0  2  0  0  0  0  0  0  0  0  0
   -0.9595   -7.5889   28.8357 C   0  0  1  0  0  0  0  0  0  0  0  0
   -1.4660   -7.6233   27.5175 O   0  0  0  0  0  0  0  0  0  0  0  0
   -2.0132   -4.8870   37.0537 C   0  0  2  0  0  0  0  0  0  0  0  0
   -2.3414   -5.0994   35.6450 O   0  0  0  0  0  0  0  0  0  0  0  0
   -1.1439   -8.5892   33.2571 C   0  0  2  0  0  0  0  0  0  0  0  0
   -0.8993   -7.4838   32.3935 O   0  0  0  0  0  0  0  0  0  0  0  0
   -2.1755   -7.6422   29.8114 C   0  0  0  0  0  0  0  0  0  0  0  0
   -2.8328   -8.9907   29.7640 O   0  0  0  0  0  0  0  0  0  0  0  0
   -3.1718   -4.2107   37.7480 C   0  0  0  0  0  0  0  0  0  0  0  0
   -4.4151   -4.8930   37.5021 N   0  0  0  0  0  0  0  0  0  0  0  0
   -2.0127   -9.6606   32.5091 C   0  0  1  0  0  0  0  0  0  0  0  0
   -1.3217  -10.0808   31.3389 O   0  0  0  0  0  0  0  0  0  0  0  0
   -0.3263   -6.1943   28.9334 C   0  0  0  0  0  0  0  0  0  0  0  0
    2.4212   -8.2053   28.6877 C   0  0  0  0  0  0  0  0  0  0  0  0
  1  2  1  1  0  0  0
  1  6  1  0  0  0  0
  1 21  1  0  0  0  0
  3  4  1  6  0  0  0
  3  8  1  0  0  0  0
  3 28  1  0  0  0  0
  5  9  1  0  0  0  0
  5 25  1  0  0  0  0
  5 29  1  1  0  0  0
  6  7  1  6  0  0  0
  6 11  1  0  0  0  0
  8 12  1  0  0  0  0
  9 10  1  1  0  0  0
  9 14  1  0  0  0  0
 11 16  1  0  0  0  0
 12 13  1  1  0  0  0
 12 17  1  0  0  0  0
 14 15  1  6  0  0  0
 14 18  1  0  0  0  0
 15 31  1  0  0  0  0
 16 20  1  0  0  0  0
 17  2  1  1  0  0  0
 17 22  1  0  0  0  0
 18 19  1  6  0  0  0
 18 24  1  0  0  0  0
 18 30  1  0  0  0  0
 20 21  1  0  0  0  0
 20 26  1  6  0  0  0
 22 23  1  6  0  0  0
 22 28  1  0  0  0  0
 24 25  1  0  0  0  0
 26 27  1  0  0  0  0
 28 29  1  6  0  0  0
M  END
>  <CHROM.1>
-144.44484234,162.20181251,-142.05895025,-153.71386988,177.76901141,107.48652895
-1.30965356,-7.83474063,32.77121498,-1.87377321,-1.01205534,-2.27673665

>  <Name>
2et3_lig

>  <RI>
3.86414e+07

>  <Rbt.Current_Directory>
/home/itssahil/PROJECTS/Mol_Feturizer/New_Systems/rnas/2et3

>  <Rbt.Executable>
rbdock ($Id: //depot/dev/client3/rdock/2013.1/src/exe/rbdock.cxx#4 $)

>  <Rbt.Library>
libRbt.so (2013.1, Build901 2013/11/27)

>  <Rbt.Parameter_File>
/export/apps/rDock/src/rDock_2013.1_src/data/scripts/dock_solv.prm

>  <Rbt.Receptor>
prm/pocket_docking_8.prm

>  <SCORE>
-18.3346

>  <SCORE.INTER>
-14.2232

>  <SCORE.INTER.CONST>
1

>  <SCORE.INTER.POLAR>
-1.94924

>  <SCORE.INTER.ROT>
6

>  <SCORE.INTER.SOLV>
15.0513

>  <SCORE.INTER.VDW>
-15.6018

>  <SCORE.INTER.norm>
-0.458814

>  <SCORE.INTRA>
-4.11134

>  <SCORE.INTRA.DIHEDRAL>
-5.84386

>  <SCORE.INTRA.DIHEDRAL.0>
22.2484

>  <SCORE.INTRA.POLAR>
0

>  <SCORE.INTRA.POLAR.0>
0

>  <SCORE.INTRA.REPUL>
0

>  <SCORE.INTRA.REPUL.0>
0

>  <SCORE.INTRA.SOLV>
-1.59271

>  <SCORE.INTRA.SOLV.lig_0>
-75.7198

>  <SCORE.INTRA.VDW>
-0.393053

>  <SCORE.INTRA.VDW.0>
-3.34171

>  <SCORE.INTRA.norm>
-0.132624

>  <SCORE.RESTR>
0

>  <SCORE.RESTR.CAVITY>
0

>  <SCORE.RESTR.norm>
0

>  <SCORE.SYSTEM>
0

>  <SCORE.SYSTEM.CONST>
0

>  <SCORE.SYSTEM.DIHEDRAL>
0

>  <SCORE.SYSTEM.SOLV>
0

>  <SCORE.SYSTEM.norm>
0

>  <SCORE.heavy>
31

>  <SCORE.norm>
-0.591438

>  <RMSD>
7.524

$$$$
2et3_lig
 OpenBabel11021811423D
libRbt.so/2013.1/901 2013/11/27
 31 33  0  0  0  0  0  0  0  0999 V2000
   -3.2856  -10.2974   33.7781 C   0  0  2  0  0  0  0  0  0  0  0  0
   -3.8014  -10.9564   32.5924 O   0  0  0  0  0  0  0  0  0  0  0  0
   -0.1413  -11.5990   30.4716 C   0  0  2  0  0  0  0  0  0  0  0  0
    0.7608  -12.0665   29.4651 N   0  0  0  0  0  0  0  0  0  0  0  0
   -0.2758   -8.3350   29.8993 C   0  0  2  0  0  0  0  0  0  0  0  0
   -4.2520  -10.5064   34.9489 C   0  0  2  0  0  0  0  0  0  0  0  0
   -4.4440  -11.9114   35.1366 N   0  0  0  0  0  0  0  0  0  0  0  0
   -0.8087  -12.8202   31.1826 C   0  0  0  0  0  0  0  0  0  0  0  0
   -0.6925   -7.1965   28.9423 C   0  0  2  0  0  0  0  0  0  0  0  0
   -2.0682   -7.3189   28.6579 O   0  0  0  0  0  0  0  0  0  0  0  0
   -5.6050   -9.7631   34.6803 C   0  0  0  0  0  0  0  0  0  0  0  0
   -1.8094  -12.3152   32.2855 C   0  0  2  0  0  0  0  0  0  0  0  0
   -2.4411  -13.4618   32.9578 N   0  0  0  0  0  0  0  0  0  0  0  0
    0.1919   -7.3105   27.6340 C   0  0  1  0  0  0  0  0  0  0  0  0
   -0.1822   -6.2650   26.6261 N   0  0  0  0  0  0  0  0  0  0  0  0
   -5.2962   -8.2414   34.5190 C   0  0  0  0  0  0  0  0  0  0  0  0
   -2.9002  -11.3884   31.6237 C   0  0  2  0  0  0  0  0  0  0  0  0
    1.7630   -7.1827   28.0071 C   0  0  1  0  0  0  0  0  0  0  0  0
    2.0557   -5.9220   28.5733 O   0  0  0  0  0  0  0  0  0  0  0  0
   -4.2690   -8.0570   33.3167 C   0  0  2  0  0  0  0  0  0  0  0  0
   -3.0565   -8.8537   33.4966 O   0  0  0  0  0  0  0  0  0  0  0  0
   -2.1963  -10.1685   30.9137 C   0  0  2  0  0  0  0  0  0  0  0  0
   -3.1648   -9.3157   30.3117 O   0  0  0  0  0  0  0  0  0  0  0  0
    2.1266   -8.2717   29.0632 C   0  0  0  0  0  0  0  0  0  0  0  0
    1.1757   -8.2215   30.2234 O   0  0  0  0  0  0  0  0  0  0  0  0
   -3.8951   -6.6202   33.0383 C   0  0  0  0  0  0  0  0  0  0  0  0
   -2.9864   -6.5094   31.9275 N   0  0  0  0  0  0  0  0  0  0  0  0
   -1.2013  -10.6917   29.8189 C   0  0  1  0  0  0  0  0  0  0  0  0
   -0.5722   -9.5784   29.1961 O   0  0  0  0  0  0  0  0  0  0  0  0
    2.7612   -7.2876   26.8460 C   0  0  0  0  0  0  0  0  0  0  0  0
   -0.6974   -4.9868   27.1447 C   0  0  0  0  0  0  0  0  0  0  0  0
  1  2  1  6  0  0  0
  1  6  1  0  0  0  0
  1 21  1  0  0  0  0
  3  4  1  6  0  0  0
  3  8  1  0  0  0  0
  3 28  1  0  0  0  0
  5  9  1  0  0  0  0
  5 25  1  0  0  0  0
  5 29  1  6  0  0  0
  6  7  1  6  0  0  0
  6 11  1  0  0  0  0
  8 12  1  0  0  0  0
  9 10  1  6  0  0  0
  9 14  1  0  0  0  0
 11 16  1  0  0  0  0
 12 13  1  6  0  0  0
 12 17  1  0  0  0  0
 14 15  1  6  0  0  0
 14 18  1  0  0  0  0
 15 31  1  0  0  0  0
 16 20  1  0  0  0  0
 17  2  1  1  0  0  0
 17 22  1  0  0  0  0
 18 19  1  1  0  0  0
 18 24  1  0  0  0  0
 18 30  1  0  0  0  0
 20 21  1  0  0  0  0
 20 26  1  1  0  0  0
 22 23  1  6  0  0  0
 22 28  1  0  0  0  0
 24 25  1  0  0  0  0
 26 27  1  0  0  0  0
 28 29  1  1  0  0  0
M  END
>  <CHROM.1>
-152.96079593,-135.94665542,30.24145797,54.11554252,-178.86595310,-87.89627564
-1.57530984,-9.10346731,30.85207563,2.48815996,-0.73681571,2.81639369

>  <Name>
2et3_lig

>  <RI>
0

>  <Rbt.Current_Directory>
/home/itssahil/PROJECTS/Mol_Feturizer/New_Systems/rnas/2et3

>  <Rbt.Executable>
rbdock ($Id: //depot/dev/client3/rdock/2013.1/src/exe/rbdock.cxx#4 $)

>  <Rbt.Library>
libRbt.so (2013.1, Build901 2013/11/27)

>  <Rbt.Parameter_File>
/export/apps/rDock/src/rDock_2013.1_src/data/scripts/dock_solv.prm

>  <Rbt.Receptor>
prm/pocket_docking_3.prm

>  <SCORE>
-8.97269

>  <SCORE.INTER>
-8.22881

>  <SCORE.INTER.CONST>
1

>  <SCORE.INTER.POLAR>
-0.521791

>  <SCORE.INTER.ROT>
6

>  <SCORE.INTER.SOLV>
17.0831

>  <SCORE.INTER.VDW>
-17.0409

>  <SCORE.INTER.norm>
-0.265445

>  <SCORE.INTRA>
-0.743886

>  <SCORE.INTRA.DIHEDRAL>
-9.08507

>  <SCORE.INTRA.DIHEDRAL.0>
22.2484

>  <SCORE.INTRA.POLAR>
0

>  <SCORE.INTRA.POLAR.0>
0

>  <SCORE.INTRA.REPUL>
0

>  <SCORE.INTRA.REPUL.0>
0

>  <SCORE.INTRA.SOLV>
2.78549

>  <SCORE.INTRA.SOLV.lig_0>
-75.7198

>  <SCORE.INTRA.VDW>
2.4059

>  <SCORE.INTRA.VDW.0>
-3.34171

>  <SCORE.INTRA.norm>
-0.0239963

>  <SCORE.RESTR>
0

>  <SCORE.RESTR.CAVITY>
0

>  <SCORE.RESTR.norm>
0

>  <SCORE.SYSTEM>
0

>  <SCORE.SYSTEM.CONST>
0

>  <SCORE.SYSTEM.DIHEDRAL>
0

>  <SCORE.SYSTEM.SOLV>
0

>  <SCORE.SYSTEM.norm>
0

>  <SCORE.heavy>
31

>  <SCORE.norm>
-0.289442

>  <RMSD>
7.537

$$$$
2et3_lig
 OpenBabel11021811423D
libRbt.so/2013.1/901 2013/11/27
 31 33  0  0  0  0  0  0  0  0999 V2000
   -5.7686   -9.6937   31.2814 C   0  0  2  0  0  0  0  0  0  0  0  0
   -6.1763   -9.3006   32.6176 O   0  0  0  0  0  0  0  0  0  0  0  0
   -4.0456   -7.1411   35.6347 C   0  0  2  0  0  0  0  0  0  0  0  0
   -3.0238   -6.8140   36.5804 N   0  0  0  0  0  0  0  0  0  0  0  0
   -1.5852   -5.4801   34.4257 C   0  0  2  0  0  0  0  0  0  0  0  0
   -7.0071   -9.9474   30.4152 C   0  0  2  0  0  0  0  0  0  0  0  0
   -7.8174   -8.7686   30.4216 N   0  0  0  0  0  0  0  0  0  0  0  0
   -4.7004   -8.5054   36.0245 C   0  0  0  0  0  0  0  0  0  0  0  0
   -1.3616   -4.0745   33.8257 C   0  0  2  0  0  0  0  0  0  0  0  0
   -2.4307   -3.2387   34.2089 O   0  0  0  0  0  0  0  0  0  0  0  0
   -7.7926  -11.1985   30.9377 C   0  0  0  0  0  0  0  0  0  0  0  0
   -5.8198   -8.8775   34.9845 C   0  0  2  0  0  0  0  0  0  0  0  0
   -6.4393  -10.1622   35.3469 N   0  0  0  0  0  0  0  0  0  0  0  0
   -1.2663   -4.2250   32.2524 C   0  0  1  0  0  0  0  0  0  0  0  0
   -1.0952   -2.8938   31.5834 N   0  0  0  0  0  0  0  0  0  0  0  0
   -6.8390  -12.4323   30.8651 C   0  0  0  0  0  0  0  0  0  0  0  0
   -5.1938   -8.9501   33.5390 C   0  0  2  0  0  0  0  0  0  0  0  0
   -0.0389   -5.2052   31.8569 C   0  0  1  0  0  0  0  0  0  0  0  0
    1.1999   -4.6733   32.2788 O   0  0  0  0  0  0  0  0  0  0  0  0
   -5.5498  -12.1295   31.7488 C   0  0  2  0  0  0  0  0  0  0  0  0
   -4.8847  -10.8894   31.3522 O   0  0  0  0  0  0  0  0  0  0  0  0
   -4.5401   -7.5612   33.1764 C   0  0  2  0  0  0  0  0  0  0  0  0
   -3.9713   -7.6036   31.8716 O   0  0  0  0  0  0  0  0  0  0  0  0
   -0.2322   -6.5783   32.5715 C   0  0  0  0  0  0  0  0  0  0  0  0
   -0.4607   -6.3817   34.0418 O   0  0  0  0  0  0  0  0  0  0  0  0
   -4.5443  -13.2563   31.7813 C   0  0  0  0  0  0  0  0  0  0  0  0
   -5.0479  -14.4025   32.4914 N   0  0  0  0  0  0  0  0  0  0  0  0
   -3.4281   -7.2065   34.2250 C   0  0  1  0  0  0  0  0  0  0  0  0
   -2.8565   -5.9491   33.8852 O   0  0  0  0  0  0  0  0  0  0  0  0
    0.1822   -5.4691   30.3613 C   0  0  0  0  0  0  0  0  0  0  0  0
   -2.2504   -2.3625   30.8408 C   0  0  0  0  0  0  0  0  0  0  0  0
  1  2  1  1  0  0  0
  1  6  1  0  0  0  0
  1 21  1  0  0  0  0
  3  4  1  1  0  0  0
  3  8  1  0  0  0  0
  3 28  1  0  0  0  0
  5  9  1  0  0  0  0
  5 25  1  0  0  0  0
  5 29  1  6  0  0  0
  6  7  1  1  0  0  0
  6 11  1  0  0  0  0
  8 12  1  0  0  0  0
  9 10  1  6  0  0  0
  9 14  1  0  0  0  0
 11 16  1  0  0  0  0
 12 13  1  1  0  0  0
 12 17  1  0  0  0  0
 14 15  1  6  0  0  0
 14 18  1  0  0  0  0
 15 31  1  0  0  0  0
 16 20  1  0  0  0  0
 17  2  1  6  0  0  0
 17 22  1  0  0  0  0
 18 19  1  1  0  0  0
 18 24  1  0  0  0  0
 18 30  1  0  0  0  0
 20 21  1  0  0  0  0
 20 26  1  6  0  0  0
 22 23  1  6  0  0  0
 22 28  1  0  0  0  0
 24 25  1  0  0  0  0
 26 27  1  0  0  0  0
 28 29  1  6  0  0  0
M  END
>  <CHROM.1>
-176.37854269,-178.76535817,-107.77413251,-167.35404513,-68.30984175,76.02599743
-3.66738897,-7.75171847,32.80633815,-2.89060318,0.90413837,1.36480488

>  <Name>
2et3_lig

>  <RI>
0

>  <Rbt.Current_Directory>
/home/itssahil/PROJECTS/Mol_Feturizer/New_Systems/rnas/2et3

>  <Rbt.Executable>
rbdock ($Id: //depot/dev/client3/rdock/2013.1/src/exe/rbdock.cxx#4 $)

>  <Rbt.Library>
libRbt.so (2013.1, Build901 2013/11/27)

>  <Rbt.Parameter_File>
/export/apps/rDock/src/rDock_2013.1_src/data/scripts/dock_solv.prm

>  <Rbt.Receptor>
prm/pocket_docking_6.prm

>  <SCORE>
-21.8687

>  <SCORE.INTER>
-11.1047

>  <SCORE.INTER.CONST>
1

>  <SCORE.INTER.POLAR>
-1.91213

>  <SCORE.INTER.ROT>
6

>  <SCORE.INTER.SOLV>
13.8769

>  <SCORE.INTER.VDW>
-13.255

>  <SCORE.INTER.norm>
-0.358217

>  <SCORE.INTRA>
-10.7984

>  <SCORE.INTRA.DIHEDRAL>
-18.7618

>  <SCORE.INTRA.DIHEDRAL.0>
22.2484

>  <SCORE.INTRA.POLAR>
0

>  <SCORE.INTRA.POLAR.0>
0

>  <SCORE.INTRA.REPUL>
0

>  <SCORE.INTRA.REPUL.0>
0

>  <SCORE.INTRA.SOLV>
-3.04629

>  <SCORE.INTRA.SOLV.lig_0>
-75.7198

>  <SCORE.INTRA.VDW>
0.105622

>  <SCORE.INTRA.VDW.0>
-3.34171

>  <SCORE.INTRA.norm>
-0.348336

>  <SCORE.RESTR>
0.0344625

>  <SCORE.RESTR.CAVITY>
0.0344625

>  <SCORE.RESTR.norm>
0.00111169

>  <SCORE.SYSTEM>
0

>  <SCORE.SYSTEM.CONST>
0

>  <SCORE.SYSTEM.DIHEDRAL>
0

>  <SCORE.SYSTEM.SOLV>
0

>  <SCORE.SYSTEM.norm>
0

>  <SCORE.heavy>
31

>  <SCORE.norm>
-0.705441

>  <RMSD>
7.588

$$$$
2et3_lig
 OpenBabel11021811423D
libRbt.so/2013.1/901 2013/11/27
 31 33  0  0  0  0  0  0  0  0999 V2000
   -1.4935   -6.1461   34.5370 C   0  0  2  0  0  0  0  0  0  0  0  0
   -1.2357   -7.5159   34.9414 O   0  0  0  0  0  0  0  0  0  0  0  0
   -3.3320  -11.2455   34.8984 C   0  0  2  0  0  0  0  0  0  0  0  0
   -4.3238  -12.2225   34.5706 N   0  0  0  0  0  0  0  0  0  0  0  0
   -2.7155  -13.0789   32.4786 C   0  0  2  0  0  0  0  0  0  0  0  0
   -0.2186   -5.3106   34.6946 C   0  0  2  0  0  0  0  0  0  0  0  0
    0.8259   -5.9243   33.9340 N   0  0  0  0  0  0  0  0  0  0  0  0
   -4.0136  -10.0216   35.5910 C   0  0  0  0  0  0  0  0  0  0  0  0
   -1.6542  -14.0839   31.9793 C   0  0  2  0  0  0  0  0  0  0  0  0
   -0.8349  -14.4598   33.0636 O   0  0  0  0  0  0  0  0  0  0  0  0
    0.1634   -5.1763   36.2084 C   0  0  0  0  0  0  0  0  0  0  0  0
   -2.9312   -8.9379   35.9472 C   0  0  2  0  0  0  0  0  0  0  0  0
   -3.5683   -7.7827   36.5994 N   0  0  0  0  0  0  0  0  0  0  0  0
   -0.8229  -13.3840   30.8277 C   0  0  1  0  0  0  0  0  0  0  0  0
    0.2660  -14.2790   30.3157 N   0  0  0  0  0  0  0  0  0  0  0  0
   -1.0200   -4.4730   36.9443 C   0  0  0  0  0  0  0  0  0  0  0  0
   -2.1801   -8.4912   34.6346 C   0  0  2  0  0  0  0  0  0  0  0  0
   -1.8029  -12.9532   29.6121 C   0  0  1  0  0  0  0  0  0  0  0  0
   -2.4196  -14.0804   29.0251 O   0  0  0  0  0  0  0  0  0  0  0  0
   -2.3354   -5.3462   36.7394 C   0  0  2  0  0  0  0  0  0  0  0  0
   -2.6253   -5.5887   35.3272 O   0  0  0  0  0  0  0  0  0  0  0  0
   -1.5057   -9.7467   33.9589 C   0  0  2  0  0  0  0  0  0  0  0  0
   -0.8179   -9.3646   32.7720 O   0  0  0  0  0  0  0  0  0  0  0  0
   -2.9322  -12.0324   30.1693 C   0  0  0  0  0  0  0  0  0  0  0  0
   -3.6021  -12.6727   31.3500 O   0  0  0  0  0  0  0  0  0  0  0  0
   -3.5618   -4.7852   37.4198 C   0  0  0  0  0  0  0  0  0  0  0  0
   -3.8789   -3.4634   36.9463 N   0  0  0  0  0  0  0  0  0  0  0  0
   -2.6001  -10.8166   33.6127 C   0  0  1  0  0  0  0  0  0  0  0  0
   -1.9720  -11.9425   33.0116 O   0  0  0  0  0  0  0  0  0  0  0  0
   -1.1523  -12.2449   28.4160 C   0  0  0  0  0  0  0  0  0  0  0  0
    1.6534  -13.8232   30.5043 C   0  0  0  0  0  0  0  0  0  0  0  0
  1  2  1  1  0  0  0
  1  6  1  0  0  0  0
  1 21  1  0  0  0  0
  3  4  1  6  0  0  0
  3  8  1  0  0  0  0
  3 28  1  0  0  0  0
  5  9  1  0  0  0  0
  5 25  1  0  0  0  0
  5 29  1  6  0  0  0
  6  7  1  6  0  0  0
  6 11  1  0  0  0  0
  8 12  1  0  0  0  0
  9 10  1  1  0  0  0
  9 14  1  0  0  0  0
 11 16  1  0  0  0  0
 12 13  1  6  0  0  0
 12 17  1  0  0  0  0
 14 15  1  6  0  0  0
 14 18  1  0  0  0  0
 15 31  1  0  0  0  0
 16 20  1  0  0  0  0
 17  2  1  1  0  0  0
 17 22  1  0  0  0  0
 18 19  1  6  0  0  0
 18 24  1  0  0  0  0
 18 30  1  0  0  0  0
 20 21  1  0  0  0  0
 20 26  1  6  0  0  0
 22 23  1  6  0  0  0
 22 28  1  0  0  0  0
 24 25  1  0  0  0  0
 26 27  1  0  0  0  0
 28 29  1  1  0  0  0
M  END
>  <CHROM.1>
-167.75753306,-177.79345531,-116.65794313,-107.80691597,59.38699641,64.34266593
-1.88108547,-9.75794261,33.54424377,-1.64755599,-0.61689099,-2.58906375

>  <Name>
2et3_lig

>  <RI>
3.86414e+07

>  <Rbt.Current_Directory>
/home/itssahil/PROJECTS/Mol_Feturizer/New_Systems/rnas/2et3

>  <Rbt.Executable>
rbdock ($Id: //depot/dev/client3/rdock/2013.1/src/exe/rbdock.cxx#4 $)

>  <Rbt.Library>
libRbt.so (2013.1, Build901 2013/11/27)

>  <Rbt.Parameter_File>
/export/apps/rDock/src/rDock_2013.1_src/data/scripts/dock_solv.prm

>  <Rbt.Receptor>
prm/pocket_docking_8.prm

>  <SCORE>
-24.4584

>  <SCORE.INTER>
-18.8944

>  <SCORE.INTER.CONST>
1

>  <SCORE.INTER.POLAR>
-2.72847

>  <SCORE.INTER.ROT>
6

>  <SCORE.INTER.SOLV>
15.4951

>  <SCORE.INTER.VDW>
-16.2664

>  <SCORE.INTER.norm>
-0.609498

>  <SCORE.INTRA>
-5.56394

>  <SCORE.INTRA.DIHEDRAL>
-13.5932

>  <SCORE.INTRA.DIHEDRAL.0>
22.2484

>  <SCORE.INTRA.POLAR>
0

>  <SCORE.INTRA.POLAR.0>
0

>  <SCORE.INTRA.REPUL>
0

>  <SCORE.INTRA.REPUL.0>
0

>  <SCORE.INTRA.SOLV>
1.74793

>  <SCORE.INTRA.SOLV.lig_0>
-75.7198

>  <SCORE.INTRA.VDW>
0.358704

>  <SCORE.INTRA.VDW.0>
-3.34171

>  <SCORE.INTRA.norm>
-0.179482

>  <SCORE.RESTR>
0

>  <SCORE.RESTR.CAVITY>
0

>  <SCORE.RESTR.norm>
0

>  <SCORE.SYSTEM>
0

>  <SCORE.SYSTEM.CONST>
0

>  <SCORE.SYSTEM.DIHEDRAL>
0

>  <SCORE.SYSTEM.SOLV>
0

>  <SCORE.SYSTEM.norm>
0

>  <SCORE.heavy>
31

>  <SCORE.norm>
-0.78898

>  <RMSD>
7.595

$$$$
2et3_lig
 OpenBabel11021811423D
libRbt.so/2013.1/901 2013/11/27
 31 33  0  0  0  0  0  0  0  0999 V2000
   -2.3662   -7.3342   34.3781 C   0  0  2  0  0  0  0  0  0  0  0  0
   -2.1419   -8.7556   34.5667 O   0  0  0  0  0  0  0  0  0  0  0  0
   -0.8238  -11.6060   31.6609 C   0  0  2  0  0  0  0  0  0  0  0  0
   -0.8433  -12.4530   30.5085 N   0  0  0  0  0  0  0  0  0  0  0  0
   -0.0788   -9.5507   28.9184 C   0  0  2  0  0  0  0  0  0  0  0  0
   -2.1226   -6.5917   35.6963 C   0  0  2  0  0  0  0  0  0  0  0  0
   -0.7980   -6.8871   36.1482 N   0  0  0  0  0  0  0  0  0  0  0  0
   -1.9774  -12.0182   32.6312 C   0  0  0  0  0  0  0  0  0  0  0  0
    1.0653   -8.6017   28.4990 C   0  0  2  0  0  0  0  0  0  0  0  0
    2.3000   -9.2227   28.7787 O   0  0  0  0  0  0  0  0  0  0  0  0
   -3.2041   -6.9921   36.7572 C   0  0  0  0  0  0  0  0  0  0  0  0
   -1.9690  -11.0861   33.8978 C   0  0  2  0  0  0  0  0  0  0  0  0
   -3.0542  -11.4699   34.8148 N   0  0  0  0  0  0  0  0  0  0  0  0
    0.8931   -7.2462   29.2991 C   0  0  1  0  0  0  0  0  0  0  0  0
    1.9959   -6.2798   28.9847 N   0  0  0  0  0  0  0  0  0  0  0  0
   -4.6053   -6.6058   36.1877 C   0  0  0  0  0  0  0  0  0  0  0  0
   -2.1267   -9.5830   33.4476 C   0  0  2  0  0  0  0  0  0  0  0  0
   -0.5428   -6.5762   28.9632 C   0  0  1  0  0  0  0  0  0  0  0  0
   -0.6467   -6.2430   27.5944 O   0  0  0  0  0  0  0  0  0  0  0  0
   -4.8188   -7.3675   34.8061 C   0  0  2  0  0  0  0  0  0  0  0  0
   -3.7406   -7.1029   33.8549 O   0  0  0  0  0  0  0  0  0  0  0  0
   -0.9509   -9.1987   32.4691 C   0  0  2  0  0  0  0  0  0  0  0  0
   -1.0722   -7.8424   32.0527 O   0  0  0  0  0  0  0  0  0  0  0  0
   -1.6726   -7.6018   29.2876 C   0  0  0  0  0  0  0  0  0  0  0  0
   -1.3975   -8.9193   28.6232 O   0  0  0  0  0  0  0  0  0  0  0  0
   -6.1520   -7.0954   34.1500 C   0  0  0  0  0  0  0  0  0  0  0  0
   -6.3441   -5.6928   33.8902 N   0  0  0  0  0  0  0  0  0  0  0  0
   -0.9744  -10.1397   31.2136 C   0  0  1  0  0  0  0  0  0  0  0  0
    0.0963   -9.7824   30.3481 O   0  0  0  0  0  0  0  0  0  0  0  0
   -0.8741   -5.2564   29.6730 C   0  0  0  0  0  0  0  0  0  0  0  0
    2.4414   -6.2027   27.5834 C   0  0  0  0  0  0  0  0  0  0  0  0
  1  2  1  1  0  0  0
  1  6  1  0  0  0  0
  1 21  1  0  0  0  0
  3  4  1  6  0  0  0
  3  8  1  0  0  0  0
  3 28  1  0  0  0  0
  5  9  1  0  0  0  0
  5 25  1  0  0  0  0
  5 29  1  1  0  0  0
  6  7  1  1  0  0  0
  6 11  1  0  0  0  0
  8 12  1  0  0  0  0
  9 10  1  1  0  0  0
  9 14  1  0  0  0  0
 11 16  1  0  0  0  0
 12 13  1  1  0  0  0
 12 17  1  0  0  0  0
 14 15  1  6  0  0  0
 14 18  1  0  0  0  0
 15 31  1  0  0  0  0
 16 20  1  0  0  0  0
 17  2  1  1  0  0  0
 17 22  1  0  0  0  0
 18 19  1  6  0  0  0
 18 24  1  0  0  0  0
 18 30  1  0  0  0  0
 20 21  1  0  0  0  0
 20 26  1  6  0  0  0
 22 23  1  6  0  0  0
 22 28  1  0  0  0  0
 24 25  1  0  0  0  0
 26 27  1  0  0  0  0
 28 29  1  6  0  0  0
M  END
>  <CHROM.1>
-171.04685165,154.50732499,39.88441890,-176.07760471,58.40829122,109.33434087
-1.48156113,-8.27901155,31.88183949,2.92255387,-0.94625642,2.83249314

>  <Name>
2et3_lig

>  <RI>
0

>  <Rbt.Current_Directory>
/home/itssahil/PROJECTS/Mol_Feturizer/New_Systems/rnas/2et3

>  <Rbt.Executable>
rbdock ($Id: //depot/dev/client3/rdock/2013.1/src/exe/rbdock.cxx#4 $)

>  <Rbt.Library>
libRbt.so (2013.1, Build901 2013/11/27)

>  <Rbt.Parameter_File>
/export/apps/rDock/src/rDock_2013.1_src/data/scripts/dock_solv.prm

>  <Rbt.Receptor>
prm/pocket_docking_3.prm

>  <SCORE>
-15.5522

>  <SCORE.INTER>
-10.7075

>  <SCORE.INTER.CONST>
1

>  <SCORE.INTER.POLAR>
-1.63065

>  <SCORE.INTER.ROT>
6

>  <SCORE.INTER.SOLV>
14.539

>  <SCORE.INTER.VDW>
-14.1492

>  <SCORE.INTER.norm>
-0.345404

>  <SCORE.INTRA>
-4.84467

>  <SCORE.INTRA.DIHEDRAL>
-11.9025

>  <SCORE.INTRA.DIHEDRAL.0>
22.2484

>  <SCORE.INTRA.POLAR>
0

>  <SCORE.INTRA.POLAR.0>
0

>  <SCORE.INTRA.REPUL>
0

>  <SCORE.INTRA.REPUL.0>
0

>  <SCORE.INTRA.SOLV>
-2.17194

>  <SCORE.INTRA.SOLV.lig_0>
-75.7198

>  <SCORE.INTRA.VDW>
2.19257

>  <SCORE.INTRA.VDW.0>
-3.34171

>  <SCORE.INTRA.norm>
-0.15628

>  <SCORE.RESTR>
0

>  <SCORE.RESTR.CAVITY>
0

>  <SCORE.RESTR.norm>
0

>  <SCORE.SYSTEM>
0

>  <SCORE.SYSTEM.CONST>
0

>  <SCORE.SYSTEM.DIHEDRAL>
0

>  <SCORE.SYSTEM.SOLV>
0

>  <SCORE.SYSTEM.norm>
0

>  <SCORE.heavy>
31

>  <SCORE.norm>
-0.501684

>  <RMSD>
7.601

$$$$
2et3_lig
 OpenBabel11021811423D
libRbt.so/2013.1/901 2013/11/27
 31 33  0  0  0  0  0  0  0  0999 V2000
    0.0633  -13.9427   31.9695 C   0  0  2  0  0  0  0  0  0  0  0  0
   -0.8068  -12.9007   31.4562 O   0  0  0  0  0  0  0  0  0  0  0  0
   -2.3441   -9.1722   32.8848 C   0  0  2  0  0  0  0  0  0  0  0  0
   -2.4432   -7.9670   33.6486 N   0  0  0  0  0  0  0  0  0  0  0  0
    0.1261   -7.1772   30.9792 C   0  0  2  0  0  0  0  0  0  0  0  0
    0.6454  -14.7519   30.8056 C   0  0  2  0  0  0  0  0  0  0  0  0
    1.3205  -13.8549   29.9192 N   0  0  0  0  0  0  0  0  0  0  0  0
   -2.3787  -10.4038   33.8461 C   0  0  0  0  0  0  0  0  0  0  0  0
   -0.4267   -5.7828   30.6106 C   0  0  2  0  0  0  0  0  0  0  0  0
   -1.2323   -5.3160   31.6696 O   0  0  0  0  0  0  0  0  0  0  0  0
   -0.4871  -15.5518   30.0756 C   0  0  0  0  0  0  0  0  0  0  0  0
   -2.2614  -11.7338   33.0153 C   0  0  2  0  0  0  0  0  0  0  0  0
   -2.2931  -12.8969   33.9163 N   0  0  0  0  0  0  0  0  0  0  0  0
   -1.2474   -5.9236   29.2640 C   0  0  1  0  0  0  0  0  0  0  0  0
   -1.8617   -4.6175   28.8568 N   0  0  0  0  0  0  0  0  0  0  0  0
   -1.1408  -16.5184   31.1125 C   0  0  0  0  0  0  0  0  0  0  0  0
   -0.9261  -11.7159   32.1767 C   0  0  2  0  0  0  0  0  0  0  0  0
   -0.2907   -6.4783   28.0805 C   0  0  1  0  0  0  0  0  0  0  0  0
    0.7640   -5.5789   27.8082 O   0  0  0  0  0  0  0  0  0  0  0  0
   -1.7100  -15.6545   32.3226 C   0  0  2  0  0  0  0  0  0  0  0  0
   -0.6859  -14.8033   32.9258 O   0  0  0  0  0  0  0  0  0  0  0  0
   -0.9204  -10.4623   31.2196 C   0  0  2  0  0  0  0  0  0  0  0  0
    0.2768  -10.4288   30.4493 O   0  0  0  0  0  0  0  0  0  0  0  0
    0.3445   -7.8304   28.5297 C   0  0  0  0  0  0  0  0  0  0  0  0
    0.9907   -7.6892   29.8770 O   0  0  0  0  0  0  0  0  0  0  0  0
   -2.3898  -16.4694   33.3976 C   0  0  0  0  0  0  0  0  0  0  0  0
   -1.4877  -17.4120   34.0054 N   0  0  0  0  0  0  0  0  0  0  0  0
   -1.0399   -9.1462   32.0657 C   0  0  1  0  0  0  0  0  0  0  0  0
   -1.0402   -8.0291   31.1853 O   0  0  0  0  0  0  0  0  0  0  0  0
   -0.9400   -6.6862   26.7054 C   0  0  0  0  0  0  0  0  0  0  0  0
   -3.2659   -4.6452   28.4146 C   0  0  0  0  0  0  0  0  0  0  0  0
  1  2  1  6  0  0  0
  1  6  1  0  0  0  0
  1 21  1  0  0  0  0
  3  4  1  1  0  0  0
  3  8  1  0  0  0  0
  3 28  1  0  0  0  0
  5  9  1  0  0  0  0
  5 25  1  0  0  0  0
  5 29  1  6  0  0  0
  6  7  1  6  0  0  0
  6 11  1  0  0  0  0
  8 12  1  0  0  0  0
  9 10  1  1  0  0  0
  9 14  1  0  0  0  0
 11 16  1  0  0  0  0
 12 13  1  1  0  0  0
 12 17  1  0  0  0  0
 14 15  1  6  0  0  0
 14 18  1  0  0  0  0
 15 31  1  0  0  0  0
 16 20  1  0  0  0  0
 17  2  1  6  0  0  0
 17 22  1  0  0  0  0
 18 19  1  6  0  0  0
 18 24  1  0  0  0  0
 18 30  1  0  0  0  0
 20 21  1  0  0  0  0
 20 26  1  1  0  0  0
 22 23  1  1  0  0  0
 22 28  1  0  0  0  0
 24 25  1  0  0  0  0
 26 27  1  0  0  0  0
 28 29  1  6  0  0  0
M  END
>  <CHROM.1>
-149.71135679,-151.32899790,-134.89731903,-100.41309939,61.00553389,136.91922364
-0.92543792,-10.32971995,31.04578644,-1.60567847,1.04219776,-0.28990888

>  <Name>
2et3_lig

>  <RI>
0

>  <Rbt.Current_Directory>
/home/itssahil/PROJECTS/Mol_Feturizer/New_Systems/rnas/2et3

>  <Rbt.Executable>
rbdock ($Id: //depot/dev/client3/rdock/2013.1/src/exe/rbdock.cxx#4 $)

>  <Rbt.Library>
libRbt.so (2013.1, Build901 2013/11/27)

>  <Rbt.Parameter_File>
/export/apps/rDock/src/rDock_2013.1_src/data/scripts/dock_solv.prm

>  <Rbt.Receptor>
prm/blind_docking_100.prm

>  <SCORE>
-12.6562

>  <SCORE.INTER>
-13.0602

>  <SCORE.INTER.CONST>
1

>  <SCORE.INTER.POLAR>
-1.74503

>  <SCORE.INTER.ROT>
6

>  <SCORE.INTER.SOLV>
17.1047

>  <SCORE.INTER.VDW>
-16.1916

>  <SCORE.INTER.norm>
-0.421298

>  <SCORE.INTRA>
-1.72752

>  <SCORE.INTRA.DIHEDRAL>
-2.75715

>  <SCORE.INTRA.DIHEDRAL.0>
22.2484

>  <SCORE.INTRA.POLAR>
0

>  <SCORE.INTRA.POLAR.0>
0

>  <SCORE.INTRA.REPUL>
0

>  <SCORE.INTRA.REPUL.0>
0

>  <SCORE.INTRA.SOLV>
0.977346

>  <SCORE.INTRA.SOLV.lig_0>
-75.7198

>  <SCORE.INTRA.VDW>
-0.837622

>  <SCORE.INTRA.VDW.0>
-3.34171

>  <SCORE.INTRA.norm>
-0.0557265

>  <SCORE.RESTR>
2.13158

>  <SCORE.RESTR.CAVITY>
2.13158

>  <SCORE.RESTR.norm>
0.0687607

>  <SCORE.SYSTEM>
0

>  <SCORE.SYSTEM.CONST>
0

>  <SCORE.SYSTEM.DIHEDRAL>
0

>  <SCORE.SYSTEM.SOLV>
0

>  <SCORE.SYSTEM.norm>
0

>  <SCORE.heavy>
31

>  <SCORE.norm>
-0.408263

>  <RMSD>
7.608

$$$$
2et3_lig
 OpenBabel11021811423D
libRbt.so/2013.1/901 2013/11/27
 31 33  0  0  0  0  0  0  0  0999 V2000
   -1.8928   -6.0127   35.0234 C   0  0  2  0  0  0  0  0  0  0  0  0
   -1.9771   -7.2565   35.7664 O   0  0  0  0  0  0  0  0  0  0  0  0
   -2.4755  -11.2879   34.4225 C   0  0  2  0  0  0  0  0  0  0  0  0
   -3.0527  -12.4220   33.7696 N   0  0  0  0  0  0  0  0  0  0  0  0
   -1.5863  -11.6978   31.3919 C   0  0  2  0  0  0  0  0  0  0  0  0
   -1.2806   -4.9212   35.9079 C   0  0  2  0  0  0  0  0  0  0  0  0
   -0.0065   -5.3738   36.3748 N   0  0  0  0  0  0  0  0  0  0  0  0
   -3.4751  -10.7345   35.4886 C   0  0  0  0  0  0  0  0  0  0  0  0
   -0.4568  -11.6504   30.3394 C   0  0  2  0  0  0  0  0  0  0  0  0
    0.7612  -11.9962   30.9601 O   0  0  0  0  0  0  0  0  0  0  0  0
   -2.2457   -4.5719   37.0919 C   0  0  0  0  0  0  0  0  0  0  0  0
   -2.8520   -9.4814   36.2058 C   0  0  2  0  0  0  0  0  0  0  0  0
   -3.7899   -8.9561   37.2108 N   0  0  0  0  0  0  0  0  0  0  0  0
   -0.4150  -10.1880   29.7339 C   0  0  1  0  0  0  0  0  0  0  0  0
    0.6906  -10.0407   28.7315 N   0  0  0  0  0  0  0  0  0  0  0  0
   -3.5907   -4.0631   36.4845 C   0  0  0  0  0  0  0  0  0  0  0  0
   -2.5088   -8.3767   35.1342 C   0  0  2  0  0  0  0  0  0  0  0  0
   -1.8366   -9.8251   29.0476 C   0  0  1  0  0  0  0  0  0  0  0  0
   -2.1224  -10.6913   27.9689 O   0  0  0  0  0  0  0  0  0  0  0  0
   -4.1883   -5.2040   35.5487 C   0  0  2  0  0  0  0  0  0  0  0  0
   -3.2406   -5.6303   34.5203 O   0  0  0  0  0  0  0  0  0  0  0  0
   -1.5016   -8.9655   34.0728 C   0  0  2  0  0  0  0  0  0  0  0  0
   -1.1750   -7.9818   33.0964 O   0  0  0  0  0  0  0  0  0  0  0  0
   -2.9713   -9.9952   30.1045 C   0  0  0  0  0  0  0  0  0  0  0  0
   -2.8887  -11.3446   30.7565 O   0  0  0  0  0  0  0  0  0  0  0  0
   -5.5080   -4.8477   34.9058 C   0  0  0  0  0  0  0  0  0  0  0  0
   -6.5262   -4.5796   35.8872 N   0  0  0  0  0  0  0  0  0  0  0  0
   -2.1395  -10.2148   33.3697 C   0  0  1  0  0  0  0  0  0  0  0  0
   -1.2142  -10.7349   32.4227 O   0  0  0  0  0  0  0  0  0  0  0  0
   -1.9676   -8.4295   28.4228 C   0  0  0  0  0  0  0  0  0  0  0  0
    1.4658   -8.7893   28.7664 C   0  0  0  0  0  0  0  0  0  0  0  0
  1  2  1  1  0  0  0
  1  6  1  0  0  0  0
  1 21  1  0  0  0  0
  3  4  1  6  0  0  0
  3  8  1  0  0  0  0
  3 28  1  0  0  0  0
  5  9  1  0  0  0  0
  5 25  1  0  0  0  0
  5 29  1  1  0  0  0
  6  7  1  1  0  0  0
  6 11  1  0  0  0  0
  8 12  1  0  0  0  0
  9 10  1  1  0  0  0
  9 14  1  0  0  0  0
 11 16  1  0  0  0  0
 12 13  1  1  0  0  0
 12 17  1  0  0  0  0
 14 15  1  6  0  0  0
 14 18  1  0  0  0  0
 15 31  1  0  0  0  0
 16 20  1  0  0  0  0
 17  2  1  1  0  0  0
 17 22  1  0  0  0  0
 18 19  1  6  0  0  0
 18 24  1  0  0  0  0
 18 30  1  0  0  0  0
 20 21  1  0  0  0  0
 20 26  1  6  0  0  0
 22 23  1  6  0  0  0
 22 28  1  0  0  0  0
 24 25  1  0  0  0  0
 26 27  1  0  0  0  0
 28 29  1  6  0  0  0
M  END
>  <CHROM.1>
-179.99928174,162.44338196,-138.77967394,-165.29752993,-60.21326893,73.82741050
-2.11176141,-8.60039623,33.14403356,-2.45259560,-1.18967446,-3.09153673

>  <Name>
2et3_lig

>  <RI>
3.50789e+07

>  <Rbt.Current_Directory>
/home/itssahil/PROJECTS/Mol_Feturizer/New_Systems/rnas/2et3

>  <Rbt.Executable>
rbdock ($Id: //depot/dev/client3/rdock/2013.1/src/exe/rbdock.cxx#4 $)

>  <Rbt.Library>
libRbt.so (2013.1, Build901 2013/11/27)

>  <Rbt.Parameter_File>
/export/apps/rDock/src/rDock_2013.1_src/data/scripts/dock_solv.prm

>  <Rbt.Receptor>
prm/pocket_docking_4.prm

>  <SCORE>
-12.9359

>  <SCORE.INTER>
-3.00412

>  <SCORE.INTER.CONST>
1

>  <SCORE.INTER.POLAR>
0

>  <SCORE.INTER.ROT>
6

>  <SCORE.INTER.SOLV>
16.5709

>  <SCORE.INTER.VDW>
-15.1264

>  <SCORE.INTER.norm>
-0.0969071

>  <SCORE.INTRA>
-9.93174

>  <SCORE.INTRA.DIHEDRAL>
-17.8194

>  <SCORE.INTRA.DIHEDRAL.0>
22.2484

>  <SCORE.INTRA.POLAR>
0

>  <SCORE.INTRA.POLAR.0>
0

>  <SCORE.INTRA.REPUL>
0

>  <SCORE.INTRA.REPUL.0>
0

>  <SCORE.INTRA.SOLV>
-2.56443

>  <SCORE.INTRA.SOLV.lig_0>
-75.7198

>  <SCORE.INTRA.VDW>
0.260168

>  <SCORE.INTRA.VDW.0>
-3.34171

>  <SCORE.INTRA.norm>
-0.320379

>  <SCORE.RESTR>
0

>  <SCORE.RESTR.CAVITY>
0

>  <SCORE.RESTR.norm>
0

>  <SCORE.SYSTEM>
0

>  <SCORE.SYSTEM.CONST>
0

>  <SCORE.SYSTEM.DIHEDRAL>
0

>  <SCORE.SYSTEM.SOLV>
0

>  <SCORE.SYSTEM.norm>
0

>  <SCORE.heavy>
31

>  <SCORE.norm>
-0.417286

>  <RMSD>
7.622

$$$$
2et3_lig
 OpenBabel11021811423D
libRbt.so/2013.1/901 2013/11/27
 31 33  0  0  0  0  0  0  0  0999 V2000
   -5.4209  -10.6715   32.2219 C   0  0  2  0  0  0  0  0  0  0  0  0
   -4.0754  -11.1496   31.9626 O   0  0  0  0  0  0  0  0  0  0  0  0
   -1.8235   -7.8085   33.4021 C   0  0  2  0  0  0  0  0  0  0  0  0
   -0.6975   -7.0235   33.8041 N   0  0  0  0  0  0  0  0  0  0  0  0
   -0.3678   -6.2609   30.9297 C   0  0  2  0  0  0  0  0  0  0  0  0
   -6.4369  -11.7586   31.8553 C   0  0  2  0  0  0  0  0  0  0  0  0
   -6.1206  -12.9447   32.5896 N   0  0  0  0  0  0  0  0  0  0  0  0
   -1.9252   -9.0777   34.3081 C   0  0  0  0  0  0  0  0  0  0  0  0
   -0.7861   -4.9559   30.2172 C   0  0  2  0  0  0  0  0  0  0  0  0
   -1.7125   -4.2690   31.0286 O   0  0  0  0  0  0  0  0  0  0  0  0
   -6.4332  -12.0111   30.3088 C   0  0  0  0  0  0  0  0  0  0  0  0
   -3.1561   -9.9517   33.8674 C   0  0  2  0  0  0  0  0  0  0  0  0
   -3.2560  -11.1488   34.7175 N   0  0  0  0  0  0  0  0  0  0  0  0
   -1.4066   -5.3436   28.8132 C   0  0  1  0  0  0  0  0  0  0  0  0
   -1.8846   -4.1313   28.0710 N   0  0  0  0  0  0  0  0  0  0  0  0
   -6.8160  -10.6738   29.6004 C   0  0  0  0  0  0  0  0  0  0  0  0
   -2.9992  -10.3574   32.3517 C   0  0  2  0  0  0  0  0  0  0  0  0
   -0.3173   -6.1449   27.9215 C   0  0  1  0  0  0  0  0  0  0  0  0
    0.8120   -5.3421   27.6462 O   0  0  0  0  0  0  0  0  0  0  0  0
   -5.7626   -9.5569   30.0218 C   0  0  2  0  0  0  0  0  0  0  0  0
   -5.6632   -9.4081   31.4728 O   0  0  0  0  0  0  0  0  0  0  0  0
   -2.8971   -9.0571   31.4649 C   0  0  2  0  0  0  0  0  0  0  0  0
   -2.7584   -9.4011   30.0901 O   0  0  0  0  0  0  0  0  0  0  0  0
    0.1728   -7.3944   28.7166 C   0  0  0  0  0  0  0  0  0  0  0  0
    0.6210   -7.0020   30.0943 O   0  0  0  0  0  0  0  0  0  0  0  0
   -6.0065   -8.2071   29.3890 C   0  0  0  0  0  0  0  0  0  0  0  0
   -7.2799   -7.6578   29.7745 N   0  0  0  0  0  0  0  0  0  0  0  0
   -1.6656   -8.1979   31.9202 C   0  0  1  0  0  0  0  0  0  0  0  0
   -1.5950   -7.0278   31.1143 O   0  0  0  0  0  0  0  0  0  0  0  0
   -0.7679   -6.6080   26.5294 C   0  0  0  0  0  0  0  0  0  0  0  0
   -3.2849   -4.1320   27.6158 C   0  0  0  0  0  0  0  0  0  0  0  0
  1  2  1  6  0  0  0
  1  6  1  0  0  0  0
  1 21  1  0  0  0  0
  3  4  1  1  0  0  0
  3  8  1  0  0  0  0
  3 28  1  0  0  0  0
  5  9  1  0  0  0  0
  5 25  1  0  0  0  0
  5 29  1  6  0  0  0
  6  7  1  1  0  0  0
  6 11  1  0  0  0  0
  8 12  1  0  0  0  0
  9 10  1  1  0  0  0
  9 14  1  0  0  0  0
 11 16  1  0  0  0  0
 12 13  1  1  0  0  0
 12 17  1  0  0  0  0
 14 15  1  6  0  0  0
 14 18  1  0  0  0  0
 15 31  1  0  0  0  0
 16 20  1  0  0  0  0
 17  2  1  6  0  0  0
 17 22  1  0  0  0  0
 18 19  1  6  0  0  0
 18 24  1  0  0  0  0
 18 30  1  0  0  0  0
 20 21  1  0  0  0  0
 20 26  1  6  0  0  0
 22 23  1  6  0  0  0
 22 28  1  0  0  0  0
 24 25  1  0  0  0  0
 26 27  1  0  0  0  0
 28 29  1  6  0  0  0
M  END
>  <CHROM.1>
-173.86166891,-169.79811739,-125.43236522,51.78719075,61.91570915,81.84797097
-2.93708897,-8.18585452,30.73553396,2.33670546,0.53276008,2.17759997

>  <Name>
2et3_lig

>  <RI>
3.86414e+07

>  <Rbt.Current_Directory>
/home/itssahil/PROJECTS/Mol_Feturizer/New_Systems/rnas/2et3

>  <Rbt.Executable>
rbdock ($Id: //depot/dev/client3/rdock/2013.1/src/exe/rbdock.cxx#4 $)

>  <Rbt.Library>
libRbt.so (2013.1, Build901 2013/11/27)

>  <Rbt.Parameter_File>
/export/apps/rDock/src/rDock_2013.1_src/data/scripts/dock_solv.prm

>  <Rbt.Receptor>
prm/pocket_docking_8.prm

>  <SCORE>
-23.7564

>  <SCORE.INTER>
-14.6518

>  <SCORE.INTER.CONST>
1

>  <SCORE.INTER.POLAR>
-2.50812

>  <SCORE.INTER.ROT>
6

>  <SCORE.INTER.SOLV>
13.0992

>  <SCORE.INTER.VDW>
-13.3739

>  <SCORE.INTER.norm>
-0.47264

>  <SCORE.INTRA>
-9.10453

>  <SCORE.INTRA.DIHEDRAL>
-17.7729

>  <SCORE.INTRA.DIHEDRAL.0>
22.2484

>  <SCORE.INTRA.POLAR>
0

>  <SCORE.INTRA.POLAR.0>
0

>  <SCORE.INTRA.REPUL>
0

>  <SCORE.INTRA.REPUL.0>
0

>  <SCORE.INTRA.SOLV>
-0.72957

>  <SCORE.INTRA.SOLV.lig_0>
-75.7198

>  <SCORE.INTRA.VDW>
0.146702

>  <SCORE.INTRA.VDW.0>
-3.34171

>  <SCORE.INTRA.norm>
-0.293694

>  <SCORE.RESTR>
0

>  <SCORE.RESTR.CAVITY>
0

>  <SCORE.RESTR.norm>
0

>  <SCORE.SYSTEM>
0

>  <SCORE.SYSTEM.CONST>
0

>  <SCORE.SYSTEM.DIHEDRAL>
0

>  <SCORE.SYSTEM.SOLV>
0

>  <SCORE.SYSTEM.norm>
0

>  <SCORE.heavy>
31

>  <SCORE.norm>
-0.766334

>  <RMSD>
7.642

$$$$
2et3_lig
 OpenBabel11021811423D
libRbt.so/2013.1/901 2013/11/27
 31 33  0  0  0  0  0  0  0  0999 V2000
   -2.2834  -11.4723   34.6109 C   0  0  2  0  0  0  0  0  0  0  0  0
   -1.4937  -10.6538   33.7093 O   0  0  0  0  0  0  0  0  0  0  0  0
   -0.2813  -11.1497   29.6362 C   0  0  2  0  0  0  0  0  0  0  0  0
   -0.3635  -11.4453   28.2392 N   0  0  0  0  0  0  0  0  0  0  0  0
    0.4583   -8.2611   29.2313 C   0  0  2  0  0  0  0  0  0  0  0  0
   -3.6627  -11.7361   33.9975 C   0  0  2  0  0  0  0  0  0  0  0  0
   -3.4829  -12.3426   32.7146 N   0  0  0  0  0  0  0  0  0  0  0  0
   -0.6400  -12.4270   30.4621 C   0  0  0  0  0  0  0  0  0  0  0  0
    0.3353   -6.9129   29.9748 C   0  0  2  0  0  0  0  0  0  0  0  0
   -0.1427   -7.1524   31.2796 O   0  0  0  0  0  0  0  0  0  0  0  0
   -4.4831  -10.4043   33.9038 C   0  0  0  0  0  0  0  0  0  0  0  0
   -0.5608  -12.1087   32.0001 C   0  0  2  0  0  0  0  0  0  0  0  0
   -0.8983  -13.3085   32.7824 N   0  0  0  0  0  0  0  0  0  0  0  0
   -0.6481   -5.9876   29.1479 C   0  0  1  0  0  0  0  0  0  0  0  0
   -0.8617   -4.6682   29.8280 N   0  0  0  0  0  0  0  0  0  0  0  0
   -4.6503   -9.8375   35.3486 C   0  0  0  0  0  0  0  0  0  0  0  0
   -1.5439  -10.9249   32.3451 C   0  0  2  0  0  0  0  0  0  0  0  0
   -0.0714   -5.7528   27.6526 C   0  0  1  0  0  0  0  0  0  0  0  0
    1.1718   -5.0826   27.6807 O   0  0  0  0  0  0  0  0  0  0  0  0
   -3.2042   -9.6011   35.9712 C   0  0  2  0  0  0  0  0  0  0  0  0
   -2.3831  -10.8103   35.9406 O   0  0  0  0  0  0  0  0  0  0  0  0
   -1.1579   -9.6534   31.4955 C   0  0  2  0  0  0  0  0  0  0  0  0
   -2.0322   -8.5699   31.7948 O   0  0  0  0  0  0  0  0  0  0  0  0
    0.1526   -7.1371   26.9692 C   0  0  0  0  0  0  0  0  0  0  0  0
    0.9721   -8.0349   27.8495 O   0  0  0  0  0  0  0  0  0  0  0  0
   -3.2192   -9.0336   37.3710 C   0  0  0  0  0  0  0  0  0  0  0  0
   -3.7734   -7.7056   37.4041 N   0  0  0  0  0  0  0  0  0  0  0  0
   -1.2409   -9.9906   29.9653 C   0  0  1  0  0  0  0  0  0  0  0  0
   -0.8829   -8.8349   29.2172 O   0  0  0  0  0  0  0  0  0  0  0  0
   -0.9184   -4.8844   26.7123 C   0  0  0  0  0  0  0  0  0  0  0  0
   -2.1411   -3.9837   29.5779 C   0  0  0  0  0  0  0  0  0  0  0  0
  1  2  1  6  0  0  0
  1  6  1  0  0  0  0
  1 21  1  0  0  0  0
  3  4  1  6  0  0  0
  3  8  1  0  0  0  0
  3 28  1  0  0  0  0
  5  9  1  0  0  0  0
  5 25  1  0  0  0  0
  5 29  1  6  0  0  0
  6  7  1  6  0  0  0
  6 11  1  0  0  0  0
  8 12  1  0  0  0  0
  9 10  1  1  0  0  0
  9 14  1  0  0  0  0
 11 16  1  0  0  0  0
 12 13  1  1  0  0  0
 12 17  1  0  0  0  0
 14 15  1  1  0  0  0
 14 18  1  0  0  0  0
 15 31  1  0  0  0  0
 16 20  1  0  0  0  0
 17  2  1  1  0  0  0
 17 22  1  0  0  0  0
 18 19  1  1  0  0  0
 18 24  1  0  0  0  0
 18 30  1  0  0  0  0
 20 21  1  0  0  0  0
 20 26  1  1  0  0  0
 22 23  1  6  0  0  0
 22 28  1  0  0  0  0
 24 25  1  0  0  0  0
 26 27  1  0  0  0  0
 28 29  1  6  0  0  0
M  END
>  <CHROM.1>
-41.30117839,-110.79375594,-152.27956979,-82.31998456,-65.16529099,-54.11586167
-1.40474910,-8.98385793,31.43003765,-2.45819368,1.11870091,-0.16983028

>  <Name>
2et3_lig

>  <RI>
0

>  <Rbt.Current_Directory>
/home/itssahil/PROJECTS/Mol_Feturizer/New_Systems/rnas/2et3

>  <Rbt.Executable>
rbdock ($Id: //depot/dev/client3/rdock/2013.1/src/exe/rbdock.cxx#4 $)

>  <Rbt.Library>
libRbt.so (2013.1, Build901 2013/11/27)

>  <Rbt.Parameter_File>
/export/apps/rDock/src/rDock_2013.1_src/data/scripts/dock_solv.prm

>  <Rbt.Receptor>
prm/blind_docking_100.prm

>  <SCORE>
-1.08716

>  <SCORE.INTER>
-5.57955

>  <SCORE.INTER.CONST>
1

>  <SCORE.INTER.POLAR>
0

>  <SCORE.INTER.ROT>
6

>  <SCORE.INTER.SOLV>
18.2005

>  <SCORE.INTER.VDW>
-17.3865

>  <SCORE.INTER.norm>
-0.179986

>  <SCORE.INTRA>
2.74539

>  <SCORE.INTRA.DIHEDRAL>
-10.7541

>  <SCORE.INTRA.DIHEDRAL.0>
22.2484

>  <SCORE.INTRA.POLAR>
0

>  <SCORE.INTRA.POLAR.0>
0

>  <SCORE.INTRA.REPUL>
0

>  <SCORE.INTRA.REPUL.0>
0

>  <SCORE.INTRA.SOLV>
3.47035

>  <SCORE.INTRA.SOLV.lig_0>
-75.7198

>  <SCORE.INTRA.VDW>
6.38729

>  <SCORE.INTRA.VDW.0>
-3.34171

>  <SCORE.INTRA.norm>
0.0885611

>  <SCORE.RESTR>
1.747

>  <SCORE.RESTR.CAVITY>
1.747

>  <SCORE.RESTR.norm>
0.0563547

>  <SCORE.SYSTEM>
0

>  <SCORE.SYSTEM.CONST>
0

>  <SCORE.SYSTEM.DIHEDRAL>
0

>  <SCORE.SYSTEM.SOLV>
0

>  <SCORE.SYSTEM.norm>
0

>  <SCORE.heavy>
31

>  <SCORE.norm>
-0.0350697

>  <RMSD>
7.674

$$$$
2et3_lig
 OpenBabel11021811423D
libRbt.so/2013.1/901 2013/11/27
 31 33  0  0  0  0  0  0  0  0999 V2000
   -5.2563  -10.1475   32.2531 C   0  0  2  0  0  0  0  0  0  0  0  0
   -4.1366  -10.6859   33.0032 O   0  0  0  0  0  0  0  0  0  0  0  0
   -1.6989   -7.2033   33.4883 C   0  0  2  0  0  0  0  0  0  0  0  0
   -0.5367   -6.4010   33.7150 N   0  0  0  0  0  0  0  0  0  0  0  0
   -0.0486   -6.4324   30.9249 C   0  0  2  0  0  0  0  0  0  0  0  0
   -6.5675  -10.7352   32.7858 C   0  0  2  0  0  0  0  0  0  0  0  0
   -6.6559  -10.4578   34.1863 N   0  0  0  0  0  0  0  0  0  0  0  0
   -1.9675   -8.0986   34.7406 C   0  0  0  0  0  0  0  0  0  0  0  0
   -0.5078   -5.0887   30.3172 C   0  0  2  0  0  0  0  0  0  0  0  0
   -1.4124   -4.4710   31.2051 O   0  0  0  0  0  0  0  0  0  0  0  0
   -6.6378  -12.2724   32.4897 C   0  0  0  0  0  0  0  0  0  0  0  0
   -3.2392   -8.9911   34.4968 C   0  0  2  0  0  0  0  0  0  0  0  0
   -3.4962   -9.8367   35.6734 N   0  0  0  0  0  0  0  0  0  0  0  0
   -1.1739   -5.3904   28.9129 C   0  0  1  0  0  0  0  0  0  0  0  0
   -1.6927   -4.1381   28.2715 N   0  0  0  0  0  0  0  0  0  0  0  0
   -6.5636  -12.4700   30.9431 C   0  0  0  0  0  0  0  0  0  0  0  0
   -3.0225   -9.8779   33.2110 C   0  0  2  0  0  0  0  0  0  0  0  0
   -0.1081   -6.1146   27.9315 C   0  0  1  0  0  0  0  0  0  0  0  0
    1.0009   -5.2791   27.6714 O   0  0  0  0  0  0  0  0  0  0  0  0
   -5.2076  -11.8251   30.4138 C   0  0  2  0  0  0  0  0  0  0  0  0
   -5.0729  -10.4220   30.8015 O   0  0  0  0  0  0  0  0  0  0  0  0
   -2.7520   -8.9470   31.9669 C   0  0  2  0  0  0  0  0  0  0  0  0
   -2.5570   -9.7286   30.7926 O   0  0  0  0  0  0  0  0  0  0  0  0
    0.4252   -7.4073   28.6228 C   0  0  0  0  0  0  0  0  0  0  0  0
    0.9181   -7.1018   30.0071 O   0  0  0  0  0  0  0  0  0  0  0  0
   -4.9983  -11.9620   28.9241 C   0  0  0  0  0  0  0  0  0  0  0  0
   -3.7399  -11.4017   28.5069 N   0  0  0  0  0  0  0  0  0  0  0  0
   -1.4819   -8.0638   32.2293 C   0  0  1  0  0  0  0  0  0  0  0  0
   -1.2592   -7.2274   31.1005 O   0  0  0  0  0  0  0  0  0  0  0  0
   -0.6031   -6.4898   26.5280 C   0  0  0  0  0  0  0  0  0  0  0  0
   -3.0430   -4.1933   27.6867 C   0  0  0  0  0  0  0  0  0  0  0  0
  1  2  1  1  0  0  0
  1  6  1  0  0  0  0
  1 21  1  0  0  0  0
  3  4  1  1  0  0  0
  3  8  1  0  0  0  0
  3 28  1  0  0  0  0
  5  9  1  0  0  0  0
  5 25  1  0  0  0  0
  5 29  1  6  0  0  0
  6  7  1  1  0  0  0
  6 11  1  0  0  0  0
  8 12  1  0  0  0  0
  9 10  1  1  0  0  0
  9 14  1  0  0  0  0
 11 16  1  0  0  0  0
 12 13  1  1  0  0  0
 12 17  1  0  0  0  0
 14 15  1  6  0  0  0
 14 18  1  0  0  0  0
 15 31  1  0  0  0  0
 16 20  1  0  0  0  0
 17  2  1  6  0  0  0
 17 22  1  0  0  0  0
 18 19  1  6  0  0  0
 18 24  1  0  0  0  0
 18 30  1  0  0  0  0
 20 21  1  0  0  0  0
 20 26  1  6  0  0  0
 22 23  1  6  0  0  0
 22 28  1  0  0  0  0
 24 25  1  0  0  0  0
 26 27  1  0  0  0  0
 28 29  1  6  0  0  0
M  END
>  <CHROM.1>
-147.10602549,-141.12828335,-134.29088383,86.16011941,-178.11547977,69.48623972
-2.65663787,-8.32887962,31.05182544,2.69008353,0.84353141,1.57943745

>  <Name>
2et3_lig

>  <RI>
2.5794e+07

>  <Rbt.Current_Directory>
/home/itssahil/PROJECTS/Mol_Feturizer/New_Systems/rnas/2et3

>  <Rbt.Executable>
rbdock ($Id: //depot/dev/client3/rdock/2013.1/src/exe/rbdock.cxx#4 $)

>  <Rbt.Library>
libRbt.so (2013.1, Build901 2013/11/27)

>  <Rbt.Parameter_File>
/export/apps/rDock/src/rDock_2013.1_src/data/scripts/dock_solv.prm

>  <Rbt.Receptor>
prm/pocket_docking_5.prm

>  <SCORE>
-13.1866

>  <SCORE.INTER>
-10.5228

>  <SCORE.INTER.CONST>
1

>  <SCORE.INTER.POLAR>
-1.34407

>  <SCORE.INTER.ROT>
6

>  <SCORE.INTER.SOLV>
13.9014

>  <SCORE.INTER.VDW>
-14.7688

>  <SCORE.INTER.norm>
-0.339444

>  <SCORE.INTRA>
-2.67698

>  <SCORE.INTRA.DIHEDRAL>
-8.41015

>  <SCORE.INTRA.DIHEDRAL.0>
22.2484

>  <SCORE.INTRA.POLAR>
0

>  <SCORE.INTRA.POLAR.0>
0

>  <SCORE.INTRA.REPUL>
0

>  <SCORE.INTRA.REPUL.0>
0

>  <SCORE.INTRA.SOLV>
1.12865

>  <SCORE.INTRA.SOLV.lig_0>
-75.7198

>  <SCORE.INTRA.VDW>
0.963774

>  <SCORE.INTRA.VDW.0>
-3.34171

>  <SCORE.INTRA.norm>
-0.0863541

>  <SCORE.RESTR>
0.0130994

>  <SCORE.RESTR.CAVITY>
0.0130994

>  <SCORE.RESTR.norm>
0.00042256

>  <SCORE.SYSTEM>
0

>  <SCORE.SYSTEM.CONST>
0

>  <SCORE.SYSTEM.DIHEDRAL>
0

>  <SCORE.SYSTEM.SOLV>
0

>  <SCORE.SYSTEM.norm>
0

>  <SCORE.heavy>
31

>  <SCORE.norm>
-0.425375

>  <RMSD>
7.677

$$$$
2et3_lig
 OpenBabel11021811423D
libRbt.so/2013.1/901 2013/11/27
 31 33  0  0  0  0  0  0  0  0999 V2000
   -2.2384   -9.3954   34.2246 C   0  0  2  0  0  0  0  0  0  0  0  0
   -3.1552   -9.7869   33.1699 O   0  0  0  0  0  0  0  0  0  0  0  0
   -0.3694  -10.3633   29.9740 C   0  0  2  0  0  0  0  0  0  0  0  0
    0.1341  -10.7014   28.6787 N   0  0  0  0  0  0  0  0  0  0  0  0
    0.1427   -7.2187   29.9849 C   0  0  2  0  0  0  0  0  0  0  0  0
   -2.9498   -9.4612   35.5804 C   0  0  2  0  0  0  0  0  0  0  0  0
   -3.4675  -10.7825   35.7601 N   0  0  0  0  0  0  0  0  0  0  0  0
   -1.0157  -11.6264   30.6289 C   0  0  0  0  0  0  0  0  0  0  0  0
    0.4151   -6.0114   29.0609 C   0  0  2  0  0  0  0  0  0  0  0  0
   -0.8049   -5.3574   28.7919 O   0  0  0  0  0  0  0  0  0  0  0  0
   -4.0779   -8.3765   35.6590 C   0  0  0  0  0  0  0  0  0  0  0  0
   -1.5801  -11.2617   32.0507 C   0  0  2  0  0  0  0  0  0  0  0  0
   -2.1904  -12.4481   32.6716 N   0  0  0  0  0  0  0  0  0  0  0  0
    1.0972   -6.5529   27.7386 C   0  0  1  0  0  0  0  0  0  0  0  0
    1.3545   -5.4453   26.7609 N   0  0  0  0  0  0  0  0  0  0  0  0
   -3.4135   -6.9751   35.4817 C   0  0  0  0  0  0  0  0  0  0  0  0
   -2.6364  -10.0986   31.9165 C   0  0  2  0  0  0  0  0  0  0  0  0
    2.4837   -7.3112   28.0938 C   0  0  1  0  0  0  0  0  0  0  0  0
    3.4147   -6.4290   28.6859 O   0  0  0  0  0  0  0  0  0  0  0  0
   -2.6584   -6.9455   34.0804 C   0  0  2  0  0  0  0  0  0  0  0  0
   -1.6956   -8.0374   33.9464 O   0  0  0  0  0  0  0  0  0  0  0  0
   -1.9554   -8.8410   31.2513 C   0  0  2  0  0  0  0  0  0  0  0  0
   -2.8921   -7.7761   31.1239 O   0  0  0  0  0  0  0  0  0  0  0  0
    2.1937   -8.4508   29.1187 C   0  0  0  0  0  0  0  0  0  0  0  0
    1.4214   -7.9226   30.2923 O   0  0  0  0  0  0  0  0  0  0  0  0
   -1.9809   -5.6312   33.7712 C   0  0  0  0  0  0  0  0  0  0  0  0
   -0.9681   -5.3098   34.7423 N   0  0  0  0  0  0  0  0  0  0  0  0
   -1.3974   -9.2245   29.8358 C   0  0  1  0  0  0  0  0  0  0  0  0
   -0.7817   -8.0807   29.2562 O   0  0  0  0  0  0  0  0  0  0  0  0
    3.2659   -7.9110   26.9174 C   0  0  0  0  0  0  0  0  0  0  0  0
    1.4059   -5.8076   25.3346 C   0  0  0  0  0  0  0  0  0  0  0  0
  1  2  1  6  0  0  0
  1  6  1  0  0  0  0
  1 21  1  0  0  0  0
  3  4  1  6  0  0  0
  3  8  1  0  0  0  0
  3 28  1  0  0  0  0
  5  9  1  0  0  0  0
  5 25  1  0  0  0  0
  5 29  1  6  0  0  0
  6  7  1  6  0  0  0
  6 11  1  0  0  0  0
  8 12  1  0  0  0  0
  9 10  1  6  0  0  0
  9 14  1  0  0  0  0
 11 16  1  0  0  0  0
 12 13  1  6  0  0  0
 12 17  1  0  0  0  0
 14 15  1  6  0  0  0
 14 18  1  0  0  0  0
 15 31  1  0  0  0  0
 16 20  1  0  0  0  0
 17  2  1  1  0  0  0
 17 22  1  0  0  0  0
 18 19  1  1  0  0  0
 18 24  1  0  0  0  0
 18 30  1  0  0  0  0
 20 21  1  0  0  0  0
 20 26  1  1  0  0  0
 22 23  1  6  0  0  0
 22 28  1  0  0  0  0
 24 25  1  0  0  0  0
 26 27  1  0  0  0  0
 28 29  1  1  0  0  0
M  END
>  <CHROM.1>
-165.05819909,-172.46169344,-153.50442286,57.13430549,61.20815123,-73.94895724
-0.78655970,-8.21074856,31.08702513,-3.08722279,0.99717330,0.23851420

>  <Name>
2et3_lig

>  <RI>
3.50789e+07

>  <Rbt.Current_Directory>
/home/itssahil/PROJECTS/Mol_Feturizer/New_Systems/rnas/2et3

>  <Rbt.Executable>
rbdock ($Id: //depot/dev/client3/rdock/2013.1/src/exe/rbdock.cxx#4 $)

>  <Rbt.Library>
libRbt.so (2013.1, Build901 2013/11/27)

>  <Rbt.Parameter_File>
/export/apps/rDock/src/rDock_2013.1_src/data/scripts/dock_solv.prm

>  <Rbt.Receptor>
prm/pocket_docking_4.prm

>  <SCORE>
-17.9074

>  <SCORE.INTER>
-9.5463

>  <SCORE.INTER.CONST>
1

>  <SCORE.INTER.POLAR>
-0.577062

>  <SCORE.INTER.ROT>
6

>  <SCORE.INTER.SOLV>
17.3356

>  <SCORE.INTER.VDW>
-17.8192

>  <SCORE.INTER.norm>
-0.307945

>  <SCORE.INTRA>
-8.36659

>  <SCORE.INTRA.DIHEDRAL>
-19.3136

>  <SCORE.INTRA.DIHEDRAL.0>
22.2484

>  <SCORE.INTRA.POLAR>
0

>  <SCORE.INTRA.POLAR.0>
0

>  <SCORE.INTRA.REPUL>
0

>  <SCORE.INTRA.REPUL.0>
0

>  <SCORE.INTRA.SOLV>
0.786345

>  <SCORE.INTRA.SOLV.lig_0>
-75.7198

>  <SCORE.INTRA.VDW>
0.897049

>  <SCORE.INTRA.VDW.0>
-3.34171

>  <SCORE.INTRA.norm>
-0.26989

>  <SCORE.RESTR>
0.00544331

>  <SCORE.RESTR.CAVITY>
0.00544331

>  <SCORE.RESTR.norm>
0.000175591

>  <SCORE.SYSTEM>
0

>  <SCORE.SYSTEM.CONST>
0

>  <SCORE.SYSTEM.DIHEDRAL>
0

>  <SCORE.SYSTEM.SOLV>
0

>  <SCORE.SYSTEM.norm>
0

>  <SCORE.heavy>
31

>  <SCORE.norm>
-0.577659

>  <RMSD>
7.684

$$$$
2et3_lig
 OpenBabel11021811423D
libRbt.so/2013.1/901 2013/11/27
 31 33  0  0  0  0  0  0  0  0999 V2000
   -4.9195  -11.3111   31.0855 C   0  0  2  0  0  0  0  0  0  0  0  0
   -4.7768  -10.6783   32.3837 O   0  0  0  0  0  0  0  0  0  0  0  0
   -1.9947   -7.6645   33.6015 C   0  0  2  0  0  0  0  0  0  0  0  0
   -0.7470   -7.0389   33.9139 N   0  0  0  0  0  0  0  0  0  0  0  0
   -0.5498   -6.2267   31.1939 C   0  0  2  0  0  0  0  0  0  0  0  0
   -6.3778  -11.7301   30.8707 C   0  0  2  0  0  0  0  0  0  0  0  0
   -7.2103  -10.5762   31.0177 N   0  0  0  0  0  0  0  0  0  0  0  0
   -2.2120   -8.8940   34.5414 C   0  0  0  0  0  0  0  0  0  0  0  0
   -0.8705   -4.9206   30.4342 C   0  0  2  0  0  0  0  0  0  0  0  0
   -1.8397   -4.1967   31.1588 O   0  0  0  0  0  0  0  0  0  0  0  0
   -6.7735  -12.8669   31.8740 C   0  0  0  0  0  0  0  0  0  0  0  0
   -3.5781   -9.5936   34.1989 C   0  0  2  0  0  0  0  0  0  0  0  0
   -3.7873  -10.7527   35.0812 N   0  0  0  0  0  0  0  0  0  0  0  0
   -1.3855   -5.3107   28.9887 C   0  0  1  0  0  0  0  0  0  0  0  0
   -1.7658   -4.0960   28.1956 N   0  0  0  0  0  0  0  0  0  0  0  0
   -5.8332  -14.0862   31.6172 C   0  0  0  0  0  0  0  0  0  0  0  0
   -3.5782  -10.0388   32.6862 C   0  0  2  0  0  0  0  0  0  0  0  0
   -0.2508   -6.1547   28.1988 C   0  0  1  0  0  0  0  0  0  0  0  0
    0.9200   -5.3878   28.0075 O   0  0  0  0  0  0  0  0  0  0  0  0
   -4.3257  -13.6154   31.8184 C   0  0  2  0  0  0  0  0  0  0  0  0
   -3.9872  -12.4669   30.9796 O   0  0  0  0  0  0  0  0  0  0  0  0
   -3.3549   -8.7784   31.7648 C   0  0  2  0  0  0  0  0  0  0  0  0
   -3.3551   -9.1580   30.3923 O   0  0  0  0  0  0  0  0  0  0  0  0
    0.1362   -7.4060   29.0460 C   0  0  0  0  0  0  0  0  0  0  0  0
    0.4818   -7.0070   30.4511 O   0  0  0  0  0  0  0  0  0  0  0  0
   -3.3043  -14.7098   31.6160 C   0  0  0  0  0  0  0  0  0  0  0  0
   -1.9644  -14.2421   31.8562 N   0  0  0  0  0  0  0  0  0  0  0  0
   -1.9891   -8.0933   32.1220 C   0  0  1  0  0  0  0  0  0  0  0  0
   -1.8098   -6.9562   31.2864 O   0  0  0  0  0  0  0  0  0  0  0  0
   -0.5997   -6.6246   26.7800 C   0  0  0  0  0  0  0  0  0  0  0  0
   -3.1197   -4.0690   27.6174 C   0  0  0  0  0  0  0  0  0  0  0  0
  1  2  1  1  0  0  0
  1  6  1  0  0  0  0
  1 21  1  0  0  0  0
  3  4  1  1  0  0  0
  3  8  1  0  0  0  0
  3 28  1  0  0  0  0
  5  9  1  0  0  0  0
  5 25  1  0  0  0  0
  5 29  1  6  0  0  0
  6  7  1  1  0  0  0
  6 11  1  0  0  0  0
  8 12  1  0  0  0  0
  9 10  1  1  0  0  0
  9 14  1  0  0  0  0
 11 16  1  0  0  0  0
 12 13  1  1  0  0  0
 12 17  1  0  0  0  0
 14 15  1  6  0  0  0
 14 18  1  0  0  0  0
 15 31  1  0  0  0  0
 16 20  1  0  0  0  0
 17  2  1  6  0  0  0
 17 22  1  0  0  0  0
 18 19  1  6  0  0  0
 18 24  1  0  0  0  0
 18 30  1  0  0  0  0
 20 21  1  0  0  0  0
 20 26  1  6  0  0  0
 22 23  1  6  0  0  0
 22 28  1  0  0  0  0
 24 25  1  0  0  0  0
 26 27  1  0  0  0  0
 28 29  1  6  0  0  0
M  END
>  <CHROM.1>
-170.06709155,-168.23891260,-125.95441997,-172.66681977,-177.93057841,70.56418495
-2.71224067,-8.82847466,31.08790945,2.59281899,1.00632144,1.81830340

>  <Name>
2et3_lig

>  <RI>
2.5794e+07

>  <Rbt.Current_Directory>
/home/itssahil/PROJECTS/Mol_Feturizer/New_Systems/rnas/2et3

>  <Rbt.Executable>
rbdock ($Id: //depot/dev/client3/rdock/2013.1/src/exe/rbdock.cxx#4 $)

>  <Rbt.Library>
libRbt.so (2013.1, Build901 2013/11/27)

>  <Rbt.Parameter_File>
/export/apps/rDock/src/rDock_2013.1_src/data/scripts/dock_solv.prm

>  <Rbt.Receptor>
prm/pocket_docking_5.prm

>  <SCORE>
-20.6865

>  <SCORE.INTER>
-10.4587

>  <SCORE.INTER.CONST>
1

>  <SCORE.INTER.POLAR>
-1.50772

>  <SCORE.INTER.ROT>
6

>  <SCORE.INTER.SOLV>
11.8401

>  <SCORE.INTER.VDW>
-13.4934

>  <SCORE.INTER.norm>
-0.337379

>  <SCORE.INTRA>
-10.2278

>  <SCORE.INTRA.DIHEDRAL>
-18.9653

>  <SCORE.INTRA.DIHEDRAL.0>
22.2484

>  <SCORE.INTRA.POLAR>
0

>  <SCORE.INTRA.POLAR.0>
0

>  <SCORE.INTRA.REPUL>
0

>  <SCORE.INTRA.REPUL.0>
0

>  <SCORE.INTRA.SOLV>
-2.63554

>  <SCORE.INTRA.SOLV.lig_0>
-75.7198

>  <SCORE.INTRA.VDW>
0.572646

>  <SCORE.INTRA.VDW.0>
-3.34171

>  <SCORE.INTRA.norm>
-0.329928

>  <SCORE.RESTR>
0

>  <SCORE.RESTR.CAVITY>
0

>  <SCORE.RESTR.norm>
0

>  <SCORE.SYSTEM>
0

>  <SCORE.SYSTEM.CONST>
0

>  <SCORE.SYSTEM.DIHEDRAL>
0

>  <SCORE.SYSTEM.SOLV>
0

>  <SCORE.SYSTEM.norm>
0

>  <SCORE.heavy>
31

>  <SCORE.norm>
-0.667307

>  <RMSD>
7.699

$$$$
2et3_lig
 OpenBabel11021811423D
libRbt.so/2013.1/901 2013/11/27
 31 33  0  0  0  0  0  0  0  0999 V2000
   -1.9917   -8.6706   33.8942 C   0  0  2  0  0  0  0  0  0  0  0  0
   -2.8635   -8.9434   32.7665 O   0  0  0  0  0  0  0  0  0  0  0  0
    0.0410   -9.9738   29.7986 C   0  0  2  0  0  0  0  0  0  0  0  0
    0.5909  -10.4838   28.5807 N   0  0  0  0  0  0  0  0  0  0  0  0
    0.6602   -6.8912   29.4236 C   0  0  2  0  0  0  0  0  0  0  0  0
   -2.8296   -8.2570   35.1088 C   0  0  2  0  0  0  0  0  0  0  0  0
   -3.7790   -9.2916   35.3816 N   0  0  0  0  0  0  0  0  0  0  0  0
   -0.6621  -11.1310   30.5788 C   0  0  0  0  0  0  0  0  0  0  0  0
    0.9260   -5.7591   28.4071 C   0  0  2  0  0  0  0  0  0  0  0  0
   -0.2926   -5.1134   28.1131 O   0  0  0  0  0  0  0  0  0  0  0  0
   -3.5274   -6.8785   34.8477 C   0  0  0  0  0  0  0  0  0  0  0  0
   -1.2775  -10.5773   31.9158 C   0  0  2  0  0  0  0  0  0  0  0  0
   -1.9414  -11.6634   32.6543 N   0  0  0  0  0  0  0  0  0  0  0  0
    1.5768   -6.4050   27.1163 C   0  0  1  0  0  0  0  0  0  0  0  0
    1.8257   -5.3762   26.0541 N   0  0  0  0  0  0  0  0  0  0  0  0
   -2.4141   -5.8148   34.5906 C   0  0  0  0  0  0  0  0  0  0  0  0
   -2.2995   -9.4222   31.5875 C   0  0  2  0  0  0  0  0  0  0  0  0
    2.9627   -7.1501   27.5010 C   0  0  1  0  0  0  0  0  0  0  0  0
    3.9136   -6.2367   28.0080 O   0  0  0  0  0  0  0  0  0  0  0  0
   -1.5424   -6.2843   33.3438 C   0  0  2  0  0  0  0  0  0  0  0  0
   -0.9956   -7.6280   33.5243 O   0  0  0  0  0  0  0  0  0  0  0  0
   -1.5614   -8.2724   30.7994 C   0  0  2  0  0  0  0  0  0  0  0  0
   -2.4666   -7.2159   30.4957 O   0  0  0  0  0  0  0  0  0  0  0  0
    2.6818   -8.2070   28.6134 C   0  0  0  0  0  0  0  0  0  0  0  0
    1.9377   -7.5844   29.7586 O   0  0  0  0  0  0  0  0  0  0  0  0
   -0.4316   -5.3304   32.9721 C   0  0  0  0  0  0  0  0  0  0  0  0
   -0.9436   -4.0673   32.5093 N   0  0  0  0  0  0  0  0  0  0  0  0
   -0.9531   -8.8438   29.4707 C   0  0  1  0  0  0  0  0  0  0  0  0
   -0.2866   -7.7947   28.7789 O   0  0  0  0  0  0  0  0  0  0  0  0
    3.7159   -7.8444   26.3581 C   0  0  0  0  0  0  0  0  0  0  0  0
    1.9125   -5.8542   24.6641 C   0  0  0  0  0  0  0  0  0  0  0  0
  1  2  1  6  0  0  0
  1  6  1  0  0  0  0
  1 21  1  0  0  0  0
  3  4  1  6  0  0  0
  3  8  1  0  0  0  0
  3 28  1  0  0  0  0
  5  9  1  0  0  0  0
  5 25  1  0  0  0  0
  5 29  1  6  0  0  0
  6  7  1  6  0  0  0
  6 11  1  0  0  0  0
  8 12  1  0  0  0  0
  9 10  1  6  0  0  0
  9 14  1  0  0  0  0
 11 16  1  0  0  0  0
 12 13  1  6  0  0  0
 12 17  1  0  0  0  0
 14 15  1  6  0  0  0
 14 18  1  0  0  0  0
 15 31  1  0  0  0  0
 16 20  1  0  0  0  0
 17  2  1  1  0  0  0
 17 22  1  0  0  0  0
 18 19  1  1  0  0  0
 18 24  1  0  0  0  0
 18 30  1  0  0  0  0
 20 21  1  0  0  0  0
 20 26  1  1  0  0  0
 22 23  1  6  0  0  0
 22 28  1  0  0  0  0
 24 25  1  0  0  0  0
 26 27  1  0  0  0  0
 28 29  1  1  0  0  0
M  END
>  <CHROM.1>
-175.77310173,-169.18475244,-156.47298501,45.82069475,-65.31800196,-71.83924114
-0.31465147,-7.68103520,30.53694193,-3.09311584,0.97302913,0.16006471

>  <Name>
2et3_lig

>  <RI>
2.5794e+07

>  <Rbt.Current_Directory>
/home/itssahil/PROJECTS/Mol_Feturizer/New_Systems/rnas/2et3

>  <Rbt.Executable>
rbdock ($Id: //depot/dev/client3/rdock/2013.1/src/exe/rbdock.cxx#4 $)

>  <Rbt.Library>
libRbt.so (2013.1, Build901 2013/11/27)

>  <Rbt.Parameter_File>
/export/apps/rDock/src/rDock_2013.1_src/data/scripts/dock_solv.prm

>  <Rbt.Receptor>
prm/pocket_docking_5.prm

>  <SCORE>
-23.2613

>  <SCORE.INTER>
-14.5643

>  <SCORE.INTER.CONST>
1

>  <SCORE.INTER.POLAR>
-1.47873

>  <SCORE.INTER.ROT>
6

>  <SCORE.INTER.SOLV>
16.0016

>  <SCORE.INTER.VDW>
-17.7143

>  <SCORE.INTER.norm>
-0.469816

>  <SCORE.INTRA>
-8.69695

>  <SCORE.INTRA.DIHEDRAL>
-19.3312

>  <SCORE.INTRA.DIHEDRAL.0>
22.2484

>  <SCORE.INTRA.POLAR>
0

>  <SCORE.INTRA.POLAR.0>
0

>  <SCORE.INTRA.REPUL>
0

>  <SCORE.INTRA.REPUL.0>
0

>  <SCORE.INTRA.SOLV>
-0.219593

>  <SCORE.INTRA.SOLV.lig_0>
-75.7198

>  <SCORE.INTRA.VDW>
1.07847

>  <SCORE.INTRA.VDW.0>
-3.34171

>  <SCORE.INTRA.norm>
-0.280547

>  <SCORE.RESTR>
0

>  <SCORE.RESTR.CAVITY>
0

>  <SCORE.RESTR.norm>
0

>  <SCORE.SYSTEM>
0

>  <SCORE.SYSTEM.CONST>
0

>  <SCORE.SYSTEM.DIHEDRAL>
0

>  <SCORE.SYSTEM.SOLV>
0

>  <SCORE.SYSTEM.norm>
0

>  <SCORE.heavy>
31

>  <SCORE.norm>
-0.750363

>  <RMSD>
7.723

$$$$
2et3_lig
 OpenBabel11021811423D
libRbt.so/2013.1/901 2013/11/27
 31 33  0  0  0  0  0  0  0  0999 V2000
    0.2042  -14.5483   31.4012 C   0  0  2  0  0  0  0  0  0  0  0  0
   -1.0584  -14.0765   31.9392 O   0  0  0  0  0  0  0  0  0  0  0  0
   -2.4296  -10.1359   32.8868 C   0  0  2  0  0  0  0  0  0  0  0  0
   -2.4623   -8.8332   33.4761 N   0  0  0  0  0  0  0  0  0  0  0  0
   -0.3231   -9.3659   29.8080 C   0  0  2  0  0  0  0  0  0  0  0  0
   -0.0026  -15.0699   29.9752 C   0  0  2  0  0  0  0  0  0  0  0  0
   -0.5837  -14.0267   29.1877 N   0  0  0  0  0  0  0  0  0  0  0  0
   -2.4557  -11.2191   34.0129 C   0  0  0  0  0  0  0  0  0  0  0  0
    0.3645   -7.9885   29.6839 C   0  0  2  0  0  0  0  0  0  0  0  0
    1.1205   -7.7483   30.8498 O   0  0  0  0  0  0  0  0  0  0  0  0
   -0.8952  -16.3577   29.9882 C   0  0  0  0  0  0  0  0  0  0  0  0
   -2.4112  -12.6554   33.3741 C   0  0  2  0  0  0  0  0  0  0  0  0
   -2.4351  -13.6794   34.4308 N   0  0  0  0  0  0  0  0  0  0  0  0
   -0.7635   -6.8967   29.4780 C   0  0  1  0  0  0  0  0  0  0  0  0
   -0.1826   -5.5166   29.3947 N   0  0  0  0  0  0  0  0  0  0  0  0
   -0.1668  -17.4414   30.8436 C   0  0  0  0  0  0  0  0  0  0  0  0
   -1.1138  -12.7993   32.4894 C   0  0  2  0  0  0  0  0  0  0  0  0
   -1.6178   -7.2195   28.1402 C   0  0  1  0  0  0  0  0  0  0  0  0
   -0.8042   -7.1695   26.9864 O   0  0  0  0  0  0  0  0  0  0  0  0
    0.0608  -16.8623   32.3091 C   0  0  2  0  0  0  0  0  0  0  0  0
    0.7795  -15.5893   32.2965 O   0  0  0  0  0  0  0  0  0  0  0  0
   -1.1157  -11.6927   31.3654 C   0  0  2  0  0  0  0  0  0  0  0  0
    0.0471  -11.8071   30.5515 O   0  0  0  0  0  0  0  0  0  0  0  0
   -2.2030   -8.6618   28.2444 C   0  0  0  0  0  0  0  0  0  0  0  0
   -1.1225   -9.6478   28.5806 O   0  0  0  0  0  0  0  0  0  0  0  0
    0.7456  -17.8220   33.2534 C   0  0  0  0  0  0  0  0  0  0  0  0
    0.2382  -17.7059   34.5953 N   0  0  0  0  0  0  0  0  0  0  0  0
   -1.1622  -10.2681   32.0214 C   0  0  1  0  0  0  0  0  0  0  0  0
   -1.1705   -9.2856   30.9928 O   0  0  0  0  0  0  0  0  0  0  0  0
   -2.7661   -6.2586   27.8032 C   0  0  0  0  0  0  0  0  0  0  0  0
   -0.7039   -4.5111   30.3356 C   0  0  0  0  0  0  0  0  0  0  0  0
  1  2  1  1  0  0  0
  1  6  1  0  0  0  0
  1 21  1  0  0  0  0
  3  4  1  1  0  0  0
  3  8  1  0  0  0  0
  3 28  1  0  0  0  0
  5  9  1  0  0  0  0
  5 25  1  0  0  0  0
  5 29  1  1  0  0  0
  6  7  1  6  0  0  0
  6 11  1  0  0  0  0
  8 12  1  0  0  0  0
  9 10  1  1  0  0  0
  9 14  1  0  0  0  0
 11 16  1  0  0  0  0
 12 13  1  1  0  0  0
 12 17  1  0  0  0  0
 14 15  1  6  0  0  0
 14 18  1  0  0  0  0
 15 31  1  0  0  0  0
 16 20  1  0  0  0  0
 17  2  1  6  0  0  0
 17 22  1  0  0  0  0
 18 19  1  6  0  0  0
 18 24  1  0  0  0  0
 18 30  1  0  0  0  0
 20 21  1  0  0  0  0
 20 26  1  1  0  0  0
 22 23  1  1  0  0  0
 22 28  1  0  0  0  0
 24 25  1  0  0  0  0
 26 27  1  0  0  0  0
 28 29  1  6  0  0  0
M  END
>  <CHROM.1>
-128.37852937,-130.33525757,-124.84120408,-163.35941575,-143.96637462,-162.81477126
-0.83637229,-11.34727933,30.96383547,-1.29927007,1.27103857,-0.58730618

>  <Name>
2et3_lig

>  <RI>
0

>  <Rbt.Current_Directory>
/home/itssahil/PROJECTS/Mol_Feturizer/New_Systems/rnas/2et3

>  <Rbt.Executable>
rbdock ($Id: //depot/dev/client3/rdock/2013.1/src/exe/rbdock.cxx#4 $)

>  <Rbt.Library>
libRbt.so (2013.1, Build901 2013/11/27)

>  <Rbt.Parameter_File>
/export/apps/rDock/src/rDock_2013.1_src/data/scripts/dock_solv.prm

>  <Rbt.Receptor>
prm/blind_docking_100.prm

>  <SCORE>
-1.73246

>  <SCORE.INTER>
-3.07555

>  <SCORE.INTER.CONST>
1

>  <SCORE.INTER.POLAR>
-0.486665

>  <SCORE.INTER.ROT>
6

>  <SCORE.INTER.SOLV>
18.298

>  <SCORE.INTER.VDW>
-14.1275

>  <SCORE.INTER.norm>
-0.0992112

>  <SCORE.INTRA>
-0.330777

>  <SCORE.INTRA.DIHEDRAL>
-1.45143

>  <SCORE.INTRA.DIHEDRAL.0>
22.2484

>  <SCORE.INTRA.POLAR>
0

>  <SCORE.INTRA.POLAR.0>
0

>  <SCORE.INTRA.REPUL>
0

>  <SCORE.INTRA.REPUL.0>
0

>  <SCORE.INTRA.SOLV>
-2.67035

>  <SCORE.INTRA.SOLV.lig_0>
-75.7198

>  <SCORE.INTRA.VDW>
1.73011

>  <SCORE.INTRA.VDW.0>
-3.34171

>  <SCORE.INTRA.norm>
-0.0106702

>  <SCORE.RESTR>
1.67386

>  <SCORE.RESTR.CAVITY>
1.67386

>  <SCORE.RESTR.norm>
0.0539955

>  <SCORE.SYSTEM>
0

>  <SCORE.SYSTEM.CONST>
0

>  <SCORE.SYSTEM.DIHEDRAL>
0

>  <SCORE.SYSTEM.SOLV>
0

>  <SCORE.SYSTEM.norm>
0

>  <SCORE.heavy>
31

>  <SCORE.norm>
-0.055886

>  <RMSD>
7.736

$$$$
2et3_lig
 OpenBabel11021811423D
libRbt.so/2013.1/901 2013/11/27
 31 33  0  0  0  0  0  0  0  0999 V2000
   -1.9246   -6.1232   35.8750 C   0  0  2  0  0  0  0  0  0  0  0  0
   -0.5857   -6.2037   35.3208 O   0  0  0  0  0  0  0  0  0  0  0  0
   -1.1975   -4.3192   31.5286 C   0  0  2  0  0  0  0  0  0  0  0  0
   -0.8983   -3.6609   30.2947 N   0  0  0  0  0  0  0  0  0  0  0  0
   -0.1984   -6.7591   29.2649 C   0  0  2  0  0  0  0  0  0  0  0  0
   -2.0241   -7.0104   37.1205 C   0  0  2  0  0  0  0  0  0  0  0  0
   -1.0156   -6.6056   38.0506 N   0  0  0  0  0  0  0  0  0  0  0  0
   -0.7087   -3.4375   32.7227 C   0  0  0  0  0  0  0  0  0  0  0  0
   -1.0604   -7.6937   28.3879 C   0  0  2  0  0  0  0  0  0  0  0  0
   -2.2707   -7.0405   28.0764 O   0  0  0  0  0  0  0  0  0  0  0  0
   -1.8840   -8.5210   36.7283 C   0  0  0  0  0  0  0  0  0  0  0  0
   -1.0258   -4.1579   34.0840 C   0  0  2  0  0  0  0  0  0  0  0  0
   -0.5669   -3.3316   35.2120 N   0  0  0  0  0  0  0  0  0  0  0  0
   -1.3049   -9.0331   29.1960 C   0  0  1  0  0  0  0  0  0  0  0  0
   -2.1775   -9.9834   28.4315 N   0  0  0  0  0  0  0  0  0  0  0  0
   -3.0395   -8.8723   35.7393 C   0  0  0  0  0  0  0  0  0  0  0  0
   -0.3261   -5.5709   34.1087 C   0  0  2  0  0  0  0  0  0  0  0  0
    0.1089   -9.7408   29.5480 C   0  0  1  0  0  0  0  0  0  0  0  0
    0.8056  -10.1083   28.3754 O   0  0  0  0  0  0  0  0  0  0  0  0
   -2.9290   -7.9170   34.4705 C   0  0  2  0  0  0  0  0  0  0  0  0
   -2.9253   -6.5026   34.8402 O   0  0  0  0  0  0  0  0  0  0  0  0
   -0.8376   -6.4347   32.8922 C   0  0  2  0  0  0  0  0  0  0  0  0
   -0.2201   -7.7179   32.8976 O   0  0  0  0  0  0  0  0  0  0  0  0
    1.0028   -8.7316   30.3329 C   0  0  0  0  0  0  0  0  0  0  0  0
    1.0935   -7.4248   29.6003 O   0  0  0  0  0  0  0  0  0  0  0  0
   -3.9841   -8.1632   33.4179 C   0  0  0  0  0  0  0  0  0  0  0  0
   -3.9997   -7.1237   32.4224 N   0  0  0  0  0  0  0  0  0  0  0  0
   -0.5142   -5.6996   31.5442 C   0  0  1  0  0  0  0  0  0  0  0  0
   -0.9891   -6.4901   30.4611 O   0  0  0  0  0  0  0  0  0  0  0  0
    0.0480  -11.0501   30.3465 C   0  0  0  0  0  0  0  0  0  0  0  0
   -3.6158   -9.9755   28.7469 C   0  0  0  0  0  0  0  0  0  0  0  0
  1  2  1  6  0  0  0
  1  6  1  0  0  0  0
  1 21  1  0  0  0  0
  3  4  1  6  0  0  0
  3  8  1  0  0  0  0
  3 28  1  0  0  0  0
  5  9  1  0  0  0  0
  5 25  1  0  0  0  0
  5 29  1  1  0  0  0
  6  7  1  1  0  0  0
  6 11  1  0  0  0  0
  8 12  1  0  0  0  0
  9 10  1  1  0  0  0
  9 14  1  0  0  0  0
 11 16  1  0  0  0  0
 12 13  1  1  0  0  0
 12 17  1  0  0  0  0
 14 15  1  6  0  0  0
 14 18  1  0  0  0  0
 15 31  1  0  0  0  0
 16 20  1  0  0  0  0
 17  2  1  1  0  0  0
 17 22  1  0  0  0  0
 18 19  1  6  0  0  0
 18 24  1  0  0  0  0
 18 30  1  0  0  0  0
 20 21  1  0  0  0  0
 20 26  1  6  0  0  0
 22 23  1  6  0  0  0
 22 28  1  0  0  0  0
 24 25  1  0  0  0  0
 26 27  1  0  0  0  0
 28 29  1  6  0  0  0
M  END
>  <CHROM.1>
173.81424030,177.62331444,-96.16048743,41.83774630,169.05394242,105.51246520
-1.25635019,-7.17065250,32.22264719,1.92707889,1.22806857,0.86893865

>  <Name>
2et3_lig

>  <RI>
2.5794e+07

>  <Rbt.Current_Directory>
/home/itssahil/PROJECTS/Mol_Feturizer/New_Systems/rnas/2et3

>  <Rbt.Executable>
rbdock ($Id: //depot/dev/client3/rdock/2013.1/src/exe/rbdock.cxx#4 $)

>  <Rbt.Library>
libRbt.so (2013.1, Build901 2013/11/27)

>  <Rbt.Parameter_File>
/export/apps/rDock/src/rDock_2013.1_src/data/scripts/dock_solv.prm

>  <Rbt.Receptor>
prm/pocket_docking_5.prm

>  <SCORE>
-16.4155

>  <SCORE.INTER>
-10.2268

>  <SCORE.INTER.CONST>
1

>  <SCORE.INTER.POLAR>
-1.78661

>  <SCORE.INTER.ROT>
6

>  <SCORE.INTER.SOLV>
12.8597

>  <SCORE.INTER.VDW>
-12.7491

>  <SCORE.INTER.norm>
-0.329897

>  <SCORE.INTRA>
-6.22801

>  <SCORE.INTRA.DIHEDRAL>
-12.9821

>  <SCORE.INTRA.DIHEDRAL.0>
22.2484

>  <SCORE.INTRA.POLAR>
0

>  <SCORE.INTRA.POLAR.0>
0

>  <SCORE.INTRA.REPUL>
0

>  <SCORE.INTRA.REPUL.0>
0

>  <SCORE.INTRA.SOLV>
0.841833

>  <SCORE.INTRA.SOLV.lig_0>
-75.7198

>  <SCORE.INTRA.VDW>
-0.157872

>  <SCORE.INTRA.VDW.0>
-3.34171

>  <SCORE.INTRA.norm>
-0.200904

>  <SCORE.RESTR>
0.0392781

>  <SCORE.RESTR.CAVITY>
0.0392781

>  <SCORE.RESTR.norm>
0.00126704

>  <SCORE.SYSTEM>
0

>  <SCORE.SYSTEM.CONST>
0

>  <SCORE.SYSTEM.DIHEDRAL>
0

>  <SCORE.SYSTEM.SOLV>
0

>  <SCORE.SYSTEM.norm>
0

>  <SCORE.heavy>
31

>  <SCORE.norm>
-0.529533

>  <RMSD>
7.745

$$$$
2et3_lig
 OpenBabel11021811423D
libRbt.so/2013.1/901 2013/11/27
 31 33  0  0  0  0  0  0  0  0999 V2000
   -2.0735   -9.1917   34.6273 C   0  0  2  0  0  0  0  0  0  0  0  0
   -3.1438   -9.1808   33.6473 O   0  0  0  0  0  0  0  0  0  0  0  0
   -0.9425  -10.1336   30.1044 C   0  0  2  0  0  0  0  0  0  0  0  0
   -0.6781  -10.5351   28.7574 N   0  0  0  0  0  0  0  0  0  0  0  0
   -0.0774   -7.0140   30.0341 C   0  0  2  0  0  0  0  0  0  0  0  0
   -2.6218   -9.6327   35.9887 C   0  0  2  0  0  0  0  0  0  0  0  0
   -3.2454  -10.9110   35.8369 N   0  0  0  0  0  0  0  0  0  0  0  0
   -1.6608  -11.2952   30.8640 C   0  0  0  0  0  0  0  0  0  0  0  0
    0.4099   -6.0337   28.9444 C   0  0  2  0  0  0  0  0  0  0  0  0
   -0.6757   -5.2353   28.5294 O   0  0  0  0  0  0  0  0  0  0  0  0
   -3.6171   -8.5607   36.5505 C   0  0  0  0  0  0  0  0  0  0  0  0
   -1.9634  -10.8591   32.3443 C   0  0  2  0  0  0  0  0  0  0  0  0
   -2.6405  -11.9497   33.0639 N   0  0  0  0  0  0  0  0  0  0  0  0
    1.0038   -6.8872   27.7504 C   0  0  1  0  0  0  0  0  0  0  0  0
    1.4598   -6.0101   26.6228 N   0  0  0  0  0  0  0  0  0  0  0  0
   -2.8402   -7.2159   36.7075 C   0  0  0  0  0  0  0  0  0  0  0  0
   -2.8548   -9.5584   32.3393 C   0  0  2  0  0  0  0  0  0  0  0  0
    2.2346   -7.8013   28.2733 C   0  0  1  0  0  0  0  0  0  0  0  0
    3.2968   -7.0052   28.7565 O   0  0  0  0  0  0  0  0  0  0  0  0
   -2.2577   -6.7977   35.2860 C   0  0  2  0  0  0  0  0  0  0  0  0
   -1.4331   -7.8495   34.6937 O   0  0  0  0  0  0  0  0  0  0  0  0
   -2.1048   -8.4072   31.5648 C   0  0  2  0  0  0  0  0  0  0  0  0
   -2.8919   -7.2206   31.5515 O   0  0  0  0  0  0  0  0  0  0  0  0
    1.7403   -8.6966   29.4514 C   0  0  0  0  0  0  0  0  0  0  0  0
    1.0570   -7.8646   30.4971 O   0  0  0  0  0  0  0  0  0  0  0  0
   -1.4924   -5.4953   35.2907 C   0  0  0  0  0  0  0  0  0  0  0  0
   -0.9825   -5.1697   33.9846 N   0  0  0  0  0  0  0  0  0  0  0  0
   -1.8101   -8.8610   30.0919 C   0  0  1  0  0  0  0  0  0  0  0  0
   -1.1280   -7.8134   29.4132 O   0  0  0  0  0  0  0  0  0  0  0  0
    2.9153   -8.7050   27.2363 C   0  0  0  0  0  0  0  0  0  0  0  0
    0.5606   -5.8857   25.4634 C   0  0  0  0  0  0  0  0  0  0  0  0
  1  2  1  6  0  0  0
  1  6  1  0  0  0  0
  1 21  1  0  0  0  0
  3  4  1  6  0  0  0
  3  8  1  0  0  0  0
  3 28  1  0  0  0  0
  5  9  1  0  0  0  0
  5 25  1  0  0  0  0
  5 29  1  6  0  0  0
  6  7  1  6  0  0  0
  6 11  1  0  0  0  0
  8 12  1  0  0  0  0
  9 10  1  6  0  0  0
  9 14  1  0  0  0  0
 11 16  1  0  0  0  0
 12 13  1  6  0  0  0
 12 17  1  0  0  0  0
 14 15  1  6  0  0  0
 14 18  1  0  0  0  0
 15 31  1  0  0  0  0
 16 20  1  0  0  0  0
 17  2  1  1  0  0  0
 17 22  1  0  0  0  0
 18 19  1  1  0  0  0
 18 24  1  0  0  0  0
 18 30  1  0  0  0  0
 20 21  1  0  0  0  0
 20 26  1  1  0  0  0
 22 23  1  6  0  0  0
 22 28  1  0  0  0  0
 24 25  1  0  0  0  0
 26 27  1  0  0  0  0
 28 29  1  6  0  0  0
M  END
>  <CHROM.1>
-144.09781635,178.39747487,-100.60545745,44.65328584,179.66758914,-79.52216298
-0.90142534,-8.15303715,31.39818499,2.88669587,1.06824854,0.50591096

>  <Name>
2et3_lig

>  <RI>
0

>  <Rbt.Current_Directory>
/home/itssahil/PROJECTS/Mol_Feturizer/New_Systems/rnas/2et3

>  <Rbt.Executable>
rbdock ($Id: //depot/dev/client3/rdock/2013.1/src/exe/rbdock.cxx#4 $)

>  <Rbt.Library>
libRbt.so (2013.1, Build901 2013/11/27)

>  <Rbt.Parameter_File>
/export/apps/rDock/src/rDock_2013.1_src/data/scripts/dock_solv.prm

>  <Rbt.Receptor>
prm/pocket_docking_3.prm

>  <SCORE>
-18.9916

>  <SCORE.INTER>
-14.2496

>  <SCORE.INTER.CONST>
1

>  <SCORE.INTER.POLAR>
-1.25013

>  <SCORE.INTER.ROT>
6

>  <SCORE.INTER.SOLV>
15.3261

>  <SCORE.INTER.VDW>
-18.0413

>  <SCORE.INTER.norm>
-0.459665

>  <SCORE.INTRA>
-4.9922

>  <SCORE.INTRA.DIHEDRAL>
-13.6932

>  <SCORE.INTRA.DIHEDRAL.0>
22.2484

>  <SCORE.INTRA.POLAR>
0

>  <SCORE.INTRA.POLAR.0>
0

>  <SCORE.INTRA.REPUL>
0

>  <SCORE.INTRA.REPUL.0>
0

>  <SCORE.INTRA.SOLV>
2.49621

>  <SCORE.INTRA.SOLV.lig_0>
-75.7198

>  <SCORE.INTRA.VDW>
0.60628

>  <SCORE.INTRA.VDW.0>
-3.34171

>  <SCORE.INTRA.norm>
-0.161039

>  <SCORE.RESTR>
0.250239

>  <SCORE.RESTR.CAVITY>
0.250239

>  <SCORE.RESTR.norm>
0.00807221

>  <SCORE.SYSTEM>
0

>  <SCORE.SYSTEM.CONST>
0

>  <SCORE.SYSTEM.DIHEDRAL>
0

>  <SCORE.SYSTEM.SOLV>
0

>  <SCORE.SYSTEM.norm>
0

>  <SCORE.heavy>
31

>  <SCORE.norm>
-0.612632

>  <RMSD>
7.764

$$$$
2et3_lig
 OpenBabel11021811423D
libRbt.so/2013.1/901 2013/11/27
 31 33  0  0  0  0  0  0  0  0999 V2000
   -4.7932  -11.3608   31.0715 C   0  0  2  0  0  0  0  0  0  0  0  0
   -4.6719  -10.7321   32.3739 O   0  0  0  0  0  0  0  0  0  0  0  0
   -1.9682   -7.6468   33.5894 C   0  0  2  0  0  0  0  0  0  0  0  0
   -0.7380   -6.9924   33.9117 N   0  0  0  0  0  0  0  0  0  0  0  0
   -0.5012   -6.2415   31.1524 C   0  0  2  0  0  0  0  0  0  0  0  0
   -6.2317  -11.8460   30.8623 C   0  0  2  0  0  0  0  0  0  0  0  0
   -7.1163  -10.7335   31.0236 N   0  0  0  0  0  0  0  0  0  0  0  0
   -2.1765   -8.8664   34.5441 C   0  0  0  0  0  0  0  0  0  0  0  0
   -0.8352   -4.9299   30.4082 C   0  0  2  0  0  0  0  0  0  0  0  0
   -1.7871   -4.2086   31.1580 O   0  0  0  0  0  0  0  0  0  0  0  0
   -6.5672  -13.0078   31.8588 C   0  0  0  0  0  0  0  0  0  0  0  0
   -3.5232   -9.5976   34.1910 C   0  0  2  0  0  0  0  0  0  0  0  0
   -3.7238  -10.7475   35.0872 N   0  0  0  0  0  0  0  0  0  0  0  0
   -1.3818   -5.3094   28.9715 C   0  0  1  0  0  0  0  0  0  0  0  0
   -1.7764   -4.0889   28.1947 N   0  0  0  0  0  0  0  0  0  0  0  0
   -5.5726  -14.1797   31.5865 C   0  0  0  0  0  0  0  0  0  0  0  0
   -3.4908  -10.0649   32.6853 C   0  0  2  0  0  0  0  0  0  0  0  0
   -0.2661   -6.1506   28.1521 C   0  0  1  0  0  0  0  0  0  0  0  0
    0.9020   -5.3849   27.9408 O   0  0  0  0  0  0  0  0  0  0  0  0
   -4.0875  -13.6404   31.7822 C   0  0  2  0  0  0  0  0  0  0  0  0
   -3.8085  -12.4707   30.9506 O   0  0  0  0  0  0  0  0  0  0  0  0
   -3.2774   -8.8139   31.7487 C   0  0  2  0  0  0  0  0  0  0  0  0
   -3.2486   -9.2135   30.3822 O   0  0  0  0  0  0  0  0  0  0  0  0
    0.1362   -7.4082   28.9828 C   0  0  0  0  0  0  0  0  0  0  0  0
    0.5126   -7.0191   30.3827 O   0  0  0  0  0  0  0  0  0  0  0  0
   -3.0173  -14.6841   31.5648 C   0  0  0  0  0  0  0  0  0  0  0  0
   -3.1449  -15.7815   32.4874 N   0  0  0  0  0  0  0  0  0  0  0  0
   -1.9310   -8.0970   32.1168 C   0  0  1  0  0  0  0  0  0  0  0  0
   -1.7606   -6.9690   31.2671 O   0  0  0  0  0  0  0  0  0  0  0  0
   -0.6462   -6.6106   26.7381 C   0  0  0  0  0  0  0  0  0  0  0  0
   -3.1238   -4.0778   27.6011 C   0  0  0  0  0  0  0  0  0  0  0  0
  1  2  1  1  0  0  0
  1  6  1  0  0  0  0
  1 21  1  0  0  0  0
  3  4  1  1  0  0  0
  3  8  1  0  0  0  0
  3 28  1  0  0  0  0
  5  9  1  0  0  0  0
  5 25  1  0  0  0  0
  5 29  1  6  0  0  0
  6  7  1  1  0  0  0
  6 11  1  0  0  0  0
  8 12  1  0  0  0  0
  9 10  1  1  0  0  0
  9 14  1  0  0  0  0
 11 16  1  0  0  0  0
 12 13  1  1  0  0  0
 12 17  1  0  0  0  0
 14 15  1  6  0  0  0
 14 18  1  0  0  0  0
 15 31  1  0  0  0  0
 16 20  1  0  0  0  0
 17  2  1  6  0  0  0
 17 22  1  0  0  0  0
 18 19  1  6  0  0  0
 18 24  1  0  0  0  0
 18 30  1  0  0  0  0
 20 21  1  0  0  0  0
 20 26  1  6  0  0  0
 22 23  1  6  0  0  0
 22 28  1  0  0  0  0
 24 25  1  0  0  0  0
 26 27  1  0  0  0  0
 28 29  1  6  0  0  0
M  END
>  <CHROM.1>
-171.47950531,-167.10581048,-128.27908599,-174.03627058,-60.72434540,72.51689588
-2.67655945,-8.89976739,31.08706398,2.63747098,1.05688501,1.76415902

>  <Name>
2et3_lig

>  <RI>
3.86414e+07

>  <Rbt.Current_Directory>
/home/itssahil/PROJECTS/Mol_Feturizer/New_Systems/rnas/2et3

>  <Rbt.Executable>
rbdock ($Id: //depot/dev/client3/rdock/2013.1/src/exe/rbdock.cxx#4 $)

>  <Rbt.Library>
libRbt.so (2013.1, Build901 2013/11/27)

>  <Rbt.Parameter_File>
/export/apps/rDock/src/rDock_2013.1_src/data/scripts/dock_solv.prm

>  <Rbt.Receptor>
prm/pocket_docking_8.prm

>  <SCORE>
-20.4269

>  <SCORE.INTER>
-10.3308

>  <SCORE.INTER.CONST>
1

>  <SCORE.INTER.POLAR>
-1.54333

>  <SCORE.INTER.ROT>
6

>  <SCORE.INTER.SOLV>
11.7575

>  <SCORE.INTER.VDW>
-13.2619

>  <SCORE.INTER.norm>
-0.333251

>  <SCORE.INTRA>
-10.0961

>  <SCORE.INTRA.DIHEDRAL>
-18.8835

>  <SCORE.INTRA.DIHEDRAL.0>
22.2484

>  <SCORE.INTRA.POLAR>
0

>  <SCORE.INTRA.POLAR.0>
0

>  <SCORE.INTRA.REPUL>
0

>  <SCORE.INTRA.REPUL.0>
0

>  <SCORE.INTRA.SOLV>
-2.80905

>  <SCORE.INTRA.SOLV.lig_0>
-75.7198

>  <SCORE.INTRA.VDW>
0.750223

>  <SCORE.INTRA.VDW.0>
-3.34171

>  <SCORE.INTRA.norm>
-0.32568

>  <SCORE.RESTR>
0

>  <SCORE.RESTR.CAVITY>
0

>  <SCORE.RESTR.norm>
0

>  <SCORE.SYSTEM>
0

>  <SCORE.SYSTEM.CONST>
0

>  <SCORE.SYSTEM.DIHEDRAL>
0

>  <SCORE.SYSTEM.SOLV>
0

>  <SCORE.SYSTEM.norm>
0

>  <SCORE.heavy>
31

>  <SCORE.norm>
-0.658931

>  <RMSD>
7.764

$$$$
2et3_lig
 OpenBabel11021811423D
libRbt.so/2013.1/901 2013/11/27
 31 33  0  0  0  0  0  0  0  0999 V2000
   -5.7733  -11.2565   31.1275 C   0  0  2  0  0  0  0  0  0  0  0  0
   -5.7033  -10.6722   32.4541 O   0  0  0  0  0  0  0  0  0  0  0  0
   -2.7775   -8.1829   34.3381 C   0  0  2  0  0  0  0  0  0  0  0  0
   -1.5039   -7.7260   34.8016 N   0  0  0  0  0  0  0  0  0  0  0  0
   -1.2262   -6.2931   32.4771 C   0  0  2  0  0  0  0  0  0  0  0  0
   -7.2387  -11.4297   30.7141 C   0  0  2  0  0  0  0  0  0  0  0  0
   -7.8882  -10.1577   30.7928 N   0  0  0  0  0  0  0  0  0  0  0  0
   -3.1068   -9.5631   34.9929 C   0  0  0  0  0  0  0  0  0  0  0  0
   -1.2194   -5.1144   31.4789 C   0  0  2  0  0  0  0  0  0  0  0  0
   -2.3531   -4.3096   31.7143 O   0  0  0  0  0  0  0  0  0  0  0  0
   -7.9393  -12.4998   31.6194 C   0  0  0  0  0  0  0  0  0  0  0  0
   -4.5022  -10.0777   34.4820 C   0  0  2  0  0  0  0  0  0  0  0  0
   -4.8169  -11.3778   35.0955 N   0  0  0  0  0  0  0  0  0  0  0  0
   -1.2176   -5.7155   30.0141 C   0  0  1  0  0  0  0  0  0  0  0  0
   -1.2585   -4.6331   28.9769 N   0  0  0  0  0  0  0  0  0  0  0  0
   -7.1804  -13.8525   31.4434 C   0  0  0  0  0  0  0  0  0  0  0  0
   -4.4774  -10.1961   32.9097 C   0  0  2  0  0  0  0  0  0  0  0  0
    0.0896   -6.6459   29.7922 C   0  0  1  0  0  0  0  0  0  0  0  0
    1.2806   -5.8959   29.9129 O   0  0  0  0  0  0  0  0  0  0  0  0
   -5.6567  -13.6360   31.8513 C   0  0  2  0  0  0  0  0  0  0  0  0
   -5.0318  -12.5471   31.1023 O   0  0  0  0  0  0  0  0  0  0  0  0
   -4.1408   -8.7899   32.2796 C   0  0  2  0  0  0  0  0  0  0  0  0
   -4.1169   -8.8736   30.8583 O   0  0  0  0  0  0  0  0  0  0  0  0
    0.1169   -7.7568   30.8871 C   0  0  0  0  0  0  0  0  0  0  0  0
   -0.0296   -7.1552   32.2543 O   0  0  0  0  0  0  0  0  0  0  0  0
   -4.8056  -14.8793   31.7439 C   0  0  0  0  0  0  0  0  0  0  0  0
   -4.7202  -15.3537   30.3876 N   0  0  0  0  0  0  0  0  0  0  0  0
   -2.7472   -8.2926   32.8019 C   0  0  1  0  0  0  0  0  0  0  0  0
   -2.4654   -7.0217   32.2287 O   0  0  0  0  0  0  0  0  0  0  0  0
    0.2353   -7.3196   28.4209 C   0  0  0  0  0  0  0  0  0  0  0  0
   -2.5861   -4.2078   28.5029 C   0  0  0  0  0  0  0  0  0  0  0  0
  1  2  1  1  0  0  0
  1  6  1  0  0  0  0
  1 21  1  0  0  0  0
  3  4  1  1  0  0  0
  3  8  1  0  0  0  0
  3 28  1  0  0  0  0
  5  9  1  0  0  0  0
  5 25  1  0  0  0  0
  5 29  1  6  0  0  0
  6  7  1  1  0  0  0
  6 11  1  0  0  0  0
  8 12  1  0  0  0  0
  9 10  1  6  0  0  0
  9 14  1  0  0  0  0
 11 16  1  0  0  0  0
 12 13  1  1  0  0  0
 12 17  1  0  0  0  0
 14 15  1  6  0  0  0
 14 18  1  0  0  0  0
 15 31  1  0  0  0  0
 16 20  1  0  0  0  0
 17  2  1  6  0  0  0
 17 22  1  0  0  0  0
 18 19  1  1  0  0  0
 18 24  1  0  0  0  0
 18 30  1  0  0  0  0
 20 21  1  0  0  0  0
 20 26  1  6  0  0  0
 22 23  1  6  0  0  0
 22 28  1  0  0  0  0
 24 25  1  0  0  0  0
 26 27  1  0  0  0  0
 28 29  1  6  0  0  0
M  END
>  <CHROM.1>
-167.76991601,169.90729246,-91.41303978,-160.54537756,63.23173380,61.51316593
-3.35266560,-9.04436037,31.66647151,2.92116456,0.91176390,1.67338026

>  <Name>
2et3_lig

>  <RI>
0

>  <Rbt.Current_Directory>
/home/itssahil/PROJECTS/Mol_Feturizer/New_Systems/rnas/2et3

>  <Rbt.Executable>
rbdock ($Id: //depot/dev/client3/rdock/2013.1/src/exe/rbdock.cxx#4 $)

>  <Rbt.Library>
libRbt.so (2013.1, Build901 2013/11/27)

>  <Rbt.Parameter_File>
/export/apps/rDock/src/rDock_2013.1_src/data/scripts/dock_solv.prm

>  <Rbt.Receptor>
prm/pocket_docking_6.prm

>  <SCORE>
-17.5804

>  <SCORE.INTER>
-8.36135

>  <SCORE.INTER.CONST>
1

>  <SCORE.INTER.POLAR>
-1.15479

>  <SCORE.INTER.ROT>
6

>  <SCORE.INTER.SOLV>
14.8142

>  <SCORE.INTER.VDW>
-14.263

>  <SCORE.INTER.norm>
-0.269721

>  <SCORE.INTRA>
-9.21908

>  <SCORE.INTRA.DIHEDRAL>
-18.4793

>  <SCORE.INTRA.DIHEDRAL.0>
22.2484

>  <SCORE.INTRA.POLAR>
0

>  <SCORE.INTRA.POLAR.0>
0

>  <SCORE.INTRA.REPUL>
0

>  <SCORE.INTRA.REPUL.0>
0

>  <SCORE.INTRA.SOLV>
-0.93443

>  <SCORE.INTRA.SOLV.lig_0>
-75.7198

>  <SCORE.INTRA.VDW>
0.487784

>  <SCORE.INTRA.VDW.0>
-3.34171

>  <SCORE.INTRA.norm>
-0.29739

>  <SCORE.RESTR>
0

>  <SCORE.RESTR.CAVITY>
0

>  <SCORE.RESTR.norm>
0

>  <SCORE.SYSTEM>
0

>  <SCORE.SYSTEM.CONST>
0

>  <SCORE.SYSTEM.DIHEDRAL>
0

>  <SCORE.SYSTEM.SOLV>
0

>  <SCORE.SYSTEM.norm>
0

>  <SCORE.heavy>
31

>  <SCORE.norm>
-0.567111

>  <RMSD>
7.778

$$$$
2et3_lig
 OpenBabel11021811423D
libRbt.so/2013.1/901 2013/11/27
 31 33  0  0  0  0  0  0  0  0999 V2000
    0.0803   -5.1209   30.9189 C   0  0  2  0  0  0  0  0  0  0  0  0
   -0.7678   -5.3297   32.0779 O   0  0  0  0  0  0  0  0  0  0  0  0
    0.2971   -4.8333   36.1920 C   0  0  2  0  0  0  0  0  0  0  0  0
    0.9232   -5.0796   37.4541 N   0  0  0  0  0  0  0  0  0  0  0  0
    3.5768   -3.5235   35.8416 C   0  0  2  0  0  0  0  0  0  0  0  0
   -0.7718   -4.6708   29.7274 C   0  0  2  0  0  0  0  0  0  0  0  0
   -1.4949   -3.4949   30.1023 N   0  0  0  0  0  0  0  0  0  0  0  0
   -0.5869   -6.0608   35.7995 C   0  0  0  0  0  0  0  0  0  0  0  0
    3.6883   -3.0513   37.3080 C   0  0  2  0  0  0  0  0  0  0  0  0
    2.9052   -3.8964   38.1210 O   0  0  0  0  0  0  0  0  0  0  0  0
   -1.7295   -5.8249   29.2732 C   0  0  0  0  0  0  0  0  0  0  0  0
   -1.2728   -5.8023   34.4081 C   0  0  2  0  0  0  0  0  0  0  0  0
   -2.1063   -6.9559   34.0336 N   0  0  0  0  0  0  0  0  0  0  0  0
    3.1964   -1.5479   37.3754 C   0  0  1  0  0  0  0  0  0  0  0  0
    3.2278   -1.0228   38.7797 N   0  0  0  0  0  0  0  0  0  0  0  0
   -0.8506   -7.0466   28.8588 C   0  0  0  0  0  0  0  0  0  0  0  0
   -0.1667   -5.5374   33.3159 C   0  0  2  0  0  0  0  0  0  0  0  0
    4.1097   -0.6163   36.4153 C   0  0  1  0  0  0  0  0  0  0  0  0
    5.4579   -0.6101   36.8369 O   0  0  0  0  0  0  0  0  0  0  0  0
    0.0441   -7.4736   30.1045 C   0  0  2  0  0  0  0  0  0  0  0  0
    0.8439   -6.3632   30.6191 O   0  0  0  0  0  0  0  0  0  0  0  0
    0.7088   -4.2962   33.7412 C   0  0  2  0  0  0  0  0  0  0  0  0
    1.7130   -4.0368   32.7655 O   0  0  0  0  0  0  0  0  0  0  0  0
    4.0704   -1.1867   34.9639 C   0  0  0  0  0  0  0  0  0  0  0  0
    4.4055   -2.6497   34.9615 O   0  0  0  0  0  0  0  0  0  0  0  0
    0.9369   -8.6641   29.8450 C   0  0  0  0  0  0  0  0  0  0  0  0
    0.1757   -9.8498   29.5511 N   0  0  0  0  0  0  0  0  0  0  0  0
    1.3828   -4.5717   35.1312 C   0  0  1  0  0  0  0  0  0  0  0  0
    2.1610   -3.4396   35.5000 O   0  0  0  0  0  0  0  0  0  0  0  0
    3.7528    0.8752   36.3549 C   0  0  0  0  0  0  0  0  0  0  0  0
    4.5210   -1.0639   39.4827 C   0  0  0  0  0  0  0  0  0  0  0  0
  1  2  1  1  0  0  0
  1  6  1  0  0  0  0
  1 21  1  0  0  0  0
  3  4  1  1  0  0  0
  3  8  1  0  0  0  0
  3 28  1  0  0  0  0
  5  9  1  0  0  0  0
  5 25  1  0  0  0  0
  5 29  1  6  0  0  0
  6  7  1  1  0  0  0
  6 11  1  0  0  0  0
  8 12  1  0  0  0  0
  9 10  1  1  0  0  0
  9 14  1  0  0  0  0
 11 16  1  0  0  0  0
 12 13  1  6  0  0  0
 12 17  1  0  0  0  0
 14 15  1  1  0  0  0
 14 18  1  0  0  0  0
 15 31  1  0  0  0  0
 16 20  1  0  0  0  0
 17  2  1  6  0  0  0
 17 22  1  0  0  0  0
 18 19  1  1  0  0  0
 18 24  1  0  0  0  0
 18 30  1  0  0  0  0
 20 21  1  0  0  0  0
 20 26  1  6  0  0  0
 22 23  1  6  0  0  0
 22 28  1  0  0  0  0
 24 25  1  0  0  0  0
 26 27  1  0  0  0  0
 28 29  1  1  0  0  0
M  END
>  <CHROM.1>
-170.04384152,-118.06312253,57.44400530,-177.52006256,-62.72997057,114.48087124
1.41124227,-4.25534779,34.07944144,-2.41116410,0.92185046,1.65293401

>  <Name>
2et3_lig

>  <RI>
0

>  <Rbt.Current_Directory>
/home/itssahil/PROJECTS/Mol_Feturizer/New_Systems/rnas/2et3

>  <Rbt.Executable>
rbdock ($Id: //depot/dev/client3/rdock/2013.1/src/exe/rbdock.cxx#4 $)

>  <Rbt.Library>
libRbt.so (2013.1, Build901 2013/11/27)

>  <Rbt.Parameter_File>
/export/apps/rDock/src/rDock_2013.1_src/data/scripts/dock_solv.prm

>  <Rbt.Receptor>
prm/blind_docking_40.prm

>  <SCORE>
-0.93192

>  <SCORE.INTER>
-11.2855

>  <SCORE.INTER.CONST>
1

>  <SCORE.INTER.POLAR>
-1.91886

>  <SCORE.INTER.ROT>
6

>  <SCORE.INTER.SOLV>
14.731

>  <SCORE.INTER.VDW>
-13.6378

>  <SCORE.INTER.norm>
-0.364049

>  <SCORE.INTRA>
-1.09159

>  <SCORE.INTRA.DIHEDRAL>
-7.3203

>  <SCORE.INTRA.DIHEDRAL.0>
22.2484

>  <SCORE.INTRA.POLAR>
0

>  <SCORE.INTRA.POLAR.0>
0

>  <SCORE.INTRA.REPUL>
0.0100488

>  <SCORE.INTRA.REPUL.0>
0

>  <SCORE.INTRA.SOLV>
-1.45928

>  <SCORE.INTRA.SOLV.lig_0>
-75.7198

>  <SCORE.INTRA.VDW>
3.24796

>  <SCORE.INTRA.VDW.0>
-3.34171

>  <SCORE.INTRA.norm>
-0.0352125

>  <SCORE.RESTR>
11.4452

>  <SCORE.RESTR.CAVITY>
11.4452

>  <SCORE.RESTR.norm>
0.3692

>  <SCORE.SYSTEM>
0

>  <SCORE.SYSTEM.CONST>
0

>  <SCORE.SYSTEM.DIHEDRAL>
0

>  <SCORE.SYSTEM.SOLV>
0

>  <SCORE.SYSTEM.norm>
0

>  <SCORE.heavy>
31

>  <SCORE.norm>
-0.0300619

>  <RMSD>
7.802

$$$$
2et3_lig
 OpenBabel11021811423D
libRbt.so/2013.1/901 2013/11/27
 31 33  0  0  0  0  0  0  0  0999 V2000
    0.2478  -15.1864   30.5023 C   0  0  2  0  0  0  0  0  0  0  0  0
   -0.9713  -14.5496   30.9655 O   0  0  0  0  0  0  0  0  0  0  0  0
   -1.9489  -10.7802   32.7383 C   0  0  2  0  0  0  0  0  0  0  0  0
   -1.8184   -9.5979   33.5324 N   0  0  0  0  0  0  0  0  0  0  0  0
   -0.2493   -9.5796   29.5494 C   0  0  2  0  0  0  0  0  0  0  0  0
   -0.0993  -16.3743   29.5985 C   0  0  2  0  0  0  0  0  0  0  0  0
   -0.9207  -15.9060   28.5251 N   0  0  0  0  0  0  0  0  0  0  0  0
   -1.8886  -12.0390   33.6624 C   0  0  0  0  0  0  0  0  0  0  0  0
    0.5488   -8.2573   29.5674 C   0  0  2  0  0  0  0  0  0  0  0  0
    1.4808   -8.3003   30.6247 O   0  0  0  0  0  0  0  0  0  0  0  0
   -0.8063  -17.5021   30.4253 C   0  0  0  0  0  0  0  0  0  0  0  0
   -2.0225  -13.3448   32.7963 C   0  0  2  0  0  0  0  0  0  0  0  0
   -1.9659  -14.5334   33.6621 N   0  0  0  0  0  0  0  0  0  0  0  0
   -0.4818   -7.0675   29.7386 C   0  0  1  0  0  0  0  0  0  0  0  0
    0.2171   -5.7428   29.8133 N   0  0  0  0  0  0  0  0  0  0  0  0
    0.1747  -17.9650   31.5478 C   0  0  0  0  0  0  0  0  0  0  0  0
   -0.8702  -13.3848   31.7206 C   0  0  2  0  0  0  0  0  0  0  0  0
   -1.5431   -7.0654   28.5149 C   0  0  1  0  0  0  0  0  0  0  0  0
   -0.8982   -6.8544   27.2759 O   0  0  0  0  0  0  0  0  0  0  0  0
    0.5406  -16.7068   32.4522 C   0  0  2  0  0  0  0  0  0  0  0  0
    1.0791  -15.5975   31.6668 O   0  0  0  0  0  0  0  0  0  0  0  0
   -0.9564  -12.1022   30.8065 C   0  0  2  0  0  0  0  0  0  0  0  0
    0.0745  -12.1201   29.8244 O   0  0  0  0  0  0  0  0  0  0  0  0
   -2.2495   -8.4548   28.4501 C   0  0  0  0  0  0  0  0  0  0  0  0
   -1.2369   -9.5625   28.4318 O   0  0  0  0  0  0  0  0  0  0  0  0
    1.4762  -17.0193   33.5963 C   0  0  0  0  0  0  0  0  0  0  0  0
    0.9255  -18.0111   34.4822 N   0  0  0  0  0  0  0  0  0  0  0  0
   -0.8228  -10.8108   31.6877 C   0  0  1  0  0  0  0  0  0  0  0  0
   -0.9101   -9.6666   30.8472 O   0  0  0  0  0  0  0  0  0  0  0  0
   -2.6251   -5.9772   28.5386 C   0  0  0  0  0  0  0  0  0  0  0  0
   -0.2755   -4.7796   30.8121 C   0  0  0  0  0  0  0  0  0  0  0  0
  1  2  1  1  0  0  0
  1  6  1  0  0  0  0
  1 21  1  0  0  0  0
  3  4  1  1  0  0  0
  3  8  1  0  0  0  0
  3 28  1  0  0  0  0
  5  9  1  0  0  0  0
  5 25  1  0  0  0  0
  5 29  1  1  0  0  0
  6  7  1  6  0  0  0
  6 11  1  0  0  0  0
  8 12  1  0  0  0  0
  9 10  1  1  0  0  0
  9 14  1  0  0  0  0
 11 16  1  0  0  0  0
 12 13  1  1  0  0  0
 12 17  1  0  0  0  0
 14 15  1  6  0  0  0
 14 18  1  0  0  0  0
 15 31  1  0  0  0  0
 16 20  1  0  0  0  0
 17  2  1  6  0  0  0
 17 22  1  0  0  0  0
 18 19  1  6  0  0  0
 18 24  1  0  0  0  0
 18 30  1  0  0  0  0
 20 21  1  0  0  0  0
 20 26  1  1  0  0  0
 22 23  1  6  0  0  0
 22 28  1  0  0  0  0
 24 25  1  0  0  0  0
 26 27  1  0  0  0  0
 28 29  1  6  0  0  0
M  END
>  <CHROM.1>
-175.22219723,-128.36949466,-138.03413575,-145.49018949,-59.10842410,-162.25572973
-0.59423594,-11.72563089,30.82265349,-0.64156301,1.46291836,-1.19306242

>  <Name>
2et3_lig

>  <RI>
0

>  <Rbt.Current_Directory>
/home/itssahil/PROJECTS/Mol_Feturizer/New_Systems/rnas/2et3

>  <Rbt.Executable>
rbdock ($Id: //depot/dev/client3/rdock/2013.1/src/exe/rbdock.cxx#4 $)

>  <Rbt.Library>
libRbt.so (2013.1, Build901 2013/11/27)

>  <Rbt.Parameter_File>
/export/apps/rDock/src/rDock_2013.1_src/data/scripts/dock_solv.prm

>  <Rbt.Receptor>
prm/blind_docking_100.prm

>  <SCORE>
-6.00335

>  <SCORE.INTER>
-4.48134

>  <SCORE.INTER.CONST>
1

>  <SCORE.INTER.POLAR>
-0.610644

>  <SCORE.INTER.ROT>
6

>  <SCORE.INTER.SOLV>
18.0626

>  <SCORE.INTER.VDW>
-14.573

>  <SCORE.INTER.norm>
-0.144559

>  <SCORE.INTRA>
-3.86102

>  <SCORE.INTRA.DIHEDRAL>
-8.27936

>  <SCORE.INTRA.DIHEDRAL.0>
22.2484

>  <SCORE.INTRA.POLAR>
0

>  <SCORE.INTRA.POLAR.0>
0

>  <SCORE.INTRA.REPUL>
0

>  <SCORE.INTRA.REPUL.0>
0

>  <SCORE.INTRA.SOLV>
-2.78584

>  <SCORE.INTRA.SOLV.lig_0>
-75.7198

>  <SCORE.INTRA.VDW>
1.67158

>  <SCORE.INTRA.VDW.0>
-3.34171

>  <SCORE.INTRA.norm>
-0.124549

>  <SCORE.RESTR>
2.339

>  <SCORE.RESTR.CAVITY>
2.339

>  <SCORE.RESTR.norm>
0.0754517

>  <SCORE.SYSTEM>
0

>  <SCORE.SYSTEM.CONST>
0

>  <SCORE.SYSTEM.DIHEDRAL>
0

>  <SCORE.SYSTEM.SOLV>
0

>  <SCORE.SYSTEM.norm>
0

>  <SCORE.heavy>
31

>  <SCORE.norm>
-0.193657

>  <RMSD>
7.866

$$$$
2et3_lig
 OpenBabel11021811423D
libRbt.so/2013.1/901 2013/11/27
 31 33  0  0  0  0  0  0  0  0999 V2000
   -5.1647   -8.1360   33.5223 C   0  0  2  0  0  0  0  0  0  0  0  0
   -4.8766   -7.7123   34.8801 O   0  0  0  0  0  0  0  0  0  0  0  0
   -1.5367   -5.4998   36.3821 C   0  0  2  0  0  0  0  0  0  0  0  0
   -0.1842   -5.1735   36.7135 N   0  0  0  0  0  0  0  0  0  0  0  0
    0.0329   -4.2563   33.6115 C   0  0  2  0  0  0  0  0  0  0  0  0
   -6.6370   -8.5458   33.4087 C   0  0  2  0  0  0  0  0  0  0  0  0
   -7.4501   -7.4466   33.8290 N   0  0  0  0  0  0  0  0  0  0  0  0
   -1.9579   -6.8041   37.1327 C   0  0  0  0  0  0  0  0  0  0  0  0
   -0.2074   -3.4797   32.2981 C   0  0  2  0  0  0  0  0  0  0  0  0
   -0.8494   -2.2608   32.5987 O   0  0  0  0  0  0  0  0  0  0  0  0
   -6.9130   -9.8340   34.2570 C   0  0  0  0  0  0  0  0  0  0  0  0
   -3.4417   -7.1756   36.7673 C   0  0  2  0  0  0  0  0  0  0  0  0
   -3.8431   -8.4039   37.4714 N   0  0  0  0  0  0  0  0  0  0  0  0
   -1.0872   -4.3899   31.3470 C   0  0  1  0  0  0  0  0  0  0  0  0
   -1.4084   -3.6893   30.0605 N   0  0  0  0  0  0  0  0  0  0  0  0
   -6.0051  -10.9783   33.7066 C   0  0  0  0  0  0  0  0  0  0  0  0
   -3.5698   -7.3619   35.2067 C   0  0  2  0  0  0  0  0  0  0  0  0
   -0.3222   -5.7847   31.0418 C   0  0  1  0  0  0  0  0  0  0  0  0
    0.8962   -5.5644   30.3618 O   0  0  0  0  0  0  0  0  0  0  0  0
   -4.4856  -10.5142   33.8095 C   0  0  2  0  0  0  0  0  0  0  0  0
   -4.2477   -9.2414   33.1308 O   0  0  0  0  0  0  0  0  0  0  0  0
   -3.1362   -6.0315   34.4787 C   0  0  2  0  0  0  0  0  0  0  0  0
   -3.2480   -6.1770   33.0666 O   0  0  0  0  0  0  0  0  0  0  0  0
    0.0108   -6.4899   32.3929 C   0  0  0  0  0  0  0  0  0  0  0  0
    0.7207   -5.5474   33.3204 O   0  0  0  0  0  0  0  0  0  0  0  0
   -3.4913  -11.5420   33.3230 C   0  0  0  0  0  0  0  0  0  0  0  0
   -3.6926  -11.8664   31.9352 N   0  0  0  0  0  0  0  0  0  0  0  0
   -1.6552   -5.6766   34.8565 C   0  0  1  0  0  0  0  0  0  0  0  0
   -1.2860   -4.4717   34.1968 O   0  0  0  0  0  0  0  0  0  0  0  0
   -1.0510   -6.7915   30.1415 C   0  0  0  0  0  0  0  0  0  0  0  0
   -2.5741   -2.7896   30.0593 C   0  0  0  0  0  0  0  0  0  0  0  0
  1  2  1  1  0  0  0
  1  6  1  0  0  0  0
  1 21  1  0  0  0  0
  3  4  1  6  0  0  0
  3  8  1  0  0  0  0
  3 28  1  0  0  0  0
  5  9  1  0  0  0  0
  5 25  1  0  0  0  0
  5 29  1  6  0  0  0
  6  7  1  1  0  0  0
  6 11  1  0  0  0  0
  8 12  1  0  0  0  0
  9 10  1  1  0  0  0
  9 14  1  0  0  0  0
 11 16  1  0  0  0  0
 12 13  1  1  0  0  0
 12 17  1  0  0  0  0
 14 15  1  6  0  0  0
 14 18  1  0  0  0  0
 15 31  1  0  0  0  0
 16 20  1  0  0  0  0
 17  2  1  1  0  0  0
 17 22  1  0  0  0  0
 18 19  1  6  0  0  0
 18 24  1  0  0  0  0
 18 30  1  0  0  0  0
 20 21  1  0  0  0  0
 20 26  1  6  0  0  0
 22 23  1  6  0  0  0
 22 28  1  0  0  0  0
 24 25  1  0  0  0  0
 26 27  1  0  0  0  0
 28 29  1  6  0  0  0
M  END
>  <CHROM.1>
176.85384109,141.43038232,-84.62519742,-170.44466832,60.77342937,99.06452292
-2.64359011,-6.73668828,33.49160279,2.93763927,0.86228454,1.45997119

>  <Name>
2et3_lig

>  <RI>
2.5794e+07

>  <Rbt.Current_Directory>
/home/itssahil/PROJECTS/Mol_Feturizer/New_Systems/rnas/2et3

>  <Rbt.Executable>
rbdock ($Id: //depot/dev/client3/rdock/2013.1/src/exe/rbdock.cxx#4 $)

>  <Rbt.Library>
libRbt.so (2013.1, Build901 2013/11/27)

>  <Rbt.Parameter_File>
/export/apps/rDock/src/rDock_2013.1_src/data/scripts/dock_solv.prm

>  <Rbt.Receptor>
prm/pocket_docking_5.prm

>  <SCORE>
-17.1915

>  <SCORE.INTER>
-10.9208

>  <SCORE.INTER.CONST>
1

>  <SCORE.INTER.POLAR>
-1.05327

>  <SCORE.INTER.ROT>
6

>  <SCORE.INTER.SOLV>
14.3104

>  <SCORE.INTER.VDW>
-16.1398

>  <SCORE.INTER.norm>
-0.352283

>  <SCORE.INTRA>
-6.27076

>  <SCORE.INTRA.DIHEDRAL>
-10.75

>  <SCORE.INTRA.DIHEDRAL.0>
22.2484

>  <SCORE.INTRA.POLAR>
0

>  <SCORE.INTRA.POLAR.0>
0

>  <SCORE.INTRA.REPUL>
0

>  <SCORE.INTRA.REPUL.0>
0

>  <SCORE.INTRA.SOLV>
-1.94948

>  <SCORE.INTRA.SOLV.lig_0>
-75.7198

>  <SCORE.INTRA.VDW>
0.0789968

>  <SCORE.INTRA.VDW.0>
-3.34171

>  <SCORE.INTRA.norm>
-0.202282

>  <SCORE.RESTR>
0

>  <SCORE.RESTR.CAVITY>
0

>  <SCORE.RESTR.norm>
0

>  <SCORE.SYSTEM>
0

>  <SCORE.SYSTEM.CONST>
0

>  <SCORE.SYSTEM.DIHEDRAL>
0

>  <SCORE.SYSTEM.SOLV>
0

>  <SCORE.SYSTEM.norm>
0

>  <SCORE.heavy>
31

>  <SCORE.norm>
-0.554566

>  <RMSD>
7.879

$$$$
2et3_lig
 OpenBabel11021811423D
libRbt.so/2013.1/901 2013/11/27
 31 33  0  0  0  0  0  0  0  0999 V2000
   -2.5153  -10.3223   33.9604 C   0  0  2  0  0  0  0  0  0  0  0  0
   -3.2572  -10.2270   32.7167 O   0  0  0  0  0  0  0  0  0  0  0  0
   -0.1303  -10.6058   29.8210 C   0  0  2  0  0  0  0  0  0  0  0  0
    0.5225  -10.9024   28.5834 N   0  0  0  0  0  0  0  0  0  0  0  0
    0.2406   -7.4739   29.8692 C   0  0  2  0  0  0  0  0  0  0  0  0
   -3.4361  -10.8293   35.0755 C   0  0  2  0  0  0  0  0  0  0  0  0
   -3.9978  -12.0807   34.6695 N   0  0  0  0  0  0  0  0  0  0  0  0
   -0.7598  -11.9114   30.4052 C   0  0  0  0  0  0  0  0  0  0  0  0
    0.4652   -6.2040   29.0191 C   0  0  2  0  0  0  0  0  0  0  0  0
   -0.7840   -5.6094   28.7468 O   0  0  0  0  0  0  0  0  0  0  0  0
   -4.5441   -9.7682   35.3943 C   0  0  0  0  0  0  0  0  0  0  0  0
   -1.4875  -11.5930   31.7624 C   0  0  2  0  0  0  0  0  0  0  0  0
   -2.0826  -12.8195   32.3165 N   0  0  0  0  0  0  0  0  0  0  0  0
    1.2159   -6.6315   27.6922 C   0  0  1  0  0  0  0  0  0  0  0  0
    1.4332   -5.4590   26.7828 N   0  0  0  0  0  0  0  0  0  0  0  0
   -3.8368   -8.4547   35.8536 C   0  0  0  0  0  0  0  0  0  0  0  0
   -2.5952  -10.4966   31.5224 C   0  0  2  0  0  0  0  0  0  0  0  0
    2.6353   -7.3249   28.0504 C   0  0  1  0  0  0  0  0  0  0  0  0
    3.4941   -6.4230   28.7171 O   0  0  0  0  0  0  0  0  0  0  0  0
   -2.8661   -7.9676   34.6895 C   0  0  2  0  0  0  0  0  0  0  0  0
   -1.9125   -9.0026   34.2935 O   0  0  0  0  0  0  0  0  0  0  0  0
   -1.9298   -9.1943   30.9316 C   0  0  2  0  0  0  0  0  0  0  0  0
   -2.9134   -8.1885   30.7105 O   0  0  0  0  0  0  0  0  0  0  0  0
    2.3860   -8.5339   29.0042 C   0  0  0  0  0  0  0  0  0  0  0  0
    1.5503   -8.1168   30.1791 O   0  0  0  0  0  0  0  0  0  0  0  0
   -2.1261   -6.6871   34.9971 C   0  0  0  0  0  0  0  0  0  0  0  0
   -0.9671   -6.9228   35.8174 N   0  0  0  0  0  0  0  0  0  0  0  0
   -1.2079   -9.5319   29.5799 C   0  0  1  0  0  0  0  0  0  0  0  0
   -0.6090   -8.3478   29.0675 O   0  0  0  0  0  0  0  0  0  0  0  0
    3.4853   -7.8126   26.8691 C   0  0  0  0  0  0  0  0  0  0  0  0
    1.5246   -5.7369   25.3397 C   0  0  0  0  0  0  0  0  0  0  0  0
  1  2  1  6  0  0  0
  1  6  1  0  0  0  0
  1 21  1  0  0  0  0
  3  4  1  6  0  0  0
  3  8  1  0  0  0  0
  3 28  1  0  0  0  0
  5  9  1  0  0  0  0
  5 25  1  0  0  0  0
  5 29  1  6  0  0  0
  6  7  1  6  0  0  0
  6 11  1  0  0  0  0
  8 12  1  0  0  0  0
  9 10  1  6  0  0  0
  9 14  1  0  0  0  0
 11 16  1  0  0  0  0
 12 13  1  6  0  0  0
 12 17  1  0  0  0  0
 14 15  1  6  0  0  0
 14 18  1  0  0  0  0
 15 31  1  0  0  0  0
 16 20  1  0  0  0  0
 17  2  1  1  0  0  0
 17 22  1  0  0  0  0
 18 19  1  1  0  0  0
 18 24  1  0  0  0  0
 18 30  1  0  0  0  0
 20 21  1  0  0  0  0
 20 26  1  1  0  0  0
 22 23  1  6  0  0  0
 22 28  1  0  0  0  0
 24 25  1  0  0  0  0
 26 27  1  0  0  0  0
 28 29  1  1  0  0  0
M  END
>  <CHROM.1>
-145.91034856,-170.22496491,-152.53146064,32.39907333,81.30902382,-70.51963697
-0.78932350,-8.71033925,31.01866207,-3.12387735,0.98433647,0.38889522

>  <Name>
2et3_lig

>  <RI>
0

>  <Rbt.Current_Directory>
/home/itssahil/PROJECTS/Mol_Feturizer/New_Systems/rnas/2et3

>  <Rbt.Executable>
rbdock ($Id: //depot/dev/client3/rdock/2013.1/src/exe/rbdock.cxx#4 $)

>  <Rbt.Library>
libRbt.so (2013.1, Build901 2013/11/27)

>  <Rbt.Parameter_File>
/export/apps/rDock/src/rDock_2013.1_src/data/scripts/dock_solv.prm

>  <Rbt.Receptor>
prm/pocket_docking_2.prm

>  <SCORE>
-17.3881

>  <SCORE.INTER>
-15.5057

>  <SCORE.INTER.CONST>
1

>  <SCORE.INTER.POLAR>
-1.30352

>  <SCORE.INTER.ROT>
6

>  <SCORE.INTER.SOLV>
20.6272

>  <SCORE.INTER.VDW>
-20.4678

>  <SCORE.INTER.norm>
-0.500184

>  <SCORE.INTRA>
-2.9064

>  <SCORE.INTRA.DIHEDRAL>
-11.6572

>  <SCORE.INTRA.DIHEDRAL.0>
22.2484

>  <SCORE.INTRA.POLAR>
0

>  <SCORE.INTRA.POLAR.0>
0

>  <SCORE.INTRA.REPUL>
0

>  <SCORE.INTRA.REPUL.0>
0

>  <SCORE.INTRA.SOLV>
1.94033

>  <SCORE.INTRA.SOLV.lig_0>
-75.7198

>  <SCORE.INTRA.VDW>
1.95206

>  <SCORE.INTRA.VDW.0>
-3.34171

>  <SCORE.INTRA.norm>
-0.0937547

>  <SCORE.RESTR>
1.02398

>  <SCORE.RESTR.CAVITY>
1.02398

>  <SCORE.RESTR.norm>
0.0330315

>  <SCORE.SYSTEM>
0

>  <SCORE.SYSTEM.CONST>
0

>  <SCORE.SYSTEM.DIHEDRAL>
0

>  <SCORE.SYSTEM.SOLV>
0

>  <SCORE.SYSTEM.norm>
0

>  <SCORE.heavy>
31

>  <SCORE.norm>
-0.560907

>  <RMSD>
7.894

$$$$
2et3_lig
 OpenBabel11021811423D
libRbt.so/2013.1/901 2013/11/27
 31 33  0  0  0  0  0  0  0  0999 V2000
   -0.1334  -15.2650   31.2063 C   0  0  2  0  0  0  0  0  0  0  0  0
   -1.2605  -14.6498   31.8826 O   0  0  0  0  0  0  0  0  0  0  0  0
   -1.7718  -10.5517   33.0007 C   0  0  2  0  0  0  0  0  0  0  0  0
   -1.5581   -9.3096   33.6769 N   0  0  0  0  0  0  0  0  0  0  0  0
   -1.0897   -9.5446   30.1928 C   0  0  2  0  0  0  0  0  0  0  0  0
   -0.6368  -16.3162   30.2113 C   0  0  2  0  0  0  0  0  0  0  0  0
   -1.5486  -15.6875   29.3061 N   0  0  0  0  0  0  0  0  0  0  0  0
   -2.1471  -11.6550   34.0419 C   0  0  0  0  0  0  0  0  0  0  0  0
   -0.1912   -9.0154   29.0533 C   0  0  2  0  0  0  0  0  0  0  0  0
    0.6940  -10.0389   28.6565 O   0  0  0  0  0  0  0  0  0  0  0  0
   -1.3017  -17.5142   30.9715 C   0  0  0  0  0  0  0  0  0  0  0  0
   -2.3755  -13.0270   33.3079 C   0  0  2  0  0  0  0  0  0  0  0  0
   -2.7288  -14.0697   34.2844 N   0  0  0  0  0  0  0  0  0  0  0  0
    0.5826   -7.7437   29.5926 C   0  0  1  0  0  0  0  0  0  0  0  0
    1.5182   -7.1916   28.5588 N   0  0  0  0  0  0  0  0  0  0  0  0
   -0.2257  -18.1493   31.9072 C   0  0  0  0  0  0  0  0  0  0  0  0
   -1.0711  -13.4252   32.5163 C   0  0  2  0  0  0  0  0  0  0  0  0
   -0.4696   -6.6016   30.0533 C   0  0  1  0  0  0  0  0  0  0  0  0
   -1.2530   -6.1557   28.9656 O   0  0  0  0  0  0  0  0  0  0  0  0
    0.2999  -17.0292   32.9090 C   0  0  2  0  0  0  0  0  0  0  0  0
    0.8013  -15.8488   32.2071 O   0  0  0  0  0  0  0  0  0  0  0  0
   -0.7178  -12.2928   31.4769 C   0  0  2  0  0  0  0  0  0  0  0  0
    0.4566  -12.6345   30.7475 O   0  0  0  0  0  0  0  0  0  0  0  0
   -1.4379   -7.2007   31.1197 C   0  0  0  0  0  0  0  0  0  0  0  0
   -2.0430   -8.4817   30.6241 O   0  0  0  0  0  0  0  0  0  0  0  0
    1.3407  -17.5162   33.8896 C   0  0  0  0  0  0  0  0  0  0  0  0
    2.6185  -17.7166   33.2581 N   0  0  0  0  0  0  0  0  0  0  0  0
   -0.4955  -10.9326   32.2269 C   0  0  1  0  0  0  0  0  0  0  0  0
   -0.1855   -9.9240   31.2730 O   0  0  0  0  0  0  0  0  0  0  0  0
    0.1215   -5.3025   30.6175 C   0  0  0  0  0  0  0  0  0  0  0  0
    2.8096   -7.8779   28.3876 C   0  0  0  0  0  0  0  0  0  0  0  0
  1  2  1  1  0  0  0
  1  6  1  0  0  0  0
  1 21  1  0  0  0  0
  3  4  1  1  0  0  0
  3  8  1  0  0  0  0
  3 28  1  0  0  0  0
  5  9  1  0  0  0  0
  5 25  1  0  0  0  0
  5 29  1  1  0  0  0
  6  7  1  6  0  0  0
  6 11  1  0  0  0  0
  8 12  1  0  0  0  0
  9 10  1  1  0  0  0
  9 14  1  0  0  0  0
 11 16  1  0  0  0  0
 12 13  1  1  0  0  0
 12 17  1  0  0  0  0
 14 15  1  6  0  0  0
 14 18  1  0  0  0  0
 15 31  1  0  0  0  0
 16 20  1  0  0  0  0
 17  2  1  6  0  0  0
 17 22  1  0  0  0  0
 18 19  1  6  0  0  0
 18 24  1  0  0  0  0
 18 30  1  0  0  0  0
 20 21  1  0  0  0  0
 20 26  1  6  0  0  0
 22 23  1  1  0  0  0
 22 28  1  0  0  0  0
 24 25  1  0  0  0  0
 26 27  1  0  0  0  0
 28 29  1  6  0  0  0
M  END
>  <CHROM.1>
-161.18470351,-152.47960806,-79.42437335,-173.94282174,74.03147615,-60.08448716
-0.41572382,-11.85745794,31.26706370,-1.56521654,0.87354856,-0.25810170

>  <Name>
2et3_lig

>  <RI>
0

>  <Rbt.Current_Directory>
/home/itssahil/PROJECTS/Mol_Feturizer/New_Systems/rnas/2et3

>  <Rbt.Executable>
rbdock ($Id: //depot/dev/client3/rdock/2013.1/src/exe/rbdock.cxx#4 $)

>  <Rbt.Library>
libRbt.so (2013.1, Build901 2013/11/27)

>  <Rbt.Parameter_File>
/export/apps/rDock/src/rDock_2013.1_src/data/scripts/dock_solv.prm

>  <Rbt.Receptor>
prm/blind_docking_100.prm

>  <SCORE>
-9.55395

>  <SCORE.INTER>
-4.16427

>  <SCORE.INTER.CONST>
1

>  <SCORE.INTER.POLAR>
-0.0625115

>  <SCORE.INTER.ROT>
6

>  <SCORE.INTER.SOLV>
21.7657

>  <SCORE.INTER.VDW>
-17.423

>  <SCORE.INTER.norm>
-0.134331

>  <SCORE.INTRA>
-7.7607

>  <SCORE.INTRA.DIHEDRAL>
-16.2123

>  <SCORE.INTRA.DIHEDRAL.0>
22.2484

>  <SCORE.INTRA.POLAR>
0

>  <SCORE.INTRA.POLAR.0>
0

>  <SCORE.INTRA.REPUL>
0

>  <SCORE.INTRA.REPUL.0>
0

>  <SCORE.INTRA.SOLV>
-0.893762

>  <SCORE.INTRA.SOLV.lig_0>
-75.7198

>  <SCORE.INTRA.VDW>
0.792351

>  <SCORE.INTRA.VDW.0>
-3.34171

>  <SCORE.INTRA.norm>
-0.250345

>  <SCORE.RESTR>
2.37102

>  <SCORE.RESTR.CAVITY>
2.37102

>  <SCORE.RESTR.norm>
0.0764847

>  <SCORE.SYSTEM>
0

>  <SCORE.SYSTEM.CONST>
0

>  <SCORE.SYSTEM.DIHEDRAL>
0

>  <SCORE.SYSTEM.SOLV>
0

>  <SCORE.SYSTEM.norm>
0

>  <SCORE.heavy>
31

>  <SCORE.norm>
-0.308192

>  <RMSD>
7.907

$$$$
2et3_lig
 OpenBabel11021811423D
libRbt.so/2013.1/901 2013/11/27
 31 33  0  0  0  0  0  0  0  0999 V2000
   -2.9463   -7.6829   34.9892 C   0  0  2  0  0  0  0  0  0  0  0  0
   -2.0046   -8.7782   34.8479 O   0  0  0  0  0  0  0  0  0  0  0  0
   -0.6788  -11.2529   31.6192 C   0  0  2  0  0  0  0  0  0  0  0  0
   -0.7175  -12.0077   30.4050 N   0  0  0  0  0  0  0  0  0  0  0  0
   -0.2661   -9.2143   28.9534 C   0  0  2  0  0  0  0  0  0  0  0  0
   -2.9897   -7.2220   36.4500 C   0  0  2  0  0  0  0  0  0  0  0  0
   -1.6647   -6.8677   36.8561 N   0  0  0  0  0  0  0  0  0  0  0  0
   -1.7005  -11.8515   32.6389 C   0  0  0  0  0  0  0  0  0  0  0  0
    0.8930   -8.3743   28.3732 C   0  0  2  0  0  0  0  0  0  0  0  0
    2.1160   -8.9946   28.7018 O   0  0  0  0  0  0  0  0  0  0  0  0
   -3.5986   -8.3436   37.3592 C   0  0  0  0  0  0  0  0  0  0  0  0
   -1.6710  -11.0219   33.9746 C   0  0  2  0  0  0  0  0  0  0  0  0
   -2.6321  -11.5816   34.9383 N   0  0  0  0  0  0  0  0  0  0  0  0
    0.7904   -6.9157   28.9806 C   0  0  1  0  0  0  0  0  0  0  0  0
    1.9121   -6.0425   28.5031 N   0  0  0  0  0  0  0  0  0  0  0  0
   -5.0473   -8.6381   36.8579 C   0  0  0  0  0  0  0  0  0  0  0  0
   -2.0079   -9.5127   33.6657 C   0  0  2  0  0  0  0  0  0  0  0  0
   -0.6340   -6.2476   28.5952 C   0  0  1  0  0  0  0  0  0  0  0  0
   -0.7726   -6.1039   27.1967 O   0  0  0  0  0  0  0  0  0  0  0  0
   -4.9746   -9.0857   35.3318 C   0  0  2  0  0  0  0  0  0  0  0  0
   -4.2877   -8.1011   34.4975 O   0  0  0  0  0  0  0  0  0  0  0  0
   -0.9622   -8.9388   32.6338 C   0  0  2  0  0  0  0  0  0  0  0  0
   -1.2462   -7.5740   32.3433 O   0  0  0  0  0  0  0  0  0  0  0  0
   -1.7843   -7.1770   29.0917 C   0  0  0  0  0  0  0  0  0  0  0  0
   -1.5732   -8.5829   28.6103 O   0  0  0  0  0  0  0  0  0  0  0  0
   -6.3153   -9.4205   34.7215 C   0  0  0  0  0  0  0  0  0  0  0  0
   -7.0214   -8.2391   34.3002 N   0  0  0  0  0  0  0  0  0  0  0  0
   -1.0049   -9.7796   31.3096 C   0  0  1  0  0  0  0  0  0  0  0  0
   -0.0511   -9.2516   30.3959 O   0  0  0  0  0  0  0  0  0  0  0  0
   -0.8997   -4.8310   29.1227 C   0  0  0  0  0  0  0  0  0  0  0  0
    3.2704   -6.6092   28.5501 C   0  0  0  0  0  0  0  0  0  0  0  0
  1  2  1  1  0  0  0
  1  6  1  0  0  0  0
  1 21  1  0  0  0  0
  3  4  1  6  0  0  0
  3  8  1  0  0  0  0
  3 28  1  0  0  0  0
  5  9  1  0  0  0  0
  5 25  1  0  0  0  0
  5 29  1  1  0  0  0
  6  7  1  1  0  0  0
  6 11  1  0  0  0  0
  8 12  1  0  0  0  0
  9 10  1  1  0  0  0
  9 14  1  0  0  0  0
 11 16  1  0  0  0  0
 12 13  1  1  0  0  0
 12 17  1  0  0  0  0
 14 15  1  6  0  0  0
 14 18  1  0  0  0  0
 15 31  1  0  0  0  0
 16 20  1  0  0  0  0
 17  2  1  1  0  0  0
 17 22  1  0  0  0  0
 18 19  1  6  0  0  0
 18 24  1  0  0  0  0
 18 30  1  0  0  0  0
 20 21  1  0  0  0  0
 20 26  1  6  0  0  0
 22 23  1  6  0  0  0
 22 28  1  0  0  0  0
 24 25  1  0  0  0  0
 26 27  1  0  0  0  0
 28 29  1  6  0  0  0
M  END
>  <CHROM.1>
167.48160767,171.29530326,-46.63807728,-145.38365771,81.53758745,94.92578420
-1.60828291,-8.49913381,32.04785223,2.71103645,-0.92349835,2.81548669

>  <Name>
2et3_lig

>  <RI>
0

>  <Rbt.Current_Directory>
/home/itssahil/PROJECTS/Mol_Feturizer/New_Systems/rnas/2et3

>  <Rbt.Executable>
rbdock ($Id: //depot/dev/client3/rdock/2013.1/src/exe/rbdock.cxx#4 $)

>  <Rbt.Library>
libRbt.so (2013.1, Build901 2013/11/27)

>  <Rbt.Parameter_File>
/export/apps/rDock/src/rDock_2013.1_src/data/scripts/dock_solv.prm

>  <Rbt.Receptor>
prm/pocket_docking_2.prm

>  <SCORE>
-10.2634

>  <SCORE.INTER>
-7.98364

>  <SCORE.INTER.CONST>
1

>  <SCORE.INTER.POLAR>
0

>  <SCORE.INTER.ROT>
6

>  <SCORE.INTER.SOLV>
16.7384

>  <SCORE.INTER.VDW>
-18.5019

>  <SCORE.INTER.norm>
-0.257537

>  <SCORE.INTRA>
-3.0196

>  <SCORE.INTRA.DIHEDRAL>
-10.3829

>  <SCORE.INTRA.DIHEDRAL.0>
22.2484

>  <SCORE.INTRA.POLAR>
0

>  <SCORE.INTRA.POLAR.0>
0

>  <SCORE.INTRA.REPUL>
0

>  <SCORE.INTRA.REPUL.0>
0

>  <SCORE.INTRA.SOLV>
-0.778143

>  <SCORE.INTRA.SOLV.lig_0>
-75.7198

>  <SCORE.INTRA.VDW>
2.56091

>  <SCORE.INTRA.VDW.0>
-3.34171

>  <SCORE.INTRA.norm>
-0.0974065

>  <SCORE.RESTR>
0.73989

>  <SCORE.RESTR.CAVITY>
0.73989

>  <SCORE.RESTR.norm>
0.0238674

>  <SCORE.SYSTEM>
0

>  <SCORE.SYSTEM.CONST>
0

>  <SCORE.SYSTEM.DIHEDRAL>
0

>  <SCORE.SYSTEM.SOLV>
0

>  <SCORE.SYSTEM.norm>
0

>  <SCORE.heavy>
31

>  <SCORE.norm>
-0.331076

>  <RMSD>
7.956

$$$$
2et3_lig
 OpenBabel11021811423D
libRbt.so/2013.1/901 2013/11/27
 31 33  0  0  0  0  0  0  0  0999 V2000
   -3.9459   -7.5877   35.2664 C   0  0  2  0  0  0  0  0  0  0  0  0
   -2.8517   -6.6702   35.5252 O   0  0  0  0  0  0  0  0  0  0  0  0
   -2.7907   -4.5269   31.8226 C   0  0  2  0  0  0  0  0  0  0  0  0
   -2.4627   -3.5197   30.8616 N   0  0  0  0  0  0  0  0  0  0  0  0
   -0.8805   -7.3006   30.9027 C   0  0  2  0  0  0  0  0  0  0  0  0
   -4.1103   -8.5455   36.4513 C   0  0  2  0  0  0  0  0  0  0  0  0
   -4.3062   -7.7725   37.6389 N   0  0  0  0  0  0  0  0  0  0  0  0
   -3.5029   -3.8676   33.0475 C   0  0  0  0  0  0  0  0  0  0  0  0
   -0.0376   -7.5287   29.6286 C   0  0  2  0  0  0  0  0  0  0  0  0
    1.2644   -7.0332   29.8471 O   0  0  0  0  0  0  0  0  0  0  0  0
   -2.8651   -9.4895   36.5681 C   0  0  0  0  0  0  0  0  0  0  0  0
   -3.8595   -4.9670   34.1138 C   0  0  2  0  0  0  0  0  0  0  0  0
   -4.5301   -4.3510   35.2699 N   0  0  0  0  0  0  0  0  0  0  0  0
   -0.7565   -6.7870   28.4286 C   0  0  1  0  0  0  0  0  0  0  0  0
    0.0247   -6.9189   27.1553 N   0  0  0  0  0  0  0  0  0  0  0  0
   -2.7532  -10.3072   35.2431 C   0  0  0  0  0  0  0  0  0  0  0  0
   -2.5442   -5.7106   34.5650 C   0  0  2  0  0  0  0  0  0  0  0  0
   -2.2525   -7.3731   28.2236 C   0  0  1  0  0  0  0  0  0  0  0  0
   -2.2251   -8.7434   27.8815 O   0  0  0  0  0  0  0  0  0  0  0  0
   -2.6132   -9.2878   34.0283 C   0  0  2  0  0  0  0  0  0  0  0  0
   -3.7054   -8.3167   33.9910 O   0  0  0  0  0  0  0  0  0  0  0  0
   -1.8487   -6.3625   33.3084 C   0  0  2  0  0  0  0  0  0  0  0  0
   -0.6591   -7.0433   33.6945 O   0  0  0  0  0  0  0  0  0  0  0  0
   -3.0421   -7.2351   29.5619 C   0  0  0  0  0  0  0  0  0  0  0  0
   -2.2616   -7.8260   30.6996 O   0  0  0  0  0  0  0  0  0  0  0  0
   -2.4777   -9.9508   32.6777 C   0  0  0  0  0  0  0  0  0  0  0  0
   -1.2880  -10.7566   32.5942 N   0  0  0  0  0  0  0  0  0  0  0  0
   -1.5023   -5.2514   32.2559 C   0  0  1  0  0  0  0  0  0  0  0  0
   -0.8832   -5.8594   31.1288 O   0  0  0  0  0  0  0  0  0  0  0  0
   -3.0938   -6.7471   27.1030 C   0  0  0  0  0  0  0  0  0  0  0  0
    1.0785   -5.9207   26.9080 C   0  0  0  0  0  0  0  0  0  0  0  0
  1  2  1  1  0  0  0
  1  6  1  0  0  0  0
  1 21  1  0  0  0  0
  3  4  1  6  0  0  0
  3  8  1  0  0  0  0
  3 28  1  0  0  0  0
  5  9  1  0  0  0  0
  5 25  1  0  0  0  0
  5 29  1  6  0  0  0
  6  7  1  1  0  0  0
  6 11  1  0  0  0  0
  8 12  1  0  0  0  0
  9 10  1  1  0  0  0
  9 14  1  0  0  0  0
 11 16  1  0  0  0  0
 12 13  1  1  0  0  0
 12 17  1  0  0  0  0
 14 15  1  6  0  0  0
 14 18  1  0  0  0  0
 15 31  1  0  0  0  0
 16 20  1  0  0  0  0
 17  2  1  1  0  0  0
 17 22  1  0  0  0  0
 18 19  1  6  0  0  0
 18 24  1  0  0  0  0
 18 30  1  0  0  0  0
 20 21  1  0  0  0  0
 20 26  1  6  0  0  0
 22 23  1  1  0  0  0
 22 28  1  0  0  0  0
 24 25  1  0  0  0  0
 26 27  1  0  0  0  0
 28 29  1  6  0  0  0
M  END
>  <CHROM.1>
-179.70982850,-176.67182226,-86.76496608,48.80705130,-62.30988122,-107.43332567
-2.15761532,-7.09577600,32.10929516,-2.63781411,1.18121176,-0.42228360

>  <Name>
2et3_lig

>  <RI>
0

>  <Rbt.Current_Directory>
/home/itssahil/PROJECTS/Mol_Feturizer/New_Systems/rnas/2et3

>  <Rbt.Executable>
rbdock ($Id: //depot/dev/client3/rdock/2013.1/src/exe/rbdock.cxx#4 $)

>  <Rbt.Library>
libRbt.so (2013.1, Build901 2013/11/27)

>  <Rbt.Parameter_File>
/export/apps/rDock/src/rDock_2013.1_src/data/scripts/dock_solv.prm

>  <Rbt.Receptor>
prm/pocket_docking_6.prm

>  <SCORE>
-17.6481

>  <SCORE.INTER>
-11.8887

>  <SCORE.INTER.CONST>
1

>  <SCORE.INTER.POLAR>
-1.70029

>  <SCORE.INTER.ROT>
6

>  <SCORE.INTER.SOLV>
11.4195

>  <SCORE.INTER.VDW>
-13.6646

>  <SCORE.INTER.norm>
-0.383506

>  <SCORE.INTRA>
-5.75941

>  <SCORE.INTRA.DIHEDRAL>
-14.4673

>  <SCORE.INTRA.DIHEDRAL.0>
22.2484

>  <SCORE.INTRA.POLAR>
0

>  <SCORE.INTRA.POLAR.0>
0

>  <SCORE.INTRA.REPUL>
0.0876673

>  <SCORE.INTRA.REPUL.0>
0

>  <SCORE.INTRA.SOLV>
-0.387163

>  <SCORE.INTRA.SOLV.lig_0>
-75.7198

>  <SCORE.INTRA.VDW>
1.22951

>  <SCORE.INTRA.VDW.0>
-3.34171

>  <SCORE.INTRA.norm>
-0.185787

>  <SCORE.RESTR>
0

>  <SCORE.RESTR.CAVITY>
0

>  <SCORE.RESTR.norm>
0

>  <SCORE.SYSTEM>
0

>  <SCORE.SYSTEM.CONST>
0

>  <SCORE.SYSTEM.DIHEDRAL>
0

>  <SCORE.SYSTEM.SOLV>
0

>  <SCORE.SYSTEM.norm>
0

>  <SCORE.heavy>
31

>  <SCORE.norm>
-0.569293

>  <RMSD>
7.972

$$$$
2et3_lig
 OpenBabel11021811423D
libRbt.so/2013.1/901 2013/11/27
 31 33  0  0  0  0  0  0  0  0999 V2000
   -3.2413   -7.9170   35.4401 C   0  0  2  0  0  0  0  0  0  0  0  0
   -4.1717   -8.6942   34.6424 O   0  0  0  0  0  0  0  0  0  0  0  0
   -1.4388  -10.8994   32.1981 C   0  0  2  0  0  0  0  0  0  0  0  0
   -0.9562  -11.7182   31.1293 N   0  0  0  0  0  0  0  0  0  0  0  0
   -0.6526   -9.2655   29.5287 C   0  0  2  0  0  0  0  0  0  0  0  0
   -3.3109   -8.3676   36.9031 C   0  0  2  0  0  0  0  0  0  0  0  0
   -3.0488   -9.7726   36.9606 N   0  0  0  0  0  0  0  0  0  0  0  0
   -2.4962  -11.6954   33.0290 C   0  0  0  0  0  0  0  0  0  0  0  0
    0.6726   -8.5156   29.2693 C   0  0  2  0  0  0  0  0  0  0  0  0
    1.6212   -8.9175   30.2322 O   0  0  0  0  0  0  0  0  0  0  0  0
   -4.7058   -8.0084   37.5200 C   0  0  0  0  0  0  0  0  0  0  0  0
   -3.0391  -10.7993   34.2017 C   0  0  2  0  0  0  0  0  0  0  0  0
   -4.0359  -11.5444   34.9872 N   0  0  0  0  0  0  0  0  0  0  0  0
    0.3772   -6.9619   29.3461 C   0  0  1  0  0  0  0  0  0  0  0  0
    1.6266   -6.1557   29.1511 N   0  0  0  0  0  0  0  0  0  0  0  0
   -4.8857   -6.4600   37.4380 C   0  0  0  0  0  0  0  0  0  0  0  0
   -3.6699   -9.4810   33.6097 C   0  0  2  0  0  0  0  0  0  0  0  0
   -0.7284   -6.5466   28.2376 C   0  0  1  0  0  0  0  0  0  0  0  0
   -0.2615   -6.7958   26.9278 O   0  0  0  0  0  0  0  0  0  0  0  0
   -4.7797   -6.0171   35.9125 C   0  0  2  0  0  0  0  0  0  0  0  0
   -3.5349   -6.4653   35.2905 O   0  0  0  0  0  0  0  0  0  0  0  0
   -2.5805   -8.7024   32.7761 C   0  0  2  0  0  0  0  0  0  0  0  0
   -3.1290   -7.5050   32.2347 O   0  0  0  0  0  0  0  0  0  0  0  0
   -2.0136   -7.4041   28.4530 C   0  0  0  0  0  0  0  0  0  0  0  0
   -1.6709   -8.8640   28.5155 O   0  0  0  0  0  0  0  0  0  0  0  0
   -4.9545   -4.5339   35.6860 C   0  0  0  0  0  0  0  0  0  0  0  0
   -4.8445   -4.1887   34.2929 N   0  0  0  0  0  0  0  0  0  0  0  0
   -2.0500   -9.6123   31.6129 C   0  0  1  0  0  0  0  0  0  0  0  0
   -1.0648   -8.8959   30.8784 O   0  0  0  0  0  0  0  0  0  0  0  0
   -1.1396   -5.0687   28.1896 C   0  0  0  0  0  0  0  0  0  0  0  0
    2.4106   -6.4173   27.9325 C   0  0  0  0  0  0  0  0  0  0  0  0
  1  2  1  6  0  0  0
  1  6  1  0  0  0  0
  1 21  1  0  0  0  0
  3  4  1  6  0  0  0
  3  8  1  0  0  0  0
  3 28  1  0  0  0  0
  5  9  1  0  0  0  0
  5 25  1  0  0  0  0
  5 29  1  1  0  0  0
  6  7  1  6  0  0  0
  6 11  1  0  0  0  0
  8 12  1  0  0  0  0
  9 10  1  1  0  0  0
  9 14  1  0  0  0  0
 11 16  1  0  0  0  0
 12 13  1  6  0  0  0
 12 17  1  0  0  0  0
 14 15  1  6  0  0  0
 14 18  1  0  0  0  0
 15 31  1  0  0  0  0
 16 20  1  0  0  0  0
 17  2  1  1  0  0  0
 17 22  1  0  0  0  0
 18 19  1  6  0  0  0
 18 24  1  0  0  0  0
 18 30  1  0  0  0  0
 20 21  1  0  0  0  0
 20 26  1  1  0  0  0
 22 23  1  6  0  0  0
 22 28  1  0  0  0  0
 24 25  1  0  0  0  0
 26 27  1  0  0  0  0
 28 29  1  1  0  0  0
M  END
>  <CHROM.1>
-118.68378277,-164.27338205,54.55280507,77.60415070,179.77871959,78.33549055
-2.10017356,-8.11146999,32.29234380,2.85341363,-1.01511639,2.85327452

>  <Name>
2et3_lig

>  <RI>
0

>  <Rbt.Current_Directory>
/home/itssahil/PROJECTS/Mol_Feturizer/New_Systems/rnas/2et3

>  <Rbt.Executable>
rbdock ($Id: //depot/dev/client3/rdock/2013.1/src/exe/rbdock.cxx#4 $)

>  <Rbt.Library>
libRbt.so (2013.1, Build901 2013/11/27)

>  <Rbt.Parameter_File>
/export/apps/rDock/src/rDock_2013.1_src/data/scripts/dock_solv.prm

>  <Rbt.Receptor>
prm/pocket_docking_3.prm

>  <SCORE>
-16.3433

>  <SCORE.INTER>
-13.7601

>  <SCORE.INTER.CONST>
1

>  <SCORE.INTER.POLAR>
-0.931255

>  <SCORE.INTER.ROT>
6

>  <SCORE.INTER.SOLV>
17.0908

>  <SCORE.INTER.VDW>
-19.3661

>  <SCORE.INTER.norm>
-0.443874

>  <SCORE.INTRA>
-2.58438

>  <SCORE.INTRA.DIHEDRAL>
-10.8363

>  <SCORE.INTRA.DIHEDRAL.0>
22.2484

>  <SCORE.INTRA.POLAR>
0

>  <SCORE.INTRA.POLAR.0>
0

>  <SCORE.INTRA.REPUL>
0

>  <SCORE.INTRA.REPUL.0>
0

>  <SCORE.INTRA.SOLV>
1.69303

>  <SCORE.INTRA.SOLV.lig_0>
-75.7198

>  <SCORE.INTRA.VDW>
1.98726

>  <SCORE.INTRA.VDW.0>
-3.34171

>  <SCORE.INTRA.norm>
-0.083367

>  <SCORE.RESTR>
0.00115824

>  <SCORE.RESTR.CAVITY>
0.00115824

>  <SCORE.RESTR.norm>
3.73626e-05

>  <SCORE.SYSTEM>
0

>  <SCORE.SYSTEM.CONST>
0

>  <SCORE.SYSTEM.DIHEDRAL>
0

>  <SCORE.SYSTEM.SOLV>
0

>  <SCORE.SYSTEM.norm>
0

>  <SCORE.heavy>
31

>  <SCORE.norm>
-0.527204

>  <RMSD>
8.035

$$$$
2et3_lig
 OpenBabel11021811423D
libRbt.so/2013.1/901 2013/11/27
 31 33  0  0  0  0  0  0  0  0999 V2000
   -2.7567   -7.5382   35.1014 C   0  0  2  0  0  0  0  0  0  0  0  0
   -1.9805   -8.7559   34.9565 O   0  0  0  0  0  0  0  0  0  0  0  0
   -0.7367  -11.0851   31.5899 C   0  0  2  0  0  0  0  0  0  0  0  0
   -0.8012  -11.7708   30.3364 N   0  0  0  0  0  0  0  0  0  0  0  0
   -0.1145   -9.2169   29.0279 C   0  0  2  0  0  0  0  0  0  0  0  0
   -2.8396   -7.1495   36.5814 C   0  0  2  0  0  0  0  0  0  0  0  0
   -1.5105   -7.0222   37.0947 N   0  0  0  0  0  0  0  0  0  0  0  0
   -1.7708  -11.7104   32.5808 C   0  0  0  0  0  0  0  0  0  0  0  0
    1.0304   -8.3568   28.4490 C   0  0  2  0  0  0  0  0  0  0  0  0
    2.2554   -8.8075   28.9826 O   0  0  0  0  0  0  0  0  0  0  0  0
   -3.6743   -8.2090   37.3790 C   0  0  0  0  0  0  0  0  0  0  0  0
   -1.7130  -10.9566   33.9597 C   0  0  2  0  0  0  0  0  0  0  0  0
   -2.6855  -11.5416   34.8965 N   0  0  0  0  0  0  0  0  0  0  0  0
    0.7442   -6.8458   28.8258 C   0  0  1  0  0  0  0  0  0  0  0  0
    1.8381   -5.9425   28.3396 N   0  0  0  0  0  0  0  0  0  0  0  0
   -5.1093   -8.2537   36.7664 C   0  0  0  0  0  0  0  0  0  0  0  0
   -2.0088   -9.4240   33.7359 C   0  0  2  0  0  0  0  0  0  0  0  0
   -0.6778   -6.3746   28.2096 C   0  0  1  0  0  0  0  0  0  0  0  0
   -0.6717   -6.4356   26.7983 O   0  0  0  0  0  0  0  0  0  0  0  0
   -4.9909   -8.6305   35.2240 C   0  0  2  0  0  0  0  0  0  0  0  0
   -4.1052   -7.7218   34.4980 O   0  0  0  0  0  0  0  0  0  0  0  0
   -0.9516   -8.8233   32.7312 C   0  0  2  0  0  0  0  0  0  0  0  0
   -1.1986   -7.4373   32.5176 O   0  0  0  0  0  0  0  0  0  0  0  0
   -1.7975   -7.3335   28.7198 C   0  0  0  0  0  0  0  0  0  0  0  0
   -1.4221   -8.7651   28.4702 O   0  0  0  0  0  0  0  0  0  0  0  0
   -6.3173   -8.7260   34.5076 C   0  0  0  0  0  0  0  0  0  0  0  0
   -7.1156   -9.8164   35.0029 N   0  0  0  0  0  0  0  0  0  0  0  0
   -1.0229   -9.5886   31.3632 C   0  0  1  0  0  0  0  0  0  0  0  0
   -0.0584   -9.0377   30.4747 O   0  0  0  0  0  0  0  0  0  0  0  0
   -1.1133   -4.9314   28.4978 C   0  0  0  0  0  0  0  0  0  0  0  0
    2.3216   -6.1539   26.9650 C   0  0  0  0  0  0  0  0  0  0  0  0
  1  2  1  1  0  0  0
  1  6  1  0  0  0  0
  1 21  1  0  0  0  0
  3  4  1  6  0  0  0
  3  8  1  0  0  0  0
  3 28  1  0  0  0  0
  5  9  1  0  0  0  0
  5 25  1  0  0  0  0
  5 29  1  1  0  0  0
  6  7  1  1  0  0  0
  6 11  1  0  0  0  0
  8 12  1  0  0  0  0
  9 10  1  1  0  0  0
  9 14  1  0  0  0  0
 11 16  1  0  0  0  0
 12 13  1  1  0  0  0
 12 17  1  0  0  0  0
 14 15  1  6  0  0  0
 14 18  1  0  0  0  0
 15 31  1  0  0  0  0
 16 20  1  0  0  0  0
 17  2  1  1  0  0  0
 17 22  1  0  0  0  0
 18 19  1  6  0  0  0
 18 24  1  0  0  0  0
 18 30  1  0  0  0  0
 20 21  1  0  0  0  0
 20 26  1  6  0  0  0
 22 23  1  6  0  0  0
 22 28  1  0  0  0  0
 24 25  1  0  0  0  0
 26 27  1  0  0  0  0
 28 29  1  6  0  0  0
M  END
>  <CHROM.1>
167.25665852,174.87863315,45.05296292,-153.56104386,-65.78643226,78.79310985
-1.62445264,-8.43858987,31.97273964,2.74996807,-0.98514727,2.87530149

>  <Name>
2et3_lig

>  <RI>
0

>  <Rbt.Current_Directory>
/home/itssahil/PROJECTS/Mol_Feturizer/New_Systems/rnas/2et3

>  <Rbt.Executable>
rbdock ($Id: //depot/dev/client3/rdock/2013.1/src/exe/rbdock.cxx#4 $)

>  <Rbt.Library>
libRbt.so (2013.1, Build901 2013/11/27)

>  <Rbt.Parameter_File>
/export/apps/rDock/src/rDock_2013.1_src/data/scripts/dock_solv.prm

>  <Rbt.Receptor>
prm/pocket_docking_2.prm

>  <SCORE>
-16.3465

>  <SCORE.INTER>
-9.25166

>  <SCORE.INTER.CONST>
1

>  <SCORE.INTER.POLAR>
0

>  <SCORE.INTER.ROT>
6

>  <SCORE.INTER.SOLV>
21.1387

>  <SCORE.INTER.VDW>
-20.814

>  <SCORE.INTER.norm>
-0.298441

>  <SCORE.INTRA>
-7.93713

>  <SCORE.INTRA.DIHEDRAL>
-16.3775

>  <SCORE.INTRA.DIHEDRAL.0>
22.2484

>  <SCORE.INTRA.POLAR>
0

>  <SCORE.INTRA.POLAR.0>
0

>  <SCORE.INTRA.REPUL>
0

>  <SCORE.INTRA.REPUL.0>
0

>  <SCORE.INTRA.SOLV>
-2.04064

>  <SCORE.INTRA.SOLV.lig_0>
-75.7198

>  <SCORE.INTRA.VDW>
1.27195

>  <SCORE.INTRA.VDW.0>
-3.34171

>  <SCORE.INTRA.norm>
-0.256036

>  <SCORE.RESTR>
0.842256

>  <SCORE.RESTR.CAVITY>
0.842256

>  <SCORE.RESTR.norm>
0.0271695

>  <SCORE.SYSTEM>
0

>  <SCORE.SYSTEM.CONST>
0

>  <SCORE.SYSTEM.DIHEDRAL>
0

>  <SCORE.SYSTEM.SOLV>
0

>  <SCORE.SYSTEM.norm>
0

>  <SCORE.heavy>
31

>  <SCORE.norm>
-0.527307

>  <RMSD>
8.048

$$$$
2et3_lig
 OpenBabel11021811423D
libRbt.so/2013.1/901 2013/11/27
 31 33  0  0  0  0  0  0  0  0999 V2000
    0.0846  -14.4340   31.9508 C   0  0  2  0  0  0  0  0  0  0  0  0
   -1.1560  -13.6809   31.9426 O   0  0  0  0  0  0  0  0  0  0  0  0
   -1.7348   -9.4476   31.7179 C   0  0  2  0  0  0  0  0  0  0  0  0
   -1.6879   -8.0664   32.0863 N   0  0  0  0  0  0  0  0  0  0  0  0
    0.2718   -9.5249   29.1612 C   0  0  2  0  0  0  0  0  0  0  0  0
    0.3374  -15.0315   30.5625 C   0  0  2  0  0  0  0  0  0  0  0  0
    0.3411  -13.9705   29.6031 N   0  0  0  0  0  0  0  0  0  0  0  0
   -2.5371  -10.2479   32.7939 C   0  0  0  0  0  0  0  0  0  0  0  0
    1.2850   -8.5960   28.4566 C   0  0  2  0  0  0  0  0  0  0  0  0
    2.5813   -8.8956   28.9238 O   0  0  0  0  0  0  0  0  0  0  0  0
   -0.7433  -16.1161   30.2291 C   0  0  0  0  0  0  0  0  0  0  0  0
   -2.5864  -11.7699   32.4013 C   0  0  2  0  0  0  0  0  0  0  0  0
   -3.3407  -12.5283   33.4121 N   0  0  0  0  0  0  0  0  0  0  0  0
    0.8764   -7.0993   28.7723 C   0  0  1  0  0  0  0  0  0  0  0  0
    1.8408   -6.1268   28.1614 N   0  0  0  0  0  0  0  0  0  0  0  0
   -0.6497  -17.2390   31.3094 C   0  0  0  0  0  0  0  0  0  0  0  0
   -1.1177  -12.3283   32.2686 C   0  0  2  0  0  0  0  0  0  0  0  0
   -0.6230   -6.8031   28.2359 C   0  0  1  0  0  0  0  0  0  0  0  0
   -0.7048   -6.9475   26.8331 O   0  0  0  0  0  0  0  0  0  0  0  0
   -0.8867  -16.5858   32.7418 C   0  0  2  0  0  0  0  0  0  0  0  0
    0.0345  -15.4820   33.0069 O   0  0  0  0  0  0  0  0  0  0  0  0
   -0.3344  -11.5000   31.1785 C   0  0  2  0  0  0  0  0  0  0  0  0
    0.9951  -11.9908   31.0398 O   0  0  0  0  0  0  0  0  0  0  0  0
   -1.6060   -7.8318   28.8756 C   0  0  0  0  0  0  0  0  0  0  0  0
   -1.1082   -9.2335   28.6759 O   0  0  0  0  0  0  0  0  0  0  0  0
   -0.8400  -17.5712   33.8858 C   0  0  0  0  0  0  0  0  0  0  0  0
    0.4027  -18.2968   33.9165 N   0  0  0  0  0  0  0  0  0  0  0  0
   -0.2973   -9.9852   31.5863 C   0  0  1  0  0  0  0  0  0  0  0  0
    0.4060   -9.2551   30.5886 O   0  0  0  0  0  0  0  0  0  0  0  0
   -1.1791   -5.3932   28.4778 C   0  0  0  0  0  0  0  0  0  0  0  0
    2.1355   -6.2851   26.7275 C   0  0  0  0  0  0  0  0  0  0  0  0
  1  2  1  6  0  0  0
  1  6  1  0  0  0  0
  1 21  1  0  0  0  0
  3  4  1  1  0  0  0
  3  8  1  0  0  0  0
  3 28  1  0  0  0  0
  5  9  1  0  0  0  0
  5 25  1  0  0  0  0
  5 29  1  1  0  0  0
  6  7  1  6  0  0  0
  6 11  1  0  0  0  0
  8 12  1  0  0  0  0
  9 10  1  1  0  0  0
  9 14  1  0  0  0  0
 11 16  1  0  0  0  0
 12 13  1  1  0  0  0
 12 17  1  0  0  0  0
 14 15  1  6  0  0  0
 14 18  1  0  0  0  0
 15 31  1  0  0  0  0
 16 20  1  0  0  0  0
 17  2  1  6  0  0  0
 17 22  1  0  0  0  0
 18 19  1  6  0  0  0
 18 24  1  0  0  0  0
 18 30  1  0  0  0  0
 20 21  1  0  0  0  0
 20 26  1  1  0  0  0
 22 23  1  1  0  0  0
 22 28  1  0  0  0  0
 24 25  1  0  0  0  0
 26 27  1  0  0  0  0
 28 29  1  6  0  0  0
M  END
>  <CHROM.1>
-120.92616141,-175.40005559,51.63526891,-171.73920024,56.44336896,-80.89978889
-0.35068940,-11.20924424,30.60242219,-1.68808990,0.74488955,-0.35191961

>  <Name>
2et3_lig

>  <RI>
0

>  <Rbt.Current_Directory>
/home/itssahil/PROJECTS/Mol_Feturizer/New_Systems/rnas/2et3

>  <Rbt.Executable>
rbdock ($Id: //depot/dev/client3/rdock/2013.1/src/exe/rbdock.cxx#4 $)

>  <Rbt.Library>
libRbt.so (2013.1, Build901 2013/11/27)

>  <Rbt.Parameter_File>
/export/apps/rDock/src/rDock_2013.1_src/data/scripts/dock_solv.prm

>  <Rbt.Receptor>
prm/blind_docking_100.prm

>  <SCORE>
-12.0543

>  <SCORE.INTER>
-10.6752

>  <SCORE.INTER.CONST>
1

>  <SCORE.INTER.POLAR>
-0.916515

>  <SCORE.INTER.ROT>
6

>  <SCORE.INTER.SOLV>
14.6259

>  <SCORE.INTER.VDW>
-16.537

>  <SCORE.INTER.norm>
-0.344361

>  <SCORE.INTRA>
-3.1531

>  <SCORE.INTRA.DIHEDRAL>
-12.49

>  <SCORE.INTRA.DIHEDRAL.0>
22.2484

>  <SCORE.INTRA.POLAR>
0

>  <SCORE.INTRA.POLAR.0>
0

>  <SCORE.INTRA.REPUL>
0

>  <SCORE.INTRA.REPUL.0>
0

>  <SCORE.INTRA.SOLV>
1.10482

>  <SCORE.INTRA.SOLV.lig_0>
-75.7198

>  <SCORE.INTRA.VDW>
2.53948

>  <SCORE.INTRA.VDW.0>
-3.34171

>  <SCORE.INTRA.norm>
-0.101713

>  <SCORE.RESTR>
1.774

>  <SCORE.RESTR.CAVITY>
1.774

>  <SCORE.RESTR.norm>
0.0572257

>  <SCORE.SYSTEM>
0

>  <SCORE.SYSTEM.CONST>
0

>  <SCORE.SYSTEM.DIHEDRAL>
0

>  <SCORE.SYSTEM.SOLV>
0

>  <SCORE.SYSTEM.norm>
0

>  <SCORE.heavy>
31

>  <SCORE.norm>
-0.388848

>  <RMSD>
8.153

$$$$
2et3_lig
 OpenBabel11021811423D
libRbt.so/2013.1/901 2013/11/27
 31 33  0  0  0  0  0  0  0  0999 V2000
   -4.1783   -7.2797   35.5820 C   0  0  2  0  0  0  0  0  0  0  0  0
   -3.0509   -6.3976   35.8207 O   0  0  0  0  0  0  0  0  0  0  0  0
   -3.0291   -4.2361   32.1283 C   0  0  2  0  0  0  0  0  0  0  0  0
   -2.6682   -3.2578   31.1494 N   0  0  0  0  0  0  0  0  0  0  0  0
    0.0477   -6.2413   31.1645 C   0  0  2  0  0  0  0  0  0  0  0  0
   -4.5158   -8.0480   36.8643 C   0  0  2  0  0  0  0  0  0  0  0  0
   -4.7643   -7.1038   37.9097 N   0  0  0  0  0  0  0  0  0  0  0  0
   -3.5851   -3.5203   33.4014 C   0  0  0  0  0  0  0  0  0  0  0  0
    0.3359   -6.2810   29.6476 C   0  0  2  0  0  0  0  0  0  0  0  0
    0.1985   -4.9797   29.1221 O   0  0  0  0  0  0  0  0  0  0  0  0
   -3.3550   -9.0341   37.2323 C   0  0  0  0  0  0  0  0  0  0  0  0
   -3.9766   -4.5885   34.4871 C   0  0  2  0  0  0  0  0  0  0  0  0
   -4.5005   -3.9192   35.6885 N   0  0  0  0  0  0  0  0  0  0  0  0
   -0.6829   -7.2950   28.9836 C   0  0  1  0  0  0  0  0  0  0  0  0
   -0.5022   -7.3591   27.4963 N   0  0  0  0  0  0  0  0  0  0  0  0
   -3.1805  -10.0374   36.0492 C   0  0  0  0  0  0  0  0  0  0  0  0
   -2.7151   -5.4647   34.8439 C   0  0  2  0  0  0  0  0  0  0  0  0
   -0.5039   -8.7706   29.6272 C   0  0  1  0  0  0  0  0  0  0  0  0
    0.7870   -9.2870   29.3774 O   0  0  0  0  0  0  0  0  0  0  0  0
   -2.8603   -9.2112   34.7266 C   0  0  2  0  0  0  0  0  0  0  0  0
   -3.8744   -8.1955   34.4484 O   0  0  0  0  0  0  0  0  0  0  0  0
   -2.1769   -6.1711   33.5404 C   0  0  2  0  0  0  0  0  0  0  0  0
   -1.0383   -6.9715   33.8412 O   0  0  0  0  0  0  0  0  0  0  0  0
   -0.6854   -8.6779   31.1738 C   0  0  0  0  0  0  0  0  0  0  0  0
    0.1963   -7.6067   31.7464 O   0  0  0  0  0  0  0  0  0  0  0  0
   -2.6492  -10.0665   33.4995 C   0  0  0  0  0  0  0  0  0  0  0  0
   -1.6200  -11.0516   33.7045 N   0  0  0  0  0  0  0  0  0  0  0  0
   -1.7936   -5.0904   32.4692 C   0  0  1  0  0  0  0  0  0  0  0  0
   -1.3181   -5.7467   31.3002 O   0  0  0  0  0  0  0  0  0  0  0  0
   -1.4323   -9.8732   29.1000 C   0  0  0  0  0  0  0  0  0  0  0  0
   -1.1068   -6.2782   26.6997 C   0  0  0  0  0  0  0  0  0  0  0  0
  1  2  1  1  0  0  0
  1  6  1  0  0  0  0
  1 21  1  0  0  0  0
  3  4  1  6  0  0  0
  3  8  1  0  0  0  0
  3 28  1  0  0  0  0
  5  9  1  0  0  0  0
  5 25  1  0  0  0  0
  5 29  1  6  0  0  0
  6  7  1  1  0  0  0
  6 11  1  0  0  0  0
  8 12  1  0  0  0  0
  9 10  1  6  0  0  0
  9 14  1  0  0  0  0
 11 16  1  0  0  0  0
 12 13  1  1  0  0  0
 12 17  1  0  0  0  0
 14 15  1  6  0  0  0
 14 18  1  0  0  0  0
 15 31  1  0  0  0  0
 16 20  1  0  0  0  0
 17  2  1  1  0  0  0
 17 22  1  0  0  0  0
 18 19  1  6  0  0  0
 18 24  1  0  0  0  0
 18 30  1  0  0  0  0
 20 21  1  0  0  0  0
 20 26  1  6  0  0  0
 22 23  1  1  0  0  0
 22 28  1  0  0  0  0
 24 25  1  0  0  0  0
 26 27  1  0  0  0  0
 28 29  1  6  0  0  0
M  END
>  <CHROM.1>
-170.38127336,-155.20333625,-79.86553018,54.19845939,-55.33618565,158.31734988
-2.03905061,-7.04747014,32.63833707,-2.78031065,1.08664670,-0.38436346

>  <Name>
2et3_lig

>  <RI>
3.50789e+07

>  <Rbt.Current_Directory>
/home/itssahil/PROJECTS/Mol_Feturizer/New_Systems/rnas/2et3

>  <Rbt.Executable>
rbdock ($Id: //depot/dev/client3/rdock/2013.1/src/exe/rbdock.cxx#4 $)

>  <Rbt.Library>
libRbt.so (2013.1, Build901 2013/11/27)

>  <Rbt.Parameter_File>
/export/apps/rDock/src/rDock_2013.1_src/data/scripts/dock_solv.prm

>  <Rbt.Receptor>
prm/pocket_docking_4.prm

>  <SCORE>
-15.89

>  <SCORE.INTER>
-7.86608

>  <SCORE.INTER.CONST>
1

>  <SCORE.INTER.POLAR>
-0.787205

>  <SCORE.INTER.ROT>
6

>  <SCORE.INTER.SOLV>
14.0727

>  <SCORE.INTER.VDW>
-14.9109

>  <SCORE.INTER.norm>
-0.253744

>  <SCORE.INTRA>
-8.02396

>  <SCORE.INTRA.DIHEDRAL>
-16.3808

>  <SCORE.INTRA.DIHEDRAL.0>
22.2484

>  <SCORE.INTRA.POLAR>
0

>  <SCORE.INTRA.POLAR.0>
0

>  <SCORE.INTRA.REPUL>
0

>  <SCORE.INTRA.REPUL.0>
0

>  <SCORE.INTRA.SOLV>
-0.713133

>  <SCORE.INTRA.SOLV.lig_0>
-75.7198

>  <SCORE.INTRA.VDW>
0.522986

>  <SCORE.INTRA.VDW.0>
-3.34171

>  <SCORE.INTRA.norm>
-0.258837

>  <SCORE.RESTR>
0

>  <SCORE.RESTR.CAVITY>
0

>  <SCORE.RESTR.norm>
0

>  <SCORE.SYSTEM>
0

>  <SCORE.SYSTEM.CONST>
0

>  <SCORE.SYSTEM.DIHEDRAL>
0

>  <SCORE.SYSTEM.SOLV>
0

>  <SCORE.SYSTEM.norm>
0

>  <SCORE.heavy>
31

>  <SCORE.norm>
-0.512582

>  <RMSD>
8.160

$$$$
2et3_lig
 OpenBabel11021811423D
libRbt.so/2013.1/901 2013/11/27
 31 33  0  0  0  0  0  0  0  0999 V2000
   -3.3490   -8.6772   35.7106 C   0  0  2  0  0  0  0  0  0  0  0  0
   -4.3566   -9.6994   35.4963 O   0  0  0  0  0  0  0  0  0  0  0  0
   -4.9750  -12.6867   32.4963 C   0  0  2  0  0  0  0  0  0  0  0  0
   -5.0406  -13.2955   31.2038 N   0  0  0  0  0  0  0  0  0  0  0  0
   -1.2040  -13.2205   32.8944 C   0  0  2  0  0  0  0  0  0  0  0  0
   -3.3808   -8.2164   37.1718 C   0  0  2  0  0  0  0  0  0  0  0  0
   -3.1980   -9.3580   38.0141 N   0  0  0  0  0  0  0  0  0  0  0  0
   -5.9689  -11.4822   32.5570 C   0  0  0  0  0  0  0  0  0  0  0  0
   -0.6795  -12.5518   31.6046 C   0  0  2  0  0  0  0  0  0  0  0  0
   -1.2941  -11.2908   31.4612 O   0  0  0  0  0  0  0  0  0  0  0  0
   -4.7244   -7.4719   37.4811 C   0  0  0  0  0  0  0  0  0  0  0  0
   -5.8971  -10.8008   33.9725 C   0  0  2  0  0  0  0  0  0  0  0  0
   -6.8311   -9.6653   34.0346 N   0  0  0  0  0  0  0  0  0  0  0  0
   -1.0106  -13.5102   30.3886 C   0  0  1  0  0  0  0  0  0  0  0  0
   -0.5747  -12.9122   29.0843 N   0  0  0  0  0  0  0  0  0  0  0  0
   -4.8179   -6.2322   36.5370 C   0  0  0  0  0  0  0  0  0  0  0  0
   -4.4209  -10.3229   34.2536 C   0  0  2  0  0  0  0  0  0  0  0  0
   -0.3012  -14.9508   30.6017 C   0  0  1  0  0  0  0  0  0  0  0  0
    1.1058  -14.8303   30.6382 O   0  0  0  0  0  0  0  0  0  0  0  0
   -4.7529   -6.7374   35.0286 C   0  0  2  0  0  0  0  0  0  0  0  0
   -3.5644   -7.5471   34.7659 O   0  0  0  0  0  0  0  0  0  0  0  0
   -3.4434  -11.5587   34.1833 C   0  0  2  0  0  0  0  0  0  0  0  0
   -2.1035  -11.1494   34.4382 O   0  0  0  0  0  0  0  0  0  0  0  0
   -0.7606  -15.5484   31.9675 C   0  0  0  0  0  0  0  0  0  0  0  0
   -0.5604  -14.5540   33.0739 O   0  0  0  0  0  0  0  0  0  0  0  0
   -4.8514   -5.6333   34.0024 C   0  0  0  0  0  0  0  0  0  0  0  0
   -3.7858   -4.6758   34.1427 N   0  0  0  0  0  0  0  0  0  0  0  0
   -3.5302  -12.2258   32.7657 C   0  0  1  0  0  0  0  0  0  0  0  0
   -2.6480  -13.3409   32.7248 O   0  0  0  0  0  0  0  0  0  0  0  0
   -0.5362  -16.0062   29.5125 C   0  0  0  0  0  0  0  0  0  0  0  0
   -1.5522  -12.0737   28.3705 C   0  0  0  0  0  0  0  0  0  0  0  0
  1  2  1  1  0  0  0
  1  6  1  0  0  0  0
  1 21  1  0  0  0  0
  3  4  1  6  0  0  0
  3  8  1  0  0  0  0
  3 28  1  0  0  0  0
  5  9  1  0  0  0  0
  5 25  1  0  0  0  0
  5 29  1  6  0  0  0
  6  7  1  1  0  0  0
  6 11  1  0  0  0  0
  8 12  1  0  0  0  0
  9 10  1  6  0  0  0
  9 14  1  0  0  0  0
 11 16  1  0  0  0  0
 12 13  1  6  0  0  0
 12 17  1  0  0  0  0
 14 15  1  6  0  0  0
 14 18  1  0  0  0  0
 15 31  1  0  0  0  0
 16 20  1  0  0  0  0
 17  2  1  1  0  0  0
 17 22  1  0  0  0  0
 18 19  1  1  0  0  0
 18 24  1  0  0  0  0
 18 30  1  0  0  0  0
 20 21  1  0  0  0  0
 20 26  1  6  0  0  0
 22 23  1  6  0  0  0
 22 28  1  0  0  0  0
 24 25  1  0  0  0  0
 26 27  1  0  0  0  0
 28 29  1  1  0  0  0
M  END
>  <CHROM.1>
-175.17582326,-71.56604245,-89.98234940,-151.77180464,59.86220548,177.72076822
-2.96088819,-11.06087674,33.22525493,-2.26358803,0.89373663,-1.93258237

>  <Name>
2et3_lig

>  <RI>
2.5794e+07

>  <Rbt.Current_Directory>
/home/itssahil/PROJECTS/Mol_Feturizer/New_Systems/rnas/2et3

>  <Rbt.Executable>
rbdock ($Id: //depot/dev/client3/rdock/2013.1/src/exe/rbdock.cxx#4 $)

>  <Rbt.Library>
libRbt.so (2013.1, Build901 2013/11/27)

>  <Rbt.Parameter_File>
/export/apps/rDock/src/rDock_2013.1_src/data/scripts/dock_solv.prm

>  <Rbt.Receptor>
prm/pocket_docking_5.prm

>  <SCORE>
-22.2928

>  <SCORE.INTER>
-13.415

>  <SCORE.INTER.CONST>
1

>  <SCORE.INTER.POLAR>
-0.881429

>  <SCORE.INTER.ROT>
6

>  <SCORE.INTER.SOLV>
16.2657

>  <SCORE.INTER.VDW>
-19.0272

>  <SCORE.INTER.norm>
-0.432743

>  <SCORE.INTRA>
-8.8778

>  <SCORE.INTRA.DIHEDRAL>
-17.4442

>  <SCORE.INTRA.DIHEDRAL.0>
22.2484

>  <SCORE.INTRA.POLAR>
0

>  <SCORE.INTRA.POLAR.0>
0

>  <SCORE.INTRA.REPUL>
0

>  <SCORE.INTRA.REPUL.0>
0

>  <SCORE.INTRA.SOLV>
-1.48614

>  <SCORE.INTRA.SOLV.lig_0>
-75.7198

>  <SCORE.INTRA.VDW>
0.587363

>  <SCORE.INTRA.VDW.0>
-3.34171

>  <SCORE.INTRA.norm>
-0.286381

>  <SCORE.RESTR>
0

>  <SCORE.RESTR.CAVITY>
0

>  <SCORE.RESTR.norm>
0

>  <SCORE.SYSTEM>
0

>  <SCORE.SYSTEM.CONST>
0

>  <SCORE.SYSTEM.DIHEDRAL>
0

>  <SCORE.SYSTEM.SOLV>
0

>  <SCORE.SYSTEM.norm>
0

>  <SCORE.heavy>
31

>  <SCORE.norm>
-0.719124

>  <RMSD>
8.161

$$$$
2et3_lig
 OpenBabel11021811423D
libRbt.so/2013.1/901 2013/11/27
 31 33  0  0  0  0  0  0  0  0999 V2000
   -2.8632   -7.8223   34.5348 C   0  0  2  0  0  0  0  0  0  0  0  0
   -2.0145   -8.9326   34.1435 O   0  0  0  0  0  0  0  0  0  0  0  0
   -0.8303  -10.2778   30.2584 C   0  0  2  0  0  0  0  0  0  0  0  0
   -0.9369  -10.7655   28.9181 N   0  0  0  0  0  0  0  0  0  0  0  0
    0.0555   -7.0174   29.8896 C   0  0  2  0  0  0  0  0  0  0  0  0
   -2.4245   -7.2922   35.9041 C   0  0  2  0  0  0  0  0  0  0  0  0
   -1.0419   -6.9326   35.8324 N   0  0  0  0  0  0  0  0  0  0  0  0
   -1.4529  -11.3187   31.2437 C   0  0  0  0  0  0  0  0  0  0  0  0
    0.3513   -6.1477   28.6479 C   0  0  2  0  0  0  0  0  0  0  0  0
   -0.8403   -5.5137   28.2396 O   0  0  0  0  0  0  0  0  0  0  0  0
   -2.6923   -8.3630   37.0163 C   0  0  0  0  0  0  0  0  0  0  0  0
   -1.3479  -10.7866   32.7198 C   0  0  2  0  0  0  0  0  0  0  0  0
   -1.9335  -11.7633   33.6519 N   0  0  0  0  0  0  0  0  0  0  0  0
    0.9330   -7.0921   27.5180 C   0  0  1  0  0  0  0  0  0  0  0  0
    1.2053   -6.3321   26.2542 N   0  0  0  0  0  0  0  0  0  0  0  0
   -4.2234   -8.6661   37.0361 C   0  0  0  0  0  0  0  0  0  0  0  0
   -2.0857   -9.3976   32.8336 C   0  0  2  0  0  0  0  0  0  0  0  0
    2.2888   -7.8128   28.0337 C   0  0  1  0  0  0  0  0  0  0  0  0
    3.2986   -6.8661   28.3160 O   0  0  0  0  0  0  0  0  0  0  0  0
   -4.6562   -9.1863   35.5950 C   0  0  2  0  0  0  0  0  0  0  0  0
   -4.2893   -8.2495   34.5344 O   0  0  0  0  0  0  0  0  0  0  0  0
   -1.4370   -8.3711   31.8270 C   0  0  2  0  0  0  0  0  0  0  0  0
   -2.0869   -7.1072   31.9162 O   0  0  0  0  0  0  0  0  0  0  0  0
    1.9844   -8.5877   29.3530 C   0  0  0  0  0  0  0  0  0  0  0  0
    1.3045   -7.6922   30.3472 O   0  0  0  0  0  0  0  0  0  0  0  0
   -6.1212   -9.5359   35.4785 C   0  0  0  0  0  0  0  0  0  0  0  0
   -6.4596   -9.9883   34.1546 N   0  0  0  0  0  0  0  0  0  0  0  0
   -1.5496   -8.9196   30.3612 C   0  0  1  0  0  0  0  0  0  0  0  0
   -0.9534   -7.9844   29.4707 O   0  0  0  0  0  0  0  0  0  0  0  0
    2.9743   -8.7782   27.0571 C   0  0  0  0  0  0  0  0  0  0  0  0
    0.0446   -5.9805   25.4192 C   0  0  0  0  0  0  0  0  0  0  0  0
  1  2  1  1  0  0  0
  1  6  1  0  0  0  0
  1 21  1  0  0  0  0
  3  4  1  6  0  0  0
  3  8  1  0  0  0  0
  3 28  1  0  0  0  0
  5  9  1  0  0  0  0
  5 25  1  0  0  0  0
  5 29  1  6  0  0  0
  6  7  1  6  0  0  0
  6 11  1  0  0  0  0
  8 12  1  0  0  0  0
  9 10  1  6  0  0  0
  9 14  1  0  0  0  0
 11 16  1  0  0  0  0
 12 13  1  1  0  0  0
 12 17  1  0  0  0  0
 14 15  1  6  0  0  0
 14 18  1  0  0  0  0
 15 31  1  0  0  0  0
 16 20  1  0  0  0  0
 17  2  1  1  0  0  0
 17 22  1  0  0  0  0
 18 19  1  1  0  0  0
 18 24  1  0  0  0  0
 18 30  1  0  0  0  0
 20 21  1  0  0  0  0
 20 26  1  1  0  0  0
 22 23  1  6  0  0  0
 22 28  1  0  0  0  0
 24 25  1  0  0  0  0
 26 27  1  0  0  0  0
 28 29  1  6  0  0  0
M  END
>  <CHROM.1>
-168.40667793,-176.17582322,-76.45308362,-167.03737682,179.48467280,-96.84883177
-1.20386523,-8.33946987,31.46765511,-2.98189575,-0.98569331,-2.73330245

>  <Name>
2et3_lig

>  <RI>
0

>  <Rbt.Current_Directory>
/home/itssahil/PROJECTS/Mol_Feturizer/New_Systems/rnas/2et3

>  <Rbt.Executable>
rbdock ($Id: //depot/dev/client3/rdock/2013.1/src/exe/rbdock.cxx#4 $)

>  <Rbt.Library>
libRbt.so (2013.1, Build901 2013/11/27)

>  <Rbt.Parameter_File>
/export/apps/rDock/src/rDock_2013.1_src/data/scripts/dock_solv.prm

>  <Rbt.Receptor>
prm/pocket_docking_2.prm

>  <SCORE>
-25.0815

>  <SCORE.INTER>
-17.6156

>  <SCORE.INTER.CONST>
1

>  <SCORE.INTER.POLAR>
-1.49018

>  <SCORE.INTER.ROT>
6

>  <SCORE.INTER.SOLV>
17.0585

>  <SCORE.INTER.VDW>
-20.0626

>  <SCORE.INTER.norm>
-0.568245

>  <SCORE.INTRA>
-7.71322

>  <SCORE.INTRA.DIHEDRAL>
-15.504

>  <SCORE.INTRA.DIHEDRAL.0>
22.2484

>  <SCORE.INTRA.POLAR>
0

>  <SCORE.INTRA.POLAR.0>
0

>  <SCORE.INTRA.REPUL>
0

>  <SCORE.INTRA.REPUL.0>
0

>  <SCORE.INTRA.SOLV>
-2.49734

>  <SCORE.INTRA.SOLV.lig_0>
-75.7198

>  <SCORE.INTRA.VDW>
1.28748

>  <SCORE.INTRA.VDW.0>
-3.34171

>  <SCORE.INTRA.norm>
-0.248813

>  <SCORE.RESTR>
0.247249

>  <SCORE.RESTR.CAVITY>
0.247249

>  <SCORE.RESTR.norm>
0.00797579

>  <SCORE.SYSTEM>
0

>  <SCORE.SYSTEM.CONST>
0

>  <SCORE.SYSTEM.DIHEDRAL>
0

>  <SCORE.SYSTEM.SOLV>
0

>  <SCORE.SYSTEM.norm>
0

>  <SCORE.heavy>
31

>  <SCORE.norm>
-0.809082

>  <RMSD>
8.188

$$$$
2et3_lig
 OpenBabel11021811423D
libRbt.so/2013.1/901 2013/11/27
 31 33  0  0  0  0  0  0  0  0999 V2000
   -2.8247   -7.7652   34.5543 C   0  0  2  0  0  0  0  0  0  0  0  0
   -1.9746   -8.8580   34.1193 O   0  0  0  0  0  0  0  0  0  0  0  0
   -0.9833  -10.3540   30.2353 C   0  0  2  0  0  0  0  0  0  0  0  0
   -1.1565  -10.8471   28.9039 N   0  0  0  0  0  0  0  0  0  0  0  0
    0.0658   -7.0701   29.8342 C   0  0  2  0  0  0  0  0  0  0  0  0
   -2.3742   -7.2761   35.9349 C   0  0  2  0  0  0  0  0  0  0  0  0
   -0.9942   -6.9069   35.8601 N   0  0  0  0  0  0  0  0  0  0  0  0
   -1.6805  -11.3218   31.2451 C   0  0  0  0  0  0  0  0  0  0  0  0
    0.3437   -6.2020   28.5873 C   0  0  2  0  0  0  0  0  0  0  0  0
   -0.8632   -5.6058   28.1672 O   0  0  0  0  0  0  0  0  0  0  0  0
   -2.6245   -8.3828   37.0156 C   0  0  0  0  0  0  0  0  0  0  0  0
   -1.5026  -10.7826   32.7117 C   0  0  2  0  0  0  0  0  0  0  0  0
   -2.1579  -11.6904   33.6667 N   0  0  0  0  0  0  0  0  0  0  0  0
    0.9591   -7.1379   27.4682 C   0  0  1  0  0  0  0  0  0  0  0  0
    1.2168   -6.3802   26.2001 N   0  0  0  0  0  0  0  0  0  0  0  0
   -4.1538   -8.6947   37.0420 C   0  0  0  0  0  0  0  0  0  0  0  0
   -2.1099   -9.3312   32.8174 C   0  0  2  0  0  0  0  0  0  0  0  0
    2.3321   -7.8152   27.9974 C   0  0  1  0  0  0  0  0  0  0  0  0
    3.3124   -6.8376   28.2778 O   0  0  0  0  0  0  0  0  0  0  0  0
   -4.5993   -9.1717   35.5898 C   0  0  2  0  0  0  0  0  0  0  0  0
   -4.2485   -8.2000   34.5554 O   0  0  0  0  0  0  0  0  0  0  0  0
   -1.3884   -8.3805   31.7862 C   0  0  2  0  0  0  0  0  0  0  0  0
   -1.9199   -7.0619   31.8678 O   0  0  0  0  0  0  0  0  0  0  0  0
    2.0423   -8.5882   29.3210 C   0  0  0  0  0  0  0  0  0  0  0  0
    1.3310   -7.7050   30.3042 O   0  0  0  0  0  0  0  0  0  0  0  0
   -6.0636   -9.5254   35.4777 C   0  0  0  0  0  0  0  0  0  0  0  0
   -6.4006   -9.9974   34.1603 N   0  0  0  0  0  0  0  0  0  0  0  0
   -1.5752   -8.9351   30.3303 C   0  0  1  0  0  0  0  0  0  0  0  0
   -0.9123   -8.0691   29.4172 O   0  0  0  0  0  0  0  0  0  0  0  0
    3.0508   -8.7680   27.0324 C   0  0  0  0  0  0  0  0  0  0  0  0
    0.0441   -6.0030   25.3935 C   0  0  0  0  0  0  0  0  0  0  0  0
  1  2  1  1  0  0  0
  1  6  1  0  0  0  0
  1 21  1  0  0  0  0
  3  4  1  6  0  0  0
  3  8  1  0  0  0  0
  3 28  1  0  0  0  0
  5  9  1  0  0  0  0
  5 25  1  0  0  0  0
  5 29  1  6  0  0  0
  6  7  1  6  0  0  0
  6 11  1  0  0  0  0
  8 12  1  0  0  0  0
  9 10  1  6  0  0  0
  9 14  1  0  0  0  0
 11 16  1  0  0  0  0
 12 13  1  1  0  0  0
 12 17  1  0  0  0  0
 14 15  1  6  0  0  0
 14 18  1  0  0  0  0
 15 31  1  0  0  0  0
 16 20  1  0  0  0  0
 17  2  1  1  0  0  0
 17 22  1  0  0  0  0
 18 19  1  1  0  0  0
 18 24  1  0  0  0  0
 18 30  1  0  0  0  0
 20 21  1  0  0  0  0
 20 26  1  1  0  0  0
 22 23  1  6  0  0  0
 22 28  1  0  0  0  0
 24 25  1  0  0  0  0
 26 27  1  0  0  0  0
 28 29  1  6  0  0  0
M  END
>  <CHROM.1>
-171.92935526,-170.39443956,-73.11810218,-160.11783791,-177.80153348,-105.01534499
-1.20248246,-8.34512082,31.44684406,-2.71308320,-0.93286180,-2.41026954

>  <Name>
2et3_lig

>  <RI>
0

>  <Rbt.Current_Directory>
/home/itssahil/PROJECTS/Mol_Feturizer/New_Systems/rnas/2et3

>  <Rbt.Executable>
rbdock ($Id: //depot/dev/client3/rdock/2013.1/src/exe/rbdock.cxx#4 $)

>  <Rbt.Library>
libRbt.so (2013.1, Build901 2013/11/27)

>  <Rbt.Parameter_File>
/export/apps/rDock/src/rDock_2013.1_src/data/scripts/dock_solv.prm

>  <Rbt.Receptor>
prm/pocket_docking_2.prm

>  <SCORE>
-23.9154

>  <SCORE.INTER>
-17.7102

>  <SCORE.INTER.CONST>
1

>  <SCORE.INTER.POLAR>
-1.50183

>  <SCORE.INTER.ROT>
6

>  <SCORE.INTER.SOLV>
16.2393

>  <SCORE.INTER.VDW>
-19.8138

>  <SCORE.INTER.norm>
-0.571298

>  <SCORE.INTRA>
-6.4183

>  <SCORE.INTRA.DIHEDRAL>
-13.2387

>  <SCORE.INTRA.DIHEDRAL.0>
22.2484

>  <SCORE.INTRA.POLAR>
0

>  <SCORE.INTRA.POLAR.0>
0

>  <SCORE.INTRA.REPUL>
0

>  <SCORE.INTRA.REPUL.0>
0

>  <SCORE.INTRA.SOLV>
-2.75583

>  <SCORE.INTRA.SOLV.lig_0>
-75.7198

>  <SCORE.INTRA.VDW>
1.57895

>  <SCORE.INTRA.VDW.0>
-3.34171

>  <SCORE.INTRA.norm>
-0.207042

>  <SCORE.RESTR>
0.213112

>  <SCORE.RESTR.CAVITY>
0.213112

>  <SCORE.RESTR.norm>
0.00687458

>  <SCORE.SYSTEM>
0

>  <SCORE.SYSTEM.CONST>
0

>  <SCORE.SYSTEM.DIHEDRAL>
0

>  <SCORE.SYSTEM.SOLV>
0

>  <SCORE.SYSTEM.norm>
0

>  <SCORE.heavy>
31

>  <SCORE.norm>
-0.771465

>  <RMSD>
8.197

$$$$
2et3_lig
 OpenBabel11021811423D
libRbt.so/2013.1/901 2013/11/27
 31 33  0  0  0  0  0  0  0  0999 V2000
   -5.6273   -4.9432   34.9895 C   0  0  2  0  0  0  0  0  0  0  0  0
   -4.4512   -4.1581   34.6632 O   0  0  0  0  0  0  0  0  0  0  0  0
   -0.4265   -5.2288   33.6823 C   0  0  2  0  0  0  0  0  0  0  0  0
    0.8491   -5.8700   33.7674 N   0  0  0  0  0  0  0  0  0  0  0  0
   -0.2075   -8.0155   32.1808 C   0  0  2  0  0  0  0  0  0  0  0  0
   -6.4891   -4.1873   36.0066 C   0  0  2  0  0  0  0  0  0  0  0  0
   -6.8140   -2.9040   35.4647 N   0  0  0  0  0  0  0  0  0  0  0  0
   -0.6737   -4.3847   34.9740 C   0  0  0  0  0  0  0  0  0  0  0  0
   -0.2488   -8.4983   30.7142 C   0  0  2  0  0  0  0  0  0  0  0  0
   -0.0558   -7.3908   29.8629 O   0  0  0  0  0  0  0  0  0  0  0  0
   -5.7397   -4.0693   37.3776 C   0  0  0  0  0  0  0  0  0  0  0  0
   -2.0785   -3.6826   34.8930 C   0  0  2  0  0  0  0  0  0  0  0  0
   -2.3163   -2.8866   36.1077 N   0  0  0  0  0  0  0  0  0  0  0  0
   -1.6501   -9.1931   30.4683 C   0  0  1  0  0  0  0  0  0  0  0  0
   -1.7931   -9.6520   29.0478 N   0  0  0  0  0  0  0  0  0  0  0  0
   -5.4566   -5.5132   37.8990 C   0  0  0  0  0  0  0  0  0  0  0  0
   -3.2035   -4.7729   34.7134 C   0  0  2  0  0  0  0  0  0  0  0  0
   -1.8382  -10.4466   31.4768 C   0  0  1  0  0  0  0  0  0  0  0  0
   -0.8596  -11.4398   31.2501 O   0  0  0  0  0  0  0  0  0  0  0  0
   -4.5860   -6.2836   36.8112 C   0  0  2  0  0  0  0  0  0  0  0  0
   -5.2187   -6.2831   35.4933 O   0  0  0  0  0  0  0  0  0  0  0  0
   -2.9252   -5.6082   33.4047 C   0  0  2  0  0  0  0  0  0  0  0  0
   -3.9328   -6.5975   33.2212 O   0  0  0  0  0  0  0  0  0  0  0  0
   -1.6752   -9.9481   32.9459 C   0  0  0  0  0  0  0  0  0  0  0  0
   -0.4000   -9.1722   33.1026 O   0  0  0  0  0  0  0  0  0  0  0  0
   -4.2228   -7.6976   37.1989 C   0  0  0  0  0  0  0  0  0  0  0  0
   -5.3064   -8.6138   36.9575 N   0  0  0  0  0  0  0  0  0  0  0  0
   -1.5198   -6.2990   33.5032 C   0  0  1  0  0  0  0  0  0  0  0  0
   -1.2847   -7.0405   32.3123 O   0  0  0  0  0  0  0  0  0  0  0  0
   -3.1581  -11.2235   31.3770 C   0  0  0  0  0  0  0  0  0  0  0  0
   -2.8911   -9.0664   28.2607 C   0  0  0  0  0  0  0  0  0  0  0  0
  1  2  1  1  0  0  0
  1  6  1  0  0  0  0
  1 21  1  0  0  0  0
  3  4  1  1  0  0  0
  3  8  1  0  0  0  0
  3 28  1  0  0  0  0
  5  9  1  0  0  0  0
  5 25  1  0  0  0  0
  5 29  1  6  0  0  0
  6  7  1  6  0  0  0
  6 11  1  0  0  0  0
  8 12  1  0  0  0  0
  9 10  1  6  0  0  0
  9 14  1  0  0  0  0
 11 16  1  0  0  0  0
 12 13  1  1  0  0  0
 12 17  1  0  0  0  0
 14 15  1  6  0  0  0
 14 18  1  0  0  0  0
 15 31  1  0  0  0  0
 16 20  1  0  0  0  0
 17  2  1  6  0  0  0
 17 22  1  0  0  0  0
 18 19  1  6  0  0  0
 18 24  1  0  0  0  0
 18 30  1  0  0  0  0
 20 21  1  0  0  0  0
 20 26  1  1  0  0  0
 22 23  1  1  0  0  0
 22 28  1  0  0  0  0
 24 25  1  0  0  0  0
 26 27  1  0  0  0  0
 28 29  1  6  0  0  0
M  END
>  <CHROM.1>
130.45846781,-175.84900522,-119.00829461,-157.76107462,80.40700249,72.55730961
-2.77512798,-6.84631464,33.64530570,2.14457908,0.58350647,0.51556658

>  <Name>
2et3_lig

>  <RI>
2.5794e+07

>  <Rbt.Current_Directory>
/home/itssahil/PROJECTS/Mol_Feturizer/New_Systems/rnas/2et3

>  <Rbt.Executable>
rbdock ($Id: //depot/dev/client3/rdock/2013.1/src/exe/rbdock.cxx#4 $)

>  <Rbt.Library>
libRbt.so (2013.1, Build901 2013/11/27)

>  <Rbt.Parameter_File>
/export/apps/rDock/src/rDock_2013.1_src/data/scripts/dock_solv.prm

>  <Rbt.Receptor>
prm/pocket_docking_5.prm

>  <SCORE>
-10.8968

>  <SCORE.INTER>
-6.11914

>  <SCORE.INTER.CONST>
1

>  <SCORE.INTER.POLAR>
-1.12281

>  <SCORE.INTER.ROT>
6

>  <SCORE.INTER.SOLV>
15.0571

>  <SCORE.INTER.VDW>
-12.9558

>  <SCORE.INTER.norm>
-0.197392

>  <SCORE.INTRA>
-4.78537

>  <SCORE.INTRA.DIHEDRAL>
-9.93602

>  <SCORE.INTRA.DIHEDRAL.0>
22.2484

>  <SCORE.INTRA.POLAR>
0

>  <SCORE.INTRA.POLAR.0>
0

>  <SCORE.INTRA.REPUL>
0

>  <SCORE.INTRA.REPUL.0>
0

>  <SCORE.INTRA.SOLV>
-0.94144

>  <SCORE.INTRA.SOLV.lig_0>
-75.7198

>  <SCORE.INTRA.VDW>
0.653362

>  <SCORE.INTRA.VDW.0>
-3.34171

>  <SCORE.INTRA.norm>
-0.154367

>  <SCORE.RESTR>
0.00768426

>  <SCORE.RESTR.CAVITY>
0.00768426

>  <SCORE.RESTR.norm>
0.000247879

>  <SCORE.SYSTEM>
0

>  <SCORE.SYSTEM.CONST>
0

>  <SCORE.SYSTEM.DIHEDRAL>
0

>  <SCORE.SYSTEM.SOLV>
0

>  <SCORE.SYSTEM.norm>
0

>  <SCORE.heavy>
31

>  <SCORE.norm>
-0.35151

>  <RMSD>
8.218

$$$$
2et3_lig
 OpenBabel11021811423D
libRbt.so/2013.1/901 2013/11/27
 31 33  0  0  0  0  0  0  0  0999 V2000
    6.3599   -8.3135   23.3794 C   0  0  2  0  0  0  0  0  0  0  0  0
    6.6038   -7.9567   24.7648 O   0  0  0  0  0  0  0  0  0  0  0  0
    3.1089   -9.6284   26.5806 C   0  0  2  0  0  0  0  0  0  0  0  0
    2.2092  -10.0719   27.6002 N   0  0  0  0  0  0  0  0  0  0  0  0
    1.9777   -5.9956   26.9442 C   0  0  2  0  0  0  0  0  0  0  0  0
    7.5021   -7.7916   22.5011 C   0  0  2  0  0  0  0  0  0  0  0  0
    8.7363   -8.3168   22.9981 N   0  0  0  0  0  0  0  0  0  0  0  0
    4.4497  -10.4243   26.6853 C   0  0  0  0  0  0  0  0  0  0  0  0
    1.5251   -5.9385   28.4198 C   0  0  2  0  0  0  0  0  0  0  0  0
    2.5040   -6.5596   29.2225 O   0  0  0  0  0  0  0  0  0  0  0  0
    7.5017   -6.2248   22.4777 C   0  0  0  0  0  0  0  0  0  0  0  0
    5.4488   -9.9369   25.5729 C   0  0  2  0  0  0  0  0  0  0  0  0
    6.7136  -10.6832   25.6676 N   0  0  0  0  0  0  0  0  0  0  0  0
    0.1241   -6.6680   28.5292 C   0  0  1  0  0  0  0  0  0  0  0  0
   -0.3690   -6.6995   29.9451 N   0  0  0  0  0  0  0  0  0  0  0  0
    6.1329   -5.7509   21.8960 C   0  0  0  0  0  0  0  0  0  0  0  0
    5.7029   -8.3889   25.7337 C   0  0  2  0  0  0  0  0  0  0  0  0
   -0.9646   -5.9350   27.5799 C   0  0  1  0  0  0  0  0  0  0  0  0
   -1.1822   -4.5991   27.9843 O   0  0  0  0  0  0  0  0  0  0  0  0
    4.9653   -6.3311   22.8097 C   0  0  2  0  0  0  0  0  0  0  0  0
    5.0378   -7.7849   22.9449 O   0  0  0  0  0  0  0  0  0  0  0  0
    4.3329   -7.6149   25.6258 C   0  0  2  0  0  0  0  0  0  0  0  0
    4.5403   -6.2129   25.7647 O   0  0  0  0  0  0  0  0  0  0  0  0
   -0.4266   -5.9047   26.1160 C   0  0  0  0  0  0  0  0  0  0  0  0
    0.9616   -5.3353   26.0745 O   0  0  0  0  0  0  0  0  0  0  0  0
    3.5775   -5.9315   22.3668 C   0  0  0  0  0  0  0  0  0  0  0  0
    3.4052   -4.5025   22.3711 N   0  0  0  0  0  0  0  0  0  0  0  0
    3.3496   -8.1155   26.7414 C   0  0  1  0  0  0  0  0  0  0  0  0
    2.1192   -7.4116   26.6228 O   0  0  0  0  0  0  0  0  0  0  0  0
   -2.3786   -6.5315   27.5596 C   0  0  0  0  0  0  0  0  0  0  0  0
   -0.1566   -7.9444   30.7021 C   0  0  0  0  0  0  0  0  0  0  0  0
  1  2  1  1  0  0  0
  1  6  1  0  0  0  0
  1 21  1  0  0  0  0
  3  4  1  1  0  0  0
  3  8  1  0  0  0  0
  3 28  1  0  0  0  0
  5  9  1  0  0  0  0
  5 25  1  0  0  0  0
  5 29  1  6  0  0  0
  6  7  1  1  0  0  0
  6 11  1  0  0  0  0
  8 12  1  0  0  0  0
  9 10  1  1  0  0  0
  9 14  1  0  0  0  0
 11 16  1  0  0  0  0
 12 13  1  1  0  0  0
 12 17  1  0  0  0  0
 14 15  1  1  0  0  0
 14 18  1  0  0  0  0
 15 31  1  0  0  0  0
 16 20  1  0  0  0  0
 17  2  1  6  0  0  0
 17 22  1  0  0  0  0
 18 19  1  1  0  0  0
 18 24  1  0  0  0  0
 18 30  1  0  0  0  0
 20 21  1  0  0  0  0
 20 26  1  6  0  0  0
 22 23  1  1  0  0  0
 22 28  1  0  0  0  0
 24 25  1  0  0  0  0
 26 27  1  0  0  0  0
 28 29  1  6  0  0  0
M  END
>  <CHROM.1>
-177.43315626,-93.00286138,-99.08504458,50.26531969,-59.93913561,169.60077066
3.30407616,-7.24647914,25.83415731,-0.34554259,-0.57044624,2.31898548

>  <Name>
2et3_lig

>  <RI>
0

>  <Rbt.Current_Directory>
/home/itssahil/PROJECTS/Mol_Feturizer/New_Systems/rnas/2et3

>  <Rbt.Executable>
rbdock ($Id: //depot/dev/client3/rdock/2013.1/src/exe/rbdock.cxx#4 $)

>  <Rbt.Library>
libRbt.so (2013.1, Build901 2013/11/27)

>  <Rbt.Parameter_File>
/export/apps/rDock/src/rDock_2013.1_src/data/scripts/dock_solv.prm

>  <Rbt.Receptor>
prm/pocket_docking_7.prm

>  <SCORE>
-21.6661

>  <SCORE.INTER>
-13.4504

>  <SCORE.INTER.CONST>
1

>  <SCORE.INTER.POLAR>
-0.938083

>  <SCORE.INTER.ROT>
6

>  <SCORE.INTER.SOLV>
15.8994

>  <SCORE.INTER.VDW>
-18.7398

>  <SCORE.INTER.norm>
-0.433885

>  <SCORE.INTRA>
-8.21563

>  <SCORE.INTRA.DIHEDRAL>
-16.0367

>  <SCORE.INTRA.DIHEDRAL.0>
22.2484

>  <SCORE.INTRA.POLAR>
0

>  <SCORE.INTRA.POLAR.0>
0

>  <SCORE.INTRA.REPUL>
0

>  <SCORE.INTRA.REPUL.0>
0

>  <SCORE.INTRA.SOLV>
-1.35532

>  <SCORE.INTRA.SOLV.lig_0>
-75.7198

>  <SCORE.INTRA.VDW>
0.480382

>  <SCORE.INTRA.VDW.0>
-3.34171

>  <SCORE.INTRA.norm>
-0.26502

>  <SCORE.RESTR>
0

>  <SCORE.RESTR.CAVITY>
0

>  <SCORE.RESTR.norm>
0

>  <SCORE.SYSTEM>
0

>  <SCORE.SYSTEM.CONST>
0

>  <SCORE.SYSTEM.DIHEDRAL>
0

>  <SCORE.SYSTEM.SOLV>
0

>  <SCORE.SYSTEM.norm>
0

>  <SCORE.heavy>
31

>  <SCORE.norm>
-0.698905

>  <RMSD>
8.222

$$$$
2et3_lig
 OpenBabel11021811423D
libRbt.so/2013.1/901 2013/11/27
 31 33  0  0  0  0  0  0  0  0999 V2000
   -2.8477   -8.0105   34.0817 C   0  0  2  0  0  0  0  0  0  0  0  0
   -1.8687   -9.0116   33.7002 O   0  0  0  0  0  0  0  0  0  0  0  0
   -0.4734  -10.3608   29.8872 C   0  0  2  0  0  0  0  0  0  0  0  0
   -0.5064  -10.8506   28.5438 N   0  0  0  0  0  0  0  0  0  0  0  0
    0.3991   -7.0752   29.5680 C   0  0  2  0  0  0  0  0  0  0  0  0
   -2.4758   -7.4146   35.4437 C   0  0  2  0  0  0  0  0  0  0  0  0
   -1.1485   -6.8874   35.3638 N   0  0  0  0  0  0  0  0  0  0  0  0
   -1.1472  -11.4011   30.8389 C   0  0  0  0  0  0  0  0  0  0  0  0
    0.6661   -6.1342   28.3726 C   0  0  2  0  0  0  0  0  0  0  0  0
   -0.5503   -5.5397   27.9783 O   0  0  0  0  0  0  0  0  0  0  0  0
   -2.6070   -8.4976   36.5685 C   0  0  0  0  0  0  0  0  0  0  0  0
   -1.1233  -10.8667   32.3177 C   0  0  2  0  0  0  0  0  0  0  0  0
   -1.7573  -11.8429   33.2181 N   0  0  0  0  0  0  0  0  0  0  0  0
    1.3059   -6.9947   27.2076 C   0  0  1  0  0  0  0  0  0  0  0  0
    1.5551   -6.1631   25.9847 N   0  0  0  0  0  0  0  0  0  0  0  0
   -4.0888   -8.9877   36.5964 C   0  0  0  0  0  0  0  0  0  0  0  0
   -1.8680   -9.4786   32.3891 C   0  0  2  0  0  0  0  0  0  0  0  0
    2.6894   -7.6728   27.7073 C   0  0  1  0  0  0  0  0  0  0  0  0
    3.6485   -6.6930   28.0474 O   0  0  0  0  0  0  0  0  0  0  0  0
   -4.4563   -9.5738   35.1625 C   0  0  2  0  0  0  0  0  0  0  0  0
   -4.2099   -8.6109   34.0903 O   0  0  0  0  0  0  0  0  0  0  0  0
   -1.1669   -8.4526   31.4176 C   0  0  2  0  0  0  0  0  0  0  0  0
   -1.8224   -7.1895   31.4694 O   0  0  0  0  0  0  0  0  0  0  0  0
    2.4083   -8.5233   28.9845 C   0  0  0  0  0  0  0  0  0  0  0  0
    1.6743   -7.7100   30.0104 O   0  0  0  0  0  0  0  0  0  0  0  0
   -5.8668  -10.1034   35.0542 C   0  0  0  0  0  0  0  0  0  0  0  0
   -6.8085   -9.0587   34.7483 N   0  0  0  0  0  0  0  0  0  0  0  0
   -1.1990   -9.0035   29.9487 C   0  0  1  0  0  0  0  0  0  0  0  0
   -0.5566   -8.0687   29.0904 O   0  0  0  0  0  0  0  0  0  0  0  0
    3.4322   -8.5565   26.6959 C   0  0  0  0  0  0  0  0  0  0  0  0
    0.4225   -5.9668   25.0645 C   0  0  0  0  0  0  0  0  0  0  0  0
  1  2  1  1  0  0  0
  1  6  1  0  0  0  0
  1 21  1  0  0  0  0
  3  4  1  6  0  0  0
  3  8  1  0  0  0  0
  3 28  1  0  0  0  0
  5  9  1  0  0  0  0
  5 25  1  0  0  0  0
  5 29  1  6  0  0  0
  6  7  1  6  0  0  0
  6 11  1  0  0  0  0
  8 12  1  0  0  0  0
  9 10  1  6  0  0  0
  9 14  1  0  0  0  0
 11 16  1  0  0  0  0
 12 13  1  1  0  0  0
 12 17  1  0  0  0  0
 14 15  1  6  0  0  0
 14 18  1  0  0  0  0
 15 31  1  0  0  0  0
 16 20  1  0  0  0  0
 17  2  1  1  0  0  0
 17 22  1  0  0  0  0
 18 19  1  1  0  0  0
 18 24  1  0  0  0  0
 18 30  1  0  0  0  0
 20 21  1  0  0  0  0
 20 26  1  1  0  0  0
 22 23  1  6  0  0  0
 22 28  1  0  0  0  0
 24 25  1  0  0  0  0
 26 27  1  0  0  0  0
 28 29  1  6  0  0  0
M  END
>  <CHROM.1>
-167.23388399,-170.89123684,-83.74685999,-159.90080111,84.79396765,-98.60227705
-0.96230992,-8.37843802,31.11455900,2.97080600,-0.94931689,-3.10777549

>  <Name>
2et3_lig

>  <RI>
2.5794e+07

>  <Rbt.Current_Directory>
/home/itssahil/PROJECTS/Mol_Feturizer/New_Systems/rnas/2et3

>  <Rbt.Executable>
rbdock ($Id: //depot/dev/client3/rdock/2013.1/src/exe/rbdock.cxx#4 $)

>  <Rbt.Library>
libRbt.so (2013.1, Build901 2013/11/27)

>  <Rbt.Parameter_File>
/export/apps/rDock/src/rDock_2013.1_src/data/scripts/dock_solv.prm

>  <Rbt.Receptor>
prm/pocket_docking_5.prm

>  <SCORE>
-21.5895

>  <SCORE.INTER>
-15.7804

>  <SCORE.INTER.CONST>
1

>  <SCORE.INTER.POLAR>
-1.62562

>  <SCORE.INTER.ROT>
6

>  <SCORE.INTER.SOLV>
18.7725

>  <SCORE.INTER.VDW>
-18.959

>  <SCORE.INTER.norm>
-0.509045

>  <SCORE.INTRA>
-5.8091

>  <SCORE.INTRA.DIHEDRAL>
-11.6425

>  <SCORE.INTRA.DIHEDRAL.0>
22.2484

>  <SCORE.INTRA.POLAR>
0

>  <SCORE.INTRA.POLAR.0>
0

>  <SCORE.INTRA.REPUL>
0

>  <SCORE.INTRA.REPUL.0>
0

>  <SCORE.INTRA.SOLV>
-1.75809

>  <SCORE.INTRA.SOLV.lig_0>
-75.7198

>  <SCORE.INTRA.VDW>
0.891206

>  <SCORE.INTRA.VDW.0>
-3.34171

>  <SCORE.INTRA.norm>
-0.18739

>  <SCORE.RESTR>
0

>  <SCORE.RESTR.CAVITY>
0

>  <SCORE.RESTR.norm>
0

>  <SCORE.SYSTEM>
0

>  <SCORE.SYSTEM.CONST>
0

>  <SCORE.SYSTEM.DIHEDRAL>
0

>  <SCORE.SYSTEM.SOLV>
0

>  <SCORE.SYSTEM.norm>
0

>  <SCORE.heavy>
31

>  <SCORE.norm>
-0.696436

>  <RMSD>
8.278

$$$$
2et3_lig
 OpenBabel11021811423D
libRbt.so/2013.1/901 2013/11/27
 31 33  0  0  0  0  0  0  0  0999 V2000
    0.0811   -4.8388   30.7574 C   0  0  2  0  0  0  0  0  0  0  0  0
   -0.5292   -5.0627   32.0549 O   0  0  0  0  0  0  0  0  0  0  0  0
    0.6399   -3.9742   36.0241 C   0  0  2  0  0  0  0  0  0  0  0  0
    1.4609   -3.8178   37.1848 N   0  0  0  0  0  0  0  0  0  0  0  0
    2.3641   -0.9310   34.5857 C   0  0  2  0  0  0  0  0  0  0  0  0
   -1.0025   -4.5117   29.7244 C   0  0  2  0  0  0  0  0  0  0  0  0
   -1.7475   -3.3817   30.1872 N   0  0  0  0  0  0  0  0  0  0  0  0
    0.5005   -5.4932   35.6842 C   0  0  0  0  0  0  0  0  0  0  0  0
    3.6772   -1.1955   35.3548 C   0  0  2  0  0  0  0  0  0  0  0  0
    4.0318   -2.5516   35.2008 O   0  0  0  0  0  0  0  0  0  0  0  0
   -1.9216   -5.7577   29.4830 C   0  0  0  0  0  0  0  0  0  0  0  0
   -0.3940   -5.6744   34.4035 C   0  0  2  0  0  0  0  0  0  0  0  0
   -0.5279   -7.1035   34.0788 N   0  0  0  0  0  0  0  0  0  0  0  0
    3.4376   -0.8182   36.8737 C   0  0  1  0  0  0  0  0  0  0  0  0
    4.6554   -1.0907   37.7053 N   0  0  0  0  0  0  0  0  0  0  0  0
   -1.0268   -6.9226   28.9548 C   0  0  0  0  0  0  0  0  0  0  0  0
    0.2472   -4.8875   33.1967 C   0  0  2  0  0  0  0  0  0  0  0  0
    3.0157    0.7403   37.0037 C   0  0  1  0  0  0  0  0  0  0  0  0
    4.0447    1.5913   36.5427 O   0  0  0  0  0  0  0  0  0  0  0  0
    0.1061   -7.2209   30.0329 C   0  0  2  0  0  0  0  0  0  0  0  0
    0.8847   -6.0284   30.3631 O   0  0  0  0  0  0  0  0  0  0  0  0
    0.3764   -3.3607   33.5709 C   0  0  2  0  0  0  0  0  0  0  0  0
    0.9505   -2.6301   32.4919 O   0  0  0  0  0  0  0  0  0  0  0  0
    1.7548    1.0025   36.1234 C   0  0  0  0  0  0  0  0  0  0  0  0
    1.9724    0.5014   34.7255 O   0  0  0  0  0  0  0  0  0  0  0  0
    1.0391   -8.3467   29.6537 C   0  0  0  0  0  0  0  0  0  0  0  0
    1.7471   -8.0665   28.4322 N   0  0  0  0  0  0  0  0  0  0  0  0
    1.2699   -3.2003   34.8508 C   0  0  1  0  0  0  0  0  0  0  0  0
    1.3682   -1.8190   35.1757 O   0  0  0  0  0  0  0  0  0  0  0  0
    2.7318    1.2651   38.4178 C   0  0  0  0  0  0  0  0  0  0  0  0
    5.9256   -0.5030   37.2479 C   0  0  0  0  0  0  0  0  0  0  0  0
  1  2  1  1  0  0  0
  1  6  1  0  0  0  0
  1 21  1  0  0  0  0
  3  4  1  1  0  0  0
  3  8  1  0  0  0  0
  3 28  1  0  0  0  0
  5  9  1  0  0  0  0
  5 25  1  0  0  0  0
  5 29  1  1  0  0  0
  6  7  1  1  0  0  0
  6 11  1  0  0  0  0
  8 12  1  0  0  0  0
  9 10  1  1  0  0  0
  9 14  1  0  0  0  0
 11 16  1  0  0  0  0
 12 13  1  6  0  0  0
 12 17  1  0  0  0  0
 14 15  1  1  0  0  0
 14 18  1  0  0  0  0
 15 31  1  0  0  0  0
 16 20  1  0  0  0  0
 17  2  1  6  0  0  0
 17 22  1  0  0  0  0
 18 19  1  6  0  0  0
 18 24  1  0  0  0  0
 18 30  1  0  0  0  0
 20 21  1  0  0  0  0
 20 26  1  6  0  0  0
 22 23  1  6  0  0  0
 22 28  1  0  0  0  0
 24 25  1  0  0  0  0
 26 27  1  0  0  0  0
 28 29  1  1  0  0  0
M  END
>  <CHROM.1>
-156.68753813,-79.72020546,52.86293475,-158.81137158,60.80501347,153.77786405
1.35719729,-3.31668969,33.75432254,2.69176315,1.14706122,2.86354238

>  <Name>
2et3_lig

>  <RI>
0

>  <Rbt.Current_Directory>
/home/itssahil/PROJECTS/Mol_Feturizer/New_Systems/rnas/2et3

>  <Rbt.Executable>
rbdock ($Id: //depot/dev/client3/rdock/2013.1/src/exe/rbdock.cxx#4 $)

>  <Rbt.Library>
libRbt.so (2013.1, Build901 2013/11/27)

>  <Rbt.Parameter_File>
/export/apps/rDock/src/rDock_2013.1_src/data/scripts/dock_solv.prm

>  <Rbt.Receptor>
prm/blind_docking_40.prm

>  <SCORE>
0.0156428

>  <SCORE.INTER>
-3.67409

>  <SCORE.INTER.CONST>
1

>  <SCORE.INTER.POLAR>
-1.62587

>  <SCORE.INTER.ROT>
6

>  <SCORE.INTER.SOLV>
16.0187

>  <SCORE.INTER.VDW>
-9.96938

>  <SCORE.INTER.norm>
-0.118519

>  <SCORE.INTRA>
-5.3364

>  <SCORE.INTRA.DIHEDRAL>
-13.0555

>  <SCORE.INTRA.DIHEDRAL.0>
22.2484

>  <SCORE.INTRA.POLAR>
0

>  <SCORE.INTRA.POLAR.0>
0

>  <SCORE.INTRA.REPUL>
0

>  <SCORE.INTRA.REPUL.0>
0

>  <SCORE.INTRA.SOLV>
-0.286512

>  <SCORE.INTRA.SOLV.lig_0>
-75.7198

>  <SCORE.INTRA.VDW>
1.3346

>  <SCORE.INTRA.VDW.0>
-3.34171

>  <SCORE.INTRA.norm>
-0.172142

>  <SCORE.RESTR>
9.02614

>  <SCORE.RESTR.CAVITY>
9.02614

>  <SCORE.RESTR.norm>
0.291166

>  <SCORE.SYSTEM>
0

>  <SCORE.SYSTEM.CONST>
0

>  <SCORE.SYSTEM.DIHEDRAL>
0

>  <SCORE.SYSTEM.SOLV>
0

>  <SCORE.SYSTEM.norm>
0

>  <SCORE.heavy>
31

>  <SCORE.norm>
0.000504607

>  <RMSD>
8.301

$$$$
2et3_lig
 OpenBabel11021811423D
libRbt.so/2013.1/901 2013/11/27
 31 33  0  0  0  0  0  0  0  0999 V2000
   -3.7329   -7.0518   35.2563 C   0  0  2  0  0  0  0  0  0  0  0  0
   -2.7148   -6.0704   35.5826 O   0  0  0  0  0  0  0  0  0  0  0  0
   -2.2130   -4.2541   31.7413 C   0  0  2  0  0  0  0  0  0  0  0  0
   -1.7166   -3.3748   30.7284 N   0  0  0  0  0  0  0  0  0  0  0  0
   -1.0895   -7.0469   30.6854 C   0  0  2  0  0  0  0  0  0  0  0  0
   -4.3339   -7.6231   36.5450 C   0  0  2  0  0  0  0  0  0  0  0  0
   -4.8412   -6.5406   37.3306 N   0  0  0  0  0  0  0  0  0  0  0  0
   -2.8921   -3.4167   32.8726 C   0  0  0  0  0  0  0  0  0  0  0  0
   -0.0625   -7.6396   29.6956 C   0  0  2  0  0  0  0  0  0  0  0  0
    1.1160   -7.9632   30.3990 O   0  0  0  0  0  0  0  0  0  0  0  0
   -3.2617   -8.4581   37.3251 C   0  0  0  0  0  0  0  0  0  0  0  0
   -3.4334   -4.3754   33.9955 C   0  0  2  0  0  0  0  0  0  0  0  0
   -4.0736   -3.5914   35.0638 N   0  0  0  0  0  0  0  0  0  0  0  0
    0.2029   -6.5635   28.5650 C   0  0  1  0  0  0  0  0  0  0  0  0
    1.2294   -7.0422   27.5821 N   0  0  0  0  0  0  0  0  0  0  0  0
   -2.7933   -9.6258   36.4011 C   0  0  0  0  0  0  0  0  0  0  0  0
   -2.2447   -5.2356   34.5729 C   0  0  2  0  0  0  0  0  0  0  0  0
   -1.1772   -6.2079   27.7952 C   0  0  1  0  0  0  0  0  0  0  0  0
   -1.7091   -7.3427   27.1435 O   0  0  0  0  0  0  0  0  0  0  0  0
   -2.2014   -9.0051   35.0598 C   0  0  2  0  0  0  0  0  0  0  0  0
   -3.1523   -8.1169   34.3934 O   0  0  0  0  0  0  0  0  0  0  0  0
   -1.5797   -6.0661   33.4085 C   0  0  2  0  0  0  0  0  0  0  0  0
   -0.5046   -6.8541   33.9096 O   0  0  0  0  0  0  0  0  0  0  0  0
   -2.2320   -5.7228   28.8372 C   0  0  0  0  0  0  0  0  0  0  0  0
   -2.3505   -6.7049   29.9660 O   0  0  0  0  0  0  0  0  0  0  0  0
   -1.6914  -10.0319   34.0762 C   0  0  0  0  0  0  0  0  0  0  0  0
   -2.7518  -10.8675   33.5770 N   0  0  0  0  0  0  0  0  0  0  0  0
   -1.0477   -5.0936   32.2980 C   0  0  1  0  0  0  0  0  0  0  0  0
   -0.4589   -5.8610   31.2550 O   0  0  0  0  0  0  0  0  0  0  0  0
   -1.0951   -5.1637   26.6734 C   0  0  0  0  0  0  0  0  0  0  0  0
    2.6318   -6.6793   27.8462 C   0  0  0  0  0  0  0  0  0  0  0  0
  1  2  1  1  0  0  0
  1  6  1  0  0  0  0
  1 21  1  0  0  0  0
  3  4  1  6  0  0  0
  3  8  1  0  0  0  0
  3 28  1  0  0  0  0
  5  9  1  0  0  0  0
  5 25  1  0  0  0  0
  5 29  1  6  0  0  0
  6  7  1  1  0  0  0
  6 11  1  0  0  0  0
  8 12  1  0  0  0  0
  9 10  1  1  0  0  0
  9 14  1  0  0  0  0
 11 16  1  0  0  0  0
 12 13  1  1  0  0  0
 12 17  1  0  0  0  0
 14 15  1  6  0  0  0
 14 18  1  0  0  0  0
 15 31  1  0  0  0  0
 16 20  1  0  0  0  0
 17  2  1  1  0  0  0
 17 22  1  0  0  0  0
 18 19  1  6  0  0  0
 18 24  1  0  0  0  0
 18 30  1  0  0  0  0
 20 21  1  0  0  0  0
 20 26  1  6  0  0  0
 22 23  1  1  0  0  0
 22 28  1  0  0  0  0
 24 25  1  0  0  0  0
 26 27  1  0  0  0  0
 28 29  1  6  0  0  0
M  END
>  <CHROM.1>
-166.76881493,-174.67121766,-92.24391688,60.68465469,64.84397412,-74.39046714
-1.78568995,-6.64885399,32.24377038,2.48585231,-1.06526752,2.55053228

>  <Name>
2et3_lig

>  <RI>
2.5794e+07

>  <Rbt.Current_Directory>
/home/itssahil/PROJECTS/Mol_Feturizer/New_Systems/rnas/2et3

>  <Rbt.Executable>
rbdock ($Id: //depot/dev/client3/rdock/2013.1/src/exe/rbdock.cxx#4 $)

>  <Rbt.Library>
libRbt.so (2013.1, Build901 2013/11/27)

>  <Rbt.Parameter_File>
/export/apps/rDock/src/rDock_2013.1_src/data/scripts/dock_solv.prm

>  <Rbt.Receptor>
prm/pocket_docking_5.prm

>  <SCORE>
-24.3723

>  <SCORE.INTER>
-15.4878

>  <SCORE.INTER.CONST>
1

>  <SCORE.INTER.POLAR>
-0.994829

>  <SCORE.INTER.ROT>
6

>  <SCORE.INTER.SOLV>
12.0462

>  <SCORE.INTER.VDW>
-18.6245

>  <SCORE.INTER.norm>
-0.499606

>  <SCORE.INTRA>
-8.88446

>  <SCORE.INTRA.DIHEDRAL>
-19.3849

>  <SCORE.INTRA.DIHEDRAL.0>
22.2484

>  <SCORE.INTRA.POLAR>
0

>  <SCORE.INTRA.POLAR.0>
0

>  <SCORE.INTRA.REPUL>
0

>  <SCORE.INTRA.REPUL.0>
0

>  <SCORE.INTRA.SOLV>
0.859208

>  <SCORE.INTRA.SOLV.lig_0>
-75.7198

>  <SCORE.INTRA.VDW>
0.37839

>  <SCORE.INTRA.VDW.0>
-3.34171

>  <SCORE.INTRA.norm>
-0.286596

>  <SCORE.RESTR>
0

>  <SCORE.RESTR.CAVITY>
0

>  <SCORE.RESTR.norm>
0

>  <SCORE.SYSTEM>
0

>  <SCORE.SYSTEM.CONST>
0

>  <SCORE.SYSTEM.DIHEDRAL>
0

>  <SCORE.SYSTEM.SOLV>
0

>  <SCORE.SYSTEM.norm>
0

>  <SCORE.heavy>
31

>  <SCORE.norm>
-0.786202

>  <RMSD>
8.305

$$$$
2et3_lig
 OpenBabel11021811423D
libRbt.so/2013.1/901 2013/11/27
 31 33  0  0  0  0  0  0  0  0999 V2000
   -0.4300   -3.9932   30.8177 C   0  0  2  0  0  0  0  0  0  0  0  0
   -0.6061   -4.3737   32.2071 O   0  0  0  0  0  0  0  0  0  0  0  0
    1.8172   -3.7347   35.6750 C   0  0  2  0  0  0  0  0  0  0  0  0
    2.9691   -3.7253   36.5226 N   0  0  0  0  0  0  0  0  0  0  0  0
    1.3588   -0.4948   34.9240 C   0  0  2  0  0  0  0  0  0  0  0  0
   -1.7981   -3.7756   30.1626 C   0  0  2  0  0  0  0  0  0  0  0  0
   -2.5146   -2.7946   30.9178 N   0  0  0  0  0  0  0  0  0  0  0  0
    1.4797   -5.2055   35.2690 C   0  0  0  0  0  0  0  0  0  0  0  0
    2.0453    0.7166   35.5925 C   0  0  2  0  0  0  0  0  0  0  0  0
    3.1289    1.1283   34.7895 O   0  0  0  0  0  0  0  0  0  0  0  0
   -2.5821   -5.1293   30.0715 C   0  0  0  0  0  0  0  0  0  0  0  0
    0.2189   -5.2248   34.3292 C   0  0  2  0  0  0  0  0  0  0  0  0
   -0.1028   -6.6080   33.9436 N   0  0  0  0  0  0  0  0  0  0  0  0
    2.5177    0.2738   37.0374 C   0  0  1  0  0  0  0  0  0  0  0  0
    3.2399    1.3830   37.7423 N   0  0  0  0  0  0  0  0  0  0  0  0
   -1.7379   -6.1191   29.2088 C   0  0  0  0  0  0  0  0  0  0  0  0
    0.4989   -4.3422   33.0528 C   0  0  2  0  0  0  0  0  0  0  0  0
    1.2469   -0.2076   37.9190 C   0  0  1  0  0  0  0  0  0  0  0  0
    0.3255    0.8459   38.1101 O   0  0  0  0  0  0  0  0  0  0  0  0
   -0.3136   -6.3033   29.8961 C   0  0  2  0  0  0  0  0  0  0  0  0
    0.3695   -5.0279   30.1061 O   0  0  0  0  0  0  0  0  0  0  0  0
    0.8380   -2.8667   33.4950 C   0  0  2  0  0  0  0  0  0  0  0  0
    1.0910   -2.0507   32.3558 O   0  0  0  0  0  0  0  0  0  0  0  0
    0.5059   -1.3530   37.1624 C   0  0  0  0  0  0  0  0  0  0  0  0
    0.2014   -0.9438   35.7508 O   0  0  0  0  0  0  0  0  0  0  0  0
    0.6049   -7.2568   29.1688 C   0  0  0  0  0  0  0  0  0  0  0  0
    0.9046   -6.8000   27.8371 N   0  0  0  0  0  0  0  0  0  0  0  0
    2.0963   -2.8680   34.4325 C   0  0  1  0  0  0  0  0  0  0  0  0
    2.3811   -1.5310   34.8257 O   0  0  0  0  0  0  0  0  0  0  0  0
    1.5370   -0.6854   39.3484 C   0  0  0  0  0  0  0  0  0  0  0  0
    4.3322    1.0005   38.6527 C   0  0  0  0  0  0  0  0  0  0  0  0
  1  2  1  1  0  0  0
  1  6  1  0  0  0  0
  1 21  1  0  0  0  0
  3  4  1  1  0  0  0
  3  8  1  0  0  0  0
  3 28  1  0  0  0  0
  5  9  1  0  0  0  0
  5 25  1  0  0  0  0
  5 29  1  1  0  0  0
  6  7  1  1  0  0  0
  6 11  1  0  0  0  0
  8 12  1  0  0  0  0
  9 10  1  6  0  0  0
  9 14  1  0  0  0  0
 11 16  1  0  0  0  0
 12 13  1  6  0  0  0
 12 17  1  0  0  0  0
 14 15  1  1  0  0  0
 14 18  1  0  0  0  0
 15 31  1  0  0  0  0
 16 20  1  0  0  0  0
 17  2  1  6  0  0  0
 17 22  1  0  0  0  0
 18 19  1  1  0  0  0
 18 24  1  0  0  0  0
 18 30  1  0  0  0  0
 20 21  1  0  0  0  0
 20 26  1  6  0  0  0
 22 23  1  6  0  0  0
 22 28  1  0  0  0  0
 24 25  1  0  0  0  0
 26 27  1  0  0  0  0
 28 29  1  1  0  0  0
M  END
>  <CHROM.1>
-166.55145936,171.07105310,-146.58136468,-161.04589506,61.67530391,-92.29277350
0.83986508,-2.80005894,33.93053071,2.31035589,1.12345383,-2.92115459

>  <Name>
2et3_lig

>  <RI>
0

>  <Rbt.Current_Directory>
/home/itssahil/PROJECTS/Mol_Feturizer/New_Systems/rnas/2et3

>  <Rbt.Executable>
rbdock ($Id: //depot/dev/client3/rdock/2013.1/src/exe/rbdock.cxx#4 $)

>  <Rbt.Library>
libRbt.so (2013.1, Build901 2013/11/27)

>  <Rbt.Parameter_File>
/export/apps/rDock/src/rDock_2013.1_src/data/scripts/dock_solv.prm

>  <Rbt.Receptor>
prm/blind_docking_40.prm

>  <SCORE>
15.6562

>  <SCORE.INTER>
13.6196

>  <SCORE.INTER.CONST>
1

>  <SCORE.INTER.POLAR>
-0.660414

>  <SCORE.INTER.ROT>
6

>  <SCORE.INTER.SOLV>
15.4563

>  <SCORE.INTER.VDW>
-1.47102

>  <SCORE.INTER.norm>
0.439341

>  <SCORE.INTRA>
-6.62532

>  <SCORE.INTRA.DIHEDRAL>
-14.4703

>  <SCORE.INTRA.DIHEDRAL.0>
22.2484

>  <SCORE.INTRA.POLAR>
0

>  <SCORE.INTRA.POLAR.0>
0

>  <SCORE.INTRA.REPUL>
0

>  <SCORE.INTRA.REPUL.0>
0

>  <SCORE.INTRA.SOLV>
-0.868868

>  <SCORE.INTRA.SOLV.lig_0>
-75.7198

>  <SCORE.INTRA.VDW>
1.04429

>  <SCORE.INTRA.VDW.0>
-3.34171

>  <SCORE.INTRA.norm>
-0.21372

>  <SCORE.RESTR>
8.66195

>  <SCORE.RESTR.CAVITY>
8.66195

>  <SCORE.RESTR.norm>
0.279418

>  <SCORE.SYSTEM>
0

>  <SCORE.SYSTEM.CONST>
0

>  <SCORE.SYSTEM.DIHEDRAL>
0

>  <SCORE.SYSTEM.SOLV>
0

>  <SCORE.SYSTEM.norm>
0

>  <SCORE.heavy>
31

>  <SCORE.norm>
0.505038

>  <RMSD>
8.324

$$$$
2et3_lig
 OpenBabel11021811423D
libRbt.so/2013.1/901 2013/11/27
 31 33  0  0  0  0  0  0  0  0999 V2000
    0.0112   -4.7598   30.8119 C   0  0  2  0  0  0  0  0  0  0  0  0
   -0.5410   -4.9552   32.1397 O   0  0  0  0  0  0  0  0  0  0  0  0
    0.8760   -4.0117   36.0650 C   0  0  2  0  0  0  0  0  0  0  0  0
    1.7657   -3.9052   37.1798 N   0  0  0  0  0  0  0  0  0  0  0  0
    2.5627   -0.9505   34.6175 C   0  0  2  0  0  0  0  0  0  0  0  0
   -1.1116   -4.4069   29.8305 C   0  0  2  0  0  0  0  0  0  0  0  0
   -1.7980   -3.2510   30.3193 N   0  0  0  0  0  0  0  0  0  0  0  0
    0.6903   -5.5168   35.6874 C   0  0  0  0  0  0  0  0  0  0  0  0
    3.8961   -1.1884   35.3598 C   0  0  2  0  0  0  0  0  0  0  0  0
    4.2642   -2.5420   35.2158 O   0  0  0  0  0  0  0  0  0  0  0  0
   -2.0791   -5.6255   29.6454 C   0  0  0  0  0  0  0  0  0  0  0  0
   -0.2802   -5.6431   34.4564 C   0  0  2  0  0  0  0  0  0  0  0  0
   -0.4580   -7.0589   34.0964 N   0  0  0  0  0  0  0  0  0  0  0  0
    3.6864   -0.7934   36.8787 C   0  0  1  0  0  0  0  0  0  0  0  0
    4.9261   -1.0396   37.6857 N   0  0  0  0  0  0  0  0  0  0  0  0
   -1.2474   -6.8214   29.0843 C   0  0  0  0  0  0  0  0  0  0  0  0
    0.3035   -4.8286   33.2388 C   0  0  2  0  0  0  0  0  0  0  0  0
    3.2481    0.7614   36.9975 C   0  0  1  0  0  0  0  0  0  0  0  0
    4.2556    1.6186   36.5018 O   0  0  0  0  0  0  0  0  0  0  0  0
   -0.0724   -7.1467   30.1081 C   0  0  2  0  0  0  0  0  0  0  0  0
    0.7576   -5.9765   30.3891 O   0  0  0  0  0  0  0  0  0  0  0  0
    0.4812   -3.3167   33.6515 C   0  0  2  0  0  0  0  0  0  0  0  0
    1.0044   -2.5614   32.5636 O   0  0  0  0  0  0  0  0  0  0  0  0
    1.9643    0.9962   36.1429 C   0  0  0  0  0  0  0  0  0  0  0  0
    2.1563    0.4788   34.7472 O   0  0  0  0  0  0  0  0  0  0  0  0
    0.8059   -8.3037   29.6935 C   0  0  0  0  0  0  0  0  0  0  0  0
    0.0656   -9.5354   29.6131 N   0  0  0  0  0  0  0  0  0  0  0  0
    1.4503   -3.2111   34.8810 C   0  0  1  0  0  0  0  0  0  0  0  0
    1.5917   -1.8425   35.2419 O   0  0  0  0  0  0  0  0  0  0  0  0
    2.9898    1.3019   38.4106 C   0  0  0  0  0  0  0  0  0  0  0  0
    4.7657   -1.7626   38.9585 C   0  0  0  0  0  0  0  0  0  0  0  0
  1  2  1  1  0  0  0
  1  6  1  0  0  0  0
  1 21  1  0  0  0  0
  3  4  1  1  0  0  0
  3  8  1  0  0  0  0
  3 28  1  0  0  0  0
  5  9  1  0  0  0  0
  5 25  1  0  0  0  0
  5 29  1  1  0  0  0
  6  7  1  1  0  0  0
  6 11  1  0  0  0  0
  8 12  1  0  0  0  0
  9 10  1  1  0  0  0
  9 14  1  0  0  0  0
 11 16  1  0  0  0  0
 12 13  1  6  0  0  0
 12 17  1  0  0  0  0
 14 15  1  1  0  0  0
 14 18  1  0  0  0  0
 15 31  1  0  0  0  0
 16 20  1  0  0  0  0
 17  2  1  6  0  0  0
 17 22  1  0  0  0  0
 18 19  1  6  0  0  0
 18 24  1  0  0  0  0
 18 30  1  0  0  0  0
 20 21  1  0  0  0  0
 20 26  1  6  0  0  0
 22 23  1  6  0  0  0
 22 28  1  0  0  0  0
 24 25  1  0  0  0  0
 26 27  1  0  0  0  0
 28 29  1  1  0  0  0
M  END
>  <CHROM.1>
-158.27039843,-83.55530757,-132.00434607,-156.03692284,-62.38077026,154.08467961
1.34876218,-3.37420513,33.89042205,2.60231233,1.08202586,2.96969729

>  <Name>
2et3_lig

>  <RI>
0

>  <Rbt.Current_Directory>
/home/itssahil/PROJECTS/Mol_Feturizer/New_Systems/rnas/2et3

>  <Rbt.Executable>
rbdock ($Id: //depot/dev/client3/rdock/2013.1/src/exe/rbdock.cxx#4 $)

>  <Rbt.Library>
libRbt.so (2013.1, Build901 2013/11/27)

>  <Rbt.Parameter_File>
/export/apps/rDock/src/rDock_2013.1_src/data/scripts/dock_solv.prm

>  <Rbt.Receptor>
prm/blind_docking_40.prm

>  <SCORE>
-1.73941

>  <SCORE.INTER>
-3.59886

>  <SCORE.INTER.CONST>
1

>  <SCORE.INTER.POLAR>
-1.59362

>  <SCORE.INTER.ROT>
6

>  <SCORE.INTER.SOLV>
15.5102

>  <SCORE.INTER.VDW>
-9.85724

>  <SCORE.INTER.norm>
-0.116092

>  <SCORE.INTRA>
-6.37251

>  <SCORE.INTRA.DIHEDRAL>
-11.2006

>  <SCORE.INTRA.DIHEDRAL.0>
22.2484

>  <SCORE.INTRA.POLAR>
0

>  <SCORE.INTRA.POLAR.0>
0

>  <SCORE.INTRA.REPUL>
0

>  <SCORE.INTRA.REPUL.0>
0

>  <SCORE.INTRA.SOLV>
-0.941993

>  <SCORE.INTRA.SOLV.lig_0>
-75.7198

>  <SCORE.INTRA.VDW>
-0.301231

>  <SCORE.INTRA.VDW.0>
-3.34171

>  <SCORE.INTRA.norm>
-0.205565

>  <SCORE.RESTR>
8.23197

>  <SCORE.RESTR.CAVITY>
8.23197

>  <SCORE.RESTR.norm>
0.265547

>  <SCORE.SYSTEM>
0

>  <SCORE.SYSTEM.CONST>
0

>  <SCORE.SYSTEM.DIHEDRAL>
0

>  <SCORE.SYSTEM.SOLV>
0

>  <SCORE.SYSTEM.norm>
0

>  <SCORE.heavy>
31

>  <SCORE.norm>
-0.0561099

>  <RMSD>
8.362

$$$$
2et3_lig
 OpenBabel11021811423D
libRbt.so/2013.1/901 2013/11/27
 31 33  0  0  0  0  0  0  0  0999 V2000
    2.0333   -1.6223   36.0950 C   0  0  2  0  0  0  0  0  0  0  0  0
    2.0099   -2.7053   35.1291 O   0  0  0  0  0  0  0  0  0  0  0  0
   -0.6161   -5.9946   34.3607 C   0  0  2  0  0  0  0  0  0  0  0  0
   -1.8293   -6.7432   34.2451 N   0  0  0  0  0  0  0  0  0  0  0  0
    0.0970   -4.8712   30.9886 C   0  0  2  0  0  0  0  0  0  0  0  0
    1.6645   -0.3046   35.4052 C   0  0  2  0  0  0  0  0  0  0  0  0
    0.3878   -0.4593   34.7790 N   0  0  0  0  0  0  0  0  0  0  0  0
   -0.4311   -5.5255   35.8399 C   0  0  0  0  0  0  0  0  0  0  0  0
   -0.7905   -4.3961   29.8172 C   0  0  2  0  0  0  0  0  0  0  0  0
   -1.5637   -3.2976   30.2459 O   0  0  0  0  0  0  0  0  0  0  0  0
    2.7738    0.1029   34.3761 C   0  0  0  0  0  0  0  0  0  0  0  0
    0.8967   -4.6938   35.9747 C   0  0  2  0  0  0  0  0  0  0  0  0
    1.0753   -4.2491   37.3661 N   0  0  0  0  0  0  0  0  0  0  0  0
   -1.6964   -5.6139   29.3662 C   0  0  1  0  0  0  0  0  0  0  0  0
   -2.6277   -5.2237   28.2574 N   0  0  0  0  0  0  0  0  0  0  0  0
    4.1154    0.2753   35.1553 C   0  0  0  0  0  0  0  0  0  0  0  0
    0.8460   -3.4571   34.9977 C   0  0  2  0  0  0  0  0  0  0  0  0
   -0.7702   -6.8580   28.8993 C   0  0  1  0  0  0  0  0  0  0  0  0
    0.0207   -6.5180   27.7794 O   0  0  0  0  0  0  0  0  0  0  0  0
    4.4582   -1.0976   35.8848 C   0  0  2  0  0  0  0  0  0  0  0  0
    3.3697   -1.5538   36.7475 O   0  0  0  0  0  0  0  0  0  0  0  0
    0.6567   -3.9624   33.5156 C   0  0  2  0  0  0  0  0  0  0  0  0
    0.6120   -2.8601   32.6151 O   0  0  0  0  0  0  0  0  0  0  0  0
    0.1962   -7.2393   30.0630 C   0  0  0  0  0  0  0  0  0  0  0  0
    0.9330   -6.0284   30.5566 O   0  0  0  0  0  0  0  0  0  0  0  0
    5.7502   -1.0759   36.6671 C   0  0  0  0  0  0  0  0  0  0  0  0
    5.6818   -1.9125   37.8365 N   0  0  0  0  0  0  0  0  0  0  0  0
   -0.6710   -4.7908   33.4013 C   0  0  1  0  0  0  0  0  0  0  0  0
   -0.8197   -5.2430   32.0609 O   0  0  0  0  0  0  0  0  0  0  0  0
   -1.4980   -8.1300   28.4432 C   0  0  0  0  0  0  0  0  0  0  0  0
   -3.8542   -4.5013   28.6342 C   0  0  0  0  0  0  0  0  0  0  0  0
  1  2  1  6  0  0  0
  1  6  1  0  0  0  0
  1 21  1  0  0  0  0
  3  4  1  1  0  0  0
  3  8  1  0  0  0  0
  3 28  1  0  0  0  0
  5  9  1  0  0  0  0
  5 25  1  0  0  0  0
  5 29  1  1  0  0  0
  6  7  1  6  0  0  0
  6 11  1  0  0  0  0
  8 12  1  0  0  0  0
  9 10  1  1  0  0  0
  9 14  1  0  0  0  0
 11 16  1  0  0  0  0
 12 13  1  1  0  0  0
 12 17  1  0  0  0  0
 14 15  1  6  0  0  0
 14 18  1  0  0  0  0
 15 31  1  0  0  0  0
 16 20  1  0  0  0  0
 17  2  1  6  0  0  0
 17 22  1  0  0  0  0
 18 19  1  6  0  0  0
 18 24  1  0  0  0  0
 18 30  1  0  0  0  0
 20 21  1  0  0  0  0
 20 26  1  1  0  0  0
 22 23  1  6  0  0  0
 22 28  1  0  0  0  0
 24 25  1  0  0  0  0
 26 27  1  0  0  0  0
 28 29  1  6  0  0  0
M  END
>  <CHROM.1>
-94.06822784,-130.85683466,-80.24775593,-90.70761277,147.08255186,-124.66478697
0.65026277,-3.89524643,33.03613875,0.44835388,0.98372166,2.03138223

>  <Name>
2et3_lig

>  <RI>
0

>  <Rbt.Current_Directory>
/home/itssahil/PROJECTS/Mol_Feturizer/New_Systems/rnas/2et3

>  <Rbt.Executable>
rbdock ($Id: //depot/dev/client3/rdock/2013.1/src/exe/rbdock.cxx#4 $)

>  <Rbt.Library>
libRbt.so (2013.1, Build901 2013/11/27)

>  <Rbt.Parameter_File>
/export/apps/rDock/src/rDock_2013.1_src/data/scripts/dock_solv.prm

>  <Rbt.Receptor>
prm/blind_docking_40.prm

>  <SCORE>
14.0356

>  <SCORE.INTER>
-1.55209

>  <SCORE.INTER.CONST>
1

>  <SCORE.INTER.POLAR>
-0.627273

>  <SCORE.INTER.ROT>
6

>  <SCORE.INTER.SOLV>
11.8177

>  <SCORE.INTER.VDW>
-10.4831

>  <SCORE.INTER.norm>
-0.0500673

>  <SCORE.INTRA>
3.83461

>  <SCORE.INTRA.DIHEDRAL>
2.85363

>  <SCORE.INTRA.DIHEDRAL.0>
22.2484

>  <SCORE.INTRA.POLAR>
0

>  <SCORE.INTRA.POLAR.0>
0

>  <SCORE.INTRA.REPUL>
0

>  <SCORE.INTRA.REPUL.0>
0

>  <SCORE.INTRA.SOLV>
-0.65486

>  <SCORE.INTRA.SOLV.lig_0>
-75.7198

>  <SCORE.INTRA.VDW>
2.73522

>  <SCORE.INTRA.VDW.0>
-3.34171

>  <SCORE.INTRA.norm>
0.123697

>  <SCORE.RESTR>
11.7531

>  <SCORE.RESTR.CAVITY>
11.7531

>  <SCORE.RESTR.norm>
0.379133

>  <SCORE.SYSTEM>
0

>  <SCORE.SYSTEM.CONST>
0

>  <SCORE.SYSTEM.DIHEDRAL>
0

>  <SCORE.SYSTEM.SOLV>
0

>  <SCORE.SYSTEM.norm>
0

>  <SCORE.heavy>
31

>  <SCORE.norm>
0.452763

>  <RMSD>
8.371

$$$$
2et3_lig
 OpenBabel11021811423D
libRbt.so/2013.1/901 2013/11/27
 31 33  0  0  0  0  0  0  0  0999 V2000
   -0.3790   -4.0088   30.7931 C   0  0  2  0  0  0  0  0  0  0  0  0
   -0.5575   -4.3429   32.1941 O   0  0  0  0  0  0  0  0  0  0  0  0
    1.9253   -3.9840   35.6602 C   0  0  2  0  0  0  0  0  0  0  0  0
    3.0922   -4.0399   36.4853 N   0  0  0  0  0  0  0  0  0  0  0  0
    1.4728   -0.8791   35.6539 C   0  0  2  0  0  0  0  0  0  0  0  0
   -1.7456   -3.7992   30.1322 C   0  0  2  0  0  0  0  0  0  0  0  0
   -2.4520   -2.7877   30.8560 N   0  0  0  0  0  0  0  0  0  0  0  0
    1.5856   -5.4175   35.1386 C   0  0  0  0  0  0  0  0  0  0  0  0
    2.2241    0.3897   36.1136 C   0  0  2  0  0  0  0  0  0  0  0  0
    2.7714    1.0314   34.9835 O   0  0  0  0  0  0  0  0  0  0  0  0
   -2.5426   -5.1475   30.0850 C   0  0  0  0  0  0  0  0  0  0  0  0
    0.3082   -5.3642   34.2229 C   0  0  2  0  0  0  0  0  0  0  0  0
   -0.0157   -6.7120   33.7286 N   0  0  0  0  0  0  0  0  0  0  0  0
    3.3452   -0.0522   37.1406 C   0  0  1  0  0  0  0  0  0  0  0  0
    4.1575    1.1202   37.6039 N   0  0  0  0  0  0  0  0  0  0  0  0
   -1.7087   -6.1725   29.2540 C   0  0  0  0  0  0  0  0  0  0  0  0
    0.5624   -4.3768   33.0199 C   0  0  2  0  0  0  0  0  0  0  0  0
    2.6763   -0.7995   38.4125 C   0  0  1  0  0  0  0  0  0  0  0  0
    1.8110    0.0646   39.1197 O   0  0  0  0  0  0  0  0  0  0  0  0
   -0.2857   -6.3482   29.9460 C   0  0  2  0  0  0  0  0  0  0  0  0
    0.4098   -5.0734   30.1146 O   0  0  0  0  0  0  0  0  0  0  0  0
    0.9044   -2.9417   33.5779 C   0  0  2  0  0  0  0  0  0  0  0  0
    1.1342   -2.0322   32.5066 O   0  0  0  0  0  0  0  0  0  0  0  0
    1.8289   -2.0076   37.9065 C   0  0  0  0  0  0  0  0  0  0  0  0
    0.8756   -1.5717   36.8322 O   0  0  0  0  0  0  0  0  0  0  0  0
    0.6230   -7.3334   29.2490 C   0  0  0  0  0  0  0  0  0  0  0  0
    0.9293   -6.9202   27.9047 N   0  0  0  0  0  0  0  0  0  0  0  0
    2.1792   -3.0153   34.4898 C   0  0  1  0  0  0  0  0  0  0  0  0
    2.4666   -1.7144   34.9883 O   0  0  0  0  0  0  0  0  0  0  0  0
    3.6336   -1.3065   39.4998 C   0  0  0  0  0  0  0  0  0  0  0  0
    3.5054    2.0669   38.5240 C   0  0  0  0  0  0  0  0  0  0  0  0
  1  2  1  1  0  0  0
  1  6  1  0  0  0  0
  1 21  1  0  0  0  0
  3  4  1  1  0  0  0
  3  8  1  0  0  0  0
  3 28  1  0  0  0  0
  5  9  1  0  0  0  0
  5 25  1  0  0  0  0
  5 29  1  1  0  0  0
  6  7  1  1  0  0  0
  6 11  1  0  0  0  0
  8 12  1  0  0  0  0
  9 10  1  6  0  0  0
  9 14  1  0  0  0  0
 11 16  1  0  0  0  0
 12 13  1  6  0  0  0
 12 17  1  0  0  0  0
 14 15  1  1  0  0  0
 14 18  1  0  0  0  0
 15 31  1  0  0  0  0
 16 20  1  0  0  0  0
 17  2  1  6  0  0  0
 17 22  1  0  0  0  0
 18 19  1  1  0  0  0
 18 24  1  0  0  0  0
 18 30  1  0  0  0  0
 20 21  1  0  0  0  0
 20 26  1  6  0  0  0
 22 23  1  6  0  0  0
 22 28  1  0  0  0  0
 24 25  1  0  0  0  0
 26 27  1  0  0  0  0
 28 29  1  1  0  0  0
M  END
>  <CHROM.1>
-170.53485296,176.20194087,72.11799060,-153.36368747,61.86322388,-68.72809442
1.13359537,-2.97323923,34.09128393,2.52152574,1.13271475,-3.09404143

>  <Name>
2et3_lig

>  <RI>
0

>  <Rbt.Current_Directory>
/home/itssahil/PROJECTS/Mol_Feturizer/New_Systems/rnas/2et3

>  <Rbt.Executable>
rbdock ($Id: //depot/dev/client3/rdock/2013.1/src/exe/rbdock.cxx#4 $)

>  <Rbt.Library>
libRbt.so (2013.1, Build901 2013/11/27)

>  <Rbt.Parameter_File>
/export/apps/rDock/src/rDock_2013.1_src/data/scripts/dock_solv.prm

>  <Rbt.Receptor>
prm/blind_docking_40.prm

>  <SCORE>
16.7275

>  <SCORE.INTER>
14.103

>  <SCORE.INTER.CONST>
1

>  <SCORE.INTER.POLAR>
-0.411939

>  <SCORE.INTER.ROT>
6

>  <SCORE.INTER.SOLV>
14.9785

>  <SCORE.INTER.VDW>
-1.8177

>  <SCORE.INTER.norm>
0.454935

>  <SCORE.INTRA>
-4.81168

>  <SCORE.INTRA.DIHEDRAL>
-18.1144

>  <SCORE.INTRA.DIHEDRAL.0>
22.2484

>  <SCORE.INTRA.POLAR>
0

>  <SCORE.INTRA.POLAR.0>
0

>  <SCORE.INTRA.REPUL>
0

>  <SCORE.INTRA.REPUL.0>
0

>  <SCORE.INTRA.SOLV>
0.788023

>  <SCORE.INTRA.SOLV.lig_0>
-75.7198

>  <SCORE.INTRA.VDW>
3.85152

>  <SCORE.INTRA.VDW.0>
-3.34171

>  <SCORE.INTRA.norm>
-0.155216

>  <SCORE.RESTR>
7.43621

>  <SCORE.RESTR.CAVITY>
7.43621

>  <SCORE.RESTR.norm>
0.239878

>  <SCORE.SYSTEM>
0

>  <SCORE.SYSTEM.CONST>
0

>  <SCORE.SYSTEM.DIHEDRAL>
0

>  <SCORE.SYSTEM.SOLV>
0

>  <SCORE.SYSTEM.norm>
0

>  <SCORE.heavy>
31

>  <SCORE.norm>
0.539597

>  <RMSD>
8.376

$$$$
2et3_lig
 OpenBabel11021811423D
libRbt.so/2013.1/901 2013/11/27
 31 33  0  0  0  0  0  0  0  0999 V2000
   -0.0348   -4.6579   30.5758 C   0  0  2  0  0  0  0  0  0  0  0  0
   -0.5469   -4.7151   31.9325 O   0  0  0  0  0  0  0  0  0  0  0  0
    1.0028   -3.8951   35.8354 C   0  0  2  0  0  0  0  0  0  0  0  0
    1.9443   -3.7644   36.9040 N   0  0  0  0  0  0  0  0  0  0  0  0
    2.3147   -0.5861   34.6165 C   0  0  2  0  0  0  0  0  0  0  0  0
   -1.1904   -4.4333   29.5947 C   0  0  2  0  0  0  0  0  0  0  0  0
   -1.8856   -3.2420   29.9739 N   0  0  0  0  0  0  0  0  0  0  0  0
    0.9652   -5.3805   35.3513 C   0  0  0  0  0  0  0  0  0  0  0  0
    3.6930   -0.8659   35.2550 C   0  0  2  0  0  0  0  0  0  0  0  0
    4.1065   -2.1660   34.8984 O   0  0  0  0  0  0  0  0  0  0  0  0
   -2.1388   -5.6805   29.5723 C   0  0  0  0  0  0  0  0  0  0  0  0
   -0.0616   -5.5318   34.1699 C   0  0  2  0  0  0  0  0  0  0  0  0
   -0.1004   -6.9292   33.7100 N   0  0  0  0  0  0  0  0  0  0  0  0
    3.5463   -0.7039   36.8232 C   0  0  1  0  0  0  0  0  0  0  0  0
    4.8347   -1.0056   37.5288 N   0  0  0  0  0  0  0  0  0  0  0  0
   -1.2996   -6.9171   29.1214 C   0  0  0  0  0  0  0  0  0  0  0  0
    0.3465   -4.5689   32.9897 C   0  0  2  0  0  0  0  0  0  0  0  0
    3.0534    0.7954   37.1876 C   0  0  1  0  0  0  0  0  0  0  0  0
    3.9992    1.7612   36.7774 O   0  0  0  0  0  0  0  0  0  0  0  0
   -0.0911   -7.1087   30.1401 C   0  0  2  0  0  0  0  0  0  0  0  0
    0.7233   -5.9013   30.2672 O   0  0  0  0  0  0  0  0  0  0  0  0
    0.3775   -3.0801   33.5096 C   0  0  2  0  0  0  0  0  0  0  0  0
    0.7408   -2.1923   32.4572 O   0  0  0  0  0  0  0  0  0  0  0  0
    1.7190    1.0905   36.4354 C   0  0  0  0  0  0  0  0  0  0  0  0
    1.8592    0.7890   34.9718 O   0  0  0  0  0  0  0  0  0  0  0  0
    0.7979   -8.2897   29.8291 C   0  0  0  0  0  0  0  0  0  0  0  0
    0.0496   -9.5168   29.7513 N   0  0  0  0  0  0  0  0  0  0  0  0
    1.4053   -2.9494   34.6881 C   0  0  1  0  0  0  0  0  0  0  0  0
    1.4133   -1.6031   35.1471 O   0  0  0  0  0  0  0  0  0  0  0  0
    2.8469    1.1142   38.6747 C   0  0  0  0  0  0  0  0  0  0  0  0
    4.7447   -1.7149   38.8160 C   0  0  0  0  0  0  0  0  0  0  0  0
  1  2  1  1  0  0  0
  1  6  1  0  0  0  0
  1 21  1  0  0  0  0
  3  4  1  1  0  0  0
  3  8  1  0  0  0  0
  3 28  1  0  0  0  0
  5  9  1  0  0  0  0
  5 25  1  0  0  0  0
  5 29  1  1  0  0  0
  6  7  1  1  0  0  0
  6 11  1  0  0  0  0
  8 12  1  0  0  0  0
  9 10  1  1  0  0  0
  9 14  1  0  0  0  0
 11 16  1  0  0  0  0
 12 13  1  6  0  0  0
 12 17  1  0  0  0  0
 14 15  1  1  0  0  0
 14 18  1  0  0  0  0
 15 31  1  0  0  0  0
 16 20  1  0  0  0  0
 17  2  1  6  0  0  0
 17 22  1  0  0  0  0
 18 19  1  6  0  0  0
 18 24  1  0  0  0  0
 18 30  1  0  0  0  0
 20 21  1  0  0  0  0
 20 26  1  6  0  0  0
 22 23  1  6  0  0  0
 22 28  1  0  0  0  0
 24 25  1  0  0  0  0
 26 27  1  0  0  0  0
 28 29  1  1  0  0  0
M  END
>  <CHROM.1>
-163.72897486,-76.87365254,-142.30144656,-142.24168264,-55.59342031,148.81836995
1.28744411,-3.24451755,33.80542260,2.39329470,1.01913535,-3.07759609

>  <Name>
2et3_lig

>  <RI>
0

>  <Rbt.Current_Directory>
/home/itssahil/PROJECTS/Mol_Feturizer/New_Systems/rnas/2et3

>  <Rbt.Executable>
rbdock ($Id: //depot/dev/client3/rdock/2013.1/src/exe/rbdock.cxx#4 $)

>  <Rbt.Library>
libRbt.so (2013.1, Build901 2013/11/27)

>  <Rbt.Parameter_File>
/export/apps/rDock/src/rDock_2013.1_src/data/scripts/dock_solv.prm

>  <Rbt.Receptor>
prm/blind_docking_40.prm

>  <SCORE>
6.96592

>  <SCORE.INTER>
4.70107

>  <SCORE.INTER.CONST>
1

>  <SCORE.INTER.POLAR>
-1.97938

>  <SCORE.INTER.ROT>
6

>  <SCORE.INTER.SOLV>
16.1702

>  <SCORE.INTER.VDW>
-3.25809

>  <SCORE.INTER.norm>
0.151647

>  <SCORE.INTRA>
-5.0368

>  <SCORE.INTRA.DIHEDRAL>
-9.80536

>  <SCORE.INTRA.DIHEDRAL.0>
22.2484

>  <SCORE.INTRA.POLAR>
0

>  <SCORE.INTRA.POLAR.0>
0

>  <SCORE.INTRA.REPUL>
0

>  <SCORE.INTRA.REPUL.0>
0

>  <SCORE.INTRA.SOLV>
0.375844

>  <SCORE.INTRA.SOLV.lig_0>
-75.7198

>  <SCORE.INTRA.VDW>
-0.322039

>  <SCORE.INTRA.VDW.0>
-3.34171

>  <SCORE.INTRA.norm>
-0.162477

>  <SCORE.RESTR>
7.30165

>  <SCORE.RESTR.CAVITY>
7.30165

>  <SCORE.RESTR.norm>
0.235537

>  <SCORE.SYSTEM>
0

>  <SCORE.SYSTEM.CONST>
0

>  <SCORE.SYSTEM.DIHEDRAL>
0

>  <SCORE.SYSTEM.SOLV>
0

>  <SCORE.SYSTEM.norm>
0

>  <SCORE.heavy>
31

>  <SCORE.norm>
0.224707

>  <RMSD>
8.382

$$$$
2et3_lig
 OpenBabel11021811423D
libRbt.so/2013.1/901 2013/11/27
 31 33  0  0  0  0  0  0  0  0999 V2000
    0.0586   -4.6254   31.0274 C   0  0  2  0  0  0  0  0  0  0  0  0
   -0.4536   -4.9264   32.3516 O   0  0  0  0  0  0  0  0  0  0  0  0
    1.0618   -3.8944   36.2174 C   0  0  2  0  0  0  0  0  0  0  0  0
    1.9640   -3.8034   37.3235 N   0  0  0  0  0  0  0  0  0  0  0  0
    0.9029   -0.8813   35.5909 C   0  0  2  0  0  0  0  0  0  0  0  0
   -1.0695   -4.0757   30.1480 C   0  0  2  0  0  0  0  0  0  0  0  0
   -1.6360   -2.9324   30.7945 N   0  0  0  0  0  0  0  0  0  0  0  0
    0.7465   -5.3964   35.9231 C   0  0  0  0  0  0  0  0  0  0  0  0
    1.5448    0.5154   35.4390 C   0  0  2  0  0  0  0  0  0  0  0  0
    2.0070    0.6644   34.1151 O   0  0  0  0  0  0  0  0  0  0  0  0
   -2.1427   -5.1853   29.8784 C   0  0  0  0  0  0  0  0  0  0  0  0
   -0.2385   -5.5066   34.7022 C   0  0  2  0  0  0  0  0  0  0  0  0
   -0.5382   -6.9195   34.4206 N   0  0  0  0  0  0  0  0  0  0  0  0
    2.7233    0.6278   36.4904 C   0  0  1  0  0  0  0  0  0  0  0  0
    3.4349    1.9430   36.3783 N   0  0  0  0  0  0  0  0  0  0  0  0
   -1.4378   -6.3715   29.1484 C   0  0  0  0  0  0  0  0  0  0  0  0
    0.4051   -4.8124   33.4410 C   0  0  2  0  0  0  0  0  0  0  0  0
    2.1528    0.4333   37.9939 C   0  0  1  0  0  0  0  0  0  0  0  0
    1.2276    1.4472   38.3276 O   0  0  0  0  0  0  0  0  0  0  0  0
   -0.2536   -6.9027   30.0704 C   0  0  2  0  0  0  0  0  0  0  0  0
    0.6824   -5.8412   30.4368 O   0  0  0  0  0  0  0  0  0  0  0  0
    0.7131   -3.3009   33.7699 C   0  0  2  0  0  0  0  0  0  0  0  0
    1.2922   -2.6534   32.6415 O   0  0  0  0  0  0  0  0  0  0  0  0
    1.4086   -0.9348   38.0840 C   0  0  0  0  0  0  0  0  0  0  0  0
    0.3968   -1.0598   36.9825 O   0  0  0  0  0  0  0  0  0  0  0  0
    0.5068   -8.0707   29.4878 C   0  0  0  0  0  0  0  0  0  0  0  0
    1.7265   -8.3276   30.2077 N   0  0  0  0  0  0  0  0  0  0  0  0
    1.6950   -3.2114   34.9906 C   0  0  1  0  0  0  0  0  0  0  0  0
    1.9544   -1.8421   35.2756 O   0  0  0  0  0  0  0  0  0  0  0  0
    3.1754    0.4998   39.1365 C   0  0  0  0  0  0  0  0  0  0  0  0
    4.8432    1.9827   36.8064 C   0  0  0  0  0  0  0  0  0  0  0  0
  1  2  1  1  0  0  0
  1  6  1  0  0  0  0
  1 21  1  0  0  0  0
  3  4  1  1  0  0  0
  3  8  1  0  0  0  0
  3 28  1  0  0  0  0
  5  9  1  0  0  0  0
  5 25  1  0  0  0  0
  5 29  1  1  0  0  0
  6  7  1  1  0  0  0
  6 11  1  0  0  0  0
  8 12  1  0  0  0  0
  9 10  1  6  0  0  0
  9 14  1  0  0  0  0
 11 16  1  0  0  0  0
 12 13  1  6  0  0  0
 12 17  1  0  0  0  0
 14 15  1  1  0  0  0
 14 18  1  0  0  0  0
 15 31  1  0  0  0  0
 16 20  1  0  0  0  0
 17  2  1  6  0  0  0
 17 22  1  0  0  0  0
 18 19  1  1  0  0  0
 18 24  1  0  0  0  0
 18 30  1  0  0  0  0
 20 21  1  0  0  0  0
 20 26  1  6  0  0  0
 22 23  1  6  0  0  0
 22 28  1  0  0  0  0
 24 25  1  0  0  0  0
 26 27  1  0  0  0  0
 28 29  1  1  0  0  0
M  END
>  <CHROM.1>
-149.54257095,-164.54679339,-153.30681810,-166.45227415,167.62046440,-62.53213754
0.94818997,-2.96995491,34.12988771,3.06276936,1.28687226,2.43326535

>  <Name>
2et3_lig

>  <RI>
0

>  <Rbt.Current_Directory>
/home/itssahil/PROJECTS/Mol_Feturizer/New_Systems/rnas/2et3

>  <Rbt.Executable>
rbdock ($Id: //depot/dev/client3/rdock/2013.1/src/exe/rbdock.cxx#4 $)

>  <Rbt.Library>
libRbt.so (2013.1, Build901 2013/11/27)

>  <Rbt.Parameter_File>
/export/apps/rDock/src/rDock_2013.1_src/data/scripts/dock_solv.prm

>  <Rbt.Receptor>
prm/blind_docking_40.prm

>  <SCORE>
0.810079

>  <SCORE.INTER>
-1.07378

>  <SCORE.INTER.CONST>
1

>  <SCORE.INTER.POLAR>
-1.43885

>  <SCORE.INTER.ROT>
6

>  <SCORE.INTER.SOLV>
22.6402

>  <SCORE.INTER.VDW>
-11.0664

>  <SCORE.INTER.norm>
-0.034638

>  <SCORE.INTRA>
-7.09548

>  <SCORE.INTRA.DIHEDRAL>
-15.4415

>  <SCORE.INTRA.DIHEDRAL.0>
22.2484

>  <SCORE.INTRA.POLAR>
0

>  <SCORE.INTRA.POLAR.0>
0

>  <SCORE.INTRA.REPUL>
0

>  <SCORE.INTRA.REPUL.0>
0

>  <SCORE.INTRA.SOLV>
-0.708603

>  <SCORE.INTRA.SOLV.lig_0>
-75.7198

>  <SCORE.INTRA.VDW>
0.97959

>  <SCORE.INTRA.VDW.0>
-3.34171

>  <SCORE.INTRA.norm>
-0.228887

>  <SCORE.RESTR>
8.97934

>  <SCORE.RESTR.CAVITY>
8.97934

>  <SCORE.RESTR.norm>
0.289656

>  <SCORE.SYSTEM>
0

>  <SCORE.SYSTEM.CONST>
0

>  <SCORE.SYSTEM.DIHEDRAL>
0

>  <SCORE.SYSTEM.SOLV>
0

>  <SCORE.SYSTEM.norm>
0

>  <SCORE.heavy>
31

>  <SCORE.norm>
0.0261316

>  <RMSD>
8.402

$$$$
2et3_lig
 OpenBabel11021811423D
libRbt.so/2013.1/901 2013/11/27
 31 33  0  0  0  0  0  0  0  0999 V2000
    0.0258   -4.7550   31.0411 C   0  0  2  0  0  0  0  0  0  0  0  0
   -0.5051   -4.9062   32.3833 O   0  0  0  0  0  0  0  0  0  0  0  0
    1.0603   -3.8883   36.2329 C   0  0  2  0  0  0  0  0  0  0  0  0
    1.9764   -3.8020   37.3279 N   0  0  0  0  0  0  0  0  0  0  0  0
    0.8973   -0.8710   35.6085 C   0  0  2  0  0  0  0  0  0  0  0  0
   -1.1047   -4.3838   30.0754 C   0  0  2  0  0  0  0  0  0  0  0  0
   -1.7424   -3.1965   30.5546 N   0  0  0  0  0  0  0  0  0  0  0  0
    0.7390   -5.3890   35.9381 C   0  0  0  0  0  0  0  0  0  0  0  0
    1.5409    0.5241   35.4492 C   0  0  2  0  0  0  0  0  0  0  0  0
    1.9924    0.6701   34.1214 O   0  0  0  0  0  0  0  0  0  0  0  0
   -2.1155   -5.5728   29.9340 C   0  0  0  0  0  0  0  0  0  0  0  0
   -0.2614   -5.4939   34.7293 C   0  0  2  0  0  0  0  0  0  0  0  0
   -0.5668   -6.9056   34.4472 N   0  0  0  0  0  0  0  0  0  0  0  0
    2.7281    0.6356   36.4908 C   0  0  1  0  0  0  0  0  0  0  0  0
    3.4415    1.9493   36.3708 N   0  0  0  0  0  0  0  0  0  0  0  0
   -1.3354   -6.8064   29.3804 C   0  0  0  0  0  0  0  0  0  0  0  0
    0.3674   -4.7969   33.4622 C   0  0  2  0  0  0  0  0  0  0  0  0
    2.1695    0.4447   37.9992 C   0  0  1  0  0  0  0  0  0  0  0  0
    1.2491    1.4611   38.3388 O   0  0  0  0  0  0  0  0  0  0  0  0
   -0.1509   -7.1509   30.3869 C   0  0  2  0  0  0  0  0  0  0  0  0
    0.7228   -6.0039   30.6279 O   0  0  0  0  0  0  0  0  0  0  0  0
    0.6819   -3.2869   33.7917 C   0  0  2  0  0  0  0  0  0  0  0  0
    1.2478   -2.6368   32.6582 O   0  0  0  0  0  0  0  0  0  0  0  0
    1.4233   -0.9217   38.0976 C   0  0  0  0  0  0  0  0  0  0  0  0
    0.4022   -1.0463   37.0046 O   0  0  0  0  0  0  0  0  0  0  0  0
    0.6800   -8.3443   29.9780 C   0  0  0  0  0  0  0  0  0  0  0  0
    1.2894   -8.1553   28.6878 N   0  0  0  0  0  0  0  0  0  0  0  0
    1.6791   -3.2025   35.0003 C   0  0  1  0  0  0  0  0  0  0  0  0
    1.9442   -1.8345   35.2862 O   0  0  0  0  0  0  0  0  0  0  0  0
    3.2015    0.5109   39.1333 C   0  0  0  0  0  0  0  0  0  0  0  0
    4.8292    2.0064   36.8599 C   0  0  0  0  0  0  0  0  0  0  0  0
  1  2  1  1  0  0  0
  1  6  1  0  0  0  0
  1 21  1  0  0  0  0
  3  4  1  1  0  0  0
  3  8  1  0  0  0  0
  3 28  1  0  0  0  0
  5  9  1  0  0  0  0
  5 25  1  0  0  0  0
  5 29  1  1  0  0  0
  6  7  1  1  0  0  0
  6 11  1  0  0  0  0
  8 12  1  0  0  0  0
  9 10  1  6  0  0  0
  9 14  1  0  0  0  0
 11 16  1  0  0  0  0
 12 13  1  6  0  0  0
 12 17  1  0  0  0  0
 14 15  1  1  0  0  0
 14 18  1  0  0  0  0
 15 31  1  0  0  0  0
 16 20  1  0  0  0  0
 17  2  1  6  0  0  0
 17 22  1  0  0  0  0
 18 19  1  1  0  0  0
 18 24  1  0  0  0  0
 18 30  1  0  0  0  0
 20 21  1  0  0  0  0
 20 26  1  6  0  0  0
 22 23  1  6  0  0  0
 22 28  1  0  0  0  0
 24 25  1  0  0  0  0
 26 27  1  0  0  0  0
 28 29  1  1  0  0  0
M  END
>  <CHROM.1>
-158.75677632,-164.29208728,-156.75822555,-159.36608406,59.31953209,-62.96730699
0.93698531,-3.02620982,34.12395206,-2.96363040,1.28757116,2.15921033

>  <Name>
2et3_lig

>  <RI>
0

>  <Rbt.Current_Directory>
/home/itssahil/PROJECTS/Mol_Feturizer/New_Systems/rnas/2et3

>  <Rbt.Executable>
rbdock ($Id: //depot/dev/client3/rdock/2013.1/src/exe/rbdock.cxx#4 $)

>  <Rbt.Library>
libRbt.so (2013.1, Build901 2013/11/27)

>  <Rbt.Parameter_File>
/export/apps/rDock/src/rDock_2013.1_src/data/scripts/dock_solv.prm

>  <Rbt.Receptor>
prm/blind_docking_40.prm

>  <SCORE>
-1.23086

>  <SCORE.INTER>
-2.97978

>  <SCORE.INTER.CONST>
1

>  <SCORE.INTER.POLAR>
-1.03802

>  <SCORE.INTER.ROT>
6

>  <SCORE.INTER.SOLV>
17.8576

>  <SCORE.INTER.VDW>
-12.079

>  <SCORE.INTER.norm>
-0.0961219

>  <SCORE.INTRA>
-7.41331

>  <SCORE.INTRA.DIHEDRAL>
-16.6108

>  <SCORE.INTRA.DIHEDRAL.0>
22.2484

>  <SCORE.INTRA.POLAR>
0

>  <SCORE.INTRA.POLAR.0>
0

>  <SCORE.INTRA.REPUL>
0

>  <SCORE.INTRA.REPUL.0>
0

>  <SCORE.INTRA.SOLV>
-0.26536

>  <SCORE.INTRA.SOLV.lig_0>
-75.7198

>  <SCORE.INTRA.VDW>
1.02478

>  <SCORE.INTRA.VDW.0>
-3.34171

>  <SCORE.INTRA.norm>
-0.239139

>  <SCORE.RESTR>
9.16223

>  <SCORE.RESTR.CAVITY>
9.16223

>  <SCORE.RESTR.norm>
0.295556

>  <SCORE.SYSTEM>
0

>  <SCORE.SYSTEM.CONST>
0

>  <SCORE.SYSTEM.DIHEDRAL>
0

>  <SCORE.SYSTEM.SOLV>
0

>  <SCORE.SYSTEM.norm>
0

>  <SCORE.heavy>
31

>  <SCORE.norm>
-0.0397051

>  <RMSD>
8.409

$$$$
2et3_lig
 OpenBabel11021811423D
libRbt.so/2013.1/901 2013/11/27
 31 33  0  0  0  0  0  0  0  0999 V2000
   -0.7944  -11.6334   31.3967 C   0  0  2  0  0  0  0  0  0  0  0  0
   -1.7893  -11.6018   30.3406 O   0  0  0  0  0  0  0  0  0  0  0  0
   -2.6084   -8.4010   27.6220 C   0  0  2  0  0  0  0  0  0  0  0  0
   -3.0488   -7.1268   27.1448 N   0  0  0  0  0  0  0  0  0  0  0  0
    0.4946   -6.6295   28.8221 C   0  0  2  0  0  0  0  0  0  0  0  0
   -0.5934  -13.0749   31.8764 C   0  0  2  0  0  0  0  0  0  0  0  0
   -0.2327  -13.8834   30.7529 N   0  0  0  0  0  0  0  0  0  0  0  0
   -3.8176   -9.1725   28.2424 C   0  0  0  0  0  0  0  0  0  0  0  0
    1.2554   -5.7941   27.7691 C   0  0  2  0  0  0  0  0  0  0  0  0
    0.3228   -5.0610   27.0066 O   0  0  0  0  0  0  0  0  0  0  0  0
   -1.8891  -13.6017   32.5827 C   0  0  0  0  0  0  0  0  0  0  0  0
   -3.3406  -10.5721   28.7780 C   0  0  2  0  0  0  0  0  0  0  0  0
   -4.4758  -11.3026   29.3638 N   0  0  0  0  0  0  0  0  0  0  0  0
    2.0973   -6.7900   26.8712 C   0  0  1  0  0  0  0  0  0  0  0  0
    2.8341   -6.0618   25.7870 N   0  0  0  0  0  0  0  0  0  0  0  0
   -2.1824  -12.6770   33.8057 C   0  0  0  0  0  0  0  0  0  0  0  0
   -2.1999  -10.3668   29.8472 C   0  0  2  0  0  0  0  0  0  0  0  0
    3.1416   -7.6232   27.7871 C   0  0  1  0  0  0  0  0  0  0  0  0
    4.0762   -6.7663   28.4097 O   0  0  0  0  0  0  0  0  0  0  0  0
   -2.3573  -11.1837   33.2820 C   0  0  2  0  0  0  0  0  0  0  0  0
   -1.2042  -10.7297   32.5064 O   0  0  0  0  0  0  0  0  0  0  0  0
   -0.9968   -9.5848   29.1924 C   0  0  2  0  0  0  0  0  0  0  0  0
    0.0474   -9.3917   30.1411 O   0  0  0  0  0  0  0  0  0  0  0  0
    2.3549   -8.3632   28.9129 C   0  0  0  0  0  0  0  0  0  0  0  0
    1.4615   -7.4080   29.6491 O   0  0  0  0  0  0  0  0  0  0  0  0
   -2.6648  -10.1800   34.3682 C   0  0  0  0  0  0  0  0  0  0  0  0
   -3.9687  -10.3927   34.9397 N   0  0  0  0  0  0  0  0  0  0  0  0
   -1.4920   -8.1932   28.6628 C   0  0  1  0  0  0  0  0  0  0  0  0
   -0.3957   -7.5073   28.0704 O   0  0  0  0  0  0  0  0  0  0  0  0
    4.0286   -8.6485   27.0677 C   0  0  0  0  0  0  0  0  0  0  0  0
    2.0852   -5.7527   24.5575 C   0  0  0  0  0  0  0  0  0  0  0  0
  1  2  1  6  0  0  0
  1  6  1  0  0  0  0
  1 21  1  0  0  0  0
  3  4  1  1  0  0  0
  3  8  1  0  0  0  0
  3 28  1  0  0  0  0
  5  9  1  0  0  0  0
  5 25  1  0  0  0  0
  5 29  1  6  0  0  0
  6  7  1  6  0  0  0
  6 11  1  0  0  0  0
  8 12  1  0  0  0  0
  9 10  1  6  0  0  0
  9 14  1  0  0  0  0
 11 16  1  0  0  0  0
 12 13  1  1  0  0  0
 12 17  1  0  0  0  0
 14 15  1  6  0  0  0
 14 18  1  0  0  0  0
 15 31  1  0  0  0  0
 16 20  1  0  0  0  0
 17  2  1  6  0  0  0
 17 22  1  0  0  0  0
 18 19  1  1  0  0  0
 18 24  1  0  0  0  0
 18 30  1  0  0  0  0
 20 21  1  0  0  0  0
 20 26  1  1  0  0  0
 22 23  1  1  0  0  0
 22 28  1  0  0  0  0
 24 25  1  0  0  0  0
 26 27  1  0  0  0  0
 28 29  1  6  0  0  0
M  END
>  <CHROM.1>
174.57472406,-164.00284437,-83.36735189,-176.54724199,-67.67793968,150.44855016
-0.47265025,-9.17762700,29.52392168,-2.09409797,-0.05170349,-0.83584169

>  <Name>
2et3_lig

>  <RI>
2.5794e+07

>  <Rbt.Current_Directory>
/home/itssahil/PROJECTS/Mol_Feturizer/New_Systems/rnas/2et3

>  <Rbt.Executable>
rbdock ($Id: //depot/dev/client3/rdock/2013.1/src/exe/rbdock.cxx#4 $)

>  <Rbt.Library>
libRbt.so (2013.1, Build901 2013/11/27)

>  <Rbt.Parameter_File>
/export/apps/rDock/src/rDock_2013.1_src/data/scripts/dock_solv.prm

>  <Rbt.Receptor>
prm/pocket_docking_5.prm

>  <SCORE>
-25.9712

>  <SCORE.INTER>
-17.5512

>  <SCORE.INTER.CONST>
1

>  <SCORE.INTER.POLAR>
-0.938083

>  <SCORE.INTER.ROT>
6

>  <SCORE.INTER.SOLV>
13.6227

>  <SCORE.INTER.VDW>
-20.7148

>  <SCORE.INTER.norm>
-0.566169

>  <SCORE.INTRA>
-8.41992

>  <SCORE.INTRA.DIHEDRAL>
-16.5941

>  <SCORE.INTRA.DIHEDRAL.0>
22.2484

>  <SCORE.INTRA.POLAR>
0

>  <SCORE.INTRA.POLAR.0>
0

>  <SCORE.INTRA.REPUL>
0

>  <SCORE.INTRA.REPUL.0>
0

>  <SCORE.INTRA.SOLV>
-3.72374

>  <SCORE.INTRA.SOLV.lig_0>
-75.7198

>  <SCORE.INTRA.VDW>
1.73902

>  <SCORE.INTRA.VDW.0>
-3.34171

>  <SCORE.INTRA.norm>
-0.27161

>  <SCORE.RESTR>
0

>  <SCORE.RESTR.CAVITY>
0

>  <SCORE.RESTR.norm>
0

>  <SCORE.SYSTEM>
0

>  <SCORE.SYSTEM.CONST>
0

>  <SCORE.SYSTEM.DIHEDRAL>
0

>  <SCORE.SYSTEM.SOLV>
0

>  <SCORE.SYSTEM.norm>
0

>  <SCORE.heavy>
31

>  <SCORE.norm>
-0.837779

>  <RMSD>
8.410

$$$$
2et3_lig
 OpenBabel11021811423D
libRbt.so/2013.1/901 2013/11/27
 31 33  0  0  0  0  0  0  0  0999 V2000
   -0.4003   -3.8903   30.7575 C   0  0  2  0  0  0  0  0  0  0  0  0
   -0.5785   -4.1850   32.1673 O   0  0  0  0  0  0  0  0  0  0  0  0
    1.9308   -4.2237   35.6326 C   0  0  2  0  0  0  0  0  0  0  0  0
    3.1074   -4.3573   36.4347 N   0  0  0  0  0  0  0  0  0  0  0  0
    1.5634   -1.3535   36.3386 C   0  0  2  0  0  0  0  0  0  0  0  0
   -1.7635   -3.6387   30.1043 C   0  0  2  0  0  0  0  0  0  0  0  0
   -2.4200   -2.5825   30.8112 N   0  0  0  0  0  0  0  0  0  0  0  0
    1.6228   -5.5836   34.9269 C   0  0  0  0  0  0  0  0  0  0  0  0
    2.1165    0.0493   36.6732 C   0  0  2  0  0  0  0  0  0  0  0  0
    2.0446    0.8562   35.5190 O   0  0  0  0  0  0  0  0  0  0  0  0
   -2.6163   -4.9532   30.0952 C   0  0  0  0  0  0  0  0  0  0  0  0
    0.3349   -5.4436   34.0355 C   0  0  2  0  0  0  0  0  0  0  0  0
    0.0409   -6.7218   33.3681 N   0  0  0  0  0  0  0  0  0  0  0  0
    3.6066   -0.1217   37.1803 C   0  0  1  0  0  0  0  0  0  0  0  0
    4.2382    1.2040   37.4843 N   0  0  0  0  0  0  0  0  0  0  0  0
   -1.8340   -6.0306   29.2803 C   0  0  0  0  0  0  0  0  0  0  0  0
    0.5505   -4.2983   32.9733 C   0  0  2  0  0  0  0  0  0  0  0  0
    3.6457   -1.0680   38.4944 C   0  0  1  0  0  0  0  0  0  0  0  0
    2.9278   -0.4904   39.5651 O   0  0  0  0  0  0  0  0  0  0  0  0
   -0.4127   -6.2500   29.9632 C   0  0  2  0  0  0  0  0  0  0  0  0
    0.3368   -5.0019   30.0964 O   0  0  0  0  0  0  0  0  0  0  0  0
    0.8611   -2.9415   33.7153 C   0  0  2  0  0  0  0  0  0  0  0  0
    1.0558   -1.8915   32.7734 O   0  0  0  0  0  0  0  0  0  0  0  0
    2.9750   -2.4357   38.1581 C   0  0  0  0  0  0  0  0  0  0  0  0
    1.6200   -2.2243   37.5482 O   0  0  0  0  0  0  0  0  0  0  0  0
    0.4473   -7.2876   29.2808 C   0  0  0  0  0  0  0  0  0  0  0  0
    0.7840   -6.9026   27.9353 N   0  0  0  0  0  0  0  0  0  0  0  0
    2.1470   -3.1012   34.6002 C   0  0  1  0  0  0  0  0  0  0  0  0
    2.4058   -1.8710   35.2658 O   0  0  0  0  0  0  0  0  0  0  0  0
    5.0256   -1.3473   39.1057 C   0  0  0  0  0  0  0  0  0  0  0  0
    3.5649    2.0558   38.4789 C   0  0  0  0  0  0  0  0  0  0  0  0
  1  2  1  1  0  0  0
  1  6  1  0  0  0  0
  1 21  1  0  0  0  0
  3  4  1  6  0  0  0
  3  8  1  0  0  0  0
  3 28  1  0  0  0  0
  5  9  1  0  0  0  0
  5 25  1  0  0  0  0
  5 29  1  6  0  0  0
  6  7  1  1  0  0  0
  6 11  1  0  0  0  0
  8 12  1  0  0  0  0
  9 10  1  6  0  0  0
  9 14  1  0  0  0  0
 11 16  1  0  0  0  0
 12 13  1  6  0  0  0
 12 17  1  0  0  0  0
 14 15  1  1  0  0  0
 14 18  1  0  0  0  0
 15 31  1  0  0  0  0
 16 20  1  0  0  0  0
 17  2  1  1  0  0  0
 17 22  1  0  0  0  0
 18 19  1  1  0  0  0
 18 24  1  0  0  0  0
 18 30  1  0  0  0  0
 20 21  1  0  0  0  0
 20 26  1  6  0  0  0
 22 23  1  6  0  0  0
 22 28  1  0  0  0  0
 24 25  1  0  0  0  0
 26 27  1  0  0  0  0
 28 29  1  1  0  0  0
M  END
>  <CHROM.1>
-172.98497782,-174.55657055,57.65433542,-142.65092630,63.26900937,-50.36882882
1.27092737,-3.05743184,34.18120620,2.41044610,1.01170657,-2.90384599

>  <Name>
2et3_lig

>  <RI>
0

>  <Rbt.Current_Directory>
/home/itssahil/PROJECTS/Mol_Feturizer/New_Systems/rnas/2et3

>  <Rbt.Executable>
rbdock ($Id: //depot/dev/client3/rdock/2013.1/src/exe/rbdock.cxx#4 $)

>  <Rbt.Library>
libRbt.so (2013.1, Build901 2013/11/27)

>  <Rbt.Parameter_File>
/export/apps/rDock/src/rDock_2013.1_src/data/scripts/dock_solv.prm

>  <Rbt.Receptor>
prm/blind_docking_40.prm

>  <SCORE>
20.2107

>  <SCORE.INTER>
16.7475

>  <SCORE.INTER.CONST>
1

>  <SCORE.INTER.POLAR>
-0.17743

>  <SCORE.INTER.ROT>
6

>  <SCORE.INTER.SOLV>
14.9263

>  <SCORE.INTER.VDW>
-0.819005

>  <SCORE.INTER.norm>
0.540241

>  <SCORE.INTRA>
-3.50612

>  <SCORE.INTRA.DIHEDRAL>
-16.2574

>  <SCORE.INTRA.DIHEDRAL.0>
22.2484

>  <SCORE.INTRA.POLAR>
0

>  <SCORE.INTRA.POLAR.0>
0

>  <SCORE.INTRA.REPUL>
0

>  <SCORE.INTRA.REPUL.0>
0

>  <SCORE.INTRA.SOLV>
1.69254

>  <SCORE.INTRA.SOLV.lig_0>
-75.7198

>  <SCORE.INTRA.VDW>
3.77632

>  <SCORE.INTRA.VDW.0>
-3.34171

>  <SCORE.INTRA.norm>
-0.113101

>  <SCORE.RESTR>
6.96935

>  <SCORE.RESTR.CAVITY>
6.96935

>  <SCORE.RESTR.norm>
0.224818

>  <SCORE.SYSTEM>
0

>  <SCORE.SYSTEM.CONST>
0

>  <SCORE.SYSTEM.DIHEDRAL>
0

>  <SCORE.SYSTEM.SOLV>
0

>  <SCORE.SYSTEM.norm>
0

>  <SCORE.heavy>
31

>  <SCORE.norm>
0.651958

>  <RMSD>
8.412

$$$$
2et3_lig
 OpenBabel11021811423D
libRbt.so/2013.1/901 2013/11/27
 31 33  0  0  0  0  0  0  0  0999 V2000
   -4.3992   -8.3798   32.7518 C   0  0  2  0  0  0  0  0  0  0  0  0
   -2.9652   -8.2559   32.5665 O   0  0  0  0  0  0  0  0  0  0  0  0
   -0.0007   -9.6971   29.8386 C   0  0  2  0  0  0  0  0  0  0  0  0
    0.5705  -10.3433   28.6977 N   0  0  0  0  0  0  0  0  0  0  0  0
    0.8192   -6.7168   29.2141 C   0  0  2  0  0  0  0  0  0  0  0  0
   -4.8719   -7.3849   33.8173 C   0  0  2  0  0  0  0  0  0  0  0  0
   -4.4776   -6.0688   33.4193 N   0  0  0  0  0  0  0  0  0  0  0  0
   -0.7964  -10.7415   30.6862 C   0  0  0  0  0  0  0  0  0  0  0  0
    1.1373   -5.6518   28.1416 C   0  0  2  0  0  0  0  0  0  0  0  0
   -0.0500   -4.9660   27.8122 O   0  0  0  0  0  0  0  0  0  0  0  0
   -4.2901   -7.7693   35.2206 C   0  0  0  0  0  0  0  0  0  0  0  0
   -1.4356  -10.0377   31.9388 C   0  0  2  0  0  0  0  0  0  0  0  0
   -2.1866  -11.0172   32.7402 N   0  0  0  0  0  0  0  0  0  0  0  0
    1.7571   -6.3926   26.8870 C   0  0  1  0  0  0  0  0  0  0  0  0
    2.0534   -5.4322   25.7740 N   0  0  0  0  0  0  0  0  0  0  0  0
   -4.7971   -9.2018   35.5775 C   0  0  0  0  0  0  0  0  0  0  0  0
   -2.3797   -8.8681   31.4621 C   0  0  2  0  0  0  0  0  0  0  0  0
    3.1068   -7.1806   27.3123 C   0  0  1  0  0  0  0  0  0  0  0  0
    4.0993   -6.2877   27.7740 O   0  0  0  0  0  0  0  0  0  0  0  0
   -4.3174  -10.2076   34.4405 C   0  0  2  0  0  0  0  0  0  0  0  0
   -4.7450   -9.7831   33.1085 O   0  0  0  0  0  0  0  0  0  0  0  0
   -1.5493   -7.8335   30.6089 C   0  0  2  0  0  0  0  0  0  0  0  0
   -2.3832   -6.7656   30.1709 O   0  0  0  0  0  0  0  0  0  0  0  0
    2.7772   -8.1650   28.4767 C   0  0  0  0  0  0  0  0  0  0  0  0
    2.0631   -7.4506   29.5869 O   0  0  0  0  0  0  0  0  0  0  0  0
   -4.7280  -11.6429   34.6715 C   0  0  0  0  0  0  0  0  0  0  0  0
   -4.4235  -12.4756   33.5377 N   0  0  0  0  0  0  0  0  0  0  0  0
   -0.9184   -8.5538   29.3659 C   0  0  1  0  0  0  0  0  0  0  0  0
   -0.1687   -7.6070   28.6143 O   0  0  0  0  0  0  0  0  0  0  0  0
    3.8267   -7.9669   26.2081 C   0  0  0  0  0  0  0  0  0  0  0  0
    1.9366   -5.9429   24.3979 C   0  0  0  0  0  0  0  0  0  0  0  0
  1  2  1  1  0  0  0
  1  6  1  0  0  0  0
  1 21  1  0  0  0  0
  3  4  1  6  0  0  0
  3  8  1  0  0  0  0
  3 28  1  0  0  0  0
  5  9  1  0  0  0  0
  5 25  1  0  0  0  0
  5 29  1  6  0  0  0
  6  7  1  6  0  0  0
  6 11  1  0  0  0  0
  8 12  1  0  0  0  0
  9 10  1  6  0  0  0
  9 14  1  0  0  0  0
 11 16  1  0  0  0  0
 12 13  1  6  0  0  0
 12 17  1  0  0  0  0
 14 15  1  6  0  0  0
 14 18  1  0  0  0  0
 15 31  1  0  0  0  0
 16 20  1  0  0  0  0
 17  2  1  1  0  0  0
 17 22  1  0  0  0  0
 18 19  1  1  0  0  0
 18 24  1  0  0  0  0
 18 30  1  0  0  0  0
 20 21  1  0  0  0  0
 20 26  1  1  0  0  0
 22 23  1  6  0  0  0
 22 28  1  0  0  0  0
 24 25  1  0  0  0  0
 26 27  1  0  0  0  0
 28 29  1  1  0  0  0
M  END
>  <CHROM.1>
-167.04342573,-166.82009119,-148.32574932,-113.36636090,172.45906914,-70.44591361
-0.99974576,-8.19035453,30.44456943,2.63699282,-0.71714798,2.83676996

>  <Name>
2et3_lig

>  <RI>
0

>  <Rbt.Current_Directory>
/home/itssahil/PROJECTS/Mol_Feturizer/New_Systems/rnas/2et3

>  <Rbt.Executable>
rbdock ($Id: //depot/dev/client3/rdock/2013.1/src/exe/rbdock.cxx#4 $)

>  <Rbt.Library>
libRbt.so (2013.1, Build901 2013/11/27)

>  <Rbt.Parameter_File>
/export/apps/rDock/src/rDock_2013.1_src/data/scripts/dock_solv.prm

>  <Rbt.Receptor>
prm/pocket_docking_3.prm

>  <SCORE>
-15.9814

>  <SCORE.INTER>
-11.7557

>  <SCORE.INTER.CONST>
1

>  <SCORE.INTER.POLAR>
-0.95124

>  <SCORE.INTER.ROT>
6

>  <SCORE.INTER.SOLV>
16.3923

>  <SCORE.INTER.VDW>
-17.7305

>  <SCORE.INTER.norm>
-0.379217

>  <SCORE.INTRA>
-4.22775

>  <SCORE.INTRA.DIHEDRAL>
-12.1437

>  <SCORE.INTRA.DIHEDRAL.0>
22.2484

>  <SCORE.INTRA.POLAR>
0

>  <SCORE.INTRA.POLAR.0>
0

>  <SCORE.INTRA.REPUL>
0

>  <SCORE.INTRA.REPUL.0>
0

>  <SCORE.INTRA.SOLV>
3.65534

>  <SCORE.INTRA.SOLV.lig_0>
-75.7198

>  <SCORE.INTRA.VDW>
0.016416

>  <SCORE.INTRA.VDW.0>
-3.34171

>  <SCORE.INTRA.norm>
-0.136379

>  <SCORE.RESTR>
0.00210606

>  <SCORE.RESTR.CAVITY>
0.00210606

>  <SCORE.RESTR.norm>
6.79373e-05

>  <SCORE.SYSTEM>
0

>  <SCORE.SYSTEM.CONST>
0

>  <SCORE.SYSTEM.DIHEDRAL>
0

>  <SCORE.SYSTEM.SOLV>
0

>  <SCORE.SYSTEM.norm>
0

>  <SCORE.heavy>
31

>  <SCORE.norm>
-0.515528

>  <RMSD>
8.422

$$$$
2et3_lig
 OpenBabel11021811423D
libRbt.so/2013.1/901 2013/11/27
 31 33  0  0  0  0  0  0  0  0999 V2000
    0.0123   -4.7567   30.8735 C   0  0  2  0  0  0  0  0  0  0  0  0
   -0.5593   -4.9386   32.1950 O   0  0  0  0  0  0  0  0  0  0  0  0
    0.8253   -4.0337   36.1409 C   0  0  2  0  0  0  0  0  0  0  0  0
    1.7041   -3.9432   37.2657 N   0  0  0  0  0  0  0  0  0  0  0  0
    2.2341   -0.8808   34.4917 C   0  0  2  0  0  0  0  0  0  0  0  0
   -1.0933   -4.3946   29.8760 C   0  0  2  0  0  0  0  0  0  0  0  0
   -1.7714   -3.2279   30.3504 N   0  0  0  0  0  0  0  0  0  0  0  0
    0.6279   -5.5344   35.7521 C   0  0  0  0  0  0  0  0  0  0  0  0
    3.7137   -0.8653   34.9346 C   0  0  2  0  0  0  0  0  0  0  0  0
    4.2578   -2.1540   34.7563 O   0  0  0  0  0  0  0  0  0  0  0  0
   -2.0735   -5.6020   29.6843 C   0  0  0  0  0  0  0  0  0  0  0  0
   -0.3306   -5.6431   34.5101 C   0  0  2  0  0  0  0  0  0  0  0  0
   -0.5194   -7.0547   34.1396 N   0  0  0  0  0  0  0  0  0  0  0  0
    3.7648   -0.4089   36.4499 C   0  0  1  0  0  0  0  0  0  0  0  0
    5.1689   -0.4117   36.9766 N   0  0  0  0  0  0  0  0  0  0  0  0
   -1.2497   -6.8109   29.1397 C   0  0  0  0  0  0  0  0  0  0  0  0
    0.2746   -4.8275   33.3038 C   0  0  2  0  0  0  0  0  0  0  0  0
    3.1152    1.0659   36.6127 C   0  0  1  0  0  0  0  0  0  0  0  0
    3.8445    2.0319   35.8844 O   0  0  0  0  0  0  0  0  0  0  0  0
   -0.0922   -7.1458   30.1801 C   0  0  2  0  0  0  0  0  0  0  0  0
    0.7488   -5.9846   30.4663 O   0  0  0  0  0  0  0  0  0  0  0  0
    0.4637   -3.3201   33.7276 C   0  0  2  0  0  0  0  0  0  0  0  0
    1.0065   -2.5638   32.6500 O   0  0  0  0  0  0  0  0  0  0  0  0
    1.6605    1.0475   36.0496 C   0  0  0  0  0  0  0  0  0  0  0  0
    1.6379    0.4757   34.6620 O   0  0  0  0  0  0  0  0  0  0  0  0
    0.7768   -8.3156   29.7824 C   0  0  0  0  0  0  0  0  0  0  0  0
    1.4133   -8.1010   28.5094 N   0  0  0  0  0  0  0  0  0  0  0  0
    1.4206   -3.2321   34.9681 C   0  0  1  0  0  0  0  0  0  0  0  0
    1.5725   -1.8672   35.3388 O   0  0  0  0  0  0  0  0  0  0  0  0
    3.0737    1.6515   38.0308 C   0  0  0  0  0  0  0  0  0  0  0  0
    5.5713   -1.5580   37.8085 C   0  0  0  0  0  0  0  0  0  0  0  0
  1  2  1  1  0  0  0
  1  6  1  0  0  0  0
  1 21  1  0  0  0  0
  3  4  1  1  0  0  0
  3  8  1  0  0  0  0
  3 28  1  0  0  0  0
  5  9  1  0  0  0  0
  5 25  1  0  0  0  0
  5 29  1  1  0  0  0
  6  7  1  1  0  0  0
  6 11  1  0  0  0  0
  8 12  1  0  0  0  0
  9 10  1  1  0  0  0
  9 14  1  0  0  0  0
 11 16  1  0  0  0  0
 12 13  1  6  0  0  0
 12 17  1  0  0  0  0
 14 15  1  6  0  0  0
 14 18  1  0  0  0  0
 15 31  1  0  0  0  0
 16 20  1  0  0  0  0
 17  2  1  6  0  0  0
 17 22  1  0  0  0  0
 18 19  1  6  0  0  0
 18 24  1  0  0  0  0
 18 30  1  0  0  0  0
 20 21  1  0  0  0  0
 20 26  1  6  0  0  0
 22 23  1  6  0  0  0
 22 28  1  0  0  0  0
 24 25  1  0  0  0  0
 26 27  1  0  0  0  0
 28 29  1  1  0  0  0
M  END
>  <CHROM.1>
-158.76887512,-92.61059569,-101.02372250,-155.31995070,58.71296640,173.67159800
1.35694670,-3.22854323,33.73518482,2.61436609,1.09600432,2.91476088

>  <Name>
2et3_lig

>  <RI>
0

>  <Rbt.Current_Directory>
/home/itssahil/PROJECTS/Mol_Feturizer/New_Systems/rnas/2et3

>  <Rbt.Executable>
rbdock ($Id: //depot/dev/client3/rdock/2013.1/src/exe/rbdock.cxx#4 $)

>  <Rbt.Library>
libRbt.so (2013.1, Build901 2013/11/27)

>  <Rbt.Parameter_File>
/export/apps/rDock/src/rDock_2013.1_src/data/scripts/dock_solv.prm

>  <Rbt.Receptor>
prm/blind_docking_40.prm

>  <SCORE>
-2.76407

>  <SCORE.INTER>
-4.60356

>  <SCORE.INTER.CONST>
1

>  <SCORE.INTER.POLAR>
-1.76185

>  <SCORE.INTER.ROT>
6

>  <SCORE.INTER.SOLV>
16.8959

>  <SCORE.INTER.VDW>
-10.4282

>  <SCORE.INTER.norm>
-0.148502

>  <SCORE.INTRA>
-6.753

>  <SCORE.INTRA.DIHEDRAL>
-12.2815

>  <SCORE.INTRA.DIHEDRAL.0>
22.2484

>  <SCORE.INTRA.POLAR>
0

>  <SCORE.INTRA.POLAR.0>
0

>  <SCORE.INTRA.REPUL>
0

>  <SCORE.INTRA.REPUL.0>
0

>  <SCORE.INTRA.SOLV>
-1.40293

>  <SCORE.INTRA.SOLV.lig_0>
-75.7198

>  <SCORE.INTRA.VDW>
0.0891969

>  <SCORE.INTRA.VDW.0>
-3.34171

>  <SCORE.INTRA.norm>
-0.217839

>  <SCORE.RESTR>
8.59249

>  <SCORE.RESTR.CAVITY>
8.59249

>  <SCORE.RESTR.norm>
0.277177

>  <SCORE.SYSTEM>
0

>  <SCORE.SYSTEM.CONST>
0

>  <SCORE.SYSTEM.DIHEDRAL>
0

>  <SCORE.SYSTEM.SOLV>
0

>  <SCORE.SYSTEM.norm>
0

>  <SCORE.heavy>
31

>  <SCORE.norm>
-0.0891637

>  <RMSD>
8.425

$$$$
2et3_lig
 OpenBabel11021811423D
libRbt.so/2013.1/901 2013/11/27
 31 33  0  0  0  0  0  0  0  0999 V2000
   -1.1445   -5.6597   33.7216 C   0  0  2  0  0  0  0  0  0  0  0  0
   -0.7492   -7.0498   33.5891 O   0  0  0  0  0  0  0  0  0  0  0  0
   -0.2207   -9.3289   30.0068 C   0  0  2  0  0  0  0  0  0  0  0  0
   -0.5429  -10.0100   28.7911 N   0  0  0  0  0  0  0  0  0  0  0  0
    1.2316   -6.3071   28.9913 C   0  0  2  0  0  0  0  0  0  0  0  0
   -0.0524   -4.8786   34.4602 C   0  0  2  0  0  0  0  0  0  0  0  0
    1.1803   -5.0377   33.7522 N   0  0  0  0  0  0  0  0  0  0  0  0
   -0.9951   -9.9862   31.1945 C   0  0  0  0  0  0  0  0  0  0  0  0
    1.4581   -5.6279   27.6227 C   0  0  2  0  0  0  0  0  0  0  0  0
    0.2671   -4.9833   27.2296 O   0  0  0  0  0  0  0  0  0  0  0  0
    0.0600   -5.3670   35.9449 C   0  0  0  0  0  0  0  0  0  0  0  0
   -0.6535   -9.2378   32.5347 C   0  0  2  0  0  0  0  0  0  0  0  0
   -1.3809   -9.8529   33.6564 N   0  0  0  0  0  0  0  0  0  0  0  0
    1.8916   -6.7459   26.5888 C   0  0  1  0  0  0  0  0  0  0  0  0
    2.0876   -6.1767   25.2153 N   0  0  0  0  0  0  0  0  0  0  0  0
   -1.3180   -5.1265   36.6379 C   0  0  0  0  0  0  0  0  0  0  0  0
   -1.0293   -7.7125   32.3977 C   0  0  2  0  0  0  0  0  0  0  0  0
    3.2514   -7.4719   27.0865 C   0  0  1  0  0  0  0  0  0  0  0  0
    4.3266   -6.5581   27.1543 O   0  0  0  0  0  0  0  0  0  0  0  0
   -2.4363   -5.9247   35.8336 C   0  0  2  0  0  0  0  0  0  0  0  0
   -2.4585   -5.5702   34.4155 O   0  0  0  0  0  0  0  0  0  0  0  0
   -0.2347   -7.0792   31.1913 C   0  0  2  0  0  0  0  0  0  0  0  0
   -0.5570   -5.6992   31.0519 O   0  0  0  0  0  0  0  0  0  0  0  0
    3.0277   -8.0465   28.5194 C   0  0  0  0  0  0  0  0  0  0  0  0
    2.4821   -6.9888   29.4340 O   0  0  0  0  0  0  0  0  0  0  0  0
   -3.8258   -5.7926   36.4112 C   0  0  0  0  0  0  0  0  0  0  0  0
   -4.2715   -4.4240   36.4251 N   0  0  0  0  0  0  0  0  0  0  0  0
   -0.5868   -7.8395   29.8646 C   0  0  1  0  0  0  0  0  0  0  0  0
    0.1442   -7.2590   28.7913 O   0  0  0  0  0  0  0  0  0  0  0  0
    3.8007   -8.5967   26.1985 C   0  0  0  0  0  0  0  0  0  0  0  0
    0.8808   -5.9617   24.3996 C   0  0  0  0  0  0  0  0  0  0  0  0
  1  2  1  1  0  0  0
  1  6  1  0  0  0  0
  1 21  1  0  0  0  0
  3  4  1  6  0  0  0
  3  8  1  0  0  0  0
  3 28  1  0  0  0  0
  5  9  1  0  0  0  0
  5 25  1  0  0  0  0
  5 29  1  6  0  0  0
  6  7  1  6  0  0  0
  6 11  1  0  0  0  0
  8 12  1  0  0  0  0
  9 10  1  6  0  0  0
  9 14  1  0  0  0  0
 11 16  1  0  0  0  0
 12 13  1  1  0  0  0
 12 17  1  0  0  0  0
 14 15  1  6  0  0  0
 14 18  1  0  0  0  0
 15 31  1  0  0  0  0
 16 20  1  0  0  0  0
 17  2  1  1  0  0  0
 17 22  1  0  0  0  0
 18 19  1  1  0  0  0
 18 24  1  0  0  0  0
 18 30  1  0  0  0  0
 20 21  1  0  0  0  0
 20 26  1  1  0  0  0
 22 23  1  6  0  0  0
 22 28  1  0  0  0  0
 24 25  1  0  0  0  0
 26 27  1  0  0  0  0
 28 29  1  6  0  0  0
M  END
>  <CHROM.1>
-140.42639907,-163.74966176,-80.79725719,-174.00442809,60.57651528,-108.84966513
0.13210475,-6.82786096,30.90192355,-2.64870386,-1.05511849,-2.72019473

>  <Name>
2et3_lig

>  <RI>
0

>  <Rbt.Current_Directory>
/home/itssahil/PROJECTS/Mol_Feturizer/New_Systems/rnas/2et3

>  <Rbt.Executable>
rbdock ($Id: //depot/dev/client3/rdock/2013.1/src/exe/rbdock.cxx#4 $)

>  <Rbt.Library>
libRbt.so (2013.1, Build901 2013/11/27)

>  <Rbt.Parameter_File>
/export/apps/rDock/src/rDock_2013.1_src/data/scripts/dock_solv.prm

>  <Rbt.Receptor>
prm/pocket_docking_7.prm

>  <SCORE>
-16.8708

>  <SCORE.INTER>
-13.9354

>  <SCORE.INTER.CONST>
1

>  <SCORE.INTER.POLAR>
-2.63401

>  <SCORE.INTER.ROT>
6

>  <SCORE.INTER.SOLV>
19.0624

>  <SCORE.INTER.VDW>
-14.4644

>  <SCORE.INTER.norm>
-0.44953

>  <SCORE.INTRA>
-2.93533

>  <SCORE.INTRA.DIHEDRAL>
-8.48252

>  <SCORE.INTRA.DIHEDRAL.0>
22.2484

>  <SCORE.INTRA.POLAR>
0

>  <SCORE.INTRA.POLAR.0>
0

>  <SCORE.INTRA.REPUL>
0

>  <SCORE.INTRA.REPUL.0>
0

>  <SCORE.INTRA.SOLV>
-1.67011

>  <SCORE.INTRA.SOLV.lig_0>
-75.7198

>  <SCORE.INTRA.VDW>
2.14098

>  <SCORE.INTRA.VDW.0>
-3.34171

>  <SCORE.INTRA.norm>
-0.0946882

>  <SCORE.RESTR>
0

>  <SCORE.RESTR.CAVITY>
0

>  <SCORE.RESTR.norm>
0

>  <SCORE.SYSTEM>
0

>  <SCORE.SYSTEM.CONST>
0

>  <SCORE.SYSTEM.DIHEDRAL>
0

>  <SCORE.SYSTEM.SOLV>
0

>  <SCORE.SYSTEM.norm>
0

>  <SCORE.heavy>
31

>  <SCORE.norm>
-0.544218

>  <RMSD>
8.448

$$$$
2et3_lig
 OpenBabel11021811423D
libRbt.so/2013.1/901 2013/11/27
 31 33  0  0  0  0  0  0  0  0999 V2000
   -0.6417   -3.8597   30.7814 C   0  0  2  0  0  0  0  0  0  0  0  0
   -0.8369   -4.2564   32.1636 O   0  0  0  0  0  0  0  0  0  0  0  0
    1.3640   -4.0334   35.8260 C   0  0  2  0  0  0  0  0  0  0  0  0
    2.4726   -3.8837   36.7171 N   0  0  0  0  0  0  0  0  0  0  0  0
    1.1863   -0.2532   35.4993 C   0  0  2  0  0  0  0  0  0  0  0  0
   -2.0010   -3.6655   30.1009 C   0  0  2  0  0  0  0  0  0  0  0  0
   -2.7533   -2.7070   30.8502 N   0  0  0  0  0  0  0  0  0  0  0  0
    1.6094   -5.2596   34.8888 C   0  0  0  0  0  0  0  0  0  0  0  0
    2.7198   -0.0914   35.4100 C   0  0  2  0  0  0  0  0  0  0  0  0
    3.2187   -0.9895   34.4442 O   0  0  0  0  0  0  0  0  0  0  0  0
   -2.7536   -5.0348   29.9826 C   0  0  0  0  0  0  0  0  0  0  0  0
    0.3987   -5.4267   33.8991 C   0  0  2  0  0  0  0  0  0  0  0  0
    0.6253   -6.5802   33.0138 N   0  0  0  0  0  0  0  0  0  0  0  0
    3.3248   -0.3743   36.8456 C   0  0  1  0  0  0  0  0  0  0  0  0
    4.8217   -0.2840   36.8376 N   0  0  0  0  0  0  0  0  0  0  0  0
   -1.8713   -5.9985   29.1284 C   0  0  0  0  0  0  0  0  0  0  0  0
    0.2198   -4.1057   33.0568 C   0  0  2  0  0  0  0  0  0  0  0  0
    2.7131    0.6659   37.9261 C   0  0  1  0  0  0  0  0  0  0  0  0
    3.0570    1.9986   37.6080 O   0  0  0  0  0  0  0  0  0  0  0  0
   -0.4573   -6.1583   29.8424 C   0  0  2  0  0  0  0  0  0  0  0  0
    0.1938   -4.8706   30.0770 O   0  0  0  0  0  0  0  0  0  0  0  0
   -0.0235   -2.8881   34.0294 C   0  0  2  0  0  0  0  0  0  0  0  0
   -0.1915   -1.6840   33.2881 O   0  0  0  0  0  0  0  0  0  0  0  0
    1.1566    0.5621   37.9095 C   0  0  0  0  0  0  0  0  0  0  0  0
    0.6328    0.6947   36.5092 O   0  0  0  0  0  0  0  0  0  0  0  0
    0.4957   -7.0853   29.1253 C   0  0  0  0  0  0  0  0  0  0  0  0
   -0.0323   -8.4204   29.0224 N   0  0  0  0  0  0  0  0  0  0  0  0
    1.1928   -2.7385   35.0094 C   0  0  1  0  0  0  0  0  0  0  0  0
    0.9513   -1.6413   35.8817 O   0  0  0  0  0  0  0  0  0  0  0  0
    3.1889    0.5163   39.3775 C   0  0  0  0  0  0  0  0  0  0  0  0
    5.5705   -1.5348   37.0444 C   0  0  0  0  0  0  0  0  0  0  0  0
  1  2  1  1  0  0  0
  1  6  1  0  0  0  0
  1 21  1  0  0  0  0
  3  4  1  1  0  0  0
  3  8  1  0  0  0  0
  3 28  1  0  0  0  0
  5  9  1  0  0  0  0
  5 25  1  0  0  0  0
  5 29  1  1  0  0  0
  6  7  1  1  0  0  0
  6 11  1  0  0  0  0
  8 12  1  0  0  0  0
  9 10  1  6  0  0  0
  9 14  1  0  0  0  0
 11 16  1  0  0  0  0
 12 13  1  6  0  0  0
 12 17  1  0  0  0  0
 14 15  1  6  0  0  0
 14 18  1  0  0  0  0
 15 31  1  0  0  0  0
 16 20  1  0  0  0  0
 17  2  1  6  0  0  0
 17 22  1  0  0  0  0
 18 19  1  6  0  0  0
 18 24  1  0  0  0  0
 18 30  1  0  0  0  0
 20 21  1  0  0  0  0
 20 26  1  6  0  0  0
 22 23  1  6  0  0  0
 22 28  1  0  0  0  0
 24 25  1  0  0  0  0
 26 27  1  0  0  0  0
 28 29  1  1  0  0  0
M  END
>  <CHROM.1>
-161.36302482,-70.18124550,-111.73356285,-132.72863867,-60.52442777,158.82066328
0.96989649,-2.84165000,33.95783384,2.09072027,0.68066912,-2.59836676

>  <Name>
2et3_lig

>  <RI>
0

>  <Rbt.Current_Directory>
/home/itssahil/PROJECTS/Mol_Feturizer/New_Systems/rnas/2et3

>  <Rbt.Executable>
rbdock ($Id: //depot/dev/client3/rdock/2013.1/src/exe/rbdock.cxx#4 $)

>  <Rbt.Library>
libRbt.so (2013.1, Build901 2013/11/27)

>  <Rbt.Parameter_File>
/export/apps/rDock/src/rDock_2013.1_src/data/scripts/dock_solv.prm

>  <Rbt.Receptor>
prm/blind_docking_40.prm

>  <SCORE>
0.296634

>  <SCORE.INTER>
-2.67803

>  <SCORE.INTER.CONST>
1

>  <SCORE.INTER.POLAR>
-0.209234

>  <SCORE.INTER.ROT>
6

>  <SCORE.INTER.SOLV>
13.2706

>  <SCORE.INTER.VDW>
-13.1114

>  <SCORE.INTER.norm>
-0.0863879

>  <SCORE.INTRA>
-5.47627

>  <SCORE.INTRA.DIHEDRAL>
-10.4643

>  <SCORE.INTRA.DIHEDRAL.0>
22.2484

>  <SCORE.INTRA.POLAR>
0

>  <SCORE.INTRA.POLAR.0>
0

>  <SCORE.INTRA.REPUL>
0

>  <SCORE.INTRA.REPUL.0>
0

>  <SCORE.INTRA.SOLV>
0.439523

>  <SCORE.INTRA.SOLV.lig_0>
-75.7198

>  <SCORE.INTRA.VDW>
-0.4639

>  <SCORE.INTRA.VDW.0>
-3.34171

>  <SCORE.INTRA.norm>
-0.176654

>  <SCORE.RESTR>
8.45093

>  <SCORE.RESTR.CAVITY>
8.45093

>  <SCORE.RESTR.norm>
0.272611

>  <SCORE.SYSTEM>
0

>  <SCORE.SYSTEM.CONST>
0

>  <SCORE.SYSTEM.DIHEDRAL>
0

>  <SCORE.SYSTEM.SOLV>
0

>  <SCORE.SYSTEM.norm>
0

>  <SCORE.heavy>
31

>  <SCORE.norm>
0.00956885

>  <RMSD>
8.475

$$$$
2et3_lig
 OpenBabel11021811423D
libRbt.so/2013.1/901 2013/11/27
 31 33  0  0  0  0  0  0  0  0999 V2000
   -0.6437   -3.8065   30.7905 C   0  0  2  0  0  0  0  0  0  0  0  0
   -0.8379   -4.2271   32.1659 O   0  0  0  0  0  0  0  0  0  0  0  0
    1.3482   -4.0100   35.8374 C   0  0  2  0  0  0  0  0  0  0  0  0
    2.4538   -3.8656   36.7331 N   0  0  0  0  0  0  0  0  0  0  0  0
    1.2135   -0.2308   35.5069 C   0  0  2  0  0  0  0  0  0  0  0  0
   -2.0006   -3.5100   30.1429 C   0  0  2  0  0  0  0  0  0  0  0  0
   -2.6773   -2.5269   30.9314 N   0  0  0  0  0  0  0  0  0  0  0  0
    1.5895   -5.2401   34.9043 C   0  0  0  0  0  0  0  0  0  0  0  0
    2.7501   -0.0968   35.4257 C   0  0  2  0  0  0  0  0  0  0  0  0
    3.2374   -1.0021   34.4607 O   0  0  0  0  0  0  0  0  0  0  0  0
   -2.8397   -4.8261   30.0047 C   0  0  0  0  0  0  0  0  0  0  0  0
    0.3822   -5.4015   33.9097 C   0  0  2  0  0  0  0  0  0  0  0  0
    0.6049   -6.5586   33.0281 N   0  0  0  0  0  0  0  0  0  0  0  0
    3.3426   -0.3932   36.8637 C   0  0  1  0  0  0  0  0  0  0  0  0
    4.8409   -0.3301   36.8634 N   0  0  0  0  0  0  0  0  0  0  0  0
   -2.0356   -5.8196   29.1085 C   0  0  0  0  0  0  0  0  0  0  0  0
    0.2159   -4.0814   33.0633 C   0  0  2  0  0  0  0  0  0  0  0  0
    2.7444    0.6561   37.9431 C   0  0  1  0  0  0  0  0  0  0  0  0
    3.1142    1.9828   37.6292 O   0  0  0  0  0  0  0  0  0  0  0  0
   -0.6214   -6.0861   29.7895 C   0  0  2  0  0  0  0  0  0  0  0  0
    0.1135   -4.8482   30.0438 O   0  0  0  0  0  0  0  0  0  0  0  0
   -0.0236   -2.8598   34.0320 C   0  0  2  0  0  0  0  0  0  0  0  0
   -0.1802   -1.6564   33.2870 O   0  0  0  0  0  0  0  0  0  0  0  0
    1.1865    0.5806   37.9185 C   0  0  0  0  0  0  0  0  0  0  0  0
    0.6722    0.7252   36.5159 O   0  0  0  0  0  0  0  0  0  0  0  0
    0.2582   -7.0511   29.0299 C   0  0  0  0  0  0  0  0  0  0  0  0
    1.5230   -7.2529   29.6868 N   0  0  0  0  0  0  0  0  0  0  0  0
    1.1893   -2.7160   35.0170 C   0  0  1  0  0  0  0  0  0  0  0  0
    0.9514   -1.6151   35.8856 O   0  0  0  0  0  0  0  0  0  0  0  0
    3.2101    0.4952   39.3966 C   0  0  0  0  0  0  0  0  0  0  0  0
    5.5638   -1.5446   37.2766 C   0  0  0  0  0  0  0  0  0  0  0  0
  1  2  1  1  0  0  0
  1  6  1  0  0  0  0
  1 21  1  0  0  0  0
  3  4  1  1  0  0  0
  3  8  1  0  0  0  0
  3 28  1  0  0  0  0
  5  9  1  0  0  0  0
  5 25  1  0  0  0  0
  5 29  1  1  0  0  0
  6  7  1  1  0  0  0
  6 11  1  0  0  0  0
  8 12  1  0  0  0  0
  9 10  1  6  0  0  0
  9 14  1  0  0  0  0
 11 16  1  0  0  0  0
 12 13  1  6  0  0  0
 12 17  1  0  0  0  0
 14 15  1  6  0  0  0
 14 18  1  0  0  0  0
 15 31  1  0  0  0  0
 16 20  1  0  0  0  0
 17  2  1  6  0  0  0
 17 22  1  0  0  0  0
 18 19  1  6  0  0  0
 18 24  1  0  0  0  0
 18 30  1  0  0  0  0
 20 21  1  0  0  0  0
 20 26  1  6  0  0  0
 22 23  1  6  0  0  0
 22 28  1  0  0  0  0
 24 25  1  0  0  0  0
 26 27  1  0  0  0  0
 28 29  1  1  0  0  0
M  END
>  <CHROM.1>
-157.04922702,-69.55818779,-120.96886998,-134.12874993,179.85746152,158.01114852
1.00531005,-2.76937788,33.99334433,2.08977959,0.65755744,-2.56528528

>  <Name>
2et3_lig

>  <RI>
0

>  <Rbt.Current_Directory>
/home/itssahil/PROJECTS/Mol_Feturizer/New_Systems/rnas/2et3

>  <Rbt.Executable>
rbdock ($Id: //depot/dev/client3/rdock/2013.1/src/exe/rbdock.cxx#4 $)

>  <Rbt.Library>
libRbt.so (2013.1, Build901 2013/11/27)

>  <Rbt.Parameter_File>
/export/apps/rDock/src/rDock_2013.1_src/data/scripts/dock_solv.prm

>  <Rbt.Receptor>
prm/blind_docking_40.prm

>  <SCORE>
-2.72215

>  <SCORE.INTER>
-6.47847

>  <SCORE.INTER.CONST>
1

>  <SCORE.INTER.POLAR>
-1.16529

>  <SCORE.INTER.ROT>
6

>  <SCORE.INTER.SOLV>
15.9679

>  <SCORE.INTER.VDW>
-13.3573

>  <SCORE.INTER.norm>
-0.208983

>  <SCORE.INTRA>
-4.69263

>  <SCORE.INTRA.DIHEDRAL>
-9.78966

>  <SCORE.INTRA.DIHEDRAL.0>
22.2484

>  <SCORE.INTRA.POLAR>
0

>  <SCORE.INTRA.POLAR.0>
0

>  <SCORE.INTRA.REPUL>
0

>  <SCORE.INTRA.REPUL.0>
0

>  <SCORE.INTRA.SOLV>
1.60016

>  <SCORE.INTRA.SOLV.lig_0>
-75.7198

>  <SCORE.INTRA.VDW>
-0.597886

>  <SCORE.INTRA.VDW.0>
-3.34171

>  <SCORE.INTRA.norm>
-0.151375

>  <SCORE.RESTR>
8.44895

>  <SCORE.RESTR.CAVITY>
8.44895

>  <SCORE.RESTR.norm>
0.272547

>  <SCORE.SYSTEM>
0

>  <SCORE.SYSTEM.CONST>
0

>  <SCORE.SYSTEM.DIHEDRAL>
0

>  <SCORE.SYSTEM.SOLV>
0

>  <SCORE.SYSTEM.norm>
0

>  <SCORE.heavy>
31

>  <SCORE.norm>
-0.0878114

>  <RMSD>
8.484

$$$$
2et3_lig
 OpenBabel11021811423D
libRbt.so/2013.1/901 2013/11/27
 31 33  0  0  0  0  0  0  0  0999 V2000
   -0.6940   -5.2657   33.8149 C   0  0  2  0  0  0  0  0  0  0  0  0
   -0.6367   -6.7031   33.6233 O   0  0  0  0  0  0  0  0  0  0  0  0
   -0.9177   -8.9250   29.9777 C   0  0  2  0  0  0  0  0  0  0  0  0
   -1.4762   -9.4691   28.7786 N   0  0  0  0  0  0  0  0  0  0  0  0
    0.9203   -5.9747   28.8715 C   0  0  2  0  0  0  0  0  0  0  0  0
    0.3548   -4.8383   34.8472 C   0  0  2  0  0  0  0  0  0  0  0  0
    1.6392   -5.2863   34.4049 N   0  0  0  0  0  0  0  0  0  0  0  0
   -1.7459   -9.4156   31.2088 C   0  0  0  0  0  0  0  0  0  0  0  0
    1.1609   -5.4617   27.4346 C   0  0  2  0  0  0  0  0  0  0  0  0
   -0.0333   -4.8926   26.9465 O   0  0  0  0  0  0  0  0  0  0  0  0
   -0.0067   -5.4075   36.2617 C   0  0  0  0  0  0  0  0  0  0  0  0
   -1.1439   -8.8148   32.5316 C   0  0  2  0  0  0  0  0  0  0  0  0
   -1.9209   -9.2735   33.6941 N   0  0  0  0  0  0  0  0  0  0  0  0
    1.6332   -6.6879   26.5513 C   0  0  1  0  0  0  0  0  0  0  0  0
    1.8452   -6.2852   25.1224 N   0  0  0  0  0  0  0  0  0  0  0  0
   -1.4040   -4.8419   36.6670 C   0  0  0  0  0  0  0  0  0  0  0  0
   -1.1485   -7.2403   32.4457 C   0  0  2  0  0  0  0  0  0  0  0  0
    2.9956   -7.3219   27.1559 C   0  0  1  0  0  0  0  0  0  0  0  0
    4.0534   -6.3859   27.1303 O   0  0  0  0  0  0  0  0  0  0  0  0
   -2.4664   -5.2757   35.5635 C   0  0  2  0  0  0  0  0  0  0  0  0
   -2.0689   -4.8624   34.2187 O   0  0  0  0  0  0  0  0  0  0  0  0
   -0.3077   -6.7773   31.1940 C   0  0  2  0  0  0  0  0  0  0  0  0
   -0.2957   -5.3565   31.0997 O   0  0  0  0  0  0  0  0  0  0  0  0
    2.7548   -7.7232   28.6440 C   0  0  0  0  0  0  0  0  0  0  0  0
    2.1739   -6.5736   29.4144 O   0  0  0  0  0  0  0  0  0  0  0  0
   -3.8746   -4.8059   35.8429 C   0  0  0  0  0  0  0  0  0  0  0  0
   -4.8184   -5.3576   34.9066 N   0  0  0  0  0  0  0  0  0  0  0  0
   -0.9218   -7.3874   29.8853 C   0  0  1  0  0  0  0  0  0  0  0  0
   -0.1464   -6.9647   28.7702 O   0  0  0  0  0  0  0  0  0  0  0  0
    3.5809   -8.5349   26.4200 C   0  0  0  0  0  0  0  0  0  0  0  0
    2.9998   -5.4181   24.8338 C   0  0  0  0  0  0  0  0  0  0  0  0
  1  2  1  1  0  0  0
  1  6  1  0  0  0  0
  1 21  1  0  0  0  0
  3  4  1  6  0  0  0
  3  8  1  0  0  0  0
  3 28  1  0  0  0  0
  5  9  1  0  0  0  0
  5 25  1  0  0  0  0
  5 29  1  6  0  0  0
  6  7  1  6  0  0  0
  6 11  1  0  0  0  0
  8 12  1  0  0  0  0
  9 10  1  6  0  0  0
  9 14  1  0  0  0  0
 11 16  1  0  0  0  0
 12 13  1  1  0  0  0
 12 17  1  0  0  0  0
 14 15  1  6  0  0  0
 14 18  1  0  0  0  0
 15 31  1  0  0  0  0
 16 20  1  0  0  0  0
 17  2  1  1  0  0  0
 17 22  1  0  0  0  0
 18 19  1  6  0  0  0
 18 24  1  0  0  0  0
 18 30  1  0  0  0  0
 20 21  1  0  0  0  0
 20 26  1  1  0  0  0
 22 23  1  6  0  0  0
 22 28  1  0  0  0  0
 24 25  1  0  0  0  0
 26 27  1  0  0  0  0
 28 29  1  6  0  0  0
M  END
>  <CHROM.1>
-158.25899739,-161.26000855,70.27859839,-173.03276093,-173.01236595,-127.97975190
0.02614081,-6.54369558,30.87401682,-2.20370769,-0.73179037,-2.14849245

>  <Name>
2et3_lig

>  <RI>
0

>  <Rbt.Current_Directory>
/home/itssahil/PROJECTS/Mol_Feturizer/New_Systems/rnas/2et3

>  <Rbt.Executable>
rbdock ($Id: //depot/dev/client3/rdock/2013.1/src/exe/rbdock.cxx#4 $)

>  <Rbt.Library>
libRbt.so (2013.1, Build901 2013/11/27)

>  <Rbt.Parameter_File>
/export/apps/rDock/src/rDock_2013.1_src/data/scripts/dock_solv.prm

>  <Rbt.Receptor>
prm/pocket_docking_7.prm

>  <SCORE>
-19.9718

>  <SCORE.INTER>
-18.2119

>  <SCORE.INTER.CONST>
1

>  <SCORE.INTER.POLAR>
-2.6838

>  <SCORE.INTER.ROT>
6

>  <SCORE.INTER.SOLV>
17.3025

>  <SCORE.INTER.VDW>
-16.5628

>  <SCORE.INTER.norm>
-0.58748

>  <SCORE.INTRA>
-1.75989

>  <SCORE.INTRA.DIHEDRAL>
-11.0207

>  <SCORE.INTRA.DIHEDRAL.0>
22.2484

>  <SCORE.INTRA.POLAR>
0

>  <SCORE.INTRA.POLAR.0>
0

>  <SCORE.INTRA.REPUL>
0

>  <SCORE.INTRA.REPUL.0>
0

>  <SCORE.INTRA.SOLV>
-3.31981

>  <SCORE.INTRA.SOLV.lig_0>
-75.7198

>  <SCORE.INTRA.VDW>
5.41035

>  <SCORE.INTRA.VDW.0>
-3.34171

>  <SCORE.INTRA.norm>
-0.0567707

>  <SCORE.RESTR>
0

>  <SCORE.RESTR.CAVITY>
0

>  <SCORE.RESTR.norm>
0

>  <SCORE.SYSTEM>
0

>  <SCORE.SYSTEM.CONST>
0

>  <SCORE.SYSTEM.DIHEDRAL>
0

>  <SCORE.SYSTEM.SOLV>
0

>  <SCORE.SYSTEM.norm>
0

>  <SCORE.heavy>
31

>  <SCORE.norm>
-0.644251

>  <RMSD>
8.495

$$$$
2et3_lig
 OpenBabel11021811423D
libRbt.so/2013.1/901 2013/11/27
 31 33  0  0  0  0  0  0  0  0999 V2000
   -2.3004  -10.5774   32.1715 C   0  0  2  0  0  0  0  0  0  0  0  0
   -2.8200  -10.8639   30.8470 O   0  0  0  0  0  0  0  0  0  0  0  0
   -2.8246   -8.4659   27.3036 C   0  0  2  0  0  0  0  0  0  0  0  0
   -3.0865   -7.3633   26.4310 N   0  0  0  0  0  0  0  0  0  0  0  0
    0.0930   -6.5885   28.8833 C   0  0  2  0  0  0  0  0  0  0  0  0
   -2.0257  -11.8888   32.9152 C   0  0  2  0  0  0  0  0  0  0  0  0
   -1.1298  -12.6798   32.1292 N   0  0  0  0  0  0  0  0  0  0  0  0
   -4.1770   -9.0903   27.7761 C   0  0  0  0  0  0  0  0  0  0  0  0
    0.9296   -5.7332   27.9065 C   0  0  2  0  0  0  0  0  0  0  0  0
    0.0568   -4.9633   27.1103 O   0  0  0  0  0  0  0  0  0  0  0  0
   -3.3677  -12.6432   33.2072 C   0  0  0  0  0  0  0  0  0  0  0  0
   -3.8987  -10.2986   28.7434 C   0  0  2  0  0  0  0  0  0  0  0  0
   -5.1695  -10.8900   29.1918 N   0  0  0  0  0  0  0  0  0  0  0  0
    1.8132   -6.7142   27.0325 C   0  0  1  0  0  0  0  0  0  0  0  0
    2.6265   -5.9648   26.0197 N   0  0  0  0  0  0  0  0  0  0  0  0
   -4.2608  -11.7158   34.0898 C   0  0  0  0  0  0  0  0  0  0  0  0
   -3.0504   -9.8025   29.9766 C   0  0  2  0  0  0  0  0  0  0  0  0
    2.7866   -7.5905   27.9856 C   0  0  1  0  0  0  0  0  0  0  0  0
    3.6914   -6.7671   28.6918 O   0  0  0  0  0  0  0  0  0  0  0  0
   -4.5052  -10.3517   33.3061 C   0  0  2  0  0  0  0  0  0  0  0  0
   -3.2537   -9.7066   32.9125 O   0  0  0  0  0  0  0  0  0  0  0  0
   -1.6950   -9.1766   29.4676 C   0  0  2  0  0  0  0  0  0  0  0  0
   -0.9108   -8.7250   30.5670 O   0  0  0  0  0  0  0  0  0  0  0  0
    1.9208   -8.3521   29.0363 C   0  0  0  0  0  0  0  0  0  0  0  0
    0.9955   -7.4062   29.7446 O   0  0  0  0  0  0  0  0  0  0  0  0
   -5.3754   -9.3621   34.0445 C   0  0  0  0  0  0  0  0  0  0  0  0
   -4.7565   -8.9103   35.2630 N   0  0  0  0  0  0  0  0  0  0  0  0
   -1.9928   -7.9750   28.5035 C   0  0  1  0  0  0  0  0  0  0  0  0
   -0.7597   -7.4295   28.0503 O   0  0  0  0  0  0  0  0  0  0  0  0
    3.7035   -8.6068   27.2915 C   0  0  0  0  0  0  0  0  0  0  0  0
    2.0162   -5.7461   24.6977 C   0  0  0  0  0  0  0  0  0  0  0  0
  1  2  1  6  0  0  0
  1  6  1  0  0  0  0
  1 21  1  0  0  0  0
  3  4  1  6  0  0  0
  3  8  1  0  0  0  0
  3 28  1  0  0  0  0
  5  9  1  0  0  0  0
  5 25  1  0  0  0  0
  5 29  1  6  0  0  0
  6  7  1  6  0  0  0
  6 11  1  0  0  0  0
  8 12  1  0  0  0  0
  9 10  1  6  0  0  0
  9 14  1  0  0  0  0
 11 16  1  0  0  0  0
 12 13  1  1  0  0  0
 12 17  1  0  0  0  0
 14 15  1  6  0  0  0
 14 18  1  0  0  0  0
 15 31  1  0  0  0  0
 16 20  1  0  0  0  0
 17  2  1  1  0  0  0
 17 22  1  0  0  0  0
 18 19  1  1  0  0  0
 18 24  1  0  0  0  0
 18 30  1  0  0  0  0
 20 21  1  0  0  0  0
 20 26  1  1  0  0  0
 22 23  1  1  0  0  0
 22 28  1  0  0  0  0
 24 25  1  0  0  0  0
 26 27  1  0  0  0  0
 28 29  1  6  0  0  0
M  END
>  <CHROM.1>
-175.77525036,-155.55401761,-90.38708159,-167.48905827,64.41214450,164.14963247
-1.27373909,-8.75590166,29.71117095,-2.25281613,-0.14998018,-1.06080649

>  <Name>
2et3_lig

>  <RI>
3.86414e+07

>  <Rbt.Current_Directory>
/home/itssahil/PROJECTS/Mol_Feturizer/New_Systems/rnas/2et3

>  <Rbt.Executable>
rbdock ($Id: //depot/dev/client3/rdock/2013.1/src/exe/rbdock.cxx#4 $)

>  <Rbt.Library>
libRbt.so (2013.1, Build901 2013/11/27)

>  <Rbt.Parameter_File>
/export/apps/rDock/src/rDock_2013.1_src/data/scripts/dock_solv.prm

>  <Rbt.Receptor>
prm/pocket_docking_8.prm

>  <SCORE>
-23.8891

>  <SCORE.INTER>
-14.927

>  <SCORE.INTER.CONST>
1

>  <SCORE.INTER.POLAR>
-0.938083

>  <SCORE.INTER.ROT>
6

>  <SCORE.INTER.SOLV>
14.1468

>  <SCORE.INTER.VDW>
-19.14

>  <SCORE.INTER.norm>
-0.481518

>  <SCORE.INTRA>
-8.96208

>  <SCORE.INTRA.DIHEDRAL>
-16.8256

>  <SCORE.INTRA.DIHEDRAL.0>
22.2484

>  <SCORE.INTRA.POLAR>
0

>  <SCORE.INTRA.POLAR.0>
0

>  <SCORE.INTRA.REPUL>
0

>  <SCORE.INTRA.REPUL.0>
0

>  <SCORE.INTRA.SOLV>
-2.81567

>  <SCORE.INTRA.SOLV.lig_0>
-75.7198

>  <SCORE.INTRA.VDW>
0.85854

>  <SCORE.INTRA.VDW.0>
-3.34171

>  <SCORE.INTRA.norm>
-0.289099

>  <SCORE.RESTR>
0

>  <SCORE.RESTR.CAVITY>
0

>  <SCORE.RESTR.norm>
0

>  <SCORE.SYSTEM>
0

>  <SCORE.SYSTEM.CONST>
0

>  <SCORE.SYSTEM.DIHEDRAL>
0

>  <SCORE.SYSTEM.SOLV>
0

>  <SCORE.SYSTEM.norm>
0

>  <SCORE.heavy>
31

>  <SCORE.norm>
-0.770617

>  <RMSD>
8.500

$$$$
2et3_lig
 OpenBabel11021811423D
libRbt.so/2013.1/901 2013/11/27
 31 33  0  0  0  0  0  0  0  0999 V2000
    0.1702   -4.5232   31.3284 C   0  0  2  0  0  0  0  0  0  0  0  0
   -0.3343   -4.8312   32.6539 O   0  0  0  0  0  0  0  0  0  0  0  0
    1.4625   -3.9624   36.4384 C   0  0  2  0  0  0  0  0  0  0  0  0
    2.3944   -4.0084   37.5224 N   0  0  0  0  0  0  0  0  0  0  0  0
    1.8962   -0.9779   35.4838 C   0  0  2  0  0  0  0  0  0  0  0  0
   -0.9228   -3.8332   30.5053 C   0  0  2  0  0  0  0  0  0  0  0  0
   -1.3617   -2.6706   31.2136 N   0  0  0  0  0  0  0  0  0  0  0  0
    0.8436   -5.3808   36.2215 C   0  0  0  0  0  0  0  0  0  0  0  0
    2.8680    0.1863   35.7771 C   0  0  2  0  0  0  0  0  0  0  0  0
    3.7982    0.2821   34.7216 O   0  0  0  0  0  0  0  0  0  0  0  0
   -2.1027   -4.8249   30.2230 C   0  0  0  0  0  0  0  0  0  0  0  0
   -0.1763   -5.3417   35.0251 C   0  0  2  0  0  0  0  0  0  0  0  0
   -0.7617   -6.6757   34.8164 N   0  0  0  0  0  0  0  0  0  0  0  0
    3.5769   -0.1067   37.1622 C   0  0  1  0  0  0  0  0  0  0  0  0
    4.5773    0.9574   37.5024 N   0  0  0  0  0  0  0  0  0  0  0  0
   -1.5323   -6.0395   29.4255 C   0  0  0  0  0  0  0  0  0  0  0  0
    0.5591   -4.8467   33.7210 C   0  0  2  0  0  0  0  0  0  0  0  0
    2.4733   -0.2267   38.3418 C   0  0  1  0  0  0  0  0  0  0  0  0
    1.7657    0.9845   38.5085 O   0  0  0  0  0  0  0  0  0  0  0  0
   -0.3807   -6.7183   30.2902 C   0  0  2  0  0  0  0  0  0  0  0  0
    0.6608   -5.7657   30.6713 O   0  0  0  0  0  0  0  0  0  0  0  0
    1.1738   -3.4160   33.9721 C   0  0  2  0  0  0  0  0  0  0  0  0
    1.8403   -2.9480   32.8041 O   0  0  0  0  0  0  0  0  0  0  0  0
    1.4387   -1.3307   37.9619 C   0  0  0  0  0  0  0  0  0  0  0  0
    0.8948   -1.0938   36.5832 O   0  0  0  0  0  0  0  0  0  0  0  0
    0.2506   -7.9263   29.6391 C   0  0  0  0  0  0  0  0  0  0  0  0
    1.6167   -8.1059   30.0555 N   0  0  0  0  0  0  0  0  0  0  0  0
    2.1865   -3.4747   35.1693 C   0  0  1  0  0  0  0  0  0  0  0  0
    2.7237   -2.1753   35.3843 O   0  0  0  0  0  0  0  0  0  0  0  0
    2.9978   -0.5253   39.7529 C   0  0  0  0  0  0  0  0  0  0  0  0
    4.0491    2.2522   37.9635 C   0  0  0  0  0  0  0  0  0  0  0  0
  1  2  1  1  0  0  0
  1  6  1  0  0  0  0
  1 21  1  0  0  0  0
  3  4  1  1  0  0  0
  3  8  1  0  0  0  0
  3 28  1  0  0  0  0
  5  9  1  0  0  0  0
  5 25  1  0  0  0  0
  5 29  1  1  0  0  0
  6  7  1  1  0  0  0
  6 11  1  0  0  0  0
  8 12  1  0  0  0  0
  9 10  1  6  0  0  0
  9 14  1  0  0  0  0
 11 16  1  0  0  0  0
 12 13  1  6  0  0  0
 12 17  1  0  0  0  0
 14 15  1  1  0  0  0
 14 18  1  0  0  0  0
 15 31  1  0  0  0  0
 16 20  1  0  0  0  0
 17  2  1  6  0  0  0
 17 22  1  0  0  0  0
 18 19  1  1  0  0  0
 18 24  1  0  0  0  0
 18 30  1  0  0  0  0
 20 21  1  0  0  0  0
 20 26  1  6  0  0  0
 22 23  1  6  0  0  0
 22 28  1  0  0  0  0
 24 25  1  0  0  0  0
 26 27  1  0  0  0  0
 28 29  1  1  0  0  0
M  END
>  <CHROM.1>
-149.63042138,177.55779274,74.87533117,-174.39362924,151.54634565,-71.50618425
1.26629410,-3.09128265,34.42700537,-2.87786013,1.21280239,2.13795280

>  <Name>
2et3_lig

>  <RI>
0

>  <Rbt.Current_Directory>
/home/itssahil/PROJECTS/Mol_Feturizer/New_Systems/rnas/2et3

>  <Rbt.Executable>
rbdock ($Id: //depot/dev/client3/rdock/2013.1/src/exe/rbdock.cxx#4 $)

>  <Rbt.Library>
libRbt.so (2013.1, Build901 2013/11/27)

>  <Rbt.Parameter_File>
/export/apps/rDock/src/rDock_2013.1_src/data/scripts/dock_solv.prm

>  <Rbt.Receptor>
prm/blind_docking_40.prm

>  <SCORE>
4.19401

>  <SCORE.INTER>
-2.18458

>  <SCORE.INTER.CONST>
1

>  <SCORE.INTER.POLAR>
-1.73214

>  <SCORE.INTER.ROT>
6

>  <SCORE.INTER.SOLV>
19.8482

>  <SCORE.INTER.VDW>
-9.89865

>  <SCORE.INTER.norm>
-0.0704704

>  <SCORE.INTRA>
-2.85271

>  <SCORE.INTRA.DIHEDRAL>
-15.1862

>  <SCORE.INTRA.DIHEDRAL.0>
22.2484

>  <SCORE.INTRA.POLAR>
0

>  <SCORE.INTRA.POLAR.0>
0

>  <SCORE.INTRA.REPUL>
0

>  <SCORE.INTRA.REPUL.0>
0

>  <SCORE.INTRA.SOLV>
0.110951

>  <SCORE.INTRA.SOLV.lig_0>
-75.7198

>  <SCORE.INTRA.VDW>
4.68493

>  <SCORE.INTRA.VDW.0>
-3.34171

>  <SCORE.INTRA.norm>
-0.092023

>  <SCORE.RESTR>
9.2313

>  <SCORE.RESTR.CAVITY>
9.2313

>  <SCORE.RESTR.norm>
0.297784

>  <SCORE.SYSTEM>
0

>  <SCORE.SYSTEM.CONST>
0

>  <SCORE.SYSTEM.DIHEDRAL>
0

>  <SCORE.SYSTEM.SOLV>
0

>  <SCORE.SYSTEM.norm>
0

>  <SCORE.heavy>
31

>  <SCORE.norm>
0.135291

>  <RMSD>
8.506

$$$$
2et3_lig
 OpenBabel11021811423D
libRbt.so/2013.1/901 2013/11/27
 31 33  0  0  0  0  0  0  0  0999 V2000
   -3.1038   -9.4627   32.6549 C   0  0  2  0  0  0  0  0  0  0  0  0
   -3.3138  -10.0795   31.3581 O   0  0  0  0  0  0  0  0  0  0  0  0
   -2.7965   -8.6085   27.3738 C   0  0  2  0  0  0  0  0  0  0  0  0
   -2.9133   -7.7504   26.2356 N   0  0  0  0  0  0  0  0  0  0  0  0
    0.0456   -6.5829   28.9474 C   0  0  2  0  0  0  0  0  0  0  0  0
   -2.9523  -10.5477   33.7265 C   0  0  2  0  0  0  0  0  0  0  0  0
   -1.8811  -11.4165   33.3476 N   0  0  0  0  0  0  0  0  0  0  0  0
   -4.2153   -9.1055   27.8006 C   0  0  0  0  0  0  0  0  0  0  0  0
    0.8871   -5.7323   27.9707 C   0  0  2  0  0  0  0  0  0  0  0  0
    0.0190   -4.9531   27.1786 O   0  0  0  0  0  0  0  0  0  0  0  0
   -4.2993  -11.3272   33.9093 C   0  0  0  0  0  0  0  0  0  0  0  0
   -4.0975  -10.0433   29.0575 C   0  0  2  0  0  0  0  0  0  0  0  0
   -5.4314  -10.5137   29.4638 N   0  0  0  0  0  0  0  0  0  0  0  0
    1.7601   -6.7187   27.0921 C   0  0  1  0  0  0  0  0  0  0  0  0
    2.5773   -5.9737   26.0791 N   0  0  0  0  0  0  0  0  0  0  0  0
   -5.3934  -10.3041   34.3485 C   0  0  0  0  0  0  0  0  0  0  0  0
   -3.4008   -9.2607   30.2360 C   0  0  2  0  0  0  0  0  0  0  0  0
    2.7283   -7.6056   28.0406 C   0  0  1  0  0  0  0  0  0  0  0  0
    3.6419   -6.7917   28.7466 O   0  0  0  0  0  0  0  0  0  0  0  0
   -5.5084   -9.1743   33.2327 C   0  0  2  0  0  0  0  0  0  0  0  0
   -4.2240   -8.5312   32.9607 O   0  0  0  0  0  0  0  0  0  0  0  0
   -1.9743   -8.7711   29.7742 C   0  0  2  0  0  0  0  0  0  0  0  0
   -1.3253   -8.0642   30.8263 O   0  0  0  0  0  0  0  0  0  0  0  0
    1.8587   -8.3625   29.0915 C   0  0  0  0  0  0  0  0  0  0  0  0
    0.9432   -7.4104   29.8044 O   0  0  0  0  0  0  0  0  0  0  0  0
   -6.5511   -8.1211   33.5249 C   0  0  0  0  0  0  0  0  0  0  0  0
   -6.6733   -7.1755   32.4465 N   0  0  0  0  0  0  0  0  0  0  0  0
   -2.1121   -7.8392   28.5193 C   0  0  1  0  0  0  0  0  0  0  0  0
   -0.8163   -7.4146   28.1145 O   0  0  0  0  0  0  0  0  0  0  0  0
    3.6348   -8.6280   27.3416 C   0  0  0  0  0  0  0  0  0  0  0  0
    1.9685   -5.7529   24.7567 C   0  0  0  0  0  0  0  0  0  0  0  0
  1  2  1  6  0  0  0
  1  6  1  0  0  0  0
  1 21  1  0  0  0  0
  3  4  1  6  0  0  0
  3  8  1  0  0  0  0
  3 28  1  0  0  0  0
  5  9  1  0  0  0  0
  5 25  1  0  0  0  0
  5 29  1  6  0  0  0
  6  7  1  6  0  0  0
  6 11  1  0  0  0  0
  8 12  1  0  0  0  0
  9 10  1  6  0  0  0
  9 14  1  0  0  0  0
 11 16  1  0  0  0  0
 12 13  1  1  0  0  0
 12 17  1  0  0  0  0
 14 15  1  6  0  0  0
 14 18  1  0  0  0  0
 15 31  1  0  0  0  0
 16 20  1  0  0  0  0
 17  2  1  1  0  0  0
 17 22  1  0  0  0  0
 18 19  1  1  0  0  0
 18 24  1  0  0  0  0
 18 30  1  0  0  0  0
 20 21  1  0  0  0  0
 20 26  1  1  0  0  0
 22 23  1  1  0  0  0
 22 28  1  0  0  0  0
 24 25  1  0  0  0  0
 26 27  1  0  0  0  0
 28 29  1  6  0  0  0
M  END
>  <CHROM.1>
-176.47515720,-149.02317674,-90.71144345,-160.92240736,-176.24972047,175.69756278
-1.66514364,-8.29598414,29.79598496,-2.38558331,-0.05962208,-1.14735640

>  <Name>
2et3_lig

>  <RI>
2.5794e+07

>  <Rbt.Current_Directory>
/home/itssahil/PROJECTS/Mol_Feturizer/New_Systems/rnas/2et3

>  <Rbt.Executable>
rbdock ($Id: //depot/dev/client3/rdock/2013.1/src/exe/rbdock.cxx#4 $)

>  <Rbt.Library>
libRbt.so (2013.1, Build901 2013/11/27)

>  <Rbt.Parameter_File>
/export/apps/rDock/src/rDock_2013.1_src/data/scripts/dock_solv.prm

>  <Rbt.Receptor>
prm/pocket_docking_5.prm

>  <SCORE>
-23.4373

>  <SCORE.INTER>
-14.401

>  <SCORE.INTER.CONST>
1

>  <SCORE.INTER.POLAR>
-0.938083

>  <SCORE.INTER.ROT>
6

>  <SCORE.INTER.SOLV>
13.2731

>  <SCORE.INTER.VDW>
-18.4981

>  <SCORE.INTER.norm>
-0.464548

>  <SCORE.INTRA>
-9.03631

>  <SCORE.INTRA.DIHEDRAL>
-15.8201

>  <SCORE.INTRA.DIHEDRAL.0>
22.2484

>  <SCORE.INTRA.POLAR>
0

>  <SCORE.INTRA.POLAR.0>
0

>  <SCORE.INTRA.REPUL>
0

>  <SCORE.INTRA.REPUL.0>
0

>  <SCORE.INTRA.SOLV>
-3.37903

>  <SCORE.INTRA.SOLV.lig_0>
-75.7198

>  <SCORE.INTRA.VDW>
0.563234

>  <SCORE.INTRA.VDW.0>
-3.34171

>  <SCORE.INTRA.norm>
-0.291494

>  <SCORE.RESTR>
0

>  <SCORE.RESTR.CAVITY>
0

>  <SCORE.RESTR.norm>
0

>  <SCORE.SYSTEM>
0

>  <SCORE.SYSTEM.CONST>
0

>  <SCORE.SYSTEM.DIHEDRAL>
0

>  <SCORE.SYSTEM.SOLV>
0

>  <SCORE.SYSTEM.norm>
0

>  <SCORE.heavy>
31

>  <SCORE.norm>
-0.756042

>  <RMSD>
8.541

$$$$
2et3_lig
 OpenBabel11021811423D
libRbt.so/2013.1/901 2013/11/27
 31 33  0  0  0  0  0  0  0  0999 V2000
   -4.4750  -13.7283   31.3479 C   0  0  2  0  0  0  0  0  0  0  0  0
   -4.3564  -13.8292   29.9051 O   0  0  0  0  0  0  0  0  0  0  0  0
   -3.0893  -10.9965   26.9594 C   0  0  2  0  0  0  0  0  0  0  0  0
   -3.0278   -9.7826   26.2056 N   0  0  0  0  0  0  0  0  0  0  0  0
   -0.9381   -9.5767   29.7851 C   0  0  2  0  0  0  0  0  0  0  0  0
   -4.4508  -15.1289   31.9691 C   0  0  2  0  0  0  0  0  0  0  0  0
   -3.2506  -15.7896   31.5580 N   0  0  0  0  0  0  0  0  0  0  0  0
   -4.5104  -11.6302   26.8134 C   0  0  0  0  0  0  0  0  0  0  0  0
   -1.4143   -8.1079   29.8242 C   0  0  2  0  0  0  0  0  0  0  0  0
   -2.8240   -8.0837   29.7980 O   0  0  0  0  0  0  0  0  0  0  0  0
   -5.7307  -15.9327   31.5552 C   0  0  0  0  0  0  0  0  0  0  0  0
   -4.5900  -12.9616   27.6465 C   0  0  2  0  0  0  0  0  0  0  0  0
   -5.9268  -13.5622   27.5127 N   0  0  0  0  0  0  0  0  0  0  0  0
   -0.7891   -7.3588   28.5773 C   0  0  1  0  0  0  0  0  0  0  0  0
   -1.2410   -5.9303   28.5123 N   0  0  0  0  0  0  0  0  0  0  0  0
   -6.9796  -15.1508   32.0706 C   0  0  0  0  0  0  0  0  0  0  0  0
   -4.2657  -12.6575   29.1594 C   0  0  2  0  0  0  0  0  0  0  0  0
    0.8282   -7.4256   28.6370 C   0  0  1  0  0  0  0  0  0  0  0  0
    1.3276   -6.7689   29.7837 O   0  0  0  0  0  0  0  0  0  0  0  0
   -6.9631  -13.6919   31.4334 C   0  0  2  0  0  0  0  0  0  0  0  0
   -5.7135  -12.9830   31.7039 O   0  0  0  0  0  0  0  0  0  0  0  0
   -2.8285  -12.0177   29.2731 C   0  0  2  0  0  0  0  0  0  0  0  0
   -2.5137  -11.7382   30.6334 O   0  0  0  0  0  0  0  0  0  0  0  0
    1.2744   -8.9184   28.7146 C   0  0  0  0  0  0  0  0  0  0  0  0
    0.5521   -9.6294   29.8216 O   0  0  0  0  0  0  0  0  0  0  0  0
   -8.1342  -12.8277   31.8377 C   0  0  0  0  0  0  0  0  0  0  0  0
   -8.0870  -11.5340   31.2083 N   0  0  0  0  0  0  0  0  0  0  0  0
   -2.7680  -10.6927   28.4349 C   0  0  1  0  0  0  0  0  0  0  0  0
   -1.4638  -10.1357   28.5443 O   0  0  0  0  0  0  0  0  0  0  0  0
    1.5919   -6.7553   27.4868 C   0  0  0  0  0  0  0  0  0  0  0  0
   -0.9587   -5.0832   29.6832 C   0  0  0  0  0  0  0  0  0  0  0  0
  1  2  1  6  0  0  0
  1  6  1  0  0  0  0
  1 21  1  0  0  0  0
  3  4  1  6  0  0  0
  3  8  1  0  0  0  0
  3 28  1  0  0  0  0
  5  9  1  0  0  0  0
  5 25  1  0  0  0  0
  5 29  1  6  0  0  0
  6  7  1  6  0  0  0
  6 11  1  0  0  0  0
  8 12  1  0  0  0  0
  9 10  1  6  0  0  0
  9 14  1  0  0  0  0
 11 16  1  0  0  0  0
 12 13  1  1  0  0  0
 12 17  1  0  0  0  0
 14 15  1  1  0  0  0
 14 18  1  0  0  0  0
 15 31  1  0  0  0  0
 16 20  1  0  0  0  0
 17  2  1  1  0  0  0
 17 22  1  0  0  0  0
 18 19  1  1  0  0  0
 18 24  1  0  0  0  0
 18 30  1  0  0  0  0
 20 21  1  0  0  0  0
 20 26  1  1  0  0  0
 22 23  1  1  0  0  0
 22 28  1  0  0  0  0
 24 25  1  0  0  0  0
 26 27  1  0  0  0  0
 28 29  1  6  0  0  0
M  END
>  <CHROM.1>
-175.65054739,-85.84364581,57.51202117,-162.66536024,-178.56065655,171.50528792
-3.05380676,-10.94312211,29.57750774,-2.34296167,-0.41048470,-0.68496301

>  <Name>
2et3_lig

>  <RI>
3.86414e+07

>  <Rbt.Current_Directory>
/home/itssahil/PROJECTS/Mol_Feturizer/New_Systems/rnas/2et3

>  <Rbt.Executable>
rbdock ($Id: //depot/dev/client3/rdock/2013.1/src/exe/rbdock.cxx#4 $)

>  <Rbt.Library>
libRbt.so (2013.1, Build901 2013/11/27)

>  <Rbt.Parameter_File>
/export/apps/rDock/src/rDock_2013.1_src/data/scripts/dock_solv.prm

>  <Rbt.Receptor>
prm/pocket_docking_8.prm

>  <SCORE>
-18.987

>  <SCORE.INTER>
-10.8665

>  <SCORE.INTER.CONST>
1

>  <SCORE.INTER.POLAR>
-0.938083

>  <SCORE.INTER.ROT>
6

>  <SCORE.INTER.SOLV>
11.1839

>  <SCORE.INTER.VDW>
-15.4453

>  <SCORE.INTER.norm>
-0.350531

>  <SCORE.INTRA>
-8.12053

>  <SCORE.INTRA.DIHEDRAL>
-17.4178

>  <SCORE.INTRA.DIHEDRAL.0>
22.2484

>  <SCORE.INTRA.POLAR>
0

>  <SCORE.INTRA.POLAR.0>
0

>  <SCORE.INTRA.REPUL>
0

>  <SCORE.INTRA.REPUL.0>
0

>  <SCORE.INTRA.SOLV>
-2.59733

>  <SCORE.INTRA.SOLV.lig_0>
-75.7198

>  <SCORE.INTRA.VDW>
1.88704

>  <SCORE.INTRA.VDW.0>
-3.34171

>  <SCORE.INTRA.norm>
-0.261953

>  <SCORE.RESTR>
0

>  <SCORE.RESTR.CAVITY>
0

>  <SCORE.RESTR.norm>
0

>  <SCORE.SYSTEM>
0

>  <SCORE.SYSTEM.CONST>
0

>  <SCORE.SYSTEM.DIHEDRAL>
0

>  <SCORE.SYSTEM.SOLV>
0

>  <SCORE.SYSTEM.norm>
0

>  <SCORE.heavy>
31

>  <SCORE.norm>
-0.612484

>  <RMSD>
8.571

$$$$
2et3_lig
 OpenBabel11021811423D
libRbt.so/2013.1/901 2013/11/27
 31 33  0  0  0  0  0  0  0  0999 V2000
    0.0400   -4.6313   31.0080 C   0  0  2  0  0  0  0  0  0  0  0  0
   -0.4783   -4.9442   32.3269 O   0  0  0  0  0  0  0  0  0  0  0  0
    0.9838   -3.9051   36.2114 C   0  0  2  0  0  0  0  0  0  0  0  0
    1.8751   -3.8018   37.3252 N   0  0  0  0  0  0  0  0  0  0  0  0
    2.5921   -0.9380   34.4131 C   0  0  2  0  0  0  0  0  0  0  0  0
   -1.0844   -4.0747   30.1280 C   0  0  2  0  0  0  0  0  0  0  0  0
   -1.6548   -2.9375   30.7818 N   0  0  0  0  0  0  0  0  0  0  0  0
    0.7038   -5.4117   35.9048 C   0  0  0  0  0  0  0  0  0  0  0  0
    4.0616   -1.0258   34.8807 C   0  0  2  0  0  0  0  0  0  0  0  0
    4.4982   -2.3618   34.7673 O   0  0  0  0  0  0  0  0  0  0  0  0
   -2.1554   -5.1826   29.8436 C   0  0  0  0  0  0  0  0  0  0  0  0
   -0.2689   -5.5352   34.6754 C   0  0  2  0  0  0  0  0  0  0  0  0
   -0.5354   -6.9525   34.3823 N   0  0  0  0  0  0  0  0  0  0  0  0
    4.1297   -0.5087   36.3757 C   0  0  1  0  0  0  0  0  0  0  0  0
    5.5212   -0.6047   36.9265 N   0  0  0  0  0  0  0  0  0  0  0  0
   -1.4462   -6.3618   29.1065 C   0  0  0  0  0  0  0  0  0  0  0  0
    0.3691   -4.8188   33.4239 C   0  0  2  0  0  0  0  0  0  0  0  0
    3.6036    1.0207   36.4638 C   0  0  1  0  0  0  0  0  0  0  0  0
    4.4212    1.8897   35.7075 O   0  0  0  0  0  0  0  0  0  0  0  0
   -0.2660   -6.9003   30.0295 C   0  0  2  0  0  0  0  0  0  0  0  0
    0.6675   -5.8414   30.4097 O   0  0  0  0  0  0  0  0  0  0  0  0
    0.6414   -3.3031   33.7650 C   0  0  2  0  0  0  0  0  0  0  0  0
    1.2150   -2.6356   32.6456 O   0  0  0  0  0  0  0  0  0  0  0  0
    2.1604    1.0983   35.8767 C   0  0  0  0  0  0  0  0  0  0  0  0
    2.1092    0.4696   34.5147 O   0  0  0  0  0  0  0  0  0  0  0  0
    0.4982   -8.0625   29.4403 C   0  0  0  0  0  0  0  0  0  0  0  0
    1.7849   -8.2281   30.0638 N   0  0  0  0  0  0  0  0  0  0  0  0
    1.6114   -3.2003   34.9941 C   0  0  1  0  0  0  0  0  0  0  0  0
    1.8386   -1.8276   35.2901 O   0  0  0  0  0  0  0  0  0  0  0  0
    3.5917    1.6698   37.8545 C   0  0  0  0  0  0  0  0  0  0  0  0
    5.6665   -1.1264   38.2957 C   0  0  0  0  0  0  0  0  0  0  0  0
  1  2  1  1  0  0  0
  1  6  1  0  0  0  0
  1 21  1  0  0  0  0
  3  4  1  1  0  0  0
  3  8  1  0  0  0  0
  3 28  1  0  0  0  0
  5  9  1  0  0  0  0
  5 25  1  0  0  0  0
  5 29  1  1  0  0  0
  6  7  1  1  0  0  0
  6 11  1  0  0  0  0
  8 12  1  0  0  0  0
  9 10  1  1  0  0  0
  9 14  1  0  0  0  0
 11 16  1  0  0  0  0
 12 13  1  6  0  0  0
 12 17  1  0  0  0  0
 14 15  1  6  0  0  0
 14 18  1  0  0  0  0
 15 31  1  0  0  0  0
 16 20  1  0  0  0  0
 17  2  1  6  0  0  0
 17 22  1  0  0  0  0
 18 19  1  6  0  0  0
 18 24  1  0  0  0  0
 18 30  1  0  0  0  0
 20 21  1  0  0  0  0
 20 26  1  6  0  0  0
 22 23  1  6  0  0  0
 22 28  1  0  0  0  0
 24 25  1  0  0  0  0
 26 27  1  0  0  0  0
 28 29  1  1  0  0  0
M  END
>  <CHROM.1>
-148.53722267,-90.71672481,-136.39334774,-166.07536641,160.93309115,171.08671706
1.53650384,-3.15524203,33.80856957,2.72983004,1.05637624,2.79823163

>  <Name>
2et3_lig

>  <RI>
0

>  <Rbt.Current_Directory>
/home/itssahil/PROJECTS/Mol_Feturizer/New_Systems/rnas/2et3

>  <Rbt.Executable>
rbdock ($Id: //depot/dev/client3/rdock/2013.1/src/exe/rbdock.cxx#4 $)

>  <Rbt.Library>
libRbt.so (2013.1, Build901 2013/11/27)

>  <Rbt.Parameter_File>
/export/apps/rDock/src/rDock_2013.1_src/data/scripts/dock_solv.prm

>  <Rbt.Receptor>
prm/blind_docking_40.prm

>  <SCORE>
-3.642

>  <SCORE.INTER>
-6.49983

>  <SCORE.INTER.CONST>
1

>  <SCORE.INTER.POLAR>
-2.19958

>  <SCORE.INTER.ROT>
6

>  <SCORE.INTER.SOLV>
21.0356

>  <SCORE.INTER.VDW>
-11.6132

>  <SCORE.INTER.norm>
-0.209672

>  <SCORE.INTRA>
-6.00325

>  <SCORE.INTRA.DIHEDRAL>
-11.1082

>  <SCORE.INTRA.DIHEDRAL.0>
22.2484

>  <SCORE.INTRA.POLAR>
0

>  <SCORE.INTRA.POLAR.0>
0

>  <SCORE.INTRA.REPUL>
0

>  <SCORE.INTRA.REPUL.0>
0

>  <SCORE.INTRA.SOLV>
-1.9304

>  <SCORE.INTRA.SOLV.lig_0>
-75.7198

>  <SCORE.INTRA.VDW>
0.516039

>  <SCORE.INTRA.VDW.0>
-3.34171

>  <SCORE.INTRA.norm>
-0.193653

>  <SCORE.RESTR>
8.86108

>  <SCORE.RESTR.CAVITY>
8.86108

>  <SCORE.RESTR.norm>
0.285841

>  <SCORE.SYSTEM>
0

>  <SCORE.SYSTEM.CONST>
0

>  <SCORE.SYSTEM.DIHEDRAL>
0

>  <SCORE.SYSTEM.SOLV>
0

>  <SCORE.SYSTEM.norm>
0

>  <SCORE.heavy>
31

>  <SCORE.norm>
-0.117484

>  <RMSD>
8.594

$$$$
2et3_lig
 OpenBabel11021811423D
libRbt.so/2013.1/901 2013/11/27
 31 33  0  0  0  0  0  0  0  0999 V2000
   -0.7365  -11.1726   31.8611 C   0  0  2  0  0  0  0  0  0  0  0  0
   -1.7592  -10.7389   30.9272 O   0  0  0  0  0  0  0  0  0  0  0  0
   -2.4891   -7.0679   28.8541 C   0  0  2  0  0  0  0  0  0  0  0  0
   -2.6278   -5.6633   28.6228 N   0  0  0  0  0  0  0  0  0  0  0  0
    0.9328   -5.9901   28.5228 C   0  0  2  0  0  0  0  0  0  0  0  0
   -0.6936  -12.7037   31.9084 C   0  0  2  0  0  0  0  0  0  0  0  0
   -0.4760  -13.1951   30.5828 N   0  0  0  0  0  0  0  0  0  0  0  0
   -3.5185   -7.5225   29.9385 C   0  0  0  0  0  0  0  0  0  0  0  0
    1.3770   -5.5063   27.1248 C   0  0  2  0  0  0  0  0  0  0  0  0
    0.2718   -4.9250   26.4698 O   0  0  0  0  0  0  0  0  0  0  0  0
   -2.0162  -13.2686   32.5306 C   0  0  0  0  0  0  0  0  0  0  0  0
   -3.3672   -9.0649   30.2058 C   0  0  2  0  0  0  0  0  0  0  0  0
   -4.3344   -9.4980   31.2268 N   0  0  0  0  0  0  0  0  0  0  0  0
    1.9410   -6.7557   26.3325 C   0  0  1  0  0  0  0  0  0  0  0  0
    2.3537   -6.3816   24.9401 N   0  0  0  0  0  0  0  0  0  0  0  0
   -2.1491  -12.7017   33.9789 C   0  0  0  0  0  0  0  0  0  0  0  0
   -1.8925   -9.3779   30.6682 C   0  0  2  0  0  0  0  0  0  0  0  0
    3.1957   -7.4028   27.1268 C   0  0  1  0  0  0  0  0  0  0  0  0
    4.2652   -6.4860   27.2321 O   0  0  0  0  0  0  0  0  0  0  0  0
   -2.1615  -11.1115   33.9019 C   0  0  2  0  0  0  0  0  0  0  0  0
   -0.9919  -10.5813   33.2032 O   0  0  0  0  0  0  0  0  0  0  0  0
   -0.8789   -8.9063   29.5556 C   0  0  2  0  0  0  0  0  0  0  0  0
    0.4605   -9.1834   29.9518 O   0  0  0  0  0  0  0  0  0  0  0  0
    2.7465   -7.7740   28.5739 C   0  0  0  0  0  0  0  0  0  0  0  0
    2.0887   -6.6012   29.2406 O   0  0  0  0  0  0  0  0  0  0  0  0
   -2.3042  -10.4290   35.2420 C   0  0  0  0  0  0  0  0  0  0  0  0
   -2.3471   -8.9963   35.1108 N   0  0  0  0  0  0  0  0  0  0  0  0
   -1.0458   -7.3669   29.3017 C   0  0  1  0  0  0  0  0  0  0  0  0
   -0.1294   -6.9629   28.2915 O   0  0  0  0  0  0  0  0  0  0  0  0
    3.8518   -8.6384   26.4958 C   0  0  0  0  0  0  0  0  0  0  0  0
    3.4213   -5.3768   24.8038 C   0  0  0  0  0  0  0  0  0  0  0  0
  1  2  1  6  0  0  0
  1  6  1  0  0  0  0
  1 21  1  0  0  0  0
  3  4  1  1  0  0  0
  3  8  1  0  0  0  0
  3 28  1  0  0  0  0
  5  9  1  0  0  0  0
  5 25  1  0  0  0  0
  5 29  1  6  0  0  0
  6  7  1  6  0  0  0
  6 11  1  0  0  0  0
  8 12  1  0  0  0  0
  9 10  1  6  0  0  0
  9 14  1  0  0  0  0
 11 16  1  0  0  0  0
 12 13  1  1  0  0  0
 12 17  1  0  0  0  0
 14 15  1  6  0  0  0
 14 18  1  0  0  0  0
 15 31  1  0  0  0  0
 16 20  1  0  0  0  0
 17  2  1  6  0  0  0
 17 22  1  0  0  0  0
 18 19  1  1  0  0  0
 18 24  1  0  0  0  0
 18 30  1  0  0  0  0
 20 21  1  0  0  0  0
 20 26  1  1  0  0  0
 22 23  1  1  0  0  0
 22 28  1  0  0  0  0
 24 25  1  0  0  0  0
 26 27  1  0  0  0  0
 28 29  1  6  0  0  0
M  END
>  <CHROM.1>
-175.47919701,-162.18419924,61.08365156,-154.42020924,-178.38364263,121.56361451
-0.24687739,-8.59995107,29.74289506,-2.13386915,0.43628989,-0.65451380

>  <Name>
2et3_lig

>  <RI>
0

>  <Rbt.Current_Directory>
/home/itssahil/PROJECTS/Mol_Feturizer/New_Systems/rnas/2et3

>  <Rbt.Executable>
rbdock ($Id: //depot/dev/client3/rdock/2013.1/src/exe/rbdock.cxx#4 $)

>  <Rbt.Library>
libRbt.so (2013.1, Build901 2013/11/27)

>  <Rbt.Parameter_File>
/export/apps/rDock/src/rDock_2013.1_src/data/scripts/dock_solv.prm

>  <Rbt.Receptor>
prm/pocket_docking_6.prm

>  <SCORE>
-17.2419

>  <SCORE.INTER>
-12.0755

>  <SCORE.INTER.CONST>
1

>  <SCORE.INTER.POLAR>
-0.938083

>  <SCORE.INTER.ROT>
6

>  <SCORE.INTER.SOLV>
11.7154

>  <SCORE.INTER.VDW>
-16.4285

>  <SCORE.INTER.norm>
-0.389532

>  <SCORE.INTRA>
-5.16643

>  <SCORE.INTRA.DIHEDRAL>
-10.5538

>  <SCORE.INTRA.DIHEDRAL.0>
22.2484

>  <SCORE.INTRA.POLAR>
0

>  <SCORE.INTRA.POLAR.0>
0

>  <SCORE.INTRA.REPUL>
0

>  <SCORE.INTRA.REPUL.0>
0

>  <SCORE.INTRA.SOLV>
-2.04728

>  <SCORE.INTRA.SOLV.lig_0>
-75.7198

>  <SCORE.INTRA.VDW>
1.13414

>  <SCORE.INTRA.VDW.0>
-3.34171

>  <SCORE.INTRA.norm>
-0.166659

>  <SCORE.RESTR>
0

>  <SCORE.RESTR.CAVITY>
0

>  <SCORE.RESTR.norm>
0

>  <SCORE.SYSTEM>
0

>  <SCORE.SYSTEM.CONST>
0

>  <SCORE.SYSTEM.DIHEDRAL>
0

>  <SCORE.SYSTEM.SOLV>
0

>  <SCORE.SYSTEM.norm>
0

>  <SCORE.heavy>
31

>  <SCORE.norm>
-0.556191

>  <RMSD>
8.619

$$$$
2et3_lig
 OpenBabel11021811423D
libRbt.so/2013.1/901 2013/11/27
 31 33  0  0  0  0  0  0  0  0999 V2000
    2.9046   -3.9387   35.7590 C   0  0  2  0  0  0  0  0  0  0  0  0
    1.4941   -3.6046   35.6882 O   0  0  0  0  0  0  0  0  0  0  0  0
   -1.2553   -2.9142   32.4835 C   0  0  2  0  0  0  0  0  0  0  0  0
   -1.7657   -2.4462   31.2321 N   0  0  0  0  0  0  0  0  0  0  0  0
   -0.9375   -4.8529   30.0581 C   0  0  2  0  0  0  0  0  0  0  0  0
    3.3279   -4.0929   37.2237 C   0  0  2  0  0  0  0  0  0  0  0  0
    2.4945   -5.0801   37.8378 N   0  0  0  0  0  0  0  0  0  0  0  0
   -0.8157   -1.6950   33.3568 C   0  0  0  0  0  0  0  0  0  0  0  0
   -1.7433   -6.1350   29.7538 C   0  0  2  0  0  0  0  0  0  0  0  0
   -2.8367   -6.2090   30.6412 O   0  0  0  0  0  0  0  0  0  0  0  0
    3.2438   -2.7150   37.9650 C   0  0  0  0  0  0  0  0  0  0  0  0
   -0.2447   -2.2009   34.7319 C   0  0  2  0  0  0  0  0  0  0  0  0
    0.1713   -1.0562   35.5581 N   0  0  0  0  0  0  0  0  0  0  0  0
   -0.7695   -7.3731   29.9145 C   0  0  1  0  0  0  0  0  0  0  0  0
   -1.4869   -8.6692   29.6812 N   0  0  0  0  0  0  0  0  0  0  0  0
    4.2042   -1.7187   37.2427 C   0  0  0  0  0  0  0  0  0  0  0  0
    0.9711   -3.1712   34.4734 C   0  0  2  0  0  0  0  0  0  0  0  0
    0.4794   -7.2397   28.8916 C   0  0  1  0  0  0  0  0  0  0  0  0
    0.0458   -7.2499   27.5472 O   0  0  0  0  0  0  0  0  0  0  0  0
    3.7598   -1.6006   35.7185 C   0  0  2  0  0  0  0  0  0  0  0  0
    3.7072   -2.9018   35.0541 O   0  0  0  0  0  0  0  0  0  0  0  0
    0.4967   -4.3881   33.5891 C   0  0  2  0  0  0  0  0  0  0  0  0
    1.5800   -5.2800   33.3464 O   0  0  0  0  0  0  0  0  0  0  0  0
    1.2034   -5.8814   29.1451 C   0  0  0  0  0  0  0  0  0  0  0  0
    0.2210   -4.7467   29.1247 O   0  0  0  0  0  0  0  0  0  0  0  0
    4.6003   -0.6477   34.9017 C   0  0  0  0  0  0  0  0  0  0  0  0
    4.4005    0.7202   35.3025 N   0  0  0  0  0  0  0  0  0  0  0  0
   -0.0709   -3.8640   32.2234 C   0  0  1  0  0  0  0  0  0  0  0  0
   -0.4994   -4.9744   31.4444 O   0  0  0  0  0  0  0  0  0  0  0  0
    1.5295   -8.3583   28.9314 C   0  0  0  0  0  0  0  0  0  0  0  0
   -2.2787   -8.7850   28.4451 C   0  0  0  0  0  0  0  0  0  0  0  0
  1  2  1  1  0  0  0
  1  6  1  0  0  0  0
  1 21  1  0  0  0  0
  3  4  1  6  0  0  0
  3  8  1  0  0  0  0
  3 28  1  0  0  0  0
  5  9  1  0  0  0  0
  5 25  1  0  0  0  0
  5 29  1  1  0  0  0
  6  7  1  1  0  0  0
  6 11  1  0  0  0  0
  8 12  1  0  0  0  0
  9 10  1  1  0  0  0
  9 14  1  0  0  0  0
 11 16  1  0  0  0  0
 12 13  1  1  0  0  0
 12 17  1  0  0  0  0
 14 15  1  6  0  0  0
 14 18  1  0  0  0  0
 15 31  1  0  0  0  0
 16 20  1  0  0  0  0
 17  2  1  1  0  0  0
 17 22  1  0  0  0  0
 18 19  1  6  0  0  0
 18 24  1  0  0  0  0
 18 30  1  0  0  0  0
 20 21  1  0  0  0  0
 20 26  1  6  0  0  0
 22 23  1  6  0  0  0
 22 28  1  0  0  0  0
 24 25  1  0  0  0  0
 26 27  1  0  0  0  0
 28 29  1  6  0  0  0
M  END
>  <CHROM.1>
167.81318657,-161.28269455,51.02360179,-150.79655755,-68.57905594,66.92520142
0.83567753,-4.32733415,32.77147429,-1.01528841,0.66593739,-2.54185419

>  <Name>
2et3_lig

>  <RI>
0

>  <Rbt.Current_Directory>
/home/itssahil/PROJECTS/Mol_Feturizer/New_Systems/rnas/2et3

>  <Rbt.Executable>
rbdock ($Id: //depot/dev/client3/rdock/2013.1/src/exe/rbdock.cxx#4 $)

>  <Rbt.Library>
libRbt.so (2013.1, Build901 2013/11/27)

>  <Rbt.Parameter_File>
/export/apps/rDock/src/rDock_2013.1_src/data/scripts/dock_solv.prm

>  <Rbt.Receptor>
prm/blind_docking_40.prm

>  <SCORE>
-4.76448

>  <SCORE.INTER>
-10.1232

>  <SCORE.INTER.CONST>
1

>  <SCORE.INTER.POLAR>
-1.70663

>  <SCORE.INTER.ROT>
6

>  <SCORE.INTER.SOLV>
15.6799

>  <SCORE.INTER.VDW>
-13.8866

>  <SCORE.INTER.norm>
-0.326553

>  <SCORE.INTRA>
-7.03424

>  <SCORE.INTRA.DIHEDRAL>
-15.81

>  <SCORE.INTRA.DIHEDRAL.0>
22.2484

>  <SCORE.INTRA.POLAR>
0

>  <SCORE.INTRA.POLAR.0>
0

>  <SCORE.INTRA.REPUL>
0

>  <SCORE.INTRA.REPUL.0>
0

>  <SCORE.INTRA.SOLV>
-1.45855

>  <SCORE.INTRA.SOLV.lig_0>
-75.7198

>  <SCORE.INTRA.VDW>
1.60004

>  <SCORE.INTRA.VDW.0>
-3.34171

>  <SCORE.INTRA.norm>
-0.226911

>  <SCORE.RESTR>
12.3929

>  <SCORE.RESTR.CAVITY>
12.3929

>  <SCORE.RESTR.norm>
0.399771

>  <SCORE.SYSTEM>
0

>  <SCORE.SYSTEM.CONST>
0

>  <SCORE.SYSTEM.DIHEDRAL>
0

>  <SCORE.SYSTEM.SOLV>
0

>  <SCORE.SYSTEM.norm>
0

>  <SCORE.heavy>
31

>  <SCORE.norm>
-0.153693

>  <RMSD>
8.636

$$$$
2et3_lig
 OpenBabel11021811423D
libRbt.so/2013.1/901 2013/11/27
 31 33  0  0  0  0  0  0  0  0999 V2000
    1.4443   -0.8335   36.1836 C   0  0  2  0  0  0  0  0  0  0  0  0
    1.4410   -1.5032   34.8960 O   0  0  0  0  0  0  0  0  0  0  0  0
    0.6410   -5.5089   33.6230 C   0  0  2  0  0  0  0  0  0  0  0  0
    0.0198   -6.7954   33.5549 N   0  0  0  0  0  0  0  0  0  0  0  0
   -0.1058   -4.4765   30.7718 C   0  0  2  0  0  0  0  0  0  0  0  0
    1.1530    0.6588   35.9923 C   0  0  2  0  0  0  0  0  0  0  0  0
   -0.0920    0.7955   35.3012 N   0  0  0  0  0  0  0  0  0  0  0  0
    1.2363   -5.2915   35.0515 C   0  0  0  0  0  0  0  0  0  0  0  0
   -1.1074   -4.3146   29.6072 C   0  0  2  0  0  0  0  0  0  0  0  0
   -1.9086   -3.1794   29.8480 O   0  0  0  0  0  0  0  0  0  0  0  0
    2.3281    1.3507   35.2204 C   0  0  0  0  0  0  0  0  0  0  0  0
    1.9140   -3.8751   35.1382 C   0  0  2  0  0  0  0  0  0  0  0  0
    2.4759   -3.6653   36.4821 N   0  0  0  0  0  0  0  0  0  0  0  0
   -1.9722   -5.6380   29.5197 C   0  0  1  0  0  0  0  0  0  0  0  0
   -3.0075   -5.5463   28.4387 N   0  0  0  0  0  0  0  0  0  0  0  0
    3.6299    1.1733   36.0633 C   0  0  0  0  0  0  0  0  0  0  0  0
    0.8515   -2.7603   34.7992 C   0  0  2  0  0  0  0  0  0  0  0  0
   -1.0132   -6.9175   29.2607 C   0  0  1  0  0  0  0  0  0  0  0  0
   -0.3323   -6.8081   28.0279 O   0  0  0  0  0  0  0  0  0  0  0  0
    3.8916   -0.3833   36.2710 C   0  0  2  0  0  0  0  0  0  0  0  0
    2.7446   -1.0629   36.8710 O   0  0  0  0  0  0  0  0  0  0  0  0
    0.2686   -3.0081   33.3547 C   0  0  2  0  0  0  0  0  0  0  0  0
   -0.6915   -2.0090   33.0266 O   0  0  0  0  0  0  0  0  0  0  0  0
    0.0609   -6.9867   30.3900 C   0  0  0  0  0  0  0  0  0  0  0  0
    0.7610   -5.6671   30.5353 O   0  0  0  0  0  0  0  0  0  0  0  0
    5.1393   -0.7002   37.0613 C   0  0  0  0  0  0  0  0  0  0  0  0
    5.1856   -2.0837   37.4560 N   0  0  0  0  0  0  0  0  0  0  0  0
   -0.4012   -4.4255   33.2872 C   0  0  1  0  0  0  0  0  0  0  0  0
   -0.9136   -4.6326   31.9765 O   0  0  0  0  0  0  0  0  0  0  0  0
   -1.6978   -8.2877   29.1646 C   0  0  0  0  0  0  0  0  0  0  0  0
   -4.0257   -4.4911   28.5725 C   0  0  0  0  0  0  0  0  0  0  0  0
  1  2  1  6  0  0  0
  1  6  1  0  0  0  0
  1 21  1  0  0  0  0
  3  4  1  1  0  0  0
  3  8  1  0  0  0  0
  3 28  1  0  0  0  0
  5  9  1  0  0  0  0
  5 25  1  0  0  0  0
  5 29  1  1  0  0  0
  6  7  1  6  0  0  0
  6 11  1  0  0  0  0
  8 12  1  0  0  0  0
  9 10  1  1  0  0  0
  9 14  1  0  0  0  0
 11 16  1  0  0  0  0
 12 13  1  1  0  0  0
 12 17  1  0  0  0  0
 14 15  1  6  0  0  0
 14 18  1  0  0  0  0
 15 31  1  0  0  0  0
 16 20  1  0  0  0  0
 17  2  1  6  0  0  0
 17 22  1  0  0  0  0
 18 19  1  6  0  0  0
 18 24  1  0  0  0  0
 18 30  1  0  0  0  0
 20 21  1  0  0  0  0
 20 26  1  1  0  0  0
 22 23  1  1  0  0  0
 22 28  1  0  0  0  0
 24 25  1  0  0  0  0
 26 27  1  0  0  0  0
 28 29  1  6  0  0  0
M  END
>  <CHROM.1>
-139.52222335,-161.30035382,-61.67018604,-88.04549704,168.04482749,-67.11370081
0.55560271,-3.45611599,33.04694566,0.84066928,-0.82136384,0.32879675

>  <Name>
2et3_lig

>  <RI>
0

>  <Rbt.Current_Directory>
/home/itssahil/PROJECTS/Mol_Feturizer/New_Systems/rnas/2et3

>  <Rbt.Executable>
rbdock ($Id: //depot/dev/client3/rdock/2013.1/src/exe/rbdock.cxx#4 $)

>  <Rbt.Library>
libRbt.so (2013.1, Build901 2013/11/27)

>  <Rbt.Parameter_File>
/export/apps/rDock/src/rDock_2013.1_src/data/scripts/dock_solv.prm

>  <Rbt.Receptor>
prm/blind_docking_40.prm

>  <SCORE>
4.02163

>  <SCORE.INTER>
-2.52413

>  <SCORE.INTER.CONST>
1

>  <SCORE.INTER.POLAR>
-0.946763

>  <SCORE.INTER.ROT>
6

>  <SCORE.INTER.SOLV>
13.6454

>  <SCORE.INTER.VDW>
-10.6753

>  <SCORE.INTER.norm>
-0.0814235

>  <SCORE.INTRA>
-3.00827

>  <SCORE.INTRA.DIHEDRAL>
-11.1436

>  <SCORE.INTRA.DIHEDRAL.0>
22.2484

>  <SCORE.INTRA.POLAR>
0

>  <SCORE.INTRA.POLAR.0>
0

>  <SCORE.INTRA.REPUL>
0

>  <SCORE.INTRA.REPUL.0>
0

>  <SCORE.INTRA.SOLV>
2.72724

>  <SCORE.INTRA.SOLV.lig_0>
-75.7198

>  <SCORE.INTRA.VDW>
1.19991

>  <SCORE.INTRA.VDW.0>
-3.34171

>  <SCORE.INTRA.norm>
-0.0970409

>  <SCORE.RESTR>
9.55402

>  <SCORE.RESTR.CAVITY>
9.55402

>  <SCORE.RESTR.norm>
0.308194

>  <SCORE.SYSTEM>
0

>  <SCORE.SYSTEM.CONST>
0

>  <SCORE.SYSTEM.DIHEDRAL>
0

>  <SCORE.SYSTEM.SOLV>
0

>  <SCORE.SYSTEM.norm>
0

>  <SCORE.heavy>
31

>  <SCORE.norm>
0.12973

>  <RMSD>
8.639

$$$$
2et3_lig
 OpenBabel11021811423D
libRbt.so/2013.1/901 2013/11/27
 31 33  0  0  0  0  0  0  0  0999 V2000
   -3.2002  -10.9987   34.6314 C   0  0  2  0  0  0  0  0  0  0  0  0
   -2.8972  -10.3909   33.3489 O   0  0  0  0  0  0  0  0  0  0  0  0
   -0.3513  -11.9511   30.2845 C   0  0  2  0  0  0  0  0  0  0  0  0
    0.8444  -12.3524   29.6100 N   0  0  0  0  0  0  0  0  0  0  0  0
    0.5762  -14.9316   30.8222 C   0  0  2  0  0  0  0  0  0  0  0  0
   -4.7147  -11.1854   34.7716 C   0  0  2  0  0  0  0  0  0  0  0  0
   -5.1824  -11.9641   33.6666 N   0  0  0  0  0  0  0  0  0  0  0  0
   -0.2904  -10.4194   30.5882 C   0  0  0  0  0  0  0  0  0  0  0  0
   -0.0077  -16.1652   30.0990 C   0  0  2  0  0  0  0  0  0  0  0  0
   -0.8044  -15.7281   29.0207 O   0  0  0  0  0  0  0  0  0  0  0  0
   -5.4320   -9.7946   34.8507 C   0  0  0  0  0  0  0  0  0  0  0  0
   -1.5980   -9.9708   31.3379 C   0  0  2  0  0  0  0  0  0  0  0  0
   -1.5453   -8.5287   31.6267 N   0  0  0  0  0  0  0  0  0  0  0  0
   -0.8475  -16.9966   31.1527 C   0  0  1  0  0  0  0  0  0  0  0  0
   -1.4918  -18.1934   30.5192 N   0  0  0  0  0  0  0  0  0  0  0  0
   -4.8785   -9.0361   36.0977 C   0  0  0  0  0  0  0  0  0  0  0  0
   -1.7527  -10.7996   32.6705 C   0  0  2  0  0  0  0  0  0  0  0  0
    0.0998  -17.4630   32.3810 C   0  0  1  0  0  0  0  0  0  0  0  0
    1.1334  -18.3174   31.9370 O   0  0  0  0  0  0  0  0  0  0  0  0
   -3.3018   -8.8824   35.9393 C   0  0  2  0  0  0  0  0  0  0  0  0
   -2.6378  -10.1682   35.7315 O   0  0  0  0  0  0  0  0  0  0  0  0
   -1.8089  -12.3390   32.3313 C   0  0  2  0  0  0  0  0  0  0  0  0
   -1.9524  -13.1067   33.5220 O   0  0  0  0  0  0  0  0  0  0  0  0
    0.7666  -16.2044   33.0173 C   0  0  0  0  0  0  0  0  0  0  0  0
    1.4320  -15.3687   31.9630 O   0  0  0  0  0  0  0  0  0  0  0  0
   -2.6353   -8.1455   37.0771 C   0  0  0  0  0  0  0  0  0  0  0  0
   -2.9326   -8.7464   38.3508 N   0  0  0  0  0  0  0  0  0  0  0  0
   -0.4980  -12.7671   31.5827 C   0  0  1  0  0  0  0  0  0  0  0  0
   -0.5710  -14.1550   31.2797 O   0  0  0  0  0  0  0  0  0  0  0  0
   -0.5678  -18.2712   33.5021 C   0  0  0  0  0  0  0  0  0  0  0  0
   -0.6407  -19.0424   29.6690 C   0  0  0  0  0  0  0  0  0  0  0  0
  1  2  1  6  0  0  0
  1  6  1  0  0  0  0
  1 21  1  0  0  0  0
  3  4  1  1  0  0  0
  3  8  1  0  0  0  0
  3 28  1  0  0  0  0
  5  9  1  0  0  0  0
  5 25  1  0  0  0  0
  5 29  1  1  0  0  0
  6  7  1  6  0  0  0
  6 11  1  0  0  0  0
  8 12  1  0  0  0  0
  9 10  1  6  0  0  0
  9 14  1  0  0  0  0
 11 16  1  0  0  0  0
 12 13  1  1  0  0  0
 12 17  1  0  0  0  0
 14 15  1  6  0  0  0
 14 18  1  0  0  0  0
 15 31  1  0  0  0  0
 16 20  1  0  0  0  0
 17  2  1  6  0  0  0
 17 22  1  0  0  0  0
 18 19  1  6  0  0  0
 18 24  1  0  0  0  0
 18 30  1  0  0  0  0
 20 21  1  0  0  0  0
 20 26  1  1  0  0  0
 22 23  1  1  0  0  0
 22 28  1  0  0  0  0
 24 25  1  0  0  0  0
 26 27  1  0  0  0  0
 28 29  1  6  0  0  0
M  END
>  <CHROM.1>
-142.97572859,-158.27613399,47.95673459,-177.83591748,55.07924091,71.95042137
-1.51994215,-13.02796890,32.68607855,2.42391437,1.06055838,-0.26554462

>  <Name>
2et3_lig

>  <RI>
0

>  <Rbt.Current_Directory>
/home/itssahil/PROJECTS/Mol_Feturizer/New_Systems/rnas/2et3

>  <Rbt.Executable>
rbdock ($Id: //depot/dev/client3/rdock/2013.1/src/exe/rbdock.cxx#4 $)

>  <Rbt.Library>
libRbt.so (2013.1, Build901 2013/11/27)

>  <Rbt.Parameter_File>
/export/apps/rDock/src/rDock_2013.1_src/data/scripts/dock_solv.prm

>  <Rbt.Receptor>
prm/blind_docking_100.prm

>  <SCORE>
-11.2453

>  <SCORE.INTER>
-7.37751

>  <SCORE.INTER.CONST>
1

>  <SCORE.INTER.POLAR>
-0.0550595

>  <SCORE.INTER.ROT>
6

>  <SCORE.INTER.SOLV>
19.8395

>  <SCORE.INTER.VDW>
-18.948

>  <SCORE.INTER.norm>
-0.237984

>  <SCORE.INTRA>
-5.00165

>  <SCORE.INTRA.DIHEDRAL>
-14.2603

>  <SCORE.INTRA.DIHEDRAL.0>
22.2484

>  <SCORE.INTRA.POLAR>
0

>  <SCORE.INTRA.POLAR.0>
0

>  <SCORE.INTRA.REPUL>
0

>  <SCORE.INTRA.REPUL.0>
0

>  <SCORE.INTRA.SOLV>
-0.706954

>  <SCORE.INTRA.SOLV.lig_0>
-75.7198

>  <SCORE.INTRA.VDW>
2.48199

>  <SCORE.INTRA.VDW.0>
-3.34171

>  <SCORE.INTRA.norm>
-0.161343

>  <SCORE.RESTR>
1.13382

>  <SCORE.RESTR.CAVITY>
1.13382

>  <SCORE.RESTR.norm>
0.0365749

>  <SCORE.SYSTEM>
0

>  <SCORE.SYSTEM.CONST>
0

>  <SCORE.SYSTEM.DIHEDRAL>
0

>  <SCORE.SYSTEM.SOLV>
0

>  <SCORE.SYSTEM.norm>
0

>  <SCORE.heavy>
31

>  <SCORE.norm>
-0.362753

>  <RMSD>
8.643

$$$$
2et3_lig
 OpenBabel11021811423D
libRbt.so/2013.1/901 2013/11/27
 31 33  0  0  0  0  0  0  0  0999 V2000
   -3.6081  -11.4810   34.6145 C   0  0  2  0  0  0  0  0  0  0  0  0
   -3.0967  -11.0607   33.3230 O   0  0  0  0  0  0  0  0  0  0  0  0
   -0.2484  -13.0267   30.8074 C   0  0  2  0  0  0  0  0  0  0  0  0
    0.9964  -13.5735   30.3637 N   0  0  0  0  0  0  0  0  0  0  0  0
    0.2199  -15.9752   31.3074 C   0  0  2  0  0  0  0  0  0  0  0  0
   -5.1334  -11.3357   34.6403 C   0  0  2  0  0  0  0  0  0  0  0  0
   -5.6819  -12.0908   33.5562 N   0  0  0  0  0  0  0  0  0  0  0  0
   -0.0882  -11.4907   31.0468 C   0  0  0  0  0  0  0  0  0  0  0  0
   -0.4304  -17.3433   31.0057 C   0  0  2  0  0  0  0  0  0  0  0  0
   -1.4740  -17.1581   30.0757 O   0  0  0  0  0  0  0  0  0  0  0  0
   -5.5399   -9.8243   34.5635 C   0  0  0  0  0  0  0  0  0  0  0  0
   -1.4505  -10.8822   31.5435 C   0  0  2  0  0  0  0  0  0  0  0  0
   -1.3047   -9.4356   31.7711 N   0  0  0  0  0  0  0  0  0  0  0  0
   -0.9586  -17.9445   32.3719 C   0  0  1  0  0  0  0  0  0  0  0  0
   -1.6499  -19.2586   32.1620 N   0  0  0  0  0  0  0  0  0  0  0  0
   -4.9217   -9.0948   35.7973 C   0  0  0  0  0  0  0  0  0  0  0  0
   -1.9022  -11.6107   32.8671 C   0  0  2  0  0  0  0  0  0  0  0  0
    0.2670  -18.1241   33.4157 C   0  0  1  0  0  0  0  0  0  0  0  0
    1.2280  -19.0372   32.9275 O   0  0  0  0  0  0  0  0  0  0  0  0
   -3.3417   -9.2869   35.7609 C   0  0  2  0  0  0  0  0  0  0  0  0
   -2.9560  -10.6956   35.6980 O   0  0  0  0  0  0  0  0  0  0  0  0
   -2.0528  -13.1568   32.5939 C   0  0  2  0  0  0  0  0  0  0  0  0
   -2.4642  -13.8342   33.7769 O   0  0  0  0  0  0  0  0  0  0  0  0
    0.9769  -16.7488   33.6103 C   0  0  0  0  0  0  0  0  0  0  0  0
    1.3351  -16.1461   32.2831 O   0  0  0  0  0  0  0  0  0  0  0  0
   -2.6107   -8.6111   36.8970 C   0  0  0  0  0  0  0  0  0  0  0  0
   -2.7508   -7.1794   36.8470 N   0  0  0  0  0  0  0  0  0  0  0  0
   -0.6853  -13.7452   32.0979 C   0  0  1  0  0  0  0  0  0  0  0  0
   -0.8435  -15.1370   31.8505 O   0  0  0  0  0  0  0  0  0  0  0  0
   -0.0802  -18.6856   34.8012 C   0  0  0  0  0  0  0  0  0  0  0  0
   -3.0912  -19.2184   31.8633 C   0  0  0  0  0  0  0  0  0  0  0  0
  1  2  1  6  0  0  0
  1  6  1  0  0  0  0
  1 21  1  0  0  0  0
  3  4  1  1  0  0  0
  3  8  1  0  0  0  0
  3 28  1  0  0  0  0
  5  9  1  0  0  0  0
  5 25  1  0  0  0  0
  5 29  1  1  0  0  0
  6  7  1  6  0  0  0
  6 11  1  0  0  0  0
  8 12  1  0  0  0  0
  9 10  1  6  0  0  0
  9 14  1  0  0  0  0
 11 16  1  0  0  0  0
 12 13  1  1  0  0  0
 12 17  1  0  0  0  0
 14 15  1  6  0  0  0
 14 18  1  0  0  0  0
 15 31  1  0  0  0  0
 16 20  1  0  0  0  0
 17  2  1  6  0  0  0
 17 22  1  0  0  0  0
 18 19  1  6  0  0  0
 18 24  1  0  0  0  0
 18 30  1  0  0  0  0
 20 21  1  0  0  0  0
 20 26  1  1  0  0  0
 22 23  1  1  0  0  0
 22 28  1  0  0  0  0
 24 25  1  0  0  0  0
 26 27  1  0  0  0  0
 28 29  1  6  0  0  0
M  END
>  <CHROM.1>
-152.88419600,-171.85837961,-88.22940291,-172.90975676,-64.25809266,56.24785851
-1.71061078,-13.66738717,33.10654211,2.08991022,0.77351144,-0.04856954

>  <Name>
2et3_lig

>  <RI>
3.86414e+07

>  <Rbt.Current_Directory>
/home/itssahil/PROJECTS/Mol_Feturizer/New_Systems/rnas/2et3

>  <Rbt.Executable>
rbdock ($Id: //depot/dev/client3/rdock/2013.1/src/exe/rbdock.cxx#4 $)

>  <Rbt.Library>
libRbt.so (2013.1, Build901 2013/11/27)

>  <Rbt.Parameter_File>
/export/apps/rDock/src/rDock_2013.1_src/data/scripts/dock_solv.prm

>  <Rbt.Receptor>
prm/pocket_docking_8.prm

>  <SCORE>
-20.8058

>  <SCORE.INTER>
-12.4166

>  <SCORE.INTER.CONST>
1

>  <SCORE.INTER.POLAR>
-0.176705

>  <SCORE.INTER.ROT>
6

>  <SCORE.INTER.SOLV>
13.7034

>  <SCORE.INTER.VDW>
-19.8565

>  <SCORE.INTER.norm>
-0.400536

>  <SCORE.INTRA>
-8.38918

>  <SCORE.INTRA.DIHEDRAL>
-17.8251

>  <SCORE.INTRA.DIHEDRAL.0>
22.2484

>  <SCORE.INTRA.POLAR>
0

>  <SCORE.INTRA.POLAR.0>
0

>  <SCORE.INTRA.REPUL>
0

>  <SCORE.INTRA.REPUL.0>
0

>  <SCORE.INTRA.SOLV>
-1.85806

>  <SCORE.INTRA.SOLV.lig_0>
-75.7198

>  <SCORE.INTRA.VDW>
1.45242

>  <SCORE.INTRA.VDW.0>
-3.34171

>  <SCORE.INTRA.norm>
-0.270619

>  <SCORE.RESTR>
0

>  <SCORE.RESTR.CAVITY>
0

>  <SCORE.RESTR.norm>
0

>  <SCORE.SYSTEM>
0

>  <SCORE.SYSTEM.CONST>
0

>  <SCORE.SYSTEM.DIHEDRAL>
0

>  <SCORE.SYSTEM.SOLV>
0

>  <SCORE.SYSTEM.norm>
0

>  <SCORE.heavy>
31

>  <SCORE.norm>
-0.671155

>  <RMSD>
8.725

$$$$
2et3_lig
 OpenBabel11021811423D
libRbt.so/2013.1/901 2013/11/27
 31 33  0  0  0  0  0  0  0  0999 V2000
    1.4899   -0.7428   36.3273 C   0  0  2  0  0  0  0  0  0  0  0  0
    1.4147   -1.3654   35.0185 O   0  0  0  0  0  0  0  0  0  0  0  0
    0.7454   -5.3814   33.7031 C   0  0  2  0  0  0  0  0  0  0  0  0
    0.1769   -6.6918   33.6319 N   0  0  0  0  0  0  0  0  0  0  0  0
   -0.1082   -4.4090   30.8953 C   0  0  2  0  0  0  0  0  0  0  0  0
    1.1907    0.7553   36.2065 C   0  0  2  0  0  0  0  0  0  0  0  0
   -0.0903    0.9163   35.5905 N   0  0  0  0  0  0  0  0  0  0  0  0
    1.3734   -5.1609   35.1170 C   0  0  0  0  0  0  0  0  0  0  0  0
   -1.1319   -4.2826   29.7456 C   0  0  2  0  0  0  0  0  0  0  0  0
   -1.9403   -3.1503   29.9759 O   0  0  0  0  0  0  0  0  0  0  0  0
    2.3225    1.4753   35.3966 C   0  0  0  0  0  0  0  0  0  0  0  0
    1.9936   -3.7186   35.2075 C   0  0  2  0  0  0  0  0  0  0  0  0
    2.5860   -3.5058   36.5377 N   0  0  0  0  0  0  0  0  0  0  0  0
   -1.9845   -5.6161   29.7025 C   0  0  1  0  0  0  0  0  0  0  0  0
   -3.0397   -5.5583   28.6385 N   0  0  0  0  0  0  0  0  0  0  0  0
    3.6685    1.2682   36.1595 C   0  0  0  0  0  0  0  0  0  0  0  0
    0.8757   -2.6447   34.9181 C   0  0  2  0  0  0  0  0  0  0  0  0
   -1.0172   -6.8914   29.4542 C   0  0  1  0  0  0  0  0  0  0  0  0
   -0.3594   -6.8024   28.2073 O   0  0  0  0  0  0  0  0  0  0  0  0
    3.9389   -0.2948   36.2960 C   0  0  2  0  0  0  0  0  0  0  0  0
    2.8258   -0.9962   36.9333 O   0  0  0  0  0  0  0  0  0  0  0  0
    0.2609   -2.8948   33.4873 C   0  0  2  0  0  0  0  0  0  0  0  0
   -0.7496   -1.9323   33.2039 O   0  0  0  0  0  0  0  0  0  0  0  0
    0.0774   -6.9252   30.5653 C   0  0  0  0  0  0  0  0  0  0  0  0
    0.7665   -5.5959   30.6693 O   0  0  0  0  0  0  0  0  0  0  0  0
    5.2278   -0.6394   37.0044 C   0  0  0  0  0  0  0  0  0  0  0  0
    5.2907   -2.0348   37.3519 N   0  0  0  0  0  0  0  0  0  0  0  0
   -0.3507   -4.3381   33.4159 C   0  0  1  0  0  0  0  0  0  0  0  0
   -0.8929   -4.5465   32.1174 O   0  0  0  0  0  0  0  0  0  0  0  0
   -1.6893   -8.2701   29.4002 C   0  0  0  0  0  0  0  0  0  0  0  0
   -2.6073   -5.1730   27.2847 C   0  0  0  0  0  0  0  0  0  0  0  0
  1  2  1  6  0  0  0
  1  6  1  0  0  0  0
  1 21  1  0  0  0  0
  3  4  1  1  0  0  0
  3  8  1  0  0  0  0
  3 28  1  0  0  0  0
  5  9  1  0  0  0  0
  5 25  1  0  0  0  0
  5 29  1  1  0  0  0
  6  7  1  6  0  0  0
  6 11  1  0  0  0  0
  8 12  1  0  0  0  0
  9 10  1  1  0  0  0
  9 14  1  0  0  0  0
 11 16  1  0  0  0  0
 12 13  1  1  0  0  0
 12 17  1  0  0  0  0
 14 15  1  6  0  0  0
 14 18  1  0  0  0  0
 15 31  1  0  0  0  0
 16 20  1  0  0  0  0
 17  2  1  6  0  0  0
 17 22  1  0  0  0  0
 18 19  1  6  0  0  0
 18 24  1  0  0  0  0
 18 30  1  0  0  0  0
 20 21  1  0  0  0  0
 20 26  1  1  0  0  0
 22 23  1  1  0  0  0
 22 28  1  0  0  0  0
 24 25  1  0  0  0  0
 26 27  1  0  0  0  0
 28 29  1  6  0  0  0
M  END
>  <CHROM.1>
-142.48794632,-162.91565430,51.10758997,-84.98604217,167.73704677,-63.64533721
0.63318573,-3.40261902,33.12222602,0.84462383,-0.85221123,0.31357712

>  <Name>
2et3_lig

>  <RI>
0

>  <Rbt.Current_Directory>
/home/itssahil/PROJECTS/Mol_Feturizer/New_Systems/rnas/2et3

>  <Rbt.Executable>
rbdock ($Id: //depot/dev/client3/rdock/2013.1/src/exe/rbdock.cxx#4 $)

>  <Rbt.Library>
libRbt.so (2013.1, Build901 2013/11/27)

>  <Rbt.Parameter_File>
/export/apps/rDock/src/rDock_2013.1_src/data/scripts/dock_solv.prm

>  <Rbt.Receptor>
prm/blind_docking_40.prm

>  <SCORE>
3.51388

>  <SCORE.INTER>
-2.96235

>  <SCORE.INTER.CONST>
1

>  <SCORE.INTER.POLAR>
-0.947321

>  <SCORE.INTER.ROT>
6

>  <SCORE.INTER.SOLV>
13.2559

>  <SCORE.INTER.VDW>
-10.8358

>  <SCORE.INTER.norm>
-0.0955596

>  <SCORE.INTRA>
-3.18718

>  <SCORE.INTRA.DIHEDRAL>
-12.543

>  <SCORE.INTRA.DIHEDRAL.0>
22.2484

>  <SCORE.INTRA.POLAR>
0

>  <SCORE.INTRA.POLAR.0>
0

>  <SCORE.INTRA.REPUL>
0

>  <SCORE.INTRA.REPUL.0>
0

>  <SCORE.INTRA.SOLV>
3.21816

>  <SCORE.INTRA.SOLV.lig_0>
-75.7198

>  <SCORE.INTRA.VDW>
1.47522

>  <SCORE.INTRA.VDW.0>
-3.34171

>  <SCORE.INTRA.norm>
-0.102812

>  <SCORE.RESTR>
9.66341

>  <SCORE.RESTR.CAVITY>
9.66341

>  <SCORE.RESTR.norm>
0.311723

>  <SCORE.SYSTEM>
0

>  <SCORE.SYSTEM.CONST>
0

>  <SCORE.SYSTEM.DIHEDRAL>
0

>  <SCORE.SYSTEM.SOLV>
0

>  <SCORE.SYSTEM.norm>
0

>  <SCORE.heavy>
31

>  <SCORE.norm>
0.113351

>  <RMSD>
8.730

$$$$
2et3_lig
 OpenBabel11021811423D
libRbt.so/2013.1/901 2013/11/27
 31 33  0  0  0  0  0  0  0  0999 V2000
   -5.3596  -10.3884   30.6599 C   0  0  2  0  0  0  0  0  0  0  0  0
   -6.1135   -9.3592   29.9681 O   0  0  0  0  0  0  0  0  0  0  0  0
   -5.0718   -5.3519   28.8897 C   0  0  2  0  0  0  0  0  0  0  0  0
   -4.6380   -3.9960   29.0272 N   0  0  0  0  0  0  0  0  0  0  0  0
   -1.7013   -5.1838   28.9165 C   0  0  2  0  0  0  0  0  0  0  0  0
   -5.9204  -11.7694   30.3036 C   0  0  2  0  0  0  0  0  0  0  0  0
   -5.8878  -11.9218   28.8817 N   0  0  0  0  0  0  0  0  0  0  0  0
   -6.3609   -5.5769   29.7438 C   0  0  0  0  0  0  0  0  0  0  0  0
   -0.5945   -5.3790   27.8569 C   0  0  2  0  0  0  0  0  0  0  0  0
   -1.1163   -5.0587   26.5866 O   0  0  0  0  0  0  0  0  0  0  0  0
   -7.3698  -11.9350   30.8754 C   0  0  0  0  0  0  0  0  0  0  0  0
   -6.8403   -7.0682   29.6054 C   0  0  2  0  0  0  0  0  0  0  0  0
   -8.0542   -7.2854   30.4085 N   0  0  0  0  0  0  0  0  0  0  0  0
   -0.1076   -6.8838   27.9314 C   0  0  1  0  0  0  0  0  0  0  0  0
    0.9400   -7.1731   26.8980 N   0  0  0  0  0  0  0  0  0  0  0  0
   -7.2971  -11.7818   32.4272 C   0  0  0  0  0  0  0  0  0  0  0  0
   -5.6864   -8.0383   30.0679 C   0  0  2  0  0  0  0  0  0  0  0  0
    0.4666   -7.2140   29.4095 C   0  0  1  0  0  0  0  0  0  0  0  0
    1.5940   -6.4185   29.7124 O   0  0  0  0  0  0  0  0  0  0  0  0
   -6.6847  -10.3522   32.7676 C   0  0  2  0  0  0  0  0  0  0  0  0
   -5.3881  -10.1379   32.1271 O   0  0  0  0  0  0  0  0  0  0  0  0
   -4.4006   -7.7858   29.1900 C   0  0  2  0  0  0  0  0  0  0  0  0
   -3.3459   -8.6553   29.5892 O   0  0  0  0  0  0  0  0  0  0  0  0
   -0.6349   -6.8961   30.4673 C   0  0  0  0  0  0  0  0  0  0  0  0
   -1.1704   -5.5076   30.2722 O   0  0  0  0  0  0  0  0  0  0  0  0
   -6.5738  -10.0636   34.2462 C   0  0  0  0  0  0  0  0  0  0  0  0
   -6.0324   -8.7536   34.4965 N   0  0  0  0  0  0  0  0  0  0  0  0
   -3.9388   -6.2936   29.3395 C   0  0  1  0  0  0  0  0  0  0  0  0
   -2.7840   -6.0844   28.5357 O   0  0  0  0  0  0  0  0  0  0  0  0
    0.9686   -8.6437   29.6538 C   0  0  0  0  0  0  0  0  0  0  0  0
    2.1174   -6.2893   26.8703 C   0  0  0  0  0  0  0  0  0  0  0  0
  1  2  1  6  0  0  0
  1  6  1  0  0  0  0
  1 21  1  0  0  0  0
  3  4  1  1  0  0  0
  3  8  1  0  0  0  0
  3 28  1  0  0  0  0
  5  9  1  0  0  0  0
  5 25  1  0  0  0  0
  5 29  1  6  0  0  0
  6  7  1  6  0  0  0
  6 11  1  0  0  0  0
  8 12  1  0  0  0  0
  9 10  1  6  0  0  0
  9 14  1  0  0  0  0
 11 16  1  0  0  0  0
 12 13  1  1  0  0  0
 12 17  1  0  0  0  0
 14 15  1  6  0  0  0
 14 18  1  0  0  0  0
 15 31  1  0  0  0  0
 16 20  1  0  0  0  0
 17  2  1  6  0  0  0
 17 22  1  0  0  0  0
 18 19  1  1  0  0  0
 18 24  1  0  0  0  0
 18 30  1  0  0  0  0
 20 21  1  0  0  0  0
 20 26  1  1  0  0  0
 22 23  1  1  0  0  0
 22 28  1  0  0  0  0
 24 25  1  0  0  0  0
 26 27  1  0  0  0  0
 28 29  1  6  0  0  0
M  END
>  <CHROM.1>
-174.49155067,173.70740034,53.56072177,-164.05119890,-179.19507977,94.21455958
-3.59278315,-7.83530845,29.85347646,-2.51468228,0.21538135,-0.41482623

>  <Name>
2et3_lig

>  <RI>
0

>  <Rbt.Current_Directory>
/home/itssahil/PROJECTS/Mol_Feturizer/New_Systems/rnas/2et3

>  <Rbt.Executable>
rbdock ($Id: //depot/dev/client3/rdock/2013.1/src/exe/rbdock.cxx#4 $)

>  <Rbt.Library>
libRbt.so (2013.1, Build901 2013/11/27)

>  <Rbt.Parameter_File>
/export/apps/rDock/src/rDock_2013.1_src/data/scripts/dock_solv.prm

>  <Rbt.Receptor>
prm/pocket_docking_6.prm

>  <SCORE>
-20.5017

>  <SCORE.INTER>
-12.2099

>  <SCORE.INTER.CONST>
1

>  <SCORE.INTER.POLAR>
-0.938083

>  <SCORE.INTER.ROT>
6

>  <SCORE.INTER.SOLV>
8.18992

>  <SCORE.INTER.VDW>
-15.343

>  <SCORE.INTER.norm>
-0.393869

>  <SCORE.INTRA>
-8.34072

>  <SCORE.INTRA.DIHEDRAL>
-16.1313

>  <SCORE.INTRA.DIHEDRAL.0>
22.2484

>  <SCORE.INTRA.POLAR>
0

>  <SCORE.INTRA.POLAR.0>
0

>  <SCORE.INTRA.REPUL>
0

>  <SCORE.INTRA.REPUL.0>
0

>  <SCORE.INTRA.SOLV>
-2.6768

>  <SCORE.INTRA.SOLV.lig_0>
-75.7198

>  <SCORE.INTRA.VDW>
1.06333

>  <SCORE.INTRA.VDW.0>
-3.34171

>  <SCORE.INTRA.norm>
-0.269055

>  <SCORE.RESTR>
0.048935

>  <SCORE.RESTR.CAVITY>
0.048935

>  <SCORE.RESTR.norm>
0.00157855

>  <SCORE.SYSTEM>
0

>  <SCORE.SYSTEM.CONST>
0

>  <SCORE.SYSTEM.DIHEDRAL>
0

>  <SCORE.SYSTEM.SOLV>
0

>  <SCORE.SYSTEM.norm>
0

>  <SCORE.heavy>
31

>  <SCORE.norm>
-0.661346

>  <RMSD>
8.744

$$$$
2et3_lig
 OpenBabel11021811423D
libRbt.so/2013.1/901 2013/11/27
 31 33  0  0  0  0  0  0  0  0999 V2000
    2.1111   -0.7267   36.1550 C   0  0  2  0  0  0  0  0  0  0  0  0
    2.2908   -1.6630   35.0608 O   0  0  0  0  0  0  0  0  0  0  0  0
    0.7527   -5.4815   33.8950 C   0  0  2  0  0  0  0  0  0  0  0  0
   -0.0656   -6.6545   33.8957 N   0  0  0  0  0  0  0  0  0  0  0  0
   -0.1186   -4.2017   31.1253 C   0  0  2  0  0  0  0  0  0  0  0  0
    2.7173    0.6301   35.7808 C   0  0  2  0  0  0  0  0  0  0  0  0
    2.1140    1.0793   34.5641 N   0  0  0  0  0  0  0  0  0  0  0  0
    1.5126   -5.3743   35.2563 C   0  0  0  0  0  0  0  0  0  0  0  0
   -1.2323   -4.0177   30.0710 C   0  0  2  0  0  0  0  0  0  0  0  0
   -1.9888   -2.8741   30.4002 O   0  0  0  0  0  0  0  0  0  0  0  0
    4.2749    0.5164   35.6527 C   0  0  0  0  0  0  0  0  0  0  0  0
    2.4087   -4.0820   35.2679 C   0  0  2  0  0  0  0  0  0  0  0  0
    3.1262   -3.9761   36.5483 N   0  0  0  0  0  0  0  0  0  0  0  0
   -2.1195   -5.3291   30.0644 C   0  0  1  0  0  0  0  0  0  0  0  0
   -3.2591   -5.2155   29.0963 N   0  0  0  0  0  0  0  0  0  0  0  0
    4.8400    0.0507   37.0312 C   0  0  0  0  0  0  0  0  0  0  0  0
    1.5054   -2.8116   35.0297 C   0  0  2  0  0  0  0  0  0  0  0  0
   -1.2099   -6.6188   29.7000 C   0  0  1  0  0  0  0  0  0  0  0  0
   -0.6579   -6.5087   28.4044 O   0  0  0  0  0  0  0  0  0  0  0  0
    4.1721   -1.3446   37.4080 C   0  0  2  0  0  0  0  0  0  0  0  0
    2.7116   -1.2801   37.3997 O   0  0  0  0  0  0  0  0  0  0  0  0
    0.7514   -2.9507   33.6513 C   0  0  2  0  0  0  0  0  0  0  0  0
   -0.0684   -1.8107   33.4144 O   0  0  0  0  0  0  0  0  0  0  0  0
   -0.0265   -6.7108   30.7123 C   0  0  0  0  0  0  0  0  0  0  0  0
    0.7029   -5.4015   30.7934 O   0  0  0  0  0  0  0  0  0  0  0  0
    4.6468   -1.9226   38.7204 C   0  0  0  0  0  0  0  0  0  0  0  0
    3.8827   -3.0811   39.1023 N   0  0  0  0  0  0  0  0  0  0  0  0
   -0.1352   -4.2454   33.6581 C   0  0  1  0  0  0  0  0  0  0  0  0
   -0.8004   -4.3566   32.4058 O   0  0  0  0  0  0  0  0  0  0  0  0
   -1.9195   -7.9793   29.6660 C   0  0  0  0  0  0  0  0  0  0  0  0
   -2.9384   -4.7628   27.7324 C   0  0  0  0  0  0  0  0  0  0  0  0
  1  2  1  6  0  0  0
  1  6  1  0  0  0  0
  1 21  1  0  0  0  0
  3  4  1  1  0  0  0
  3  8  1  0  0  0  0
  3 28  1  0  0  0  0
  5  9  1  0  0  0  0
  5 25  1  0  0  0  0
  5 29  1  1  0  0  0
  6  7  1  6  0  0  0
  6 11  1  0  0  0  0
  8 12  1  0  0  0  0
  9 10  1  1  0  0  0
  9 14  1  0  0  0  0
 11 16  1  0  0  0  0
 12 13  1  1  0  0  0
 12 17  1  0  0  0  0
 14 15  1  6  0  0  0
 14 18  1  0  0  0  0
 15 31  1  0  0  0  0
 16 20  1  0  0  0  0
 17  2  1  6  0  0  0
 17 22  1  0  0  0  0
 18 19  1  6  0  0  0
 18 24  1  0  0  0  0
 18 30  1  0  0  0  0
 20 21  1  0  0  0  0
 20 26  1  1  0  0  0
 22 23  1  1  0  0  0
 22 28  1  0  0  0  0
 24 25  1  0  0  0  0
 26 27  1  0  0  0  0
 28 29  1  6  0  0  0
M  END
>  <CHROM.1>
-162.19077757,-165.19555903,49.35786560,-112.39687423,171.95176857,-72.55409468
0.87628462,-3.52459308,33.43011934,0.37408735,-0.98773350,-0.11485640

>  <Name>
2et3_lig

>  <RI>
0

>  <Rbt.Current_Directory>
/home/itssahil/PROJECTS/Mol_Feturizer/New_Systems/rnas/2et3

>  <Rbt.Executable>
rbdock ($Id: //depot/dev/client3/rdock/2013.1/src/exe/rbdock.cxx#4 $)

>  <Rbt.Library>
libRbt.so (2013.1, Build901 2013/11/27)

>  <Rbt.Parameter_File>
/export/apps/rDock/src/rDock_2013.1_src/data/scripts/dock_solv.prm

>  <Rbt.Receptor>
prm/blind_docking_40.prm

>  <SCORE>
8.10752

>  <SCORE.INTER>
2.05283

>  <SCORE.INTER.CONST>
1

>  <SCORE.INTER.POLAR>
-0.725467

>  <SCORE.INTER.ROT>
6

>  <SCORE.INTER.SOLV>
18.6595

>  <SCORE.INTER.VDW>
-10.0331

>  <SCORE.INTER.norm>
0.0662204

>  <SCORE.INTRA>
-3.14745

>  <SCORE.INTRA.DIHEDRAL>
-11.6629

>  <SCORE.INTRA.DIHEDRAL.0>
22.2484

>  <SCORE.INTRA.POLAR>
0

>  <SCORE.INTRA.POLAR.0>
0

>  <SCORE.INTRA.REPUL>
0

>  <SCORE.INTRA.REPUL.0>
0

>  <SCORE.INTRA.SOLV>
3.60417

>  <SCORE.INTRA.SOLV.lig_0>
-75.7198

>  <SCORE.INTRA.VDW>
0.881925

>  <SCORE.INTRA.VDW.0>
-3.34171

>  <SCORE.INTRA.norm>
-0.101531

>  <SCORE.RESTR>
9.20214

>  <SCORE.RESTR.CAVITY>
9.20214

>  <SCORE.RESTR.norm>
0.296843

>  <SCORE.SYSTEM>
0

>  <SCORE.SYSTEM.CONST>
0

>  <SCORE.SYSTEM.DIHEDRAL>
0

>  <SCORE.SYSTEM.SOLV>
0

>  <SCORE.SYSTEM.norm>
0

>  <SCORE.heavy>
31

>  <SCORE.norm>
0.261533

>  <RMSD>
8.788

$$$$
2et3_lig
 OpenBabel11021811423D
libRbt.so/2013.1/901 2013/11/27
 31 33  0  0  0  0  0  0  0  0999 V2000
    2.2488   -0.9457   36.2562 C   0  0  2  0  0  0  0  0  0  0  0  0
    2.4502   -2.1055   35.4073 O   0  0  0  0  0  0  0  0  0  0  0  0
    0.1872   -5.6467   34.6040 C   0  0  2  0  0  0  0  0  0  0  0  0
   -0.9428   -6.4914   34.3694 N   0  0  0  0  0  0  0  0  0  0  0  0
   -0.5582   -4.9377   31.1338 C   0  0  2  0  0  0  0  0  0  0  0  0
    2.8766    0.2901   35.6027 C   0  0  2  0  0  0  0  0  0  0  0  0
    2.3106    0.4540   34.2993 N   0  0  0  0  0  0  0  0  0  0  0  0
    0.0698   -4.9993   36.0215 C   0  0  0  0  0  0  0  0  0  0  0  0
   -1.3419   -6.2552   30.9451 C   0  0  2  0  0  0  0  0  0  0  0  0
   -2.0152   -6.5624   32.1454 O   0  0  0  0  0  0  0  0  0  0  0  0
    4.4360    0.1469   35.5480 C   0  0  0  0  0  0  0  0  0  0  0  0
    1.3044   -4.0615   36.2847 C   0  0  2  0  0  0  0  0  0  0  0  0
    1.1983   -3.4488   37.6185 N   0  0  0  0  0  0  0  0  0  0  0  0
   -0.3078   -7.3850   30.5440 C   0  0  1  0  0  0  0  0  0  0  0  0
   -0.9823   -8.7151   30.3862 N   0  0  0  0  0  0  0  0  0  0  0  0
    4.9593    0.0035   37.0117 C   0  0  0  0  0  0  0  0  0  0  0  0
    1.3717   -2.9516   35.1665 C   0  0  2  0  0  0  0  0  0  0  0  0
    0.4549   -6.9848   29.1722 C   0  0  1  0  0  0  0  0  0  0  0  0
   -0.4508   -6.8771   28.0934 O   0  0  0  0  0  0  0  0  0  0  0  0
    4.2694   -1.2691   37.6746 C   0  0  2  0  0  0  0  0  0  0  0  0
    2.8103   -1.2049   37.6103 O   0  0  0  0  0  0  0  0  0  0  0  0
    1.4873   -3.6355   33.7499 C   0  0  2  0  0  0  0  0  0  0  0  0
    1.5532   -2.6497   32.7245 O   0  0  0  0  0  0  0  0  0  0  0  0
    1.1393   -5.5951   29.3560 C   0  0  0  0  0  0  0  0  0  0  0  0
    0.1561   -4.5856   29.8726 O   0  0  0  0  0  0  0  0  0  0  0  0
    4.7031   -1.5366   39.0966 C   0  0  0  0  0  0  0  0  0  0  0  0
    3.8432   -2.4896   39.7480 N   0  0  0  0  0  0  0  0  0  0  0  0
    0.2488   -4.5677   33.5064 C   0  0  1  0  0  0  0  0  0  0  0  0
    0.3752   -5.1798   32.2286 O   0  0  0  0  0  0  0  0  0  0  0  0
    1.5071   -7.9732   28.6512 C   0  0  0  0  0  0  0  0  0  0  0  0
   -0.1162   -9.9048   30.3350 C   0  0  0  0  0  0  0  0  0  0  0  0
  1  2  1  6  0  0  0
  1  6  1  0  0  0  0
  1 21  1  0  0  0  0
  3  4  1  6  0  0  0
  3  8  1  0  0  0  0
  3 28  1  0  0  0  0
  5  9  1  0  0  0  0
  5 25  1  0  0  0  0
  5 29  1  1  0  0  0
  6  7  1  6  0  0  0
  6 11  1  0  0  0  0
  8 12  1  0  0  0  0
  9 10  1  1  0  0  0
  9 14  1  0  0  0  0
 11 16  1  0  0  0  0
 12 13  1  1  0  0  0
 12 17  1  0  0  0  0
 14 15  1  6  0  0  0
 14 18  1  0  0  0  0
 15 31  1  0  0  0  0
 16 20  1  0  0  0  0
 17  2  1  1  0  0  0
 17 22  1  0  0  0  0
 18 19  1  6  0  0  0
 18 24  1  0  0  0  0
 18 30  1  0  0  0  0
 20 21  1  0  0  0  0
 20 26  1  1  0  0  0
 22 23  1  6  0  0  0
 22 28  1  0  0  0  0
 24 25  1  0  0  0  0
 26 27  1  0  0  0  0
 28 29  1  6  0  0  0
M  END
>  <CHROM.1>
-133.81750022,-110.47235880,-165.72480681,-88.58835490,166.70739066,123.85712278
1.25410758,-4.15064006,33.66974349,-0.74610227,-1.05041082,-1.51946928

>  <Name>
2et3_lig

>  <RI>
0

>  <Rbt.Current_Directory>
/home/itssahil/PROJECTS/Mol_Feturizer/New_Systems/rnas/2et3

>  <Rbt.Executable>
rbdock ($Id: //depot/dev/client3/rdock/2013.1/src/exe/rbdock.cxx#4 $)

>  <Rbt.Library>
libRbt.so (2013.1, Build901 2013/11/27)

>  <Rbt.Parameter_File>
/export/apps/rDock/src/rDock_2013.1_src/data/scripts/dock_solv.prm

>  <Rbt.Receptor>
prm/blind_docking_40.prm

>  <SCORE>
22.9961

>  <SCORE.INTER>
8.05088

>  <SCORE.INTER.CONST>
1

>  <SCORE.INTER.POLAR>
0

>  <SCORE.INTER.ROT>
6

>  <SCORE.INTER.SOLV>
15.8185

>  <SCORE.INTER.VDW>
-7.50558

>  <SCORE.INTER.norm>
0.259706

>  <SCORE.INTRA>
4.29179

>  <SCORE.INTRA.DIHEDRAL>
2.08025

>  <SCORE.INTRA.DIHEDRAL.0>
22.2484

>  <SCORE.INTRA.POLAR>
0

>  <SCORE.INTRA.POLAR.0>
0

>  <SCORE.INTRA.REPUL>
0.00201203

>  <SCORE.INTRA.REPUL.0>
0

>  <SCORE.INTRA.SOLV>
2.51887

>  <SCORE.INTRA.SOLV.lig_0>
-75.7198

>  <SCORE.INTRA.VDW>
1.98217

>  <SCORE.INTRA.VDW.0>
-3.34171

>  <SCORE.INTRA.norm>
0.138445

>  <SCORE.RESTR>
10.6534

>  <SCORE.RESTR.CAVITY>
10.6534

>  <SCORE.RESTR.norm>
0.34366

>  <SCORE.SYSTEM>
0

>  <SCORE.SYSTEM.CONST>
0

>  <SCORE.SYSTEM.DIHEDRAL>
0

>  <SCORE.SYSTEM.SOLV>
0

>  <SCORE.SYSTEM.norm>
0

>  <SCORE.heavy>
31

>  <SCORE.norm>
0.74181

>  <RMSD>
8.811

$$$$
2et3_lig
 OpenBabel11021811423D
libRbt.so/2013.1/901 2013/11/27
 31 33  0  0  0  0  0  0  0  0999 V2000
   -3.7029   -6.5639   35.2620 C   0  0  2  0  0  0  0  0  0  0  0  0
   -4.6650   -7.2550   34.4236 O   0  0  0  0  0  0  0  0  0  0  0  0
   -5.1254   -6.9228   30.1828 C   0  0  2  0  0  0  0  0  0  0  0  0
   -5.4443   -6.3559   28.9090 N   0  0  0  0  0  0  0  0  0  0  0  0
   -1.6812   -5.2616   30.3795 C   0  0  2  0  0  0  0  0  0  0  0  0
   -3.4393   -7.3819   36.5308 C   0  0  2  0  0  0  0  0  0  0  0  0
   -3.0010   -8.6887   36.1481 N   0  0  0  0  0  0  0  0  0  0  0  0
   -6.4143   -6.9838   31.0645 C   0  0  0  0  0  0  0  0  0  0  0  0
   -0.9534   -5.0029   29.0419 C   0  0  2  0  0  0  0  0  0  0  0  0
   -1.8189   -4.2989   28.1794 O   0  0  0  0  0  0  0  0  0  0  0  0
   -4.7259   -7.4359   37.4236 C   0  0  0  0  0  0  0  0  0  0  0  0
   -6.0713   -7.5981   32.4709 C   0  0  2  0  0  0  0  0  0  0  0  0
   -7.2820   -7.6572   33.3053 N   0  0  0  0  0  0  0  0  0  0  0  0
   -0.5307   -6.4039   28.4373 C   0  0  1  0  0  0  0  0  0  0  0  0
    0.1446   -6.2462   27.1076 N   0  0  0  0  0  0  0  0  0  0  0  0
   -5.1062   -5.9725   37.8115 C   0  0  0  0  0  0  0  0  0  0  0  0
   -4.9566   -6.7280   33.1689 C   0  0  2  0  0  0  0  0  0  0  0  0
    0.4468   -7.1855   29.4655 C   0  0  1  0  0  0  0  0  0  0  0  0
    1.6456   -6.4696   29.6795 O   0  0  0  0  0  0  0  0  0  0  0  0
   -5.3452   -5.1396   36.4759 C   0  0  2  0  0  0  0  0  0  0  0  0
   -4.1949   -5.1943   35.5753 O   0  0  0  0  0  0  0  0  0  0  0  0
   -3.6718   -6.6840   32.2551 C   0  0  2  0  0  0  0  0  0  0  0  0
   -2.6499   -5.9052   32.8692 O   0  0  0  0  0  0  0  0  0  0  0  0
   -0.2713   -7.3285   30.8430 C   0  0  0  0  0  0  0  0  0  0  0  0
   -0.7815   -5.9979   31.3140 O   0  0  0  0  0  0  0  0  0  0  0  0
   -5.7399   -3.7000   36.7076 C   0  0  0  0  0  0  0  0  0  0  0  0
   -6.9859   -3.5949   37.4205 N   0  0  0  0  0  0  0  0  0  0  0  0
   -4.0339   -6.0704   30.8570 C   0  0  1  0  0  0  0  0  0  0  0  0
   -2.8653   -6.0460   30.0463 O   0  0  0  0  0  0  0  0  0  0  0  0
    0.9381   -8.5740   29.0337 C   0  0  0  0  0  0  0  0  0  0  0  0
   -0.7235   -6.0896   25.9286 C   0  0  0  0  0  0  0  0  0  0  0  0
  1  2  1  6  0  0  0
  1  6  1  0  0  0  0
  1 21  1  0  0  0  0
  3  4  1  6  0  0  0
  3  8  1  0  0  0  0
  3 28  1  0  0  0  0
  5  9  1  0  0  0  0
  5 25  1  0  0  0  0
  5 29  1  6  0  0  0
  6  7  1  6  0  0  0
  6 11  1  0  0  0  0
  8 12  1  0  0  0  0
  9 10  1  6  0  0  0
  9 14  1  0  0  0  0
 11 16  1  0  0  0  0
 12 13  1  1  0  0  0
 12 17  1  0  0  0  0
 14 15  1  6  0  0  0
 14 18  1  0  0  0  0
 15 31  1  0  0  0  0
 16 20  1  0  0  0  0
 17  2  1  1  0  0  0
 17 22  1  0  0  0  0
 18 19  1  1  0  0  0
 18 24  1  0  0  0  0
 18 30  1  0  0  0  0
 20 21  1  0  0  0  0
 20 26  1  1  0  0  0
 22 23  1  1  0  0  0
 22 28  1  0  0  0  0
 24 25  1  0  0  0  0
 26 27  1  0  0  0  0
 28 29  1  6  0  0  0
M  END
>  <CHROM.1>
-174.76098974,-155.57668193,-82.19747547,-177.23454252,-61.86922338,176.55541528
-3.15323381,-6.33240309,32.17762813,-2.12990305,0.13767632,-1.52470391

>  <Name>
2et3_lig

>  <RI>
0

>  <Rbt.Current_Directory>
/home/itssahil/PROJECTS/Mol_Feturizer/New_Systems/rnas/2et3

>  <Rbt.Executable>
rbdock ($Id: //depot/dev/client3/rdock/2013.1/src/exe/rbdock.cxx#4 $)

>  <Rbt.Library>
libRbt.so (2013.1, Build901 2013/11/27)

>  <Rbt.Parameter_File>
/export/apps/rDock/src/rDock_2013.1_src/data/scripts/dock_solv.prm

>  <Rbt.Receptor>
prm/pocket_docking_7.prm

>  <SCORE>
-21.7442

>  <SCORE.INTER>
-12.6107

>  <SCORE.INTER.CONST>
1

>  <SCORE.INTER.POLAR>
-0.938083

>  <SCORE.INTER.ROT>
6

>  <SCORE.INTER.SOLV>
11.5083

>  <SCORE.INTER.VDW>
-16.7163

>  <SCORE.INTER.norm>
-0.406796

>  <SCORE.INTRA>
-9.1335

>  <SCORE.INTRA.DIHEDRAL>
-18.9192

>  <SCORE.INTRA.DIHEDRAL.0>
22.2484

>  <SCORE.INTRA.POLAR>
0

>  <SCORE.INTRA.POLAR.0>
0

>  <SCORE.INTRA.REPUL>
0

>  <SCORE.INTRA.REPUL.0>
0

>  <SCORE.INTRA.SOLV>
-3.97283

>  <SCORE.INTRA.SOLV.lig_0>
-75.7198

>  <SCORE.INTRA.VDW>
2.3125

>  <SCORE.INTRA.VDW.0>
-3.34171

>  <SCORE.INTRA.norm>
-0.294629

>  <SCORE.RESTR>
0

>  <SCORE.RESTR.CAVITY>
0

>  <SCORE.RESTR.norm>
0

>  <SCORE.SYSTEM>
0

>  <SCORE.SYSTEM.CONST>
0

>  <SCORE.SYSTEM.DIHEDRAL>
0

>  <SCORE.SYSTEM.SOLV>
0

>  <SCORE.SYSTEM.norm>
0

>  <SCORE.heavy>
31

>  <SCORE.norm>
-0.701425

>  <RMSD>
8.828

$$$$
2et3_lig
 OpenBabel11021811423D
libRbt.so/2013.1/901 2013/11/27
 31 33  0  0  0  0  0  0  0  0999 V2000
   -0.7475  -12.6438   31.1182 C   0  0  2  0  0  0  0  0  0  0  0  0
   -1.1181  -11.4407   30.3962 O   0  0  0  0  0  0  0  0  0  0  0  0
   -0.3565   -7.2479   30.7795 C   0  0  2  0  0  0  0  0  0  0  0  0
    0.2998   -6.0329   31.1517 N   0  0  0  0  0  0  0  0  0  0  0  0
    1.8545   -6.2296   28.6846 C   0  0  2  0  0  0  0  0  0  0  0  0
   -1.0760  -13.8782   30.2717 C   0  0  2  0  0  0  0  0  0  0  0  0
   -0.4057  -13.7600   29.0136 N   0  0  0  0  0  0  0  0  0  0  0  0
   -0.7351   -8.0517   32.0651 C   0  0  0  0  0  0  0  0  0  0  0  0
    1.8472   -5.6752   27.2430 C   0  0  2  0  0  0  0  0  0  0  0  0
    0.5465   -5.2285   26.9317 O   0  0  0  0  0  0  0  0  0  0  0  0
   -2.6262  -14.0237   30.0958 C   0  0  0  0  0  0  0  0  0  0  0  0
   -1.4498   -9.3941   31.6650 C   0  0  2  0  0  0  0  0  0  0  0  0
   -1.8081  -10.1551   32.8726 N   0  0  0  0  0  0  0  0  0  0  0  0
    2.3204   -6.8332   26.2724 C   0  0  1  0  0  0  0  0  0  0  0  0
    2.2973   -6.3917   24.8395 N   0  0  0  0  0  0  0  0  0  0  0  0
   -3.2609  -14.1750   31.5139 C   0  0  0  0  0  0  0  0  0  0  0  0
   -0.4987  -10.2413   30.7354 C   0  0  2  0  0  0  0  0  0  0  0  0
    3.8091   -7.3283   26.6753 C   0  0  1  0  0  0  0  0  0  0  0  0
    4.7524   -6.2861   26.5362 O   0  0  0  0  0  0  0  0  0  0  0  0
   -2.8795  -12.8945   32.3796 C   0  0  2  0  0  0  0  0  0  0  0  0
   -1.4353  -12.6751   32.4381 O   0  0  0  0  0  0  0  0  0  0  0  0
   -0.1334   -9.4036   29.4499 C   0  0  2  0  0  0  0  0  0  0  0  0
    0.7231  -10.1526   28.5937 O   0  0  0  0  0  0  0  0  0  0  0  0
    3.8116   -7.7724   28.1708 C   0  0  0  0  0  0  0  0  0  0  0  0
    3.2240   -6.7004   29.0416 O   0  0  0  0  0  0  0  0  0  0  0  0
   -3.4484  -12.9027   33.7789 C   0  0  0  0  0  0  0  0  0  0  0  0
   -3.2526  -11.6411   34.4435 N   0  0  0  0  0  0  0  0  0  0  0  0
    0.5764   -8.0684   29.8689 C   0  0  1  0  0  0  0  0  0  0  0  0
    0.8909   -7.3248   28.6977 O   0  0  0  0  0  0  0  0  0  0  0  0
    4.4120   -8.4633   25.8364 C   0  0  0  0  0  0  0  0  0  0  0  0
    3.0991   -5.2074   24.4892 C   0  0  0  0  0  0  0  0  0  0  0  0
  1  2  1  6  0  0  0
  1  6  1  0  0  0  0
  1 21  1  0  0  0  0
  3  4  1  1  0  0  0
  3  8  1  0  0  0  0
  3 28  1  0  0  0  0
  5  9  1  0  0  0  0
  5 25  1  0  0  0  0
  5 29  1  6  0  0  0
  6  7  1  6  0  0  0
  6 11  1  0  0  0  0
  8 12  1  0  0  0  0
  9 10  1  6  0  0  0
  9 14  1  0  0  0  0
 11 16  1  0  0  0  0
 12 13  1  1  0  0  0
 12 17  1  0  0  0  0
 14 15  1  6  0  0  0
 14 18  1  0  0  0  0
 15 31  1  0  0  0  0
 16 20  1  0  0  0  0
 17  2  1  6  0  0  0
 17 22  1  0  0  0  0
 18 19  1  6  0  0  0
 18 24  1  0  0  0  0
 18 30  1  0  0  0  0
 20 21  1  0  0  0  0
 20 26  1  1  0  0  0
 22 23  1  6  0  0  0
 22 28  1  0  0  0  0
 24 25  1  0  0  0  0
 26 27  1  0  0  0  0
 28 29  1  6  0  0  0
M  END
>  <CHROM.1>
-157.32439222,-177.86646690,57.39280673,-100.04041758,-170.96584178,76.68462571
0.33137355,-9.27084742,29.51592997,-2.71081023,0.94482457,0.34197134

>  <Name>
2et3_lig

>  <RI>
2.5794e+07

>  <Rbt.Current_Directory>
/home/itssahil/PROJECTS/Mol_Feturizer/New_Systems/rnas/2et3

>  <Rbt.Executable>
rbdock ($Id: //depot/dev/client3/rdock/2013.1/src/exe/rbdock.cxx#4 $)

>  <Rbt.Library>
libRbt.so (2013.1, Build901 2013/11/27)

>  <Rbt.Parameter_File>
/export/apps/rDock/src/rDock_2013.1_src/data/scripts/dock_solv.prm

>  <Rbt.Receptor>
prm/pocket_docking_5.prm

>  <SCORE>
-12.3019

>  <SCORE.INTER>
-8.91313

>  <SCORE.INTER.CONST>
1

>  <SCORE.INTER.POLAR>
-0.683789

>  <SCORE.INTER.ROT>
6

>  <SCORE.INTER.SOLV>
18.8071

>  <SCORE.INTER.VDW>
-17.5318

>  <SCORE.INTER.norm>
-0.28752

>  <SCORE.INTRA>
-3.38875

>  <SCORE.INTRA.DIHEDRAL>
-12.8422

>  <SCORE.INTRA.DIHEDRAL.0>
22.2484

>  <SCORE.INTRA.POLAR>
0

>  <SCORE.INTRA.POLAR.0>
0

>  <SCORE.INTRA.REPUL>
0

>  <SCORE.INTRA.REPUL.0>
0

>  <SCORE.INTRA.SOLV>
3.16807

>  <SCORE.INTRA.SOLV.lig_0>
-75.7198

>  <SCORE.INTRA.VDW>
1.44833

>  <SCORE.INTRA.VDW.0>
-3.34171

>  <SCORE.INTRA.norm>
-0.109314

>  <SCORE.RESTR>
0

>  <SCORE.RESTR.CAVITY>
0

>  <SCORE.RESTR.norm>
0

>  <SCORE.SYSTEM>
0

>  <SCORE.SYSTEM.CONST>
0

>  <SCORE.SYSTEM.DIHEDRAL>
0

>  <SCORE.SYSTEM.SOLV>
0

>  <SCORE.SYSTEM.norm>
0

>  <SCORE.heavy>
31

>  <SCORE.norm>
-0.396835

>  <RMSD>
8.831

$$$$
2et3_lig
 OpenBabel11021811423D
libRbt.so/2013.1/901 2013/11/27
 31 33  0  0  0  0  0  0  0  0999 V2000
    3.0380   -1.7624   35.1347 C   0  0  2  0  0  0  0  0  0  0  0  0
    2.8652   -3.1949   34.9794 O   0  0  0  0  0  0  0  0  0  0  0  0
   -0.2896   -5.8933   33.9438 C   0  0  2  0  0  0  0  0  0  0  0  0
   -1.6090   -6.3700   33.6653 N   0  0  0  0  0  0  0  0  0  0  0  0
   -1.1039   -6.0636   31.0878 C   0  0  2  0  0  0  0  0  0  0  0  0
    4.5267   -1.4339   35.2906 C   0  0  2  0  0  0  0  0  0  0  0  0
    5.2299   -1.9561   34.1597 N   0  0  0  0  0  0  0  0  0  0  0  0
   -0.2273   -5.3556   35.4098 C   0  0  0  0  0  0  0  0  0  0  0  0
   -0.5020   -7.3125   30.4070 C   0  0  2  0  0  0  0  0  0  0  0  0
    0.2218   -8.0514   31.3654 O   0  0  0  0  0  0  0  0  0  0  0  0
    5.0763   -2.0139   36.6385 C   0  0  0  0  0  0  0  0  0  0  0  0
    1.2183   -4.8211   35.7221 C   0  0  2  0  0  0  0  0  0  0  0  0
    1.2820   -4.3130   37.1018 N   0  0  0  0  0  0  0  0  0  0  0  0
    0.4233   -6.8226   29.2192 C   0  0  1  0  0  0  0  0  0  0  0  0
    1.0883   -7.9766   28.5300 N   0  0  0  0  0  0  0  0  0  0  0  0
    4.2700   -1.3657   37.8075 C   0  0  0  0  0  0  0  0  0  0  0  0
    1.5949   -3.6867   34.6936 C   0  0  2  0  0  0  0  0  0  0  0  0
   -0.4422   -5.9647   28.1523 C   0  0  1  0  0  0  0  0  0  0  0  0
   -1.4576   -6.7509   27.5637 O   0  0  0  0  0  0  0  0  0  0  0  0
    2.7263   -1.6978   37.6041 C   0  0  2  0  0  0  0  0  0  0  0  0
    2.2371   -1.2776   36.2921 O   0  0  0  0  0  0  0  0  0  0  0  0
    1.5208   -4.2589   33.2257 C   0  0  2  0  0  0  0  0  0  0  0  0
    1.8614   -3.2504   32.2799 O   0  0  0  0  0  0  0  0  0  0  0  0
   -1.1322   -4.7774   28.8925 C   0  0  0  0  0  0  0  0  0  0  0  0
   -1.8837   -5.2692   30.0951 O   0  0  0  0  0  0  0  0  0  0  0  0
    1.8272   -1.1412   38.6828 C   0  0  0  0  0  0  0  0  0  0  0  0
    1.8916    0.2954   38.7445 N   0  0  0  0  0  0  0  0  0  0  0  0
    0.0730   -4.7886   32.9334 C   0  0  1  0  0  0  0  0  0  0  0  0
    0.0287   -5.3063   31.6093 O   0  0  0  0  0  0  0  0  0  0  0  0
    0.3135   -5.4012   26.9411 C   0  0  0  0  0  0  0  0  0  0  0  0
    2.5552   -7.9318   28.4101 C   0  0  0  0  0  0  0  0  0  0  0  0
  1  2  1  1  0  0  0
  1  6  1  0  0  0  0
  1 21  1  0  0  0  0
  3  4  1  6  0  0  0
  3  8  1  0  0  0  0
  3 28  1  0  0  0  0
  5  9  1  0  0  0  0
  5 25  1  0  0  0  0
  5 29  1  6  0  0  0
  6  7  1  6  0  0  0
  6 11  1  0  0  0  0
  8 12  1  0  0  0  0
  9 10  1  1  0  0  0
  9 14  1  0  0  0  0
 11 16  1  0  0  0  0
 12 13  1  1  0  0  0
 12 17  1  0  0  0  0
 14 15  1  6  0  0  0
 14 18  1  0  0  0  0
 15 31  1  0  0  0  0
 16 20  1  0  0  0  0
 17  2  1  1  0  0  0
 17 22  1  0  0  0  0
 18 19  1  6  0  0  0
 18 24  1  0  0  0  0
 18 30  1  0  0  0  0
 20 21  1  0  0  0  0
 20 26  1  1  0  0  0
 22 23  1  6  0  0  0
 22 28  1  0  0  0  0
 24 25  1  0  0  0  0
 26 27  1  0  0  0  0
 28 29  1  6  0  0  0
M  END
>  <CHROM.1>
-173.84756233,-132.33223048,-125.91916887,-127.84046784,61.11955717,49.87415338
1.18878516,-4.39778369,33.06719033,-1.17932156,-0.53378543,-1.91878080

>  <Name>
2et3_lig

>  <RI>
0

>  <Rbt.Current_Directory>
/home/itssahil/PROJECTS/Mol_Feturizer/New_Systems/rnas/2et3

>  <Rbt.Executable>
rbdock ($Id: //depot/dev/client3/rdock/2013.1/src/exe/rbdock.cxx#4 $)

>  <Rbt.Library>
libRbt.so (2013.1, Build901 2013/11/27)

>  <Rbt.Parameter_File>
/export/apps/rDock/src/rDock_2013.1_src/data/scripts/dock_solv.prm

>  <Rbt.Receptor>
prm/blind_docking_40.prm

>  <SCORE>
11.7911

>  <SCORE.INTER>
3.58184

>  <SCORE.INTER.CONST>
1

>  <SCORE.INTER.POLAR>
-1.96396

>  <SCORE.INTER.ROT>
6

>  <SCORE.INTER.SOLV>
15.5726

>  <SCORE.INTER.VDW>
-3.85644

>  <SCORE.INTER.norm>
0.115543

>  <SCORE.INTRA>
-2.1745

>  <SCORE.INTRA.DIHEDRAL>
-6.86794

>  <SCORE.INTRA.DIHEDRAL.0>
22.2484

>  <SCORE.INTRA.POLAR>
0

>  <SCORE.INTRA.POLAR.0>
0

>  <SCORE.INTRA.REPUL>
0

>  <SCORE.INTRA.REPUL.0>
0

>  <SCORE.INTRA.SOLV>
1.53481

>  <SCORE.INTRA.SOLV.lig_0>
-75.7198

>  <SCORE.INTRA.VDW>
0.492066

>  <SCORE.INTRA.VDW.0>
-3.34171

>  <SCORE.INTRA.norm>
-0.0701452

>  <SCORE.RESTR>
10.3838

>  <SCORE.RESTR.CAVITY>
10.3838

>  <SCORE.RESTR.norm>
0.334961

>  <SCORE.SYSTEM>
0

>  <SCORE.SYSTEM.CONST>
0

>  <SCORE.SYSTEM.DIHEDRAL>
0

>  <SCORE.SYSTEM.SOLV>
0

>  <SCORE.SYSTEM.norm>
0

>  <SCORE.heavy>
31

>  <SCORE.norm>
0.380359

>  <RMSD>
8.834

$$$$
2et3_lig
 OpenBabel11021811423D
libRbt.so/2013.1/901 2013/11/27
 31 33  0  0  0  0  0  0  0  0999 V2000
    1.9513   -0.7515   36.0835 C   0  0  2  0  0  0  0  0  0  0  0  0
    2.1563   -1.6587   34.9694 O   0  0  0  0  0  0  0  0  0  0  0  0
    0.6528   -5.4459   33.6644 C   0  0  2  0  0  0  0  0  0  0  0  0
   -0.1492   -6.6295   33.6272 N   0  0  0  0  0  0  0  0  0  0  0  0
   -0.3212   -3.9068   30.9802 C   0  0  2  0  0  0  0  0  0  0  0  0
    2.6272    0.5919   35.7891 C   0  0  2  0  0  0  0  0  0  0  0  0
    2.1091    1.1029   34.5576 N   0  0  0  0  0  0  0  0  0  0  0  0
    1.4321   -5.3857   35.0177 C   0  0  0  0  0  0  0  0  0  0  0  0
   -1.4873   -3.6128   30.0109 C   0  0  2  0  0  0  0  0  0  0  0  0
   -2.2681   -2.5645   30.5398 O   0  0  0  0  0  0  0  0  0  0  0  0
    4.1842    0.4217   35.7414 C   0  0  0  0  0  0  0  0  0  0  0  0
    2.3105   -4.0824   35.0711 C   0  0  2  0  0  0  0  0  0  0  0  0
    3.0462   -4.0207   36.3441 N   0  0  0  0  0  0  0  0  0  0  0  0
   -2.3270   -4.9442   29.8396 C   0  0  1  0  0  0  0  0  0  0  0  0
   -3.5126   -4.7338   28.9457 N   0  0  0  0  0  0  0  0  0  0  0  0
    4.6546   -0.1096   37.1318 C   0  0  0  0  0  0  0  0  0  0  0  0
    1.3863   -2.8161   34.9009 C   0  0  2  0  0  0  0  0  0  0  0  0
   -1.3898   -6.1252   29.2476 C   0  0  1  0  0  0  0  0  0  0  0  0
   -0.9012   -5.7982   27.9631 O   0  0  0  0  0  0  0  0  0  0  0  0
    3.9155   -1.4891   37.4242 C   0  0  2  0  0  0  0  0  0  0  0  0
    2.4611   -1.3675   37.3392 O   0  0  0  0  0  0  0  0  0  0  0  0
    0.6130   -2.9073   33.5292 C   0  0  2  0  0  0  0  0  0  0  0  0
   -0.2259   -1.7701   33.3534 O   0  0  0  0  0  0  0  0  0  0  0  0
   -0.1593   -6.3190   30.1867 C   0  0  0  0  0  0  0  0  0  0  0  0
    0.5263   -5.0075   30.4373 O   0  0  0  0  0  0  0  0  0  0  0  0
    4.2951   -2.1268   38.7398 C   0  0  0  0  0  0  0  0  0  0  0  0
    3.5400   -3.3263   38.9906 N   0  0  0  0  0  0  0  0  0  0  0  0
   -0.2556   -4.2137   33.4939 C   0  0  1  0  0  0  0  0  0  0  0  0
   -0.9385   -4.2811   32.2479 O   0  0  0  0  0  0  0  0  0  0  0  0
   -2.0517   -7.4934   29.0348 C   0  0  0  0  0  0  0  0  0  0  0  0
   -3.2512   -4.1976   27.5995 C   0  0  0  0  0  0  0  0  0  0  0  0
  1  2  1  6  0  0  0
  1  6  1  0  0  0  0
  1 21  1  0  0  0  0
  3  4  1  1  0  0  0
  3  8  1  0  0  0  0
  3 28  1  0  0  0  0
  5  9  1  0  0  0  0
  5 25  1  0  0  0  0
  5 29  1  1  0  0  0
  6  7  1  6  0  0  0
  6 11  1  0  0  0  0
  8 12  1  0  0  0  0
  9 10  1  1  0  0  0
  9 14  1  0  0  0  0
 11 16  1  0  0  0  0
 12 13  1  1  0  0  0
 12 17  1  0  0  0  0
 14 15  1  6  0  0  0
 14 18  1  0  0  0  0
 15 31  1  0  0  0  0
 16 20  1  0  0  0  0
 17  2  1  6  0  0  0
 17 22  1  0  0  0  0
 18 19  1  6  0  0  0
 18 24  1  0  0  0  0
 18 30  1  0  0  0  0
 20 21  1  0  0  0  0
 20 26  1  1  0  0  0
 22 23  1  1  0  0  0
 22 28  1  0  0  0  0
 24 25  1  0  0  0  0
 26 27  1  0  0  0  0
 28 29  1  6  0  0  0
M  END
>  <CHROM.1>
-166.02694579,-159.20643398,55.58881176,-114.28669055,176.48629629,-80.14194238
0.70211998,-3.38756272,33.27298468,0.34665727,-0.98987761,-0.07171145

>  <Name>
2et3_lig

>  <RI>
0

>  <Rbt.Current_Directory>
/home/itssahil/PROJECTS/Mol_Feturizer/New_Systems/rnas/2et3

>  <Rbt.Executable>
rbdock ($Id: //depot/dev/client3/rdock/2013.1/src/exe/rbdock.cxx#4 $)

>  <Rbt.Library>
libRbt.so (2013.1, Build901 2013/11/27)

>  <Rbt.Parameter_File>
/export/apps/rDock/src/rDock_2013.1_src/data/scripts/dock_solv.prm

>  <Rbt.Receptor>
prm/blind_docking_40.prm

>  <SCORE>
9.12781

>  <SCORE.INTER>
3.05995

>  <SCORE.INTER.CONST>
1

>  <SCORE.INTER.POLAR>
-0.401386

>  <SCORE.INTER.ROT>
6

>  <SCORE.INTER.SOLV>
19.5374

>  <SCORE.INTER.VDW>
-10.7346

>  <SCORE.INTER.norm>
0.0987082

>  <SCORE.INTRA>
-2.3731

>  <SCORE.INTRA.DIHEDRAL>
-10.3365

>  <SCORE.INTRA.DIHEDRAL.0>
22.2484

>  <SCORE.INTRA.POLAR>
0

>  <SCORE.INTRA.POLAR.0>
0

>  <SCORE.INTRA.REPUL>
0

>  <SCORE.INTRA.REPUL.0>
0

>  <SCORE.INTRA.SOLV>
3.21653

>  <SCORE.INTRA.SOLV.lig_0>
-75.7198

>  <SCORE.INTRA.VDW>
1.18691

>  <SCORE.INTRA.VDW.0>
-3.34171

>  <SCORE.INTRA.norm>
-0.0765515

>  <SCORE.RESTR>
8.44095

>  <SCORE.RESTR.CAVITY>
8.44095

>  <SCORE.RESTR.norm>
0.272289

>  <SCORE.SYSTEM>
0

>  <SCORE.SYSTEM.CONST>
0

>  <SCORE.SYSTEM.DIHEDRAL>
0

>  <SCORE.SYSTEM.SOLV>
0

>  <SCORE.SYSTEM.norm>
0

>  <SCORE.heavy>
31

>  <SCORE.norm>
0.294445

>  <RMSD>
8.836

$$$$
2et3_lig
 OpenBabel11021811423D
libRbt.so/2013.1/901 2013/11/27
 31 33  0  0  0  0  0  0  0  0999 V2000
   -0.6048  -10.3145   31.3449 C   0  0  2  0  0  0  0  0  0  0  0  0
   -1.6265  -10.0731   30.3429 O   0  0  0  0  0  0  0  0  0  0  0  0
   -1.5088   -7.2153   27.1608 C   0  0  2  0  0  0  0  0  0  0  0  0
   -1.5181   -5.9501   26.4938 N   0  0  0  0  0  0  0  0  0  0  0  0
    2.0633   -6.3993   27.9230 C   0  0  2  0  0  0  0  0  0  0  0  0
   -0.6703  -11.7729   31.8109 C   0  0  2  0  0  0  0  0  0  0  0  0
   -0.5359  -12.6232   30.6684 N   0  0  0  0  0  0  0  0  0  0  0  0
   -2.8540   -7.4084   27.9324 C   0  0  0  0  0  0  0  0  0  0  0  0
    3.0041   -6.1682   26.7200 C   0  0  2  0  0  0  0  0  0  0  0  0
    2.3231   -5.4089   25.7464 O   0  0  0  0  0  0  0  0  0  0  0  0
   -2.0069  -12.0405   32.5836 C   0  0  0  0  0  0  0  0  0  0  0  0
   -2.8492   -8.7939   28.6765 C   0  0  2  0  0  0  0  0  0  0  0  0
   -4.1140   -8.9804   29.4052 N   0  0  0  0  0  0  0  0  0  0  0  0
    3.4409   -7.5845   26.1630 C   0  0  1  0  0  0  0  0  0  0  0  0
    4.3233   -7.4517   24.9578 N   0  0  0  0  0  0  0  0  0  0  0  0
   -2.0470  -11.0910   33.8220 C   0  0  0  0  0  0  0  0  0  0  0  0
   -1.6228   -8.8572   29.6656 C   0  0  2  0  0  0  0  0  0  0  0  0
    4.2024   -8.4293   27.3163 C   0  0  1  0  0  0  0  0  0  0  0  0
    5.3894   -7.7833   27.7275 O   0  0  0  0  0  0  0  0  0  0  0  0
   -1.9480   -9.5864   33.3109 C   0  0  2  0  0  0  0  0  0  0  0  0
   -0.7690   -9.3611   32.4763 O   0  0  0  0  0  0  0  0  0  0  0  0
   -0.2825   -8.6570   28.8584 C   0  0  2  0  0  0  0  0  0  0  0  0
    0.8395   -8.7144   29.7334 O   0  0  0  0  0  0  0  0  0  0  0  0
    3.2710   -8.5457   28.5623 C   0  0  0  0  0  0  0  0  0  0  0  0
    2.7652   -7.1934   28.9725 O   0  0  0  0  0  0  0  0  0  0  0  0
   -1.9934   -8.5550   34.4136 C   0  0  0  0  0  0  0  0  0  0  0  0
   -3.2185   -8.6293   35.1656 N   0  0  0  0  0  0  0  0  0  0  0  0
   -0.3066   -7.2716   28.1222 C   0  0  1  0  0  0  0  0  0  0  0  0
    0.9057   -7.1133   27.3952 O   0  0  0  0  0  0  0  0  0  0  0  0
    4.6804   -9.8386   26.9409 C   0  0  0  0  0  0  0  0  0  0  0  0
    3.6589   -7.2671   23.6567 C   0  0  0  0  0  0  0  0  0  0  0  0
  1  2  1  6  0  0  0
  1  6  1  0  0  0  0
  1 21  1  0  0  0  0
  3  4  1  1  0  0  0
  3  8  1  0  0  0  0
  3 28  1  0  0  0  0
  5  9  1  0  0  0  0
  5 25  1  0  0  0  0
  5 29  1  6  0  0  0
  6  7  1  6  0  0  0
  6 11  1  0  0  0  0
  8 12  1  0  0  0  0
  9 10  1  6  0  0  0
  9 14  1  0  0  0  0
 11 16  1  0  0  0  0
 12 13  1  1  0  0  0
 12 17  1  0  0  0  0
 14 15  1  6  0  0  0
 14 18  1  0  0  0  0
 15 31  1  0  0  0  0
 16 20  1  0  0  0  0
 17  2  1  6  0  0  0
 17 22  1  0  0  0  0
 18 19  1  1  0  0  0
 18 24  1  0  0  0  0
 18 30  1  0  0  0  0
 20 21  1  0  0  0  0
 20 26  1  1  0  0  0
 22 23  1  1  0  0  0
 22 28  1  0  0  0  0
 24 25  1  0  0  0  0
 26 27  1  0  0  0  0
 28 29  1  6  0  0  0
M  END
>  <CHROM.1>
-171.76295495,-166.65048305,-83.59293398,-177.64251909,-60.15915214,144.43067610
0.38054836,-8.53578416,29.14869480,-2.26032715,0.22784897,-0.96814591

>  <Name>
2et3_lig

>  <RI>
3.50789e+07

>  <Rbt.Current_Directory>
/home/itssahil/PROJECTS/Mol_Feturizer/New_Systems/rnas/2et3

>  <Rbt.Executable>
rbdock ($Id: //depot/dev/client3/rdock/2013.1/src/exe/rbdock.cxx#4 $)

>  <Rbt.Library>
libRbt.so (2013.1, Build901 2013/11/27)

>  <Rbt.Parameter_File>
/export/apps/rDock/src/rDock_2013.1_src/data/scripts/dock_solv.prm

>  <Rbt.Receptor>
prm/pocket_docking_4.prm

>  <SCORE>
-19.8968

>  <SCORE.INTER>
-12.2522

>  <SCORE.INTER.CONST>
1

>  <SCORE.INTER.POLAR>
-0.767764

>  <SCORE.INTER.ROT>
6

>  <SCORE.INTER.SOLV>
12.3045

>  <SCORE.INTER.VDW>
-17.3104

>  <SCORE.INTER.norm>
-0.395231

>  <SCORE.INTRA>
-7.65374

>  <SCORE.INTRA.DIHEDRAL>
-15.8472

>  <SCORE.INTRA.DIHEDRAL.0>
22.2484

>  <SCORE.INTRA.POLAR>
0

>  <SCORE.INTRA.POLAR.0>
0

>  <SCORE.INTRA.REPUL>
0

>  <SCORE.INTRA.REPUL.0>
0

>  <SCORE.INTRA.SOLV>
-3.45774

>  <SCORE.INTRA.SOLV.lig_0>
-75.7198

>  <SCORE.INTRA.VDW>
1.99875

>  <SCORE.INTRA.VDW.0>
-3.34171

>  <SCORE.INTRA.norm>
-0.246895

>  <SCORE.RESTR>
0.0090616

>  <SCORE.RESTR.CAVITY>
0.0090616

>  <SCORE.RESTR.norm>
0.00029231

>  <SCORE.SYSTEM>
0

>  <SCORE.SYSTEM.CONST>
0

>  <SCORE.SYSTEM.DIHEDRAL>
0

>  <SCORE.SYSTEM.SOLV>
0

>  <SCORE.SYSTEM.norm>
0

>  <SCORE.heavy>
31

>  <SCORE.norm>
-0.641833

>  <RMSD>
8.851

$$$$
2et3_lig
 OpenBabel11021811423D
libRbt.so/2013.1/901 2013/11/27
 31 33  0  0  0  0  0  0  0  0999 V2000
   -0.5358   -5.4127   31.5483 C   0  0  2  0  0  0  0  0  0  0  0  0
    0.6988   -4.7172   31.8618 O   0  0  0  0  0  0  0  0  0  0  0  0
    0.7047   -3.8384   36.0492 C   0  0  2  0  0  0  0  0  0  0  0  0
    1.1465   -3.7908   37.4086 N   0  0  0  0  0  0  0  0  0  0  0  0
    2.8425   -0.8368   35.0190 C   0  0  2  0  0  0  0  0  0  0  0  0
   -0.3347   -6.2929   30.3101 C   0  0  2  0  0  0  0  0  0  0  0  0
    0.7553   -7.1856   30.5572 N   0  0  0  0  0  0  0  0  0  0  0  0
    0.5388   -5.3277   35.6060 C   0  0  0  0  0  0  0  0  0  0  0  0
    4.0623   -0.9216   35.9627 C   0  0  2  0  0  0  0  0  0  0  0  0
    4.5309   -2.2514   35.9855 O   0  0  0  0  0  0  0  0  0  0  0  0
   -0.0864   -5.4052   29.0429 C   0  0  0  0  0  0  0  0  0  0  0  0
    0.0614   -5.3899   34.1089 C   0  0  2  0  0  0  0  0  0  0  0  0
   -0.0959   -6.7908   33.6865 N   0  0  0  0  0  0  0  0  0  0  0  0
    3.6041   -0.4339   37.3976 C   0  0  1  0  0  0  0  0  0  0  0  0
    4.7222   -0.5292   38.3923 N   0  0  0  0  0  0  0  0  0  0  0  0
   -1.3361   -4.4918   28.8409 C   0  0  0  0  0  0  0  0  0  0  0  0
    1.1057   -4.6461   33.1909 C   0  0  2  0  0  0  0  0  0  0  0  0
    3.0575    1.0891   37.3233 C   0  0  1  0  0  0  0  0  0  0  0  0
    4.0726    1.9797   36.9087 O   0  0  0  0  0  0  0  0  0  0  0  0
   -1.5379   -3.6113   30.1519 C   0  0  2  0  0  0  0  0  0  0  0  0
   -1.6375   -4.4296   31.3592 O   0  0  0  0  0  0  0  0  0  0  0  0
    1.2523   -3.1486   33.6641 C   0  0  2  0  0  0  0  0  0  0  0  0
    2.1893   -2.4566   32.8450 O   0  0  0  0  0  0  0  0  0  0  0  0
    1.9036    1.1663   36.2763 C   0  0  0  0  0  0  0  0  0  0  0  0
    2.3335    0.5644   34.9703 O   0  0  0  0  0  0  0  0  0  0  0  0
   -2.7111   -2.6622   30.0843 C   0  0  0  0  0  0  0  0  0  0  0  0
   -2.5527   -1.5507   30.9850 N   0  0  0  0  0  0  0  0  0  0  0  0
    1.7271   -3.1070   35.1591 C   0  0  1  0  0  0  0  0  0  0  0  0
    1.8462   -1.7500   35.5686 O   0  0  0  0  0  0  0  0  0  0  0  0
    2.5581    1.7103   38.6349 C   0  0  0  0  0  0  0  0  0  0  0  0
    4.8954   -1.8164   39.0861 C   0  0  0  0  0  0  0  0  0  0  0  0
  1  2  1  6  0  0  0
  1  6  1  0  0  0  0
  1 21  1  0  0  0  0
  3  4  1  1  0  0  0
  3  8  1  0  0  0  0
  3 28  1  0  0  0  0
  5  9  1  0  0  0  0
  5 25  1  0  0  0  0
  5 29  1  1  0  0  0
  6  7  1  1  0  0  0
  6 11  1  0  0  0  0
  8 12  1  0  0  0  0
  9 10  1  1  0  0  0
  9 14  1  0  0  0  0
 11 16  1  0  0  0  0
 12 13  1  6  0  0  0
 12 17  1  0  0  0  0
 14 15  1  1  0  0  0
 14 18  1  0  0  0  0
 15 31  1  0  0  0  0
 16 20  1  0  0  0  0
 17  2  1  6  0  0  0
 17 22  1  0  0  0  0
 18 19  1  6  0  0  0
 18 24  1  0  0  0  0
 18 30  1  0  0  0  0
 20 21  1  0  0  0  0
 20 26  1  6  0  0  0
 22 23  1  6  0  0  0
 22 28  1  0  0  0  0
 24 25  1  0  0  0  0
 26 27  1  0  0  0  0
 28 29  1  1  0  0  0
M  END
>  <CHROM.1>
-136.64242117,-92.82148058,-87.01889262,0.09680477,-156.41382217,172.97201148
1.31190494,-2.74321090,34.14489880,-2.56495002,-0.98303070,0.02557051

>  <Name>
2et3_lig

>  <RI>
0

>  <Rbt.Current_Directory>
/home/itssahil/PROJECTS/Mol_Feturizer/New_Systems/rnas/2et3

>  <Rbt.Executable>
rbdock ($Id: //depot/dev/client3/rdock/2013.1/src/exe/rbdock.cxx#4 $)

>  <Rbt.Library>
libRbt.so (2013.1, Build901 2013/11/27)

>  <Rbt.Parameter_File>
/export/apps/rDock/src/rDock_2013.1_src/data/scripts/dock_solv.prm

>  <Rbt.Receptor>
prm/blind_docking_40.prm

>  <SCORE>
5.34147

>  <SCORE.INTER>
-5.94278

>  <SCORE.INTER.CONST>
1

>  <SCORE.INTER.POLAR>
-1.1613

>  <SCORE.INTER.ROT>
6

>  <SCORE.INTER.SOLV>
18.8509

>  <SCORE.INTER.VDW>
-13.9745

>  <SCORE.INTER.norm>
-0.191703

>  <SCORE.INTRA>
3.34644

>  <SCORE.INTRA.DIHEDRAL>
-2.4368

>  <SCORE.INTRA.DIHEDRAL.0>
22.2484

>  <SCORE.INTRA.POLAR>
0

>  <SCORE.INTRA.POLAR.0>
0

>  <SCORE.INTRA.REPUL>
0

>  <SCORE.INTRA.REPUL.0>
0

>  <SCORE.INTRA.SOLV>
0.142273

>  <SCORE.INTRA.SOLV.lig_0>
-75.7198

>  <SCORE.INTRA.VDW>
4.4937

>  <SCORE.INTRA.VDW.0>
-3.34171

>  <SCORE.INTRA.norm>
0.10795

>  <SCORE.RESTR>
7.93781

>  <SCORE.RESTR.CAVITY>
7.93781

>  <SCORE.RESTR.norm>
0.256058

>  <SCORE.SYSTEM>
0

>  <SCORE.SYSTEM.CONST>
0

>  <SCORE.SYSTEM.DIHEDRAL>
0

>  <SCORE.SYSTEM.SOLV>
0

>  <SCORE.SYSTEM.norm>
0

>  <SCORE.heavy>
31

>  <SCORE.norm>
0.172305

>  <RMSD>
8.854

$$$$
2et3_lig
 OpenBabel11021811423D
libRbt.so/2013.1/901 2013/11/27
 31 33  0  0  0  0  0  0  0  0999 V2000
    2.9326   -1.8847   35.2674 C   0  0  2  0  0  0  0  0  0  0  0  0
    2.5198   -3.2216   35.6528 O   0  0  0  0  0  0  0  0  0  0  0  0
   -0.4121   -5.8380   33.9602 C   0  0  2  0  0  0  0  0  0  0  0  0
   -1.6799   -6.3093   33.4955 N   0  0  0  0  0  0  0  0  0  0  0  0
   -0.4684   -6.1375   31.1995 C   0  0  2  0  0  0  0  0  0  0  0  0
    4.3891   -1.6521   35.6829 C   0  0  2  0  0  0  0  0  0  0  0  0
    5.2001   -2.6724   35.0935 N   0  0  0  0  0  0  0  0  0  0  0  0
   -0.5032   -5.5131   35.4860 C   0  0  0  0  0  0  0  0  0  0  0  0
    0.1091   -6.2388   29.7706 C   0  0  2  0  0  0  0  0  0  0  0  0
    1.5160   -6.2923   29.8490 O   0  0  0  0  0  0  0  0  0  0  0  0
    4.5160   -1.6349   37.2446 C   0  0  0  0  0  0  0  0  0  0  0  0
    0.8848   -4.9856   36.0040 C   0  0  2  0  0  0  0  0  0  0  0  0
    0.8041   -4.6777   37.4408 N   0  0  0  0  0  0  0  0  0  0  0  0
   -0.3876   -4.9773   28.9528 C   0  0  1  0  0  0  0  0  0  0  0  0
    0.1688   -4.9723   27.5603 N   0  0  0  0  0  0  0  0  0  0  0  0
    3.6229   -0.4762   37.7889 C   0  0  0  0  0  0  0  0  0  0  0  0
    1.3021   -3.7054   35.1834 C   0  0  2  0  0  0  0  0  0  0  0  0
   -2.0063   -4.9445   28.9024 C   0  0  1  0  0  0  0  0  0  0  0  0
   -2.5226   -6.0769   28.2341 O   0  0  0  0  0  0  0  0  0  0  0  0
    2.1230   -0.7279   37.3181 C   0  0  2  0  0  0  0  0  0  0  0  0
    2.0150   -0.8780   35.8679 O   0  0  0  0  0  0  0  0  0  0  0  0
    1.3831   -4.0645   33.6497 C   0  0  2  0  0  0  0  0  0  0  0  0
    1.7627   -2.9217   32.8896 O   0  0  0  0  0  0  0  0  0  0  0  0
   -2.5624   -4.9607   30.3598 C   0  0  0  0  0  0  0  0  0  0  0  0
   -1.9582   -6.0890   31.1438 O   0  0  0  0  0  0  0  0  0  0  0  0
    1.1421    0.3176   37.7942 C   0  0  0  0  0  0  0  0  0  0  0  0
   -0.1948    0.0453   37.3356 N   0  0  0  0  0  0  0  0  0  0  0  0
   -0.0090   -4.5902   33.1520 C   0  0  1  0  0  0  0  0  0  0  0  0
    0.0865   -4.9150   31.7704 O   0  0  0  0  0  0  0  0  0  0  0  0
   -2.6521   -3.7698   28.1551 C   0  0  0  0  0  0  0  0  0  0  0  0
   -0.0784   -6.1662   26.7346 C   0  0  0  0  0  0  0  0  0  0  0  0
  1  2  1  1  0  0  0
  1  6  1  0  0  0  0
  1 21  1  0  0  0  0
  3  4  1  6  0  0  0
  3  8  1  0  0  0  0
  3 28  1  0  0  0  0
  5  9  1  0  0  0  0
  5 25  1  0  0  0  0
  5 29  1  6  0  0  0
  6  7  1  6  0  0  0
  6 11  1  0  0  0  0
  8 12  1  0  0  0  0
  9 10  1  1  0  0  0
  9 14  1  0  0  0  0
 11 16  1  0  0  0  0
 12 13  1  1  0  0  0
 12 17  1  0  0  0  0
 14 15  1  6  0  0  0
 14 18  1  0  0  0  0
 15 31  1  0  0  0  0
 16 20  1  0  0  0  0
 17  2  1  1  0  0  0
 17 22  1  0  0  0  0
 18 19  1  6  0  0  0
 18 24  1  0  0  0  0
 18 30  1  0  0  0  0
 20 21  1  0  0  0  0
 20 26  1  6  0  0  0
 22 23  1  6  0  0  0
 22 28  1  0  0  0  0
 24 25  1  0  0  0  0
 26 27  1  0  0  0  0
 28 29  1  6  0  0  0
M  END
>  <CHROM.1>
-170.13775332,-168.22115406,55.40144425,-165.40223971,179.72126004,15.17688749
0.66561233,-3.91071295,33.14178098,-1.11183532,-0.48777459,-1.82181883

>  <Name>
2et3_lig

>  <RI>
0

>  <Rbt.Current_Directory>
/home/itssahil/PROJECTS/Mol_Feturizer/New_Systems/rnas/2et3

>  <Rbt.Executable>
rbdock ($Id: //depot/dev/client3/rdock/2013.1/src/exe/rbdock.cxx#4 $)

>  <Rbt.Library>
libRbt.so (2013.1, Build901 2013/11/27)

>  <Rbt.Parameter_File>
/export/apps/rDock/src/rDock_2013.1_src/data/scripts/dock_solv.prm

>  <Rbt.Receptor>
prm/blind_docking_40.prm

>  <SCORE>
-2.92352

>  <SCORE.INTER>
-11.5188

>  <SCORE.INTER.CONST>
1

>  <SCORE.INTER.POLAR>
-1.72418

>  <SCORE.INTER.ROT>
6

>  <SCORE.INTER.SOLV>
15.924

>  <SCORE.INTER.VDW>
-14.84

>  <SCORE.INTER.norm>
-0.371575

>  <SCORE.INTRA>
-1.96021

>  <SCORE.INTRA.DIHEDRAL>
-13.814

>  <SCORE.INTRA.DIHEDRAL.0>
22.2484

>  <SCORE.INTRA.POLAR>
0

>  <SCORE.INTRA.POLAR.0>
0

>  <SCORE.INTRA.REPUL>
0

>  <SCORE.INTRA.REPUL.0>
0

>  <SCORE.INTRA.SOLV>
-0.791164

>  <SCORE.INTRA.SOLV.lig_0>
-75.7198

>  <SCORE.INTRA.VDW>
5.34236

>  <SCORE.INTRA.VDW.0>
-3.34171

>  <SCORE.INTRA.norm>
-0.0632327

>  <SCORE.RESTR>
10.5555

>  <SCORE.RESTR.CAVITY>
10.5555

>  <SCORE.RESTR.norm>
0.340501

>  <SCORE.SYSTEM>
0

>  <SCORE.SYSTEM.CONST>
0

>  <SCORE.SYSTEM.DIHEDRAL>
0

>  <SCORE.SYSTEM.SOLV>
0

>  <SCORE.SYSTEM.norm>
0

>  <SCORE.heavy>
31

>  <SCORE.norm>
-0.0943069

>  <RMSD>
8.857

$$$$
2et3_lig
 OpenBabel11021811423D
libRbt.so/2013.1/901 2013/11/27
 31 33  0  0  0  0  0  0  0  0999 V2000
   -0.5283   -5.4348   31.5376 C   0  0  2  0  0  0  0  0  0  0  0  0
    0.6925   -4.7198   31.8611 O   0  0  0  0  0  0  0  0  0  0  0  0
    0.6581   -3.8175   36.0434 C   0  0  2  0  0  0  0  0  0  0  0  0
    1.0868   -3.7623   37.4067 N   0  0  0  0  0  0  0  0  0  0  0  0
    2.8063   -0.8219   35.0177 C   0  0  2  0  0  0  0  0  0  0  0  0
   -0.3622   -6.1654   30.2008 C   0  0  2  0  0  0  0  0  0  0  0  0
    0.7759   -7.0272   30.2904 N   0  0  0  0  0  0  0  0  0  0  0  0
    0.4965   -5.3094   35.6070 C   0  0  0  0  0  0  0  0  0  0  0  0
    4.0206   -0.9103   35.9682 C   0  0  2  0  0  0  0  0  0  0  0  0
    4.4848   -2.2415   35.9940 O   0  0  0  0  0  0  0  0  0  0  0  0
   -0.2234   -5.1352   29.0283 C   0  0  0  0  0  0  0  0  0  0  0  0
    0.0336   -5.3800   34.1057 C   0  0  2  0  0  0  0  0  0  0  0  0
   -0.1197   -6.7832   33.6897 N   0  0  0  0  0  0  0  0  0  0  0  0
    3.5560   -0.4206   37.4004 C   0  0  1  0  0  0  0  0  0  0  0  0
    4.6683   -0.5192   38.4014 N   0  0  0  0  0  0  0  0  0  0  0  0
   -1.5191   -4.2652   28.9941 C   0  0  0  0  0  0  0  0  0  0  0  0
    1.0866   -4.6412   33.1937 C   0  0  2  0  0  0  0  0  0  0  0  0
    3.0146    1.1040   37.3226 C   0  0  1  0  0  0  0  0  0  0  0  0
    4.0348    1.9913   36.9134 O   0  0  0  0  0  0  0  0  0  0  0  0
   -1.6818   -3.5422   30.4032 C   0  0  2  0  0  0  0  0  0  0  0  0
   -1.6786   -4.4901   31.5162 O   0  0  0  0  0  0  0  0  0  0  0  0
    1.2286   -3.1411   33.6598 C   0  0  2  0  0  0  0  0  0  0  0  0
    2.1734   -2.4536   32.8459 O   0  0  0  0  0  0  0  0  0  0  0  0
    1.8668    1.1845   36.2692 C   0  0  0  0  0  0  0  0  0  0  0  0
    2.3021    0.5809   34.9658 O   0  0  0  0  0  0  0  0  0  0  0  0
   -2.8950   -2.6477   30.5023 C   0  0  0  0  0  0  0  0  0  0  0  0
   -2.7855   -1.5000   29.6405 N   0  0  0  0  0  0  0  0  0  0  0  0
    1.6891   -3.0910   35.1590 C   0  0  1  0  0  0  0  0  0  0  0  0
    1.8042   -1.7318   35.5620 O   0  0  0  0  0  0  0  0  0  0  0  0
    2.5099    1.7271   38.6313 C   0  0  0  0  0  0  0  0  0  0  0  0
    4.8308   -1.8054   39.0995 C   0  0  0  0  0  0  0  0  0  0  0  0
  1  2  1  6  0  0  0
  1  6  1  0  0  0  0
  1 21  1  0  0  0  0
  3  4  1  1  0  0  0
  3  8  1  0  0  0  0
  3 28  1  0  0  0  0
  5  9  1  0  0  0  0
  5 25  1  0  0  0  0
  5 29  1  1  0  0  0
  6  7  1  1  0  0  0
  6 11  1  0  0  0  0
  8 12  1  0  0  0  0
  9 10  1  1  0  0  0
  9 14  1  0  0  0  0
 11 16  1  0  0  0  0
 12 13  1  6  0  0  0
 12 17  1  0  0  0  0
 14 15  1  1  0  0  0
 14 18  1  0  0  0  0
 15 31  1  0  0  0  0
 16 20  1  0  0  0  0
 17  2  1  6  0  0  0
 17 22  1  0  0  0  0
 18 19  1  6  0  0  0
 18 24  1  0  0  0  0
 18 30  1  0  0  0  0
 20 21  1  0  0  0  0
 20 26  1  6  0  0  0
 22 23  1  6  0  0  0
 22 28  1  0  0  0  0
 24 25  1  0  0  0  0
 26 27  1  0  0  0  0
 28 29  1  1  0  0  0
M  END
>  <CHROM.1>
-144.13349733,-92.37037847,-87.20873453,-0.83419850,-67.24479252,172.92047855
1.25565161,-2.70813568,34.12123043,-2.59502641,-0.98481445,0.01261649

>  <Name>
2et3_lig

>  <RI>
0

>  <Rbt.Current_Directory>
/home/itssahil/PROJECTS/Mol_Feturizer/New_Systems/rnas/2et3

>  <Rbt.Executable>
rbdock ($Id: //depot/dev/client3/rdock/2013.1/src/exe/rbdock.cxx#4 $)

>  <Rbt.Library>
libRbt.so (2013.1, Build901 2013/11/27)

>  <Rbt.Parameter_File>
/export/apps/rDock/src/rDock_2013.1_src/data/scripts/dock_solv.prm

>  <Rbt.Receptor>
prm/blind_docking_40.prm

>  <SCORE>
3.02886

>  <SCORE.INTER>
-6.91947

>  <SCORE.INTER.CONST>
1

>  <SCORE.INTER.POLAR>
-1.34361

>  <SCORE.INTER.ROT>
6

>  <SCORE.INTER.SOLV>
20.7193

>  <SCORE.INTER.VDW>
-14.6407

>  <SCORE.INTER.norm>
-0.223209

>  <SCORE.INTRA>
1.92388

>  <SCORE.INTRA.DIHEDRAL>
-5.29804

>  <SCORE.INTRA.DIHEDRAL.0>
22.2484

>  <SCORE.INTRA.POLAR>
0

>  <SCORE.INTRA.POLAR.0>
0

>  <SCORE.INTRA.REPUL>
0

>  <SCORE.INTRA.REPUL.0>
0

>  <SCORE.INTRA.SOLV>
-0.171417

>  <SCORE.INTRA.SOLV.lig_0>
-75.7198

>  <SCORE.INTRA.VDW>
4.65861

>  <SCORE.INTRA.VDW.0>
-3.34171

>  <SCORE.INTRA.norm>
0.0620605

>  <SCORE.RESTR>
8.02445

>  <SCORE.RESTR.CAVITY>
8.02445

>  <SCORE.RESTR.norm>
0.258853

>  <SCORE.SYSTEM>
0

>  <SCORE.SYSTEM.CONST>
0

>  <SCORE.SYSTEM.DIHEDRAL>
0

>  <SCORE.SYSTEM.SOLV>
0

>  <SCORE.SYSTEM.norm>
0

>  <SCORE.heavy>
31

>  <SCORE.norm>
0.0977051

>  <RMSD>
8.862

$$$$
2et3_lig
 OpenBabel11021811423D
libRbt.so/2013.1/901 2013/11/27
 31 33  0  0  0  0  0  0  0  0999 V2000
   -0.5202   -5.3950   31.5180 C   0  0  2  0  0  0  0  0  0  0  0  0
    0.6812   -4.6519   31.8508 O   0  0  0  0  0  0  0  0  0  0  0  0
    0.7053   -3.8330   36.0502 C   0  0  2  0  0  0  0  0  0  0  0  0
    1.1493   -3.8115   37.4096 N   0  0  0  0  0  0  0  0  0  0  0  0
    2.8778   -0.8457   35.0492 C   0  0  2  0  0  0  0  0  0  0  0  0
   -0.2765   -6.2388   30.2623 C   0  0  2  0  0  0  0  0  0  0  0  0
    0.8516   -7.0871   30.4946 N   0  0  0  0  0  0  0  0  0  0  0  0
    0.5161   -5.3132   35.5862 C   0  0  0  0  0  0  0  0  0  0  0  0
    4.0843   -0.9105   36.0115 C   0  0  2  0  0  0  0  0  0  0  0  0
    4.5588   -2.2375   36.0606 O   0  0  0  0  0  0  0  0  0  0  0  0
   -0.0645   -5.3142   29.0150 C   0  0  0  0  0  0  0  0  0  0  0  0
    0.0361   -5.3467   34.0890 C   0  0  2  0  0  0  0  0  0  0  0  0
   -0.1431   -6.7389   33.6469 N   0  0  0  0  0  0  0  0  0  0  0  0
    3.6030   -0.4040   37.4323 C   0  0  1  0  0  0  0  0  0  0  0  0
    4.7071   -0.4791   38.4443 N   0  0  0  0  0  0  0  0  0  0  0  0
   -1.3531   -4.4533   28.8276 C   0  0  0  0  0  0  0  0  0  0  0  0
    1.0906   -4.6060   33.1802 C   0  0  2  0  0  0  0  0  0  0  0  0
    3.0502    1.1149   37.3276 C   0  0  1  0  0  0  0  0  0  0  0  0
    4.0670    2.0044   36.9146 O   0  0  0  0  0  0  0  0  0  0  0  0
   -1.5978   -3.6107   30.1561 C   0  0  2  0  0  0  0  0  0  0  0  0
   -1.6642   -4.4582   31.3456 O   0  0  0  0  0  0  0  0  0  0  0  0
    1.2607   -3.1178   33.6744 C   0  0  2  0  0  0  0  0  0  0  0  0
    2.2073   -2.4286   32.8640 O   0  0  0  0  0  0  0  0  0  0  0  0
    1.9113    1.1709   36.2631 C   0  0  0  0  0  0  0  0  0  0  0  0
    2.3630    0.5521   34.9725 O   0  0  0  0  0  0  0  0  0  0  0  0
   -2.8120   -2.7136   30.1041 C   0  0  0  0  0  0  0  0  0  0  0  0
   -2.6241   -1.5136   30.8765 N   0  0  0  0  0  0  0  0  0  0  0  0
    1.7378   -3.1047   35.1692 C   0  0  1  0  0  0  0  0  0  0  0  0
    1.8782   -1.7556   35.5978 O   0  0  0  0  0  0  0  0  0  0  0  0
    2.5290    1.7528   38.6226 C   0  0  0  0  0  0  0  0  0  0  0  0
    4.9267   -1.7777   39.1028 C   0  0  0  0  0  0  0  0  0  0  0  0
  1  2  1  6  0  0  0
  1  6  1  0  0  0  0
  1 21  1  0  0  0  0
  3  4  1  1  0  0  0
  3  8  1  0  0  0  0
  3 28  1  0  0  0  0
  5  9  1  0  0  0  0
  5 25  1  0  0  0  0
  5 29  1  1  0  0  0
  6  7  1  1  0  0  0
  6 11  1  0  0  0  0
  8 12  1  0  0  0  0
  9 10  1  1  0  0  0
  9 14  1  0  0  0  0
 11 16  1  0  0  0  0
 12 13  1  6  0  0  0
 12 17  1  0  0  0  0
 14 15  1  1  0  0  0
 14 18  1  0  0  0  0
 15 31  1  0  0  0  0
 16 20  1  0  0  0  0
 17  2  1  6  0  0  0
 17 22  1  0  0  0  0
 18 19  1  6  0  0  0
 18 24  1  0  0  0  0
 18 30  1  0  0  0  0
 20 21  1  0  0  0  0
 20 26  1  6  0  0  0
 22 23  1  6  0  0  0
 22 28  1  0  0  0  0
 24 25  1  0  0  0  0
 26 27  1  0  0  0  0
 28 29  1  1  0  0  0
M  END
>  <CHROM.1>
-135.79307796,-95.34110775,-83.56358350,-3.69662122,-147.80078139,173.68299926
1.31067958,-2.71979950,34.14318676,-2.56022399,-0.97773230,0.03940046

>  <Name>
2et3_lig

>  <RI>
0

>  <Rbt.Current_Directory>
/home/itssahil/PROJECTS/Mol_Feturizer/New_Systems/rnas/2et3

>  <Rbt.Executable>
rbdock ($Id: //depot/dev/client3/rdock/2013.1/src/exe/rbdock.cxx#4 $)

>  <Rbt.Library>
libRbt.so (2013.1, Build901 2013/11/27)

>  <Rbt.Parameter_File>
/export/apps/rDock/src/rDock_2013.1_src/data/scripts/dock_solv.prm

>  <Rbt.Receptor>
prm/blind_docking_40.prm

>  <SCORE>
5.88179

>  <SCORE.INTER>
-6.51613

>  <SCORE.INTER.CONST>
1

>  <SCORE.INTER.POLAR>
-1.22285

>  <SCORE.INTER.ROT>
6

>  <SCORE.INTER.SOLV>
19.101

>  <SCORE.INTER.VDW>
-14.2349

>  <SCORE.INTER.norm>
-0.210198

>  <SCORE.INTRA>
4.45712

>  <SCORE.INTRA.DIHEDRAL>
-0.948354

>  <SCORE.INTRA.DIHEDRAL.0>
22.2484

>  <SCORE.INTRA.POLAR>
0

>  <SCORE.INTRA.POLAR.0>
0

>  <SCORE.INTRA.REPUL>
0

>  <SCORE.INTRA.REPUL.0>
0

>  <SCORE.INTRA.SOLV>
-0.0575869

>  <SCORE.INTRA.SOLV.lig_0>
-75.7198

>  <SCORE.INTRA.VDW>
4.96009

>  <SCORE.INTRA.VDW.0>
-3.34171

>  <SCORE.INTRA.norm>
0.143778

>  <SCORE.RESTR>
7.9408

>  <SCORE.RESTR.CAVITY>
7.9408

>  <SCORE.RESTR.norm>
0.256155

>  <SCORE.SYSTEM>
0

>  <SCORE.SYSTEM.CONST>
0

>  <SCORE.SYSTEM.DIHEDRAL>
0

>  <SCORE.SYSTEM.SOLV>
0

>  <SCORE.SYSTEM.norm>
0

>  <SCORE.heavy>
31

>  <SCORE.norm>
0.189735

>  <RMSD>
8.872

$$$$
2et3_lig
 OpenBabel11021811423D
libRbt.so/2013.1/901 2013/11/27
 31 33  0  0  0  0  0  0  0  0999 V2000
    1.7227   -0.3597   34.7822 C   0  0  2  0  0  0  0  0  0  0  0  0
    2.2825   -1.6510   35.1364 O   0  0  0  0  0  0  0  0  0  0  0  0
    0.6402   -5.4674   34.1144 C   0  0  2  0  0  0  0  0  0  0  0  0
   -0.2299   -6.6023   34.1372 N   0  0  0  0  0  0  0  0  0  0  0  0
   -0.0101   -4.3329   31.2247 C   0  0  2  0  0  0  0  0  0  0  0  0
    2.8225    0.7071   34.8099 C   0  0  2  0  0  0  0  0  0  0  0  0
    3.8745    0.3006   33.9300 N   0  0  0  0  0  0  0  0  0  0  0  0
    1.3245   -5.3061   35.5101 C   0  0  0  0  0  0  0  0  0  0  0  0
   -1.0465   -4.1178   30.0999 C   0  0  2  0  0  0  0  0  0  0  0  0
   -1.7296   -2.9066   30.3333 O   0  0  0  0  0  0  0  0  0  0  0  0
    3.3370    0.9240   36.2740 C   0  0  0  0  0  0  0  0  0  0  0  0
    2.2769   -4.0548   35.4970 C   0  0  2  0  0  0  0  0  0  0  0  0
    2.9236   -3.8983   36.8096 N   0  0  0  0  0  0  0  0  0  0  0  0
   -2.0304   -5.3584   30.0991 C   0  0  1  0  0  0  0  0  0  0  0  0
   -3.1028   -5.2073   29.0618 N   0  0  0  0  0  0  0  0  0  0  0  0
    2.1295    1.3914   37.1458 C   0  0  0  0  0  0  0  0  0  0  0  0
    1.4482   -2.7650   35.1279 C   0  0  2  0  0  0  0  0  0  0  0  0
   -1.2041   -6.7283   29.8458 C   0  0  1  0  0  0  0  0  0  0  0  0
   -0.5747   -6.7224   28.5811 O   0  0  0  0  0  0  0  0  0  0  0  0
    0.9923    0.2794   37.0751 C   0  0  2  0  0  0  0  0  0  0  0  0
    0.5996   -0.0250   35.7002 O   0  0  0  0  0  0  0  0  0  0  0  0
    0.7692   -2.9593   33.7176 C   0  0  2  0  0  0  0  0  0  0  0  0
    0.0178   -1.8030   33.3627 O   0  0  0  0  0  0  0  0  0  0  0  0
   -0.0889   -6.8589   30.9288 C   0  0  0  0  0  0  0  0  0  0  0  0
    0.7336   -5.6052   30.9946 O   0  0  0  0  0  0  0  0  0  0  0  0
   -0.2359    0.5986   37.8945 C   0  0  0  0  0  0  0  0  0  0  0  0
   -1.1618   -0.5031   37.9221 N   0  0  0  0  0  0  0  0  0  0  0  0
   -0.1749   -4.2123   33.7497 C   0  0  1  0  0  0  0  0  0  0  0  0
   -0.7713   -4.3746   32.4685 O   0  0  0  0  0  0  0  0  0  0  0  0
   -2.0135   -8.0323   29.8303 C   0  0  0  0  0  0  0  0  0  0  0  0
   -4.0802   -4.1240   29.2599 C   0  0  0  0  0  0  0  0  0  0  0  0
  1  2  1  1  0  0  0
  1  6  1  0  0  0  0
  1 21  1  0  0  0  0
  3  4  1  1  0  0  0
  3  8  1  0  0  0  0
  3 28  1  0  0  0  0
  5  9  1  0  0  0  0
  5 25  1  0  0  0  0
  5 29  1  1  0  0  0
  6  7  1  6  0  0  0
  6 11  1  0  0  0  0
  8 12  1  0  0  0  0
  9 10  1  1  0  0  0
  9 14  1  0  0  0  0
 11 16  1  0  0  0  0
 12 13  1  1  0  0  0
 12 17  1  0  0  0  0
 14 15  1  6  0  0  0
 14 18  1  0  0  0  0
 15 31  1  0  0  0  0
 16 20  1  0  0  0  0
 17  2  1  6  0  0  0
 17 22  1  0  0  0  0
 18 19  1  6  0  0  0
 18 24  1  0  0  0  0
 18 30  1  0  0  0  0
 20 21  1  0  0  0  0
 20 26  1  1  0  0  0
 22 23  1  1  0  0  0
 22 28  1  0  0  0  0
 24 25  1  0  0  0  0
 26 27  1  0  0  0  0
 28 29  1  6  0  0  0
M  END
>  <CHROM.1>
-178.01128967,-163.23539978,-66.47525549,178.18789783,-173.19546398,-72.42493240
0.27954673,-3.22444096,33.35990088,0.94194118,-0.91212637,0.31221124

>  <Name>
2et3_lig

>  <RI>
0

>  <Rbt.Current_Directory>
/home/itssahil/PROJECTS/Mol_Feturizer/New_Systems/rnas/2et3

>  <Rbt.Executable>
rbdock ($Id: //depot/dev/client3/rdock/2013.1/src/exe/rbdock.cxx#4 $)

>  <Rbt.Library>
libRbt.so (2013.1, Build901 2013/11/27)

>  <Rbt.Parameter_File>
/export/apps/rDock/src/rDock_2013.1_src/data/scripts/dock_solv.prm

>  <Rbt.Receptor>
prm/blind_docking_40.prm

>  <SCORE>
0.592733

>  <SCORE.INTER>
-1.4156

>  <SCORE.INTER.CONST>
1

>  <SCORE.INTER.POLAR>
-0.835252

>  <SCORE.INTER.ROT>
6

>  <SCORE.INTER.SOLV>
16.1007

>  <SCORE.INTER.VDW>
-11.1265

>  <SCORE.INTER.norm>
-0.0456644

>  <SCORE.INTRA>
-8.8616

>  <SCORE.INTRA.DIHEDRAL>
-19.801

>  <SCORE.INTRA.DIHEDRAL.0>
22.2484

>  <SCORE.INTRA.POLAR>
0

>  <SCORE.INTRA.POLAR.0>
0

>  <SCORE.INTRA.REPUL>
0

>  <SCORE.INTRA.REPUL.0>
0

>  <SCORE.INTRA.SOLV>
-2.25563

>  <SCORE.INTRA.SOLV.lig_0>
-75.7198

>  <SCORE.INTRA.VDW>
2.16673

>  <SCORE.INTRA.VDW.0>
-3.34171

>  <SCORE.INTRA.norm>
-0.285858

>  <SCORE.RESTR>
10.8699

>  <SCORE.RESTR.CAVITY>
10.8699

>  <SCORE.RESTR.norm>
0.350643

>  <SCORE.SYSTEM>
0

>  <SCORE.SYSTEM.CONST>
0

>  <SCORE.SYSTEM.DIHEDRAL>
0

>  <SCORE.SYSTEM.SOLV>
0

>  <SCORE.SYSTEM.norm>
0

>  <SCORE.heavy>
31

>  <SCORE.norm>
0.0191204

>  <RMSD>
8.891

$$$$
2et3_lig
 OpenBabel11021811423D
libRbt.so/2013.1/901 2013/11/27
 31 33  0  0  0  0  0  0  0  0999 V2000
   -0.9217   -4.9782   32.2819 C   0  0  2  0  0  0  0  0  0  0  0  0
    0.1111   -4.0226   32.6376 O   0  0  0  0  0  0  0  0  0  0  0  0
    1.3939   -3.8070   36.7136 C   0  0  2  0  0  0  0  0  0  0  0  0
    2.1661   -4.0569   37.8913 N   0  0  0  0  0  0  0  0  0  0  0  0
    2.9142   -0.7397   35.3050 C   0  0  2  0  0  0  0  0  0  0  0  0
   -0.2864   -6.2047   31.6181 C   0  0  2  0  0  0  0  0  0  0  0  0
    0.6894   -6.7516   32.5097 N   0  0  0  0  0  0  0  0  0  0  0  0
    0.7708   -5.1465   36.2040 C   0  0  0  0  0  0  0  0  0  0  0  0
    3.4468    0.3687   36.2397 C   0  0  2  0  0  0  0  0  0  0  0  0
    4.7145   -0.0129   36.7252 O   0  0  0  0  0  0  0  0  0  0  0  0
    0.3395   -5.8153   30.2354 C   0  0  0  0  0  0  0  0  0  0  0  0
   -0.0732   -4.8826   34.9036 C   0  0  2  0  0  0  0  0  0  0  0  0
   -0.6620   -6.1413   34.4192 N   0  0  0  0  0  0  0  0  0  0  0  0
    2.4008    0.5625   37.4124 C   0  0  1  0  0  0  0  0  0  0  0  0
    2.8655    1.5938   38.3970 N   0  0  0  0  0  0  0  0  0  0  0  0
   -0.8025   -5.2592   29.3280 C   0  0  0  0  0  0  0  0  0  0  0  0
    0.8483   -4.2380   33.7983 C   0  0  2  0  0  0  0  0  0  0  0  0
    0.9566    0.9821   36.8110 C   0  0  1  0  0  0  0  0  0  0  0  0
    1.0225    2.2191   36.1320 O   0  0  0  0  0  0  0  0  0  0  0  0
   -1.4628   -4.0059   30.0545 C   0  0  2  0  0  0  0  0  0  0  0  0
   -1.9312   -4.3292   31.4011 O   0  0  0  0  0  0  0  0  0  0  0  0
    1.4629   -2.8913   34.3428 C   0  0  2  0  0  0  0  0  0  0  0  0
    2.2969   -2.2898   33.3576 O   0  0  0  0  0  0  0  0  0  0  0  0
    0.4987   -0.0982   35.7830 C   0  0  0  0  0  0  0  0  0  0  0  0
    1.5762   -0.3545   34.7701 O   0  0  0  0  0  0  0  0  0  0  0  0
   -2.5791   -3.3553   29.2718 C   0  0  0  0  0  0  0  0  0  0  0  0
   -3.5123   -4.3260   28.7632 N   0  0  0  0  0  0  0  0  0  0  0  0
    2.2992   -3.1742   35.6400 C   0  0  1  0  0  0  0  0  0  0  0  0
    2.8383   -1.9481   36.1189 O   0  0  0  0  0  0  0  0  0  0  0  0
   -0.1788    1.1952   37.8215 C   0  0  0  0  0  0  0  0  0  0  0  0
    3.9098    1.1873   39.3521 C   0  0  0  0  0  0  0  0  0  0  0  0
  1  2  1  6  0  0  0
  1  6  1  0  0  0  0
  1 21  1  0  0  0  0
  3  4  1  1  0  0  0
  3  8  1  0  0  0  0
  3 28  1  0  0  0  0
  5  9  1  0  0  0  0
  5 25  1  0  0  0  0
  5 29  1  1  0  0  0
  6  7  1  1  0  0  0
  6 11  1  0  0  0  0
  8 12  1  0  0  0  0
  9 10  1  1  0  0  0
  9 14  1  0  0  0  0
 11 16  1  0  0  0  0
 12 13  1  6  0  0  0
 12 17  1  0  0  0  0
 14 15  1  1  0  0  0
 14 18  1  0  0  0  0
 15 31  1  0  0  0  0
 16 20  1  0  0  0  0
 17  2  1  6  0  0  0
 17 22  1  0  0  0  0
 18 19  1  6  0  0  0
 18 24  1  0  0  0  0
 18 30  1  0  0  0  0
 20 21  1  0  0  0  0
 20 26  1  6  0  0  0
 22 23  1  6  0  0  0
 22 28  1  0  0  0  0
 24 25  1  0  0  0  0
 26 27  1  0  0  0  0
 28 29  1  1  0  0  0
M  END
>  <CHROM.1>
-79.93056562,175.35907620,-76.84074617,-35.13336180,47.22347667,-136.69361395
0.89369736,-2.55650222,34.40479236,-2.38191310,-0.98575901,0.14990207

>  <Name>
2et3_lig

>  <RI>
0

>  <Rbt.Current_Directory>
/home/itssahil/PROJECTS/Mol_Feturizer/New_Systems/rnas/2et3

>  <Rbt.Executable>
rbdock ($Id: //depot/dev/client3/rdock/2013.1/src/exe/rbdock.cxx#4 $)

>  <Rbt.Library>
libRbt.so (2013.1, Build901 2013/11/27)

>  <Rbt.Parameter_File>
/export/apps/rDock/src/rDock_2013.1_src/data/scripts/dock_solv.prm

>  <Rbt.Receptor>
prm/blind_docking_40.prm

>  <SCORE>
10.1055

>  <SCORE.INTER>
-7.51611

>  <SCORE.INTER.CONST>
1

>  <SCORE.INTER.POLAR>
-0.695293

>  <SCORE.INTER.ROT>
6

>  <SCORE.INTER.SOLV>
16.7646

>  <SCORE.INTER.VDW>
-15.8813

>  <SCORE.INTER.norm>
-0.242455

>  <SCORE.INTRA>
7.36471

>  <SCORE.INTRA.DIHEDRAL>
-10.9216

>  <SCORE.INTRA.DIHEDRAL.0>
22.2484

>  <SCORE.INTRA.POLAR>
0

>  <SCORE.INTRA.POLAR.0>
0

>  <SCORE.INTRA.REPUL>
0

>  <SCORE.INTRA.REPUL.0>
0

>  <SCORE.INTRA.SOLV>
3.40338

>  <SCORE.INTRA.SOLV.lig_0>
-75.7198

>  <SCORE.INTRA.VDW>
11.1238

>  <SCORE.INTRA.VDW.0>
-3.34171

>  <SCORE.INTRA.norm>
0.237571

>  <SCORE.RESTR>
10.2569

>  <SCORE.RESTR.CAVITY>
10.2569

>  <SCORE.RESTR.norm>
0.330868

>  <SCORE.SYSTEM>
0

>  <SCORE.SYSTEM.CONST>
0

>  <SCORE.SYSTEM.DIHEDRAL>
0

>  <SCORE.SYSTEM.SOLV>
0

>  <SCORE.SYSTEM.norm>
0

>  <SCORE.heavy>
31

>  <SCORE.norm>
0.325984

>  <RMSD>
8.914

$$$$
2et3_lig
 OpenBabel11021811423D
libRbt.so/2013.1/901 2013/11/27
 31 33  0  0  0  0  0  0  0  0999 V2000
   -4.8445   -4.6697   34.9881 C   0  0  2  0  0  0  0  0  0  0  0  0
   -3.7043   -3.7897   35.1658 O   0  0  0  0  0  0  0  0  0  0  0  0
   -2.7878   -2.9591   31.0698 C   0  0  2  0  0  0  0  0  0  0  0  0
   -2.1566   -2.3691   29.9300 N   0  0  0  0  0  0  0  0  0  0  0  0
   -1.8175   -5.9230   30.6994 C   0  0  2  0  0  0  0  0  0  0  0  0
   -5.6069   -4.8035   36.3107 C   0  0  2  0  0  0  0  0  0  0  0  0
   -5.9813   -3.4966   36.7556 N   0  0  0  0  0  0  0  0  0  0  0  0
   -3.4925   -1.8462   31.9107 C   0  0  0  0  0  0  0  0  0  0  0  0
   -0.7219   -6.9174   30.2561 C   0  0  2  0  0  0  0  0  0  0  0  0
    0.1320   -7.1736   31.3486 O   0  0  0  0  0  0  0  0  0  0  0  0
   -4.7319   -5.5533   37.3726 C   0  0  0  0  0  0  0  0  0  0  0  0
   -4.1823   -2.4850   33.1714 C   0  0  2  0  0  0  0  0  0  0  0  0
   -4.8472   -1.4407   33.9670 N   0  0  0  0  0  0  0  0  0  0  0  0
    0.0576   -6.2734   29.0376 C   0  0  1  0  0  0  0  0  0  0  0  0
    1.1758   -7.1579   28.5726 N   0  0  0  0  0  0  0  0  0  0  0  0
   -4.4011   -6.9717   36.8110 C   0  0  0  0  0  0  0  0  0  0  0  0
   -3.1026   -3.2409   34.0370 C   0  0  2  0  0  0  0  0  0  0  0  0
   -0.9615   -5.9793   27.8134 C   0  0  1  0  0  0  0  0  0  0  0  0
   -1.5381   -7.1735   27.3267 O   0  0  0  0  0  0  0  0  0  0  0  0
   -3.6366   -6.8027   35.4247 C   0  0  2  0  0  0  0  0  0  0  0  0
   -4.3904   -5.9900   34.4716 O   0  0  0  0  0  0  0  0  0  0  0  0
   -2.4088   -4.3543   33.1613 C   0  0  2  0  0  0  0  0  0  0  0  0
   -1.4314   -5.0527   33.9259 O   0  0  0  0  0  0  0  0  0  0  0  0
   -2.1203   -5.0673   28.3223 C   0  0  0  0  0  0  0  0  0  0  0  0
   -2.7407   -5.6429   29.5619 O   0  0  0  0  0  0  0  0  0  0  0  0
   -3.2385   -8.1072   34.7755 C   0  0  0  0  0  0  0  0  0  0  0  0
   -2.3940   -8.8961   35.6335 N   0  0  0  0  0  0  0  0  0  0  0  0
   -1.7284   -3.6987   31.9085 C   0  0  1  0  0  0  0  0  0  0  0  0
   -1.1154   -4.7184   31.1289 O   0  0  0  0  0  0  0  0  0  0  0  0
   -0.3636   -5.3381   26.5536 C   0  0  0  0  0  0  0  0  0  0  0  0
    2.4515   -6.5051   28.2344 C   0  0  0  0  0  0  0  0  0  0  0  0
  1  2  1  1  0  0  0
  1  6  1  0  0  0  0
  1 21  1  0  0  0  0
  3  4  1  6  0  0  0
  3  8  1  0  0  0  0
  3 28  1  0  0  0  0
  5  9  1  0  0  0  0
  5 25  1  0  0  0  0
  5 29  1  6  0  0  0
  6  7  1  1  0  0  0
  6 11  1  0  0  0  0
  8 12  1  0  0  0  0
  9 10  1  1  0  0  0
  9 14  1  0  0  0  0
 11 16  1  0  0  0  0
 12 13  1  1  0  0  0
 12 17  1  0  0  0  0
 14 15  1  6  0  0  0
 14 18  1  0  0  0  0
 15 31  1  0  0  0  0
 16 20  1  0  0  0  0
 17  2  1  1  0  0  0
 17 22  1  0  0  0  0
 18 19  1  6  0  0  0
 18 24  1  0  0  0  0
 18 30  1  0  0  0  0
 20 21  1  0  0  0  0
 20 26  1  6  0  0  0
 22 23  1  1  0  0  0
 22 28  1  0  0  0  0
 24 25  1  0  0  0  0
 26 27  1  0  0  0  0
 28 29  1  6  0  0  0
M  END
>  <CHROM.1>
-162.41657776,-164.03171524,-138.13370570,54.75190540,-58.10472603,-69.04412241
-2.44296295,-5.19996077,32.21960489,2.65333675,-0.97496559,2.41573760

>  <Name>
2et3_lig

>  <RI>
0

>  <Rbt.Current_Directory>
/home/itssahil/PROJECTS/Mol_Feturizer/New_Systems/rnas/2et3

>  <Rbt.Executable>
rbdock ($Id: //depot/dev/client3/rdock/2013.1/src/exe/rbdock.cxx#4 $)

>  <Rbt.Library>
libRbt.so (2013.1, Build901 2013/11/27)

>  <Rbt.Parameter_File>
/export/apps/rDock/src/rDock_2013.1_src/data/scripts/dock_solv.prm

>  <Rbt.Receptor>
prm/pocket_docking_7.prm

>  <SCORE>
-18.211

>  <SCORE.INTER>
-9.39482

>  <SCORE.INTER.CONST>
1

>  <SCORE.INTER.POLAR>
-0.0135716

>  <SCORE.INTER.ROT>
6

>  <SCORE.INTER.SOLV>
10.6214

>  <SCORE.INTER.VDW>
-17.3585

>  <SCORE.INTER.norm>
-0.303059

>  <SCORE.INTRA>
-8.81615

>  <SCORE.INTRA.DIHEDRAL>
-17.9966

>  <SCORE.INTRA.DIHEDRAL.0>
22.2484

>  <SCORE.INTRA.POLAR>
0

>  <SCORE.INTRA.POLAR.0>
0

>  <SCORE.INTRA.REPUL>
0

>  <SCORE.INTRA.REPUL.0>
0

>  <SCORE.INTRA.SOLV>
-0.0162687

>  <SCORE.INTRA.SOLV.lig_0>
-75.7198

>  <SCORE.INTRA.VDW>
0.19027

>  <SCORE.INTRA.VDW.0>
-3.34171

>  <SCORE.INTRA.norm>
-0.284392

>  <SCORE.RESTR>
0

>  <SCORE.RESTR.CAVITY>
0

>  <SCORE.RESTR.norm>
0

>  <SCORE.SYSTEM>
0

>  <SCORE.SYSTEM.CONST>
0

>  <SCORE.SYSTEM.DIHEDRAL>
0

>  <SCORE.SYSTEM.SOLV>
0

>  <SCORE.SYSTEM.norm>
0

>  <SCORE.heavy>
31

>  <SCORE.norm>
-0.587451

>  <RMSD>
8.914

$$$$
2et3_lig
 OpenBabel11021811423D
libRbt.so/2013.1/901 2013/11/27
 31 33  0  0  0  0  0  0  0  0999 V2000
   -4.2383  -11.3348   28.4427 C   0  0  2  0  0  0  0  0  0  0  0  0
   -4.6143  -10.2209   27.5918 O   0  0  0  0  0  0  0  0  0  0  0  0
   -2.8530   -6.3375   27.2401 C   0  0  2  0  0  0  0  0  0  0  0  0
   -2.4071   -5.0292   27.6074 N   0  0  0  0  0  0  0  0  0  0  0  0
    0.1421   -6.4145   28.6921 C   0  0  2  0  0  0  0  0  0  0  0  0
   -4.7378  -12.6472   27.8293 C   0  0  2  0  0  0  0  0  0  0  0  0
   -4.2108  -12.7611   26.5044 N   0  0  0  0  0  0  0  0  0  0  0  0
   -4.4014   -6.4333   27.4282 C   0  0  0  0  0  0  0  0  0  0  0  0
    1.0488   -5.6850   27.6766 C   0  0  2  0  0  0  0  0  0  0  0  0
    0.2389   -4.9520   26.7849 O   0  0  0  0  0  0  0  0  0  0  0  0
   -6.3040  -12.6946   27.8405 C   0  0  0  0  0  0  0  0  0  0  0  0
   -4.8996   -7.8721   27.0347 C   0  0  2  0  0  0  0  0  0  0  0  0
   -6.3575   -7.9677   27.2106 N   0  0  0  0  0  0  0  0  0  0  0  0
    1.9153   -6.7760   26.9243 C   0  0  1  0  0  0  0  0  0  0  0  0
    2.7951   -6.1540   25.8812 N   0  0  0  0  0  0  0  0  0  0  0  0
   -6.7795  -12.5935   29.3239 C   0  0  0  0  0  0  0  0  0  0  0  0
   -4.1608   -8.9469   27.9211 C   0  0  2  0  0  0  0  0  0  0  0  0
    2.8155   -7.6053   27.9852 C   0  0  1  0  0  0  0  0  0  0  0  0
    3.7330   -6.7620   28.6505 O   0  0  0  0  0  0  0  0  0  0  0  0
   -6.2225  -11.2370   29.9437 C   0  0  2  0  0  0  0  0  0  0  0  0
   -4.7703  -11.1250   29.8171 O   0  0  0  0  0  0  0  0  0  0  0  0
   -2.6024   -8.8234   27.7112 C   0  0  2  0  0  0  0  0  0  0  0  0
   -1.9152   -9.7888   28.5009 O   0  0  0  0  0  0  0  0  0  0  0  0
    1.8815   -8.2338   29.0650 C   0  0  0  0  0  0  0  0  0  0  0  0
    0.9772   -7.1907   29.6539 O   0  0  0  0  0  0  0  0  0  0  0  0
   -6.6259  -11.0025   31.3804 C   0  0  0  0  0  0  0  0  0  0  0  0
   -6.1496   -9.7354   31.8699 N   0  0  0  0  0  0  0  0  0  0  0  0
   -2.1248   -7.3821   28.1069 C   0  0  1  0  0  0  0  0  0  0  0  0
   -0.7199   -7.2888   27.9041 O   0  0  0  0  0  0  0  0  0  0  0  0
    3.7077   -8.7170   27.4162 C   0  0  0  0  0  0  0  0  0  0  0  0
    2.1600   -5.7704   24.6094 C   0  0  0  0  0  0  0  0  0  0  0  0
  1  2  1  6  0  0  0
  1  6  1  0  0  0  0
  1 21  1  0  0  0  0
  3  4  1  1  0  0  0
  3  8  1  0  0  0  0
  3 28  1  0  0  0  0
  5  9  1  0  0  0  0
  5 25  1  0  0  0  0
  5 29  1  6  0  0  0
  6  7  1  6  0  0  0
  6 11  1  0  0  0  0
  8 12  1  0  0  0  0
  9 10  1  6  0  0  0
  9 14  1  0  0  0  0
 11 16  1  0  0  0  0
 12 13  1  1  0  0  0
 12 17  1  0  0  0  0
 14 15  1  6  0  0  0
 14 18  1  0  0  0  0
 15 31  1  0  0  0  0
 16 20  1  0  0  0  0
 17  2  1  6  0  0  0
 17 22  1  0  0  0  0
 18 19  1  1  0  0  0
 18 24  1  0  0  0  0
 18 30  1  0  0  0  0
 20 21  1  0  0  0  0
 20 26  1  1  0  0  0
 22 23  1  1  0  0  0
 22 28  1  0  0  0  0
 24 25  1  0  0  0  0
 26 27  1  0  0  0  0
 28 29  1  6  0  0  0
M  END
>  <CHROM.1>
-174.99389410,-133.49730332,-78.02543816,-169.46162137,-177.26160414,89.28442936
-2.07038661,-8.55224614,28.08684119,-2.58160547,0.01773368,-0.31519959

>  <Name>
2et3_lig

>  <RI>
0

>  <Rbt.Current_Directory>
/home/itssahil/PROJECTS/Mol_Feturizer/New_Systems/rnas/2et3

>  <Rbt.Executable>
rbdock ($Id: //depot/dev/client3/rdock/2013.1/src/exe/rbdock.cxx#4 $)

>  <Rbt.Library>
libRbt.so (2013.1, Build901 2013/11/27)

>  <Rbt.Parameter_File>
/export/apps/rDock/src/rDock_2013.1_src/data/scripts/dock_solv.prm

>  <Rbt.Receptor>
prm/pocket_docking_7.prm

>  <SCORE>
-20.51

>  <SCORE.INTER>
-14.3513

>  <SCORE.INTER.CONST>
1

>  <SCORE.INTER.POLAR>
-0.938083

>  <SCORE.INTER.ROT>
6

>  <SCORE.INTER.SOLV>
10.5498

>  <SCORE.INTER.VDW>
-17.5572

>  <SCORE.INTER.norm>
-0.462946

>  <SCORE.INTRA>
-6.15872

>  <SCORE.INTRA.DIHEDRAL>
-11.3438

>  <SCORE.INTRA.DIHEDRAL.0>
22.2484

>  <SCORE.INTRA.POLAR>
0

>  <SCORE.INTRA.POLAR.0>
0

>  <SCORE.INTRA.REPUL>
0

>  <SCORE.INTRA.REPUL.0>
0

>  <SCORE.INTRA.SOLV>
-1.75701

>  <SCORE.INTRA.SOLV.lig_0>
-75.7198

>  <SCORE.INTRA.VDW>
0.391697

>  <SCORE.INTRA.VDW.0>
-3.34171

>  <SCORE.INTRA.norm>
-0.198668

>  <SCORE.RESTR>
0

>  <SCORE.RESTR.CAVITY>
0

>  <SCORE.RESTR.norm>
0

>  <SCORE.SYSTEM>
0

>  <SCORE.SYSTEM.CONST>
0

>  <SCORE.SYSTEM.DIHEDRAL>
0

>  <SCORE.SYSTEM.SOLV>
0

>  <SCORE.SYSTEM.norm>
0

>  <SCORE.heavy>
31

>  <SCORE.norm>
-0.661614

>  <RMSD>
8.929

$$$$
2et3_lig
 OpenBabel11021811423D
libRbt.so/2013.1/901 2013/11/27
 31 33  0  0  0  0  0  0  0  0999 V2000
    2.5074   -0.7207   34.4425 C   0  0  2  0  0  0  0  0  0  0  0  0
    2.6370   -1.9921   35.1302 O   0  0  0  0  0  0  0  0  0  0  0  0
    0.4182   -5.6275   34.7219 C   0  0  2  0  0  0  0  0  0  0  0  0
   -0.6979   -6.5215   34.6963 N   0  0  0  0  0  0  0  0  0  0  0  0
   -1.0194   -5.9393   31.9411 C   0  0  2  0  0  0  0  0  0  0  0  0
    3.7790    0.1102   34.6453 C   0  0  2  0  0  0  0  0  0  0  0  0
    4.8999   -0.6529   34.1898 N   0  0  0  0  0  0  0  0  0  0  0  0
    0.5490   -4.9965   36.1456 C   0  0  0  0  0  0  0  0  0  0  0  0
   -0.4295   -7.1532   31.1899 C   0  0  2  0  0  0  0  0  0  0  0  0
    0.4149   -7.8663   32.0656 O   0  0  0  0  0  0  0  0  0  0  0  0
    3.9273    0.5245   36.1492 C   0  0  0  0  0  0  0  0  0  0  0  0
    1.7691   -4.0049   36.1807 C   0  0  2  0  0  0  0  0  0  0  0  0
    1.8963   -3.4075   37.5195 N   0  0  0  0  0  0  0  0  0  0  0  0
    0.3554   -6.6108   29.9263 C   0  0  1  0  0  0  0  0  0  0  0  0
    1.0029   -7.7268   29.1620 N   0  0  0  0  0  0  0  0  0  0  0  0
    2.6772    1.3730   36.5418 C   0  0  0  0  0  0  0  0  0  0  0  0
    1.5702   -2.8850   35.0885 C   0  0  2  0  0  0  0  0  0  0  0  0
   -0.6456   -5.7842   28.9576 C   0  0  1  0  0  0  0  0  0  0  0  0
   -1.6761   -6.6111   28.4576 O   0  0  0  0  0  0  0  0  0  0  0  0
    1.3713    0.4967   36.2936 C   0  0  2  0  0  0  0  0  0  0  0  0
    1.2932   -0.0058   34.9230 O   0  0  0  0  0  0  0  0  0  0  0  0
    1.4394   -3.5526   33.6654 C   0  0  2  0  0  0  0  0  0  0  0  0
    1.2626   -2.5574   32.6625 O   0  0  0  0  0  0  0  0  0  0  0  0
   -1.3147   -4.6366   29.7754 C   0  0  0  0  0  0  0  0  0  0  0  0
   -1.9252   -5.1729   31.0372 O   0  0  0  0  0  0  0  0  0  0  0  0
    0.0809    1.1956   36.6518 C   0  0  0  0  0  0  0  0  0  0  0  0
   -0.0544    1.3735   38.0737 N   0  0  0  0  0  0  0  0  0  0  0  0
    0.2191   -4.5389   33.6505 C   0  0  1  0  0  0  0  0  0  0  0  0
    0.1226   -5.1353   32.3627 O   0  0  0  0  0  0  0  0  0  0  0  0
   -0.0349   -5.1759   27.6877 C   0  0  0  0  0  0  0  0  0  0  0  0
    2.2498   -7.4136   28.4442 C   0  0  0  0  0  0  0  0  0  0  0  0
  1  2  1  1  0  0  0
  1  6  1  0  0  0  0
  1 21  1  0  0  0  0
  3  4  1  1  0  0  0
  3  8  1  0  0  0  0
  3 28  1  0  0  0  0
  5  9  1  0  0  0  0
  5 25  1  0  0  0  0
  5 29  1  6  0  0  0
  6  7  1  1  0  0  0
  6 11  1  0  0  0  0
  8 12  1  0  0  0  0
  9 10  1  1  0  0  0
  9 14  1  0  0  0  0
 11 16  1  0  0  0  0
 12 13  1  1  0  0  0
 12 17  1  0  0  0  0
 14 15  1  6  0  0  0
 14 18  1  0  0  0  0
 15 31  1  0  0  0  0
 16 20  1  0  0  0  0
 17  2  1  6  0  0  0
 17 22  1  0  0  0  0
 18 19  1  6  0  0  0
 18 24  1  0  0  0  0
 18 30  1  0  0  0  0
 20 21  1  0  0  0  0
 20 26  1  6  0  0  0
 22 23  1  6  0  0  0
 22 28  1  0  0  0  0
 24 25  1  0  0  0  0
 26 27  1  0  0  0  0
 28 29  1  6  0  0  0
M  END
>  <CHROM.1>
178.76366032,-137.49107719,-149.66643385,-165.47862172,-69.48061687,69.62380646
0.90824298,-3.61967703,33.25641321,-0.97227859,-1.11511033,-1.81572732

>  <Name>
2et3_lig

>  <RI>
0

>  <Rbt.Current_Directory>
/home/itssahil/PROJECTS/Mol_Feturizer/New_Systems/rnas/2et3

>  <Rbt.Executable>
rbdock ($Id: //depot/dev/client3/rdock/2013.1/src/exe/rbdock.cxx#4 $)

>  <Rbt.Library>
libRbt.so (2013.1, Build901 2013/11/27)

>  <Rbt.Parameter_File>
/export/apps/rDock/src/rDock_2013.1_src/data/scripts/dock_solv.prm

>  <Rbt.Receptor>
prm/blind_docking_40.prm

>  <SCORE>
2.41327

>  <SCORE.INTER>
-0.482864

>  <SCORE.INTER.CONST>
1

>  <SCORE.INTER.POLAR>
-0.408794

>  <SCORE.INTER.ROT>
6

>  <SCORE.INTER.SOLV>
19.9318

>  <SCORE.INTER.VDW>
-13.2032

>  <SCORE.INTER.norm>
-0.0155763

>  <SCORE.INTRA>
-7.28966

>  <SCORE.INTRA.DIHEDRAL>
-13.9514

>  <SCORE.INTRA.DIHEDRAL.0>
22.2484

>  <SCORE.INTRA.POLAR>
0

>  <SCORE.INTRA.POLAR.0>
0

>  <SCORE.INTRA.REPUL>
0

>  <SCORE.INTRA.REPUL.0>
0

>  <SCORE.INTRA.SOLV>
-2.1734

>  <SCORE.INTRA.SOLV.lig_0>
-75.7198

>  <SCORE.INTRA.VDW>
0.772716

>  <SCORE.INTRA.VDW.0>
-3.34171

>  <SCORE.INTRA.norm>
-0.23515

>  <SCORE.RESTR>
10.1858

>  <SCORE.RESTR.CAVITY>
10.1858

>  <SCORE.RESTR.norm>
0.328574

>  <SCORE.SYSTEM>
0

>  <SCORE.SYSTEM.CONST>
0

>  <SCORE.SYSTEM.DIHEDRAL>
0

>  <SCORE.SYSTEM.SOLV>
0

>  <SCORE.SYSTEM.norm>
0

>  <SCORE.heavy>
31

>  <SCORE.norm>
0.0778474

>  <RMSD>
8.944

$$$$
2et3_lig
 OpenBabel11021811423D
libRbt.so/2013.1/901 2013/11/27
 31 33  0  0  0  0  0  0  0  0999 V2000
    2.6691   -0.7930   34.4451 C   0  0  2  0  0  0  0  0  0  0  0  0
    2.7336   -2.0531   35.1621 O   0  0  0  0  0  0  0  0  0  0  0  0
    0.3968   -5.6080   34.7061 C   0  0  2  0  0  0  0  0  0  0  0  0
   -0.7484   -6.4640   34.6662 N   0  0  0  0  0  0  0  0  0  0  0  0
   -1.0235   -5.8695   31.9267 C   0  0  2  0  0  0  0  0  0  0  0  0
    3.9735   -0.0145   34.6468 C   0  0  2  0  0  0  0  0  0  0  0  0
    5.0652   -0.8362   34.2234 N   0  0  0  0  0  0  0  0  0  0  0  0
    0.5419   -4.9966   36.1369 C   0  0  0  0  0  0  0  0  0  0  0  0
   -0.4487   -7.1017   31.1938 C   0  0  2  0  0  0  0  0  0  0  0  0
    0.3743   -7.8207   32.0849 O   0  0  0  0  0  0  0  0  0  0  0  0
    4.1211    0.4266   36.1431 C   0  0  0  0  0  0  0  0  0  0  0  0
    1.7942   -4.0467   36.1876 C   0  0  2  0  0  0  0  0  0  0  0  0
    1.9350   -3.4677   37.5332 N   0  0  0  0  0  0  0  0  0  0  0  0
    0.3578   -6.5868   29.9323 C   0  0  1  0  0  0  0  0  0  0  0  0
    0.9921   -7.7224   29.1859 N   0  0  0  0  0  0  0  0  0  0  0  0
    2.9049    1.3378   36.5000 C   0  0  0  0  0  0  0  0  0  0  0  0
    1.6379   -2.9095   35.1064 C   0  0  2  0  0  0  0  0  0  0  0  0
   -0.6190   -5.7526   28.9455 C   0  0  1  0  0  0  0  0  0  0  0  0
   -1.6595   -6.5661   28.4443 O   0  0  0  0  0  0  0  0  0  0  0  0
    1.5647    0.5144   36.2535 C   0  0  2  0  0  0  0  0  0  0  0  0
    1.4817   -0.0149   34.8933 O   0  0  0  0  0  0  0  0  0  0  0  0
    1.4916   -3.5576   33.6759 C   0  0  2  0  0  0  0  0  0  0  0  0
    1.3527   -2.5466   32.6827 O   0  0  0  0  0  0  0  0  0  0  0  0
   -1.2748   -4.5846   29.7449 C   0  0  0  0  0  0  0  0  0  0  0  0
   -1.9068   -5.0965   31.0063 O   0  0  0  0  0  0  0  0  0  0  0  0
    0.3021    1.2772   36.5788 C   0  0  0  0  0  0  0  0  0  0  0  0
    0.2489    1.6570   37.9661 N   0  0  0  0  0  0  0  0  0  0  0  0
    0.2391   -4.5024   33.6453 C   0  0  1  0  0  0  0  0  0  0  0  0
    0.1288   -5.0818   32.3509 O   0  0  0  0  0  0  0  0  0  0  0  0
    0.0146   -5.1689   27.6753 C   0  0  0  0  0  0  0  0  0  0  0  0
    2.2322   -7.4306   28.4476 C   0  0  0  0  0  0  0  0  0  0  0  0
  1  2  1  1  0  0  0
  1  6  1  0  0  0  0
  1 21  1  0  0  0  0
  3  4  1  1  0  0  0
  3  8  1  0  0  0  0
  3 28  1  0  0  0  0
  5  9  1  0  0  0  0
  5 25  1  0  0  0  0
  5 29  1  6  0  0  0
  6  7  1  1  0  0  0
  6 11  1  0  0  0  0
  8 12  1  0  0  0  0
  9 10  1  1  0  0  0
  9 14  1  0  0  0  0
 11 16  1  0  0  0  0
 12 13  1  1  0  0  0
 12 17  1  0  0  0  0
 14 15  1  6  0  0  0
 14 18  1  0  0  0  0
 15 31  1  0  0  0  0
 16 20  1  0  0  0  0
 17  2  1  6  0  0  0
 17 22  1  0  0  0  0
 18 19  1  6  0  0  0
 18 24  1  0  0  0  0
 18 30  1  0  0  0  0
 20 21  1  0  0  0  0
 20 26  1  6  0  0  0
 22 23  1  6  0  0  0
 22 28  1  0  0  0  0
 24 25  1  0  0  0  0
 26 27  1  0  0  0  0
 28 29  1  6  0  0  0
M  END
>  <CHROM.1>
179.86629301,-135.83086212,-151.23469456,-167.78976660,-61.30954587,68.12779340
0.97976407,-3.61144772,33.24720685,-0.93918532,-1.10116874,-1.78629473

>  <Name>
2et3_lig

>  <RI>
0

>  <Rbt.Current_Directory>
/home/itssahil/PROJECTS/Mol_Feturizer/New_Systems/rnas/2et3

>  <Rbt.Executable>
rbdock ($Id: //depot/dev/client3/rdock/2013.1/src/exe/rbdock.cxx#4 $)

>  <Rbt.Library>
libRbt.so (2013.1, Build901 2013/11/27)

>  <Rbt.Parameter_File>
/export/apps/rDock/src/rDock_2013.1_src/data/scripts/dock_solv.prm

>  <Rbt.Receptor>
prm/blind_docking_40.prm

>  <SCORE>
1.98789

>  <SCORE.INTER>
-1.08349

>  <SCORE.INTER.CONST>
1

>  <SCORE.INTER.POLAR>
-0.416084

>  <SCORE.INTER.ROT>
6

>  <SCORE.INTER.SOLV>
20.2652

>  <SCORE.INTER.VDW>
-13.6904

>  <SCORE.INTER.norm>
-0.0349514

>  <SCORE.INTRA>
-7.19798

>  <SCORE.INTRA.DIHEDRAL>
-14.4555

>  <SCORE.INTRA.DIHEDRAL.0>
22.2484

>  <SCORE.INTRA.POLAR>
0

>  <SCORE.INTRA.POLAR.0>
0

>  <SCORE.INTRA.REPUL>
0

>  <SCORE.INTRA.REPUL.0>
0

>  <SCORE.INTRA.SOLV>
-2.08219

>  <SCORE.INTRA.SOLV.lig_0>
-75.7198

>  <SCORE.INTRA.VDW>
1.07089

>  <SCORE.INTRA.VDW.0>
-3.34171

>  <SCORE.INTRA.norm>
-0.232193

>  <SCORE.RESTR>
10.2694

>  <SCORE.RESTR.CAVITY>
10.2694

>  <SCORE.RESTR.norm>
0.33127

>  <SCORE.SYSTEM>
0

>  <SCORE.SYSTEM.CONST>
0

>  <SCORE.SYSTEM.DIHEDRAL>
0

>  <SCORE.SYSTEM.SOLV>
0

>  <SCORE.SYSTEM.norm>
0

>  <SCORE.heavy>
31

>  <SCORE.norm>
0.0641254

>  <RMSD>
8.946

$$$$
2et3_lig
 OpenBabel11021811423D
libRbt.so/2013.1/901 2013/11/27
 31 33  0  0  0  0  0  0  0  0999 V2000
   -4.9353   -2.8621   33.6243 C   0  0  2  0  0  0  0  0  0  0  0  0
   -3.6472   -2.2223   33.4299 O   0  0  0  0  0  0  0  0  0  0  0  0
    0.2721   -3.7413   32.6308 C   0  0  2  0  0  0  0  0  0  0  0  0
    1.4442   -4.5531   32.7434 N   0  0  0  0  0  0  0  0  0  0  0  0
   -0.0309   -6.5961   30.9523 C   0  0  2  0  0  0  0  0  0  0  0  0
   -6.0586   -1.8915   33.2441 C   0  0  2  0  0  0  0  0  0  0  0  0
   -5.8528   -1.4616   31.8954 N   0  0  0  0  0  0  0  0  0  0  0  0
    0.0335   -2.9798   33.9745 C   0  0  0  0  0  0  0  0  0  0  0  0
    0.3113   -6.7897   29.4586 C   0  0  2  0  0  0  0  0  0  0  0  0
    1.1519   -5.7369   29.0421 O   0  0  0  0  0  0  0  0  0  0  0  0
   -6.0989   -0.6840   34.2420 C   0  0  0  0  0  0  0  0  0  0  0  0
   -1.2589   -2.0908   33.8628 C   0  0  2  0  0  0  0  0  0  0  0  0
   -1.4884   -1.3719   35.1262 N   0  0  0  0  0  0  0  0  0  0  0  0
   -1.0474   -6.8152   28.6460 C   0  0  1  0  0  0  0  0  0  0  0  0
   -0.8029   -6.9535   27.1729 N   0  0  0  0  0  0  0  0  0  0  0  0
   -6.3555   -1.2496   35.6741 C   0  0  0  0  0  0  0  0  0  0  0  0
   -2.4966   -3.0015   33.5084 C   0  0  2  0  0  0  0  0  0  0  0  0
   -1.9889   -8.0259   29.1670 C   0  0  1  0  0  0  0  0  0  0  0  0
   -1.3771   -9.2811   28.9534 O   0  0  0  0  0  0  0  0  0  0  0  0
   -5.1912   -2.2754   36.0305 C   0  0  2  0  0  0  0  0  0  0  0  0
   -5.0599   -3.3339   35.0307 O   0  0  0  0  0  0  0  0  0  0  0  0
   -2.2247   -3.7570   32.1508 C   0  0  2  0  0  0  0  0  0  0  0  0
   -3.3330   -4.5833   31.8096 O   0  0  0  0  0  0  0  0  0  0  0  0
   -2.2207   -7.8675   30.7015 C   0  0  0  0  0  0  0  0  0  0  0  0
   -0.9130   -7.7044   31.4198 O   0  0  0  0  0  0  0  0  0  0  0  0
   -5.3075   -2.8886   37.4061 C   0  0  0  0  0  0  0  0  0  0  0  0
   -4.1790   -3.7268   37.7154 N   0  0  0  0  0  0  0  0  0  0  0  0
   -0.9317   -4.6364   32.2809 C   0  0  1  0  0  0  0  0  0  0  0  0
   -0.6998   -5.3030   31.0459 O   0  0  0  0  0  0  0  0  0  0  0  0
   -3.3566   -8.1808   28.4882 C   0  0  0  0  0  0  0  0  0  0  0  0
   -0.5547   -5.7158   26.4147 C   0  0  0  0  0  0  0  0  0  0  0  0
  1  2  1  1  0  0  0
  1  6  1  0  0  0  0
  1 21  1  0  0  0  0
  3  4  1  1  0  0  0
  3  8  1  0  0  0  0
  3 28  1  0  0  0  0
  5  9  1  0  0  0  0
  5 25  1  0  0  0  0
  5 29  1  6  0  0  0
  6  7  1  6  0  0  0
  6 11  1  0  0  0  0
  8 12  1  0  0  0  0
  9 10  1  6  0  0  0
  9 14  1  0  0  0  0
 11 16  1  0  0  0  0
 12 13  1  1  0  0  0
 12 17  1  0  0  0  0
 14 15  1  6  0  0  0
 14 18  1  0  0  0  0
 15 31  1  0  0  0  0
 16 20  1  0  0  0  0
 17  2  1  6  0  0  0
 17 22  1  0  0  0  0
 18 19  1  6  0  0  0
 18 24  1  0  0  0  0
 18 30  1  0  0  0  0
 20 21  1  0  0  0  0
 20 26  1  1  0  0  0
 22 23  1  1  0  0  0
 22 28  1  0  0  0  0
 24 25  1  0  0  0  0
 26 27  1  0  0  0  0
 28 29  1  6  0  0  0
M  END
>  <CHROM.1>
-169.63253430,-166.84629728,-85.80161057,-156.76711345,-175.57299351,88.87849486
-2.38671959,-4.49782332,32.15435287,2.04125402,-0.07323296,0.92974418

>  <Name>
2et3_lig

>  <RI>
3.86414e+07

>  <Rbt.Current_Directory>
/home/itssahil/PROJECTS/Mol_Feturizer/New_Systems/rnas/2et3

>  <Rbt.Executable>
rbdock ($Id: //depot/dev/client3/rdock/2013.1/src/exe/rbdock.cxx#4 $)

>  <Rbt.Library>
libRbt.so (2013.1, Build901 2013/11/27)

>  <Rbt.Parameter_File>
/export/apps/rDock/src/rDock_2013.1_src/data/scripts/dock_solv.prm

>  <Rbt.Receptor>
prm/pocket_docking_8.prm

>  <SCORE>
-13.4888

>  <SCORE.INTER>
-4.81274

>  <SCORE.INTER.CONST>
1

>  <SCORE.INTER.POLAR>
-0.751212

>  <SCORE.INTER.ROT>
6

>  <SCORE.INTER.SOLV>
14.0562

>  <SCORE.INTER.VDW>
-12.9899

>  <SCORE.INTER.norm>
-0.15525

>  <SCORE.INTRA>
-8.67609

>  <SCORE.INTRA.DIHEDRAL>
-14.4682

>  <SCORE.INTRA.DIHEDRAL.0>
22.2484

>  <SCORE.INTRA.POLAR>
0

>  <SCORE.INTRA.POLAR.0>
0

>  <SCORE.INTRA.REPUL>
0

>  <SCORE.INTRA.REPUL.0>
0

>  <SCORE.INTRA.SOLV>
-2.25063

>  <SCORE.INTRA.SOLV.lig_0>
-75.7198

>  <SCORE.INTRA.VDW>
-0.316682

>  <SCORE.INTRA.VDW.0>
-3.34171

>  <SCORE.INTRA.norm>
-0.279874

>  <SCORE.RESTR>
0

>  <SCORE.RESTR.CAVITY>
0

>  <SCORE.RESTR.norm>
0

>  <SCORE.SYSTEM>
0

>  <SCORE.SYSTEM.CONST>
0

>  <SCORE.SYSTEM.DIHEDRAL>
0

>  <SCORE.SYSTEM.SOLV>
0

>  <SCORE.SYSTEM.norm>
0

>  <SCORE.heavy>
31

>  <SCORE.norm>
-0.435124

>  <RMSD>
8.957

$$$$
2et3_lig
 OpenBabel11021811423D
libRbt.so/2013.1/901 2013/11/27
 31 33  0  0  0  0  0  0  0  0999 V2000
   -0.4924   -5.4568   31.5780 C   0  0  2  0  0  0  0  0  0  0  0  0
    0.7302   -4.7439   31.8991 O   0  0  0  0  0  0  0  0  0  0  0  0
    0.6124   -3.7223   36.0522 C   0  0  2  0  0  0  0  0  0  0  0  0
    1.0168   -3.6223   37.4205 N   0  0  0  0  0  0  0  0  0  0  0  0
    2.5458   -0.6681   34.7941 C   0  0  2  0  0  0  0  0  0  0  0  0
   -0.3218   -6.2075   30.2529 C   0  0  2  0  0  0  0  0  0  0  0  0
    0.8110   -7.0740   30.3621 N   0  0  0  0  0  0  0  0  0  0  0  0
    0.4771   -5.2281   35.6566 C   0  0  0  0  0  0  0  0  0  0  0  0
    4.0044   -0.8972   35.2478 C   0  0  2  0  0  0  0  0  0  0  0  0
    4.3752   -2.2228   34.9421 O   0  0  0  0  0  0  0  0  0  0  0  0
   -0.1700   -5.1950   29.0666 C   0  0  0  0  0  0  0  0  0  0  0  0
    0.0410   -5.3478   34.1504 C   0  0  2  0  0  0  0  0  0  0  0  0
   -0.0874   -6.7643   33.7726 N   0  0  0  0  0  0  0  0  0  0  0  0
    4.0832   -0.6070   36.8023 C   0  0  1  0  0  0  0  0  0  0  0  0
    5.4627   -0.8523   37.3368 N   0  0  0  0  0  0  0  0  0  0  0  0
   -1.4605   -4.3186   29.0117 C   0  0  0  0  0  0  0  0  0  0  0  0
    1.1003   -4.6219   33.2352 C   0  0  2  0  0  0  0  0  0  0  0  0
    3.6329    0.9180   37.1109 C   0  0  1  0  0  0  0  0  0  0  0  0
    4.5002    1.8452   36.4914 O   0  0  0  0  0  0  0  0  0  0  0  0
   -1.6282   -3.5745   30.4091 C   0  0  2  0  0  0  0  0  0  0  0  0
   -1.6373   -4.5063   31.5356 O   0  0  0  0  0  0  0  0  0  0  0  0
    1.2153   -3.1073   33.6601 C   0  0  2  0  0  0  0  0  0  0  0  0
    2.1654   -2.4312   32.8426 O   0  0  0  0  0  0  0  0  0  0  0  0
    2.2013    1.1530   36.5375 C   0  0  0  0  0  0  0  0  0  0  0  0
    2.1325    0.7324   35.0984 O   0  0  0  0  0  0  0  0  0  0  0  0
   -2.8371   -2.6721   30.4877 C   0  0  0  0  0  0  0  0  0  0  0  0
   -2.7391   -1.5655   29.5724 N   0  0  0  0  0  0  0  0  0  0  0  0
    1.6492   -3.0081   35.1647 C   0  0  1  0  0  0  0  0  0  0  0  0
    1.7403   -1.6365   35.5301 O   0  0  0  0  0  0  0  0  0  0  0  0
    3.6395    1.3578   38.5813 C   0  0  0  0  0  0  0  0  0  0  0  0
    5.5660   -1.4567   38.6756 C   0  0  0  0  0  0  0  0  0  0  0  0
  1  2  1  6  0  0  0
  1  6  1  0  0  0  0
  1 21  1  0  0  0  0
  3  4  1  1  0  0  0
  3  8  1  0  0  0  0
  3 28  1  0  0  0  0
  5  9  1  0  0  0  0
  5 25  1  0  0  0  0
  5 29  1  1  0  0  0
  6  7  1  1  0  0  0
  6 11  1  0  0  0  0
  8 12  1  0  0  0  0
  9 10  1  1  0  0  0
  9 14  1  0  0  0  0
 11 16  1  0  0  0  0
 12 13  1  6  0  0  0
 12 17  1  0  0  0  0
 14 15  1  6  0  0  0
 14 18  1  0  0  0  0
 15 31  1  0  0  0  0
 16 20  1  0  0  0  0
 17  2  1  6  0  0  0
 17 22  1  0  0  0  0
 18 19  1  6  0  0  0
 18 24  1  0  0  0  0
 18 30  1  0  0  0  0
 20 21  1  0  0  0  0
 20 26  1  6  0  0  0
 22 23  1  6  0  0  0
 22 28  1  0  0  0  0
 24 25  1  0  0  0  0
 26 27  1  0  0  0  0
 28 29  1  1  0  0  0
M  END
>  <CHROM.1>
-145.58594651,-78.75597444,-142.15939058,0.59275003,-64.99437583,-174.22484462
1.39517876,-2.71783525,33.99157941,-2.67937906,-0.95191204,-0.09721530

>  <Name>
2et3_lig

>  <RI>
0

>  <Rbt.Current_Directory>
/home/itssahil/PROJECTS/Mol_Feturizer/New_Systems/rnas/2et3

>  <Rbt.Executable>
rbdock ($Id: //depot/dev/client3/rdock/2013.1/src/exe/rbdock.cxx#4 $)

>  <Rbt.Library>
libRbt.so (2013.1, Build901 2013/11/27)

>  <Rbt.Parameter_File>
/export/apps/rDock/src/rDock_2013.1_src/data/scripts/dock_solv.prm

>  <Rbt.Receptor>
prm/blind_docking_40.prm

>  <SCORE>
-1.35523

>  <SCORE.INTER>
-11.2519

>  <SCORE.INTER.CONST>
1

>  <SCORE.INTER.POLAR>
-2.20701

>  <SCORE.INTER.ROT>
6

>  <SCORE.INTER.SOLV>
20.8908

>  <SCORE.INTER.VDW>
-14.7082

>  <SCORE.INTER.norm>
-0.362965

>  <SCORE.INTRA>
1.1917

>  <SCORE.INTRA.DIHEDRAL>
-7.84673

>  <SCORE.INTRA.DIHEDRAL.0>
22.2484

>  <SCORE.INTRA.POLAR>
0

>  <SCORE.INTRA.POLAR.0>
0

>  <SCORE.INTRA.REPUL>
0

>  <SCORE.INTRA.REPUL.0>
0

>  <SCORE.INTRA.SOLV>
-0.653035

>  <SCORE.INTRA.SOLV.lig_0>
-75.7198

>  <SCORE.INTRA.VDW>
5.44158

>  <SCORE.INTRA.VDW.0>
-3.34171

>  <SCORE.INTRA.norm>
0.0384419

>  <SCORE.RESTR>
8.70499

>  <SCORE.RESTR.CAVITY>
8.70499

>  <SCORE.RESTR.norm>
0.280806

>  <SCORE.SYSTEM>
0

>  <SCORE.SYSTEM.CONST>
0

>  <SCORE.SYSTEM.DIHEDRAL>
0

>  <SCORE.SYSTEM.SOLV>
0

>  <SCORE.SYSTEM.norm>
0

>  <SCORE.heavy>
31

>  <SCORE.norm>
-0.043717

>  <RMSD>
8.960

$$$$
2et3_lig
 OpenBabel11021811423D
libRbt.so/2013.1/901 2013/11/27
 31 33  0  0  0  0  0  0  0  0999 V2000
    1.7106   -0.5697   35.6318 C   0  0  2  0  0  0  0  0  0  0  0  0
    2.1838   -1.6855   34.8334 O   0  0  0  0  0  0  0  0  0  0  0  0
    0.6313   -5.4535   33.5304 C   0  0  2  0  0  0  0  0  0  0  0  0
   -0.1751   -6.6344   33.5032 N   0  0  0  0  0  0  0  0  0  0  0  0
   -0.4145   -3.8852   30.8926 C   0  0  2  0  0  0  0  0  0  0  0  0
    2.8590    0.4144   35.8792 C   0  0  2  0  0  0  0  0  0  0  0  0
    3.3887    0.8243   34.6152 N   0  0  0  0  0  0  0  0  0  0  0  0
    1.4499   -5.4108   34.8609 C   0  0  0  0  0  0  0  0  0  0  0  0
   -1.6066   -3.6111   29.9495 C   0  0  2  0  0  0  0  0  0  0  0  0
   -2.3923   -2.5750   30.4953 O   0  0  0  0  0  0  0  0  0  0  0  0
    3.9553   -0.2417   36.7864 C   0  0  0  0  0  0  0  0  0  0  0  0
    2.3334   -4.1106   34.9033 C   0  0  2  0  0  0  0  0  0  0  0  0
    3.1061   -4.0654   36.1550 N   0  0  0  0  0  0  0  0  0  0  0  0
   -2.4283   -4.9560   29.7980 C   0  0  1  0  0  0  0  0  0  0  0  0
   -3.6369   -4.7657   28.9308 N   0  0  0  0  0  0  0  0  0  0  0  0
    3.2907   -0.6260   38.1455 C   0  0  0  0  0  0  0  0  0  0  0  0
    1.4086   -2.8399   34.7744 C   0  0  2  0  0  0  0  0  0  0  0  0
   -1.4856   -6.1222   29.1857 C   0  0  1  0  0  0  0  0  0  0  0  0
   -1.0314   -5.7886   27.8903 O   0  0  0  0  0  0  0  0  0  0  0  0
    2.0846   -1.6242   37.8561 C   0  0  2  0  0  0  0  0  0  0  0  0
    1.1228   -1.0702   36.9046 O   0  0  0  0  0  0  0  0  0  0  0  0
    0.5954   -2.9134   33.4249 C   0  0  2  0  0  0  0  0  0  0  0  0
   -0.2448   -1.7720   33.2865 O   0  0  0  0  0  0  0  0  0  0  0  0
   -0.2314   -6.2952   30.0970 C   0  0  0  0  0  0  0  0  0  0  0  0
    0.4384   -4.9727   30.3314 O   0  0  0  0  0  0  0  0  0  0  0  0
    1.3594   -2.0930   39.0954 C   0  0  0  0  0  0  0  0  0  0  0  0
    0.4578   -1.0905   39.5992 N   0  0  0  0  0  0  0  0  0  0  0  0
   -0.2778   -4.2169   33.4003 C   0  0  1  0  0  0  0  0  0  0  0  0
   -0.9970   -4.2684   32.1741 O   0  0  0  0  0  0  0  0  0  0  0  0
   -2.1299   -7.5012   28.9886 C   0  0  0  0  0  0  0  0  0  0  0  0
   -3.4127   -4.2433   27.5725 C   0  0  0  0  0  0  0  0  0  0  0  0
  1  2  1  1  0  0  0
  1  6  1  0  0  0  0
  1 21  1  0  0  0  0
  3  4  1  1  0  0  0
  3  8  1  0  0  0  0
  3 28  1  0  0  0  0
  5  9  1  0  0  0  0
  5 25  1  0  0  0  0
  5 29  1  1  0  0  0
  6  7  1  6  0  0  0
  6 11  1  0  0  0  0
  8 12  1  0  0  0  0
  9 10  1  1  0  0  0
  9 14  1  0  0  0  0
 11 16  1  0  0  0  0
 12 13  1  1  0  0  0
 12 17  1  0  0  0  0
 14 15  1  6  0  0  0
 14 18  1  0  0  0  0
 15 31  1  0  0  0  0
 16 20  1  0  0  0  0
 17  2  1  6  0  0  0
 17 22  1  0  0  0  0
 18 19  1  6  0  0  0
 18 24  1  0  0  0  0
 18 30  1  0  0  0  0
 20 21  1  0  0  0  0
 20 26  1  1  0  0  0
 22 23  1  1  0  0  0
 22 28  1  0  0  0  0
 24 25  1  0  0  0  0
 26 27  1  0  0  0  0
 28 29  1  6  0  0  0
M  END
>  <CHROM.1>
164.21609714,-160.65273363,56.37136518,-136.96298978,77.87499041,-79.94712489
0.35582670,-3.36012389,33.29272209,0.40886815,-1.08631178,-0.03095277

>  <Name>
2et3_lig

>  <RI>
0

>  <Rbt.Current_Directory>
/home/itssahil/PROJECTS/Mol_Feturizer/New_Systems/rnas/2et3

>  <Rbt.Executable>
rbdock ($Id: //depot/dev/client3/rdock/2013.1/src/exe/rbdock.cxx#4 $)

>  <Rbt.Library>
libRbt.so (2013.1, Build901 2013/11/27)

>  <Rbt.Parameter_File>
/export/apps/rDock/src/rDock_2013.1_src/data/scripts/dock_solv.prm

>  <Rbt.Receptor>
prm/blind_docking_40.prm

>  <SCORE>
7.96075

>  <SCORE.INTER>
2.49356

>  <SCORE.INTER.CONST>
1

>  <SCORE.INTER.POLAR>
-0.362983

>  <SCORE.INTER.ROT>
6

>  <SCORE.INTER.SOLV>
16.0091

>  <SCORE.INTER.VDW>
-10.0641

>  <SCORE.INTER.norm>
0.0804374

>  <SCORE.INTRA>
-3.55188

>  <SCORE.INTRA.DIHEDRAL>
-10.5139

>  <SCORE.INTRA.DIHEDRAL.0>
22.2484

>  <SCORE.INTRA.POLAR>
0

>  <SCORE.INTRA.POLAR.0>
0

>  <SCORE.INTRA.REPUL>
0

>  <SCORE.INTRA.REPUL.0>
0

>  <SCORE.INTRA.SOLV>
0.746759

>  <SCORE.INTRA.SOLV.lig_0>
-75.7198

>  <SCORE.INTRA.VDW>
1.3317

>  <SCORE.INTRA.VDW.0>
-3.34171

>  <SCORE.INTRA.norm>
-0.114577

>  <SCORE.RESTR>
9.01906

>  <SCORE.RESTR.CAVITY>
9.01906

>  <SCORE.RESTR.norm>
0.290938

>  <SCORE.SYSTEM>
0

>  <SCORE.SYSTEM.CONST>
0

>  <SCORE.SYSTEM.DIHEDRAL>
0

>  <SCORE.SYSTEM.SOLV>
0

>  <SCORE.SYSTEM.norm>
0

>  <SCORE.heavy>
31

>  <SCORE.norm>
0.256798

>  <RMSD>
8.985

$$$$
2et3_lig
 OpenBabel11021811423D
libRbt.so/2013.1/901 2013/11/27
 31 33  0  0  0  0  0  0  0  0999 V2000
    1.7118   -0.3064   34.9404 C   0  0  2  0  0  0  0  0  0  0  0  0
    2.3218   -1.6038   35.1656 O   0  0  0  0  0  0  0  0  0  0  0  0
    0.7302   -5.4073   34.0224 C   0  0  2  0  0  0  0  0  0  0  0  0
   -0.1128   -6.5627   34.0216 N   0  0  0  0  0  0  0  0  0  0  0  0
   -0.0490   -4.1484   31.2133 C   0  0  2  0  0  0  0  0  0  0  0  0
    2.7665    0.7952   35.0907 C   0  0  2  0  0  0  0  0  0  0  0  0
    3.8406    0.5247   34.1855 N   0  0  0  0  0  0  0  0  0  0  0  0
    1.4600   -5.2944   35.3996 C   0  0  0  0  0  0  0  0  0  0  0  0
   -1.1353   -3.9780   30.1285 C   0  0  2  0  0  0  0  0  0  0  0  0
   -1.8917   -2.8233   30.4167 O   0  0  0  0  0  0  0  0  0  0  0  0
    3.2613    0.8795   36.5751 C   0  0  0  0  0  0  0  0  0  0  0  0
    2.3829   -4.0212   35.4127 C   0  0  2  0  0  0  0  0  0  0  0  0
    3.0722   -3.9100   36.7081 N   0  0  0  0  0  0  0  0  0  0  0  0
   -2.0311   -5.2835   30.1256 C   0  0  1  0  0  0  0  0  0  0  0  0
   -3.1459   -5.1816   29.1277 N   0  0  0  0  0  0  0  0  0  0  0  0
    2.0295    1.2050   37.4769 C   0  0  0  0  0  0  0  0  0  0  0  0
    1.5129   -2.7360   35.1334 C   0  0  2  0  0  0  0  0  0  0  0  0
   -1.1217   -6.5859   29.8087 C   0  0  1  0  0  0  0  0  0  0  0  0
   -0.5374   -6.5048   28.5252 O   0  0  0  0  0  0  0  0  0  0  0  0
    0.9395    0.0616   37.2787 C   0  0  2  0  0  0  0  0  0  0  0  0
    0.5694   -0.1141   35.8753 O   0  0  0  0  0  0  0  0  0  0  0  0
    0.7887   -2.8812   33.7397 C   0  0  2  0  0  0  0  0  0  0  0  0
   -0.0006   -1.7282   33.4658 O   0  0  0  0  0  0  0  0  0  0  0  0
    0.0358   -6.6656   30.8515 C   0  0  0  0  0  0  0  0  0  0  0  0
    0.7721   -5.3598   30.9250 O   0  0  0  0  0  0  0  0  0  0  0  0
   -0.3066    0.2444   38.1127 C   0  0  0  0  0  0  0  0  0  0  0  0
   -1.4820    0.3871   37.2943 N   0  0  0  0  0  0  0  0  0  0  0  0
   -0.1253   -4.1567   33.7453 C   0  0  1  0  0  0  0  0  0  0  0  0
   -0.7630   -4.2739   32.4793 O   0  0  0  0  0  0  0  0  0  0  0  0
   -1.8397   -7.9422   29.7837 C   0  0  0  0  0  0  0  0  0  0  0  0
   -2.8103   -4.6415   27.7995 C   0  0  0  0  0  0  0  0  0  0  0  0
  1  2  1  1  0  0  0
  1  6  1  0  0  0  0
  1 21  1  0  0  0  0
  3  4  1  1  0  0  0
  3  8  1  0  0  0  0
  3 28  1  0  0  0  0
  5  9  1  0  0  0  0
  5 25  1  0  0  0  0
  5 29  1  1  0  0  0
  6  7  1  6  0  0  0
  6 11  1  0  0  0  0
  8 12  1  0  0  0  0
  9 10  1  1  0  0  0
  9 14  1  0  0  0  0
 11 16  1  0  0  0  0
 12 13  1  1  0  0  0
 12 17  1  0  0  0  0
 14 15  1  6  0  0  0
 14 18  1  0  0  0  0
 15 31  1  0  0  0  0
 16 20  1  0  0  0  0
 17  2  1  6  0  0  0
 17 22  1  0  0  0  0
 18 19  1  6  0  0  0
 18 24  1  0  0  0  0
 18 30  1  0  0  0  0
 20 21  1  0  0  0  0
 20 26  1  1  0  0  0
 22 23  1  1  0  0  0
 22 28  1  0  0  0  0
 24 25  1  0  0  0  0
 26 27  1  0  0  0  0
 28 29  1  6  0  0  0
M  END
>  <CHROM.1>
177.13993535,-165.89367868,43.95710724,-179.58566794,118.68493787,-72.80655573
0.32688253,-3.16791381,33.33755532,0.98020453,-0.92382618,0.37462285

>  <Name>
2et3_lig

>  <RI>
0

>  <Rbt.Current_Directory>
/home/itssahil/PROJECTS/Mol_Feturizer/New_Systems/rnas/2et3

>  <Rbt.Executable>
rbdock ($Id: //depot/dev/client3/rdock/2013.1/src/exe/rbdock.cxx#4 $)

>  <Rbt.Library>
libRbt.so (2013.1, Build901 2013/11/27)

>  <Rbt.Parameter_File>
/export/apps/rDock/src/rDock_2013.1_src/data/scripts/dock_solv.prm

>  <Rbt.Receptor>
prm/blind_docking_40.prm

>  <SCORE>
2.73588

>  <SCORE.INTER>
-1.04155

>  <SCORE.INTER.CONST>
1

>  <SCORE.INTER.POLAR>
-0.796458

>  <SCORE.INTER.ROT>
6

>  <SCORE.INTER.SOLV>
17.3233

>  <SCORE.INTER.VDW>
-11.414

>  <SCORE.INTER.norm>
-0.0335985

>  <SCORE.INTRA>
-5.4397

>  <SCORE.INTRA.DIHEDRAL>
-15.0801

>  <SCORE.INTRA.DIHEDRAL.0>
22.2484

>  <SCORE.INTRA.POLAR>
0

>  <SCORE.INTRA.POLAR.0>
0

>  <SCORE.INTRA.REPUL>
0

>  <SCORE.INTRA.REPUL.0>
0

>  <SCORE.INTRA.SOLV>
-1.57213

>  <SCORE.INTRA.SOLV.lig_0>
-75.7198

>  <SCORE.INTRA.VDW>
2.88642

>  <SCORE.INTRA.VDW.0>
-3.34171

>  <SCORE.INTRA.norm>
-0.175474

>  <SCORE.RESTR>
9.21713

>  <SCORE.RESTR.CAVITY>
9.21713

>  <SCORE.RESTR.norm>
0.297327

>  <SCORE.SYSTEM>
0

>  <SCORE.SYSTEM.CONST>
0

>  <SCORE.SYSTEM.DIHEDRAL>
0

>  <SCORE.SYSTEM.SOLV>
0

>  <SCORE.SYSTEM.norm>
0

>  <SCORE.heavy>
31

>  <SCORE.norm>
0.0882541

>  <RMSD>
9.004

$$$$
2et3_lig
 OpenBabel11021811423D
libRbt.so/2013.1/901 2013/11/27
 31 33  0  0  0  0  0  0  0  0999 V2000
    2.4728   -0.4759   34.7258 C   0  0  2  0  0  0  0  0  0  0  0  0
    2.7172   -1.8094   35.2439 O   0  0  0  0  0  0  0  0  0  0  0  0
    0.7129   -5.5582   34.7588 C   0  0  2  0  0  0  0  0  0  0  0  0
   -0.3530   -6.5088   34.6826 N   0  0  0  0  0  0  0  0  0  0  0  0
   -0.4337   -6.1303   31.9840 C   0  0  2  0  0  0  0  0  0  0  0  0
    3.6267    0.4525   35.1194 C   0  0  2  0  0  0  0  0  0  0  0  0
    4.8502   -0.1116   34.6388 N   0  0  0  0  0  0  0  0  0  0  0  0
    0.7319   -4.9078   36.1796 C   0  0  0  0  0  0  0  0  0  0  0  0
   -0.2329   -6.3340   30.4661 C   0  0  2  0  0  0  0  0  0  0  0  0
    1.0960   -6.7434   30.2318 O   0  0  0  0  0  0  0  0  0  0  0  0
    3.6521    0.6653   36.6716 C   0  0  0  0  0  0  0  0  0  0  0  0
    1.8959   -3.8543   36.2697 C   0  0  2  0  0  0  0  0  0  0  0  0
    1.9178   -3.2384   37.6060 N   0  0  0  0  0  0  0  0  0  0  0  0
   -0.5640   -4.9654   29.7421 C   0  0  1  0  0  0  0  0  0  0  0  0
   -0.3481   -5.0620   28.2612 N   0  0  0  0  0  0  0  0  0  0  0  0
    2.2934    1.3080   37.0931 C   0  0  0  0  0  0  0  0  0  0  0  0
    1.7014   -2.7566   35.1544 C   0  0  2  0  0  0  0  0  0  0  0  0
   -2.0913   -4.5234   30.0513 C   0  0  1  0  0  0  0  0  0  0  0  0
   -3.0118   -5.4694   29.5481 O   0  0  0  0  0  0  0  0  0  0  0  0
    1.1130    0.3376   36.6464 C   0  0  2  0  0  0  0  0  0  0  0  0
    1.1612    0.0269   35.2187 O   0  0  0  0  0  0  0  0  0  0  0  0
    1.6842   -3.4435   33.7347 C   0  0  2  0  0  0  0  0  0  0  0  0
    1.5130   -2.4682   32.7113 O   0  0  0  0  0  0  0  0  0  0  0  0
   -2.2952   -4.4396   31.5956 C   0  0  0  0  0  0  0  0  0  0  0  0
   -1.8368   -5.7056   32.2589 O   0  0  0  0  0  0  0  0  0  0  0  0
   -0.2663    0.8336   37.0113 C   0  0  0  0  0  0  0  0  0  0  0  0
   -0.6109    0.5056   38.3698 N   0  0  0  0  0  0  0  0  0  0  0  0
    0.5185   -4.4915   33.6647 C   0  0  1  0  0  0  0  0  0  0  0  0
    0.5244   -5.1042   32.3810 O   0  0  0  0  0  0  0  0  0  0  0  0
   -2.5690   -3.2031   29.4316 C   0  0  0  0  0  0  0  0  0  0  0  0
    0.9244   -5.6459   27.8052 C   0  0  0  0  0  0  0  0  0  0  0  0
  1  2  1  1  0  0  0
  1  6  1  0  0  0  0
  1 21  1  0  0  0  0
  3  4  1  1  0  0  0
  3  8  1  0  0  0  0
  3 28  1  0  0  0  0
  5  9  1  0  0  0  0
  5 25  1  0  0  0  0
  5 29  1  6  0  0  0
  6  7  1  1  0  0  0
  6 11  1  0  0  0  0
  8 12  1  0  0  0  0
  9 10  1  1  0  0  0
  9 14  1  0  0  0  0
 11 16  1  0  0  0  0
 12 13  1  1  0  0  0
 12 17  1  0  0  0  0
 14 15  1  6  0  0  0
 14 18  1  0  0  0  0
 15 31  1  0  0  0  0
 16 20  1  0  0  0  0
 17  2  1  6  0  0  0
 17 22  1  0  0  0  0
 18 19  1  6  0  0  0
 18 24  1  0  0  0  0
 18 30  1  0  0  0  0
 20 21  1  0  0  0  0
 20 26  1  6  0  0  0
 22 23  1  6  0  0  0
 22 28  1  0  0  0  0
 24 25  1  0  0  0  0
 26 27  1  0  0  0  0
 28 29  1  6  0  0  0
M  END
>  <CHROM.1>
171.25461246,170.33562205,-48.53104423,-155.36710366,-83.18309033,59.65798090
0.64369797,-3.20478621,33.47757646,-0.63972385,-1.13491886,-1.37903711

>  <Name>
2et3_lig

>  <RI>
0

>  <Rbt.Current_Directory>
/home/itssahil/PROJECTS/Mol_Feturizer/New_Systems/rnas/2et3

>  <Rbt.Executable>
rbdock ($Id: //depot/dev/client3/rdock/2013.1/src/exe/rbdock.cxx#4 $)

>  <Rbt.Library>
libRbt.so (2013.1, Build901 2013/11/27)

>  <Rbt.Parameter_File>
/export/apps/rDock/src/rDock_2013.1_src/data/scripts/dock_solv.prm

>  <Rbt.Receptor>
prm/blind_docking_40.prm

>  <SCORE>
0.541802

>  <SCORE.INTER>
-2.73401

>  <SCORE.INTER.CONST>
1

>  <SCORE.INTER.POLAR>
-1.20653

>  <SCORE.INTER.ROT>
6

>  <SCORE.INTER.SOLV>
17.9738

>  <SCORE.INTER.VDW>
-11.3922

>  <SCORE.INTER.norm>
-0.0881937

>  <SCORE.INTRA>
-5.85506

>  <SCORE.INTRA.DIHEDRAL>
-16.9581

>  <SCORE.INTRA.DIHEDRAL.0>
22.2484

>  <SCORE.INTRA.POLAR>
0

>  <SCORE.INTRA.POLAR.0>
0

>  <SCORE.INTRA.REPUL>
0

>  <SCORE.INTRA.REPUL.0>
0

>  <SCORE.INTRA.SOLV>
-1.71234

>  <SCORE.INTRA.SOLV.lig_0>
-75.7198

>  <SCORE.INTRA.VDW>
3.48017

>  <SCORE.INTRA.VDW.0>
-3.34171

>  <SCORE.INTRA.norm>
-0.188873

>  <SCORE.RESTR>
9.13087

>  <SCORE.RESTR.CAVITY>
9.13087

>  <SCORE.RESTR.norm>
0.294544

>  <SCORE.SYSTEM>
0

>  <SCORE.SYSTEM.CONST>
0

>  <SCORE.SYSTEM.DIHEDRAL>
0

>  <SCORE.SYSTEM.SOLV>
0

>  <SCORE.SYSTEM.norm>
0

>  <SCORE.heavy>
31

>  <SCORE.norm>
0.0174775

>  <RMSD>
9.008

$$$$
2et3_lig
 OpenBabel11021811423D
libRbt.so/2013.1/901 2013/11/27
 31 33  0  0  0  0  0  0  0  0999 V2000
   -3.2902   -5.4760   37.1372 C   0  0  2  0  0  0  0  0  0  0  0  0
   -3.1126   -5.1309   35.7388 O   0  0  0  0  0  0  0  0  0  0  0  0
    0.3571   -4.3938   33.3462 C   0  0  2  0  0  0  0  0  0  0  0  0
    1.6625   -4.5671   32.7880 N   0  0  0  0  0  0  0  0  0  0  0  0
   -1.1953   -6.9327   30.9457 C   0  0  2  0  0  0  0  0  0  0  0  0
   -4.6835   -6.0778   37.3495 C   0  0  2  0  0  0  0  0  0  0  0  0
   -4.8315   -7.2034   36.4792 N   0  0  0  0  0  0  0  0  0  0  0  0
    0.4717   -4.2056   34.8933 C   0  0  0  0  0  0  0  0  0  0  0  0
   -0.4307   -7.1102   29.6154 C   0  0  2  0  0  0  0  0  0  0  0  0
    0.9386   -7.2955   29.8966 O   0  0  0  0  0  0  0  0  0  0  0  0
   -5.7899   -4.9969   37.0991 C   0  0  0  0  0  0  0  0  0  0  0  0
   -0.9604   -4.0230   35.5170 C   0  0  2  0  0  0  0  0  0  0  0  0
   -0.8580   -3.8459   36.9744 N   0  0  0  0  0  0  0  0  0  0  0  0
   -0.6814   -5.8200   28.7326 C   0  0  1  0  0  0  0  0  0  0  0  0
    0.0674   -5.8891   27.4351 N   0  0  0  0  0  0  0  0  0  0  0  0
   -5.5621   -3.8297   38.1103 C   0  0  0  0  0  0  0  0  0  0  0  0
   -1.8506   -5.2776   35.1704 C   0  0  2  0  0  0  0  0  0  0  0  0
   -2.2653   -5.6349   28.4485 C   0  0  1  0  0  0  0  0  0  0  0  0
   -2.7863   -6.7234   27.7143 O   0  0  0  0  0  0  0  0  0  0  0  0
   -4.0987   -3.2437   37.8872 C   0  0  2  0  0  0  0  0  0  0  0  0
   -3.0674   -4.2750   37.9881 O   0  0  0  0  0  0  0  0  0  0  0  0
   -1.9450   -5.4417   33.6045 C   0  0  2  0  0  0  0  0  0  0  0  0
   -2.7487   -6.5683   33.2691 O   0  0  0  0  0  0  0  0  0  0  0  0
   -3.0242   -5.5760   29.8102 C   0  0  0  0  0  0  0  0  0  0  0  0
   -2.6500   -6.7443   30.6750 O   0  0  0  0  0  0  0  0  0  0  0  0
   -3.7507   -2.0879   38.7955 C   0  0  0  0  0  0  0  0  0  0  0  0
   -2.4718   -1.5152   38.4667 N   0  0  0  0  0  0  0  0  0  0  0  0
   -0.5078   -5.6207   33.0007 C   0  0  1  0  0  0  0  0  0  0  0  0
   -0.6136   -5.7597   31.5890 O   0  0  0  0  0  0  0  0  0  0  0  0
   -2.6813   -4.4158   27.6140 C   0  0  0  0  0  0  0  0  0  0  0  0
    1.5373   -5.9327   27.5101 C   0  0  0  0  0  0  0  0  0  0  0  0
  1  2  1  6  0  0  0
  1  6  1  0  0  0  0
  1 21  1  0  0  0  0
  3  4  1  1  0  0  0
  3  8  1  0  0  0  0
  3 28  1  0  0  0  0
  5  9  1  0  0  0  0
  5 25  1  0  0  0  0
  5 29  1  6  0  0  0
  6  7  1  6  0  0  0
  6 11  1  0  0  0  0
  8 12  1  0  0  0  0
  9 10  1  1  0  0  0
  9 14  1  0  0  0  0
 11 16  1  0  0  0  0
 12 13  1  1  0  0  0
 12 17  1  0  0  0  0
 14 15  1  6  0  0  0
 14 18  1  0  0  0  0
 15 31  1  0  0  0  0
 16 20  1  0  0  0  0
 17  2  1  6  0  0  0
 17 22  1  0  0  0  0
 18 19  1  6  0  0  0
 18 24  1  0  0  0  0
 18 30  1  0  0  0  0
 20 21  1  0  0  0  0
 20 26  1  1  0  0  0
 22 23  1  1  0  0  0
 22 28  1  0  0  0  0
 24 25  1  0  0  0  0
 26 27  1  0  0  0  0
 28 29  1  6  0  0  0
M  END
>  <CHROM.1>
-145.10301631,-147.45860562,-62.90604577,-81.95034898,-174.43326771,170.48587166
-1.96103181,-5.23369451,33.29546767,1.88874675,0.27112449,1.25510289

>  <Name>
2et3_lig

>  <RI>
3.86414e+07

>  <Rbt.Current_Directory>
/home/itssahil/PROJECTS/Mol_Feturizer/New_Systems/rnas/2et3

>  <Rbt.Executable>
rbdock ($Id: //depot/dev/client3/rdock/2013.1/src/exe/rbdock.cxx#4 $)

>  <Rbt.Library>
libRbt.so (2013.1, Build901 2013/11/27)

>  <Rbt.Parameter_File>
/export/apps/rDock/src/rDock_2013.1_src/data/scripts/dock_solv.prm

>  <Rbt.Receptor>
prm/pocket_docking_8.prm

>  <SCORE>
-16.5488

>  <SCORE.INTER>
-13.7411

>  <SCORE.INTER.CONST>
1

>  <SCORE.INTER.POLAR>
-1.67294

>  <SCORE.INTER.ROT>
6

>  <SCORE.INTER.SOLV>
14.2908

>  <SCORE.INTER.VDW>
-15.9479

>  <SCORE.INTER.norm>
-0.443261

>  <SCORE.INTRA>
-2.80771

>  <SCORE.INTRA.DIHEDRAL>
-10.8542

>  <SCORE.INTRA.DIHEDRAL.0>
22.2484

>  <SCORE.INTRA.POLAR>
0

>  <SCORE.INTRA.POLAR.0>
0

>  <SCORE.INTRA.REPUL>
0

>  <SCORE.INTRA.REPUL.0>
0

>  <SCORE.INTRA.SOLV>
1.25791

>  <SCORE.INTRA.SOLV.lig_0>
-75.7198

>  <SCORE.INTRA.VDW>
1.99044

>  <SCORE.INTRA.VDW.0>
-3.34171

>  <SCORE.INTRA.norm>
-0.0905711

>  <SCORE.RESTR>
0

>  <SCORE.RESTR.CAVITY>
0

>  <SCORE.RESTR.norm>
0

>  <SCORE.SYSTEM>
0

>  <SCORE.SYSTEM.CONST>
0

>  <SCORE.SYSTEM.DIHEDRAL>
0

>  <SCORE.SYSTEM.SOLV>
0

>  <SCORE.SYSTEM.norm>
0

>  <SCORE.heavy>
31

>  <SCORE.norm>
-0.533833

>  <RMSD>
9.114

$$$$
2et3_lig
 OpenBabel11021811423D
libRbt.so/2013.1/901 2013/11/27
 31 33  0  0  0  0  0  0  0  0999 V2000
   -0.3943   -8.4395   31.4434 C   0  0  2  0  0  0  0  0  0  0  0  0
   -1.3822   -8.2678   30.3942 O   0  0  0  0  0  0  0  0  0  0  0  0
   -0.7207   -6.5472   26.5331 C   0  0  2  0  0  0  0  0  0  0  0  0
   -0.4802   -5.5566   25.5299 N   0  0  0  0  0  0  0  0  0  0  0  0
    2.9850   -6.5685   27.4014 C   0  0  2  0  0  0  0  0  0  0  0  0
   -0.7283   -9.6853   32.2709 C   0  0  2  0  0  0  0  0  0  0  0  0
   -0.8018  -10.8109   31.3912 N   0  0  0  0  0  0  0  0  0  0  0  0
   -2.0691   -6.2377   27.2598 C   0  0  0  0  0  0  0  0  0  0  0  0
    3.9532   -6.5373   26.1984 C   0  0  2  0  0  0  0  0  0  0  0  0
    3.5337   -5.5346   25.3000 O   0  0  0  0  0  0  0  0  0  0  0  0
   -2.0646   -9.4743   33.0616 C   0  0  0  0  0  0  0  0  0  0  0  0
   -2.3374   -7.3175   28.3711 C   0  0  2  0  0  0  0  0  0  0  0  0
   -3.6063   -7.0302   29.0590 N   0  0  0  0  0  0  0  0  0  0  0  0
    3.9437   -7.9712   25.5270 C   0  0  1  0  0  0  0  0  0  0  0  0
    4.8266   -8.0156   24.3156 N   0  0  0  0  0  0  0  0  0  0  0  0
   -1.8761   -8.2488   34.0099 C   0  0  0  0  0  0  0  0  0  0  0  0
   -1.1392   -7.3287   29.3961 C   0  0  2  0  0  0  0  0  0  0  0  0
    4.4140   -9.0933   26.5963 C   0  0  1  0  0  0  0  0  0  0  0  0
    5.7400   -8.8679   27.0280 O   0  0  0  0  0  0  0  0  0  0  0  0
   -1.5017   -6.9776   33.1275 C   0  0  2  0  0  0  0  0  0  0  0  0
   -0.3303   -7.2132   32.2851 O   0  0  0  0  0  0  0  0  0  0  0  0
    0.2055   -7.6411   28.6331 C   0  0  2  0  0  0  0  0  0  0  0  0
    1.3015   -7.6596   29.5420 O   0  0  0  0  0  0  0  0  0  0  0  0
    3.4893   -9.0217   27.8507 C   0  0  0  0  0  0  0  0  0  0  0  0
    3.4138   -7.6164   28.3724 O   0  0  0  0  0  0  0  0  0  0  0  0
   -1.3070   -5.7085   33.9234 C   0  0  0  0  0  0  0  0  0  0  0  0
   -0.2261   -5.8288   34.8662 N   0  0  0  0  0  0  0  0  0  0  0  0
    0.4550   -6.5552   27.5282 C   0  0  1  0  0  0  0  0  0  0  0  0
    1.6668   -6.8582   26.8477 O   0  0  0  0  0  0  0  0  0  0  0  0
    4.4458  -10.5472   26.1056 C   0  0  0  0  0  0  0  0  0  0  0  0
    4.1624   -8.0468   23.0019 C   0  0  0  0  0  0  0  0  0  0  0  0
  1  2  1  6  0  0  0
  1  6  1  0  0  0  0
  1 21  1  0  0  0  0
  3  4  1  6  0  0  0
  3  8  1  0  0  0  0
  3 28  1  0  0  0  0
  5  9  1  0  0  0  0
  5 25  1  0  0  0  0
  5 29  1  6  0  0  0
  6  7  1  6  0  0  0
  6 11  1  0  0  0  0
  8 12  1  0  0  0  0
  9 10  1  6  0  0  0
  9 14  1  0  0  0  0
 11 16  1  0  0  0  0
 12 13  1  1  0  0  0
 12 17  1  0  0  0  0
 14 15  1  6  0  0  0
 14 18  1  0  0  0  0
 15 31  1  0  0  0  0
 16 20  1  0  0  0  0
 17  2  1  1  0  0  0
 17 22  1  0  0  0  0
 18 19  1  1  0  0  0
 18 24  1  0  0  0  0
 18 30  1  0  0  0  0
 20 21  1  0  0  0  0
 20 26  1  1  0  0  0
 22 23  1  1  0  0  0
 22 28  1  0  0  0  0
 24 25  1  0  0  0  0
 26 27  1  0  0  0  0
 28 29  1  6  0  0  0
M  END
>  <CHROM.1>
-169.35663475,-159.05028987,-106.36983789,179.90235627,61.42184229,161.61196659
0.93557024,-7.65184974,28.79500580,-2.30365465,0.41216347,-1.24159198

>  <Name>
2et3_lig

>  <RI>
0

>  <Rbt.Current_Directory>
/home/itssahil/PROJECTS/Mol_Feturizer/New_Systems/rnas/2et3

>  <Rbt.Executable>
rbdock ($Id: //depot/dev/client3/rdock/2013.1/src/exe/rbdock.cxx#4 $)

>  <Rbt.Library>
libRbt.so (2013.1, Build901 2013/11/27)

>  <Rbt.Parameter_File>
/export/apps/rDock/src/rDock_2013.1_src/data/scripts/dock_solv.prm

>  <Rbt.Receptor>
prm/pocket_docking_6.prm

>  <SCORE>
-26.3726

>  <SCORE.INTER>
-18.1621

>  <SCORE.INTER.CONST>
1

>  <SCORE.INTER.POLAR>
-1.57486

>  <SCORE.INTER.ROT>
6

>  <SCORE.INTER.SOLV>
19.1735

>  <SCORE.INTER.VDW>
-20.8497

>  <SCORE.INTER.norm>
-0.585873

>  <SCORE.INTRA>
-8.21051

>  <SCORE.INTRA.DIHEDRAL>
-16.9826

>  <SCORE.INTRA.DIHEDRAL.0>
22.2484

>  <SCORE.INTRA.POLAR>
0

>  <SCORE.INTRA.POLAR.0>
0

>  <SCORE.INTRA.REPUL>
0

>  <SCORE.INTRA.REPUL.0>
0

>  <SCORE.INTRA.SOLV>
-2.96007

>  <SCORE.INTRA.SOLV.lig_0>
-75.7198

>  <SCORE.INTRA.VDW>
1.76084

>  <SCORE.INTRA.VDW.0>
-3.34171

>  <SCORE.INTRA.norm>
-0.264855

>  <SCORE.RESTR>
0

>  <SCORE.RESTR.CAVITY>
0

>  <SCORE.RESTR.norm>
0

>  <SCORE.SYSTEM>
0

>  <SCORE.SYSTEM.CONST>
0

>  <SCORE.SYSTEM.DIHEDRAL>
0

>  <SCORE.SYSTEM.SOLV>
0

>  <SCORE.SYSTEM.norm>
0

>  <SCORE.heavy>
31

>  <SCORE.norm>
-0.850728

>  <RMSD>
9.121

$$$$
2et3_lig
 OpenBabel11021811423D
libRbt.so/2013.1/901 2013/11/27
 31 33  0  0  0  0  0  0  0  0999 V2000
   -0.2648   -8.1651   31.5873 C   0  0  2  0  0  0  0  0  0  0  0  0
   -1.1981   -8.1160   30.4770 O   0  0  0  0  0  0  0  0  0  0  0  0
   -0.6049   -6.5279   26.5486 C   0  0  2  0  0  0  0  0  0  0  0  0
   -0.3682   -5.5739   25.5096 N   0  0  0  0  0  0  0  0  0  0  0  0
    3.1226   -6.6526   27.3266 C   0  0  2  0  0  0  0  0  0  0  0  0
   -0.7371   -9.1981   32.6160 C   0  0  2  0  0  0  0  0  0  0  0  0
   -0.8829  -10.4610   31.9602 N   0  0  0  0  0  0  0  0  0  0  0  0
   -1.9231   -6.1612   27.3036 C   0  0  0  0  0  0  0  0  0  0  0  0
    4.0611   -6.6478   26.0999 C   0  0  2  0  0  0  0  0  0  0  0  0
    3.6545   -5.6260   25.2174 O   0  0  0  0  0  0  0  0  0  0  0  0
   -2.0741   -8.7306   33.2861 C   0  0  0  0  0  0  0  0  0  0  0  0
   -2.1869   -7.2003   28.4541 C   0  0  2  0  0  0  0  0  0  0  0  0
   -3.4273   -6.8590   29.1687 N   0  0  0  0  0  0  0  0  0  0  0  0
    3.9853   -8.0765   25.4218 C   0  0  1  0  0  0  0  0  0  0  0  0
    4.8357   -8.1443   24.1885 N   0  0  0  0  0  0  0  0  0  0  0  0
   -1.8070   -7.3663   33.9961 C   0  0  0  0  0  0  0  0  0  0  0  0
   -0.9600   -7.2135   29.4445 C   0  0  2  0  0  0  0  0  0  0  0  0
    4.4427   -9.2205   26.4733 C   0  0  1  0  0  0  0  0  0  0  0  0
    5.7861   -9.0436   26.8729 O   0  0  0  0  0  0  0  0  0  0  0  0
   -1.2904   -6.3223   32.9108 C   0  0  2  0  0  0  0  0  0  0  0  0
   -0.1181   -6.8102   32.1864 O   0  0  0  0  0  0  0  0  0  0  0  0
    0.3533   -7.5841   28.6534 C   0  0  2  0  0  0  0  0  0  0  0  0
    1.4745   -7.6053   29.5311 O   0  0  0  0  0  0  0  0  0  0  0  0
    3.5525   -9.1244   27.7508 C   0  0  0  0  0  0  0  0  0  0  0  0
    3.5388   -7.7205   28.2813 O   0  0  0  0  0  0  0  0  0  0  0  0
   -1.0082   -4.9450   33.4634 C   0  0  0  0  0  0  0  0  0  0  0  0
   -0.6577   -4.0130   32.4241 N   0  0  0  0  0  0  0  0  0  0  0  0
    0.5986   -6.5381   27.5098 C   0  0  1  0  0  0  0  0  0  0  0  0
    1.7818   -6.8933   26.8046 O   0  0  0  0  0  0  0  0  0  0  0  0
    4.4118  -10.6717   25.9746 C   0  0  0  0  0  0  0  0  0  0  0  0
    4.1513   -8.0011   22.8927 C   0  0  0  0  0  0  0  0  0  0  0  0
  1  2  1  6  0  0  0
  1  6  1  0  0  0  0
  1 21  1  0  0  0  0
  3  4  1  6  0  0  0
  3  8  1  0  0  0  0
  3 28  1  0  0  0  0
  5  9  1  0  0  0  0
  5 25  1  0  0  0  0
  5 29  1  6  0  0  0
  6  7  1  6  0  0  0
  6 11  1  0  0  0  0
  8 12  1  0  0  0  0
  9 10  1  6  0  0  0
  9 14  1  0  0  0  0
 11 16  1  0  0  0  0
 12 13  1  1  0  0  0
 12 17  1  0  0  0  0
 14 15  1  6  0  0  0
 14 18  1  0  0  0  0
 15 31  1  0  0  0  0
 16 20  1  0  0  0  0
 17  2  1  1  0  0  0
 17 22  1  0  0  0  0
 18 19  1  1  0  0  0
 18 24  1  0  0  0  0
 18 30  1  0  0  0  0
 20 21  1  0  0  0  0
 20 26  1  1  0  0  0
 22 23  1  1  0  0  0
 22 28  1  0  0  0  0
 24 25  1  0  0  0  0
 26 27  1  0  0  0  0
 28 29  1  6  0  0  0
M  END
>  <CHROM.1>
178.67155080,-158.27571141,-100.06074210,-172.62195164,-174.93942659,163.16941373
1.02225423,-7.46175755,28.70206764,-2.41257630,0.56767339,-1.14933842

>  <Name>
2et3_lig

>  <RI>
0

>  <Rbt.Current_Directory>
/home/itssahil/PROJECTS/Mol_Feturizer/New_Systems/rnas/2et3

>  <Rbt.Executable>
rbdock ($Id: //depot/dev/client3/rdock/2013.1/src/exe/rbdock.cxx#4 $)

>  <Rbt.Library>
libRbt.so (2013.1, Build901 2013/11/27)

>  <Rbt.Parameter_File>
/export/apps/rDock/src/rDock_2013.1_src/data/scripts/dock_solv.prm

>  <Rbt.Receptor>
prm/pocket_docking_7.prm

>  <SCORE>
-25.2412

>  <SCORE.INTER>
-15.9649

>  <SCORE.INTER.CONST>
1

>  <SCORE.INTER.POLAR>
-0.938083

>  <SCORE.INTER.ROT>
6

>  <SCORE.INTER.SOLV>
17.4365

>  <SCORE.INTER.VDW>
-20.9285

>  <SCORE.INTER.norm>
-0.514997

>  <SCORE.INTRA>
-9.27625

>  <SCORE.INTRA.DIHEDRAL>
-17.4123

>  <SCORE.INTRA.DIHEDRAL.0>
22.2484

>  <SCORE.INTRA.POLAR>
0

>  <SCORE.INTRA.POLAR.0>
0

>  <SCORE.INTRA.REPUL>
0

>  <SCORE.INTRA.REPUL.0>
0

>  <SCORE.INTRA.SOLV>
-3.60195

>  <SCORE.INTRA.SOLV.lig_0>
-75.7198

>  <SCORE.INTRA.VDW>
1.23089

>  <SCORE.INTRA.VDW.0>
-3.34171

>  <SCORE.INTRA.norm>
-0.299234

>  <SCORE.RESTR>
0

>  <SCORE.RESTR.CAVITY>
0

>  <SCORE.RESTR.norm>
0

>  <SCORE.SYSTEM>
0

>  <SCORE.SYSTEM.CONST>
0

>  <SCORE.SYSTEM.DIHEDRAL>
0

>  <SCORE.SYSTEM.SOLV>
0

>  <SCORE.SYSTEM.norm>
0

>  <SCORE.heavy>
31

>  <SCORE.norm>
-0.814231

>  <RMSD>
9.131

$$$$
2et3_lig
 OpenBabel11021811423D
libRbt.so/2013.1/901 2013/11/27
 31 33  0  0  0  0  0  0  0  0999 V2000
    2.6587   -0.2624   34.8973 C   0  0  2  0  0  0  0  0  0  0  0  0
    2.9348   -1.5880   35.4197 O   0  0  0  0  0  0  0  0  0  0  0  0
    0.9808   -5.3286   34.7157 C   0  0  2  0  0  0  0  0  0  0  0  0
   -0.0616   -6.3058   34.6522 N   0  0  0  0  0  0  0  0  0  0  0  0
   -0.4503   -5.6501   32.0645 C   0  0  2  0  0  0  0  0  0  0  0  0
    3.8826    0.6382   35.0959 C   0  0  2  0  0  0  0  0  0  0  0  0
    5.0100    0.0205   34.4685 N   0  0  0  0  0  0  0  0  0  0  0  0
    1.1645   -4.8566   36.1941 C   0  0  0  0  0  0  0  0  0  0  0  0
   -0.2419   -5.8578   30.5482 C   0  0  2  0  0  0  0  0  0  0  0  0
    1.0980   -6.2321   30.3180 O   0  0  0  0  0  0  0  0  0  0  0  0
    4.1313    0.8940   36.6217 C   0  0  0  0  0  0  0  0  0  0  0  0
    2.3034   -3.7750   36.2722 C   0  0  2  0  0  0  0  0  0  0  0  0
    2.4800   -3.3267   37.6627 N   0  0  0  0  0  0  0  0  0  0  0  0
   -0.6094   -4.5034   29.8150 C   0  0  1  0  0  0  0  0  0  0  0  0
   -0.3891   -4.6035   28.3351 N   0  0  0  0  0  0  0  0  0  0  0  0
    2.8641    1.5930   37.2069 C   0  0  0  0  0  0  0  0  0  0  0  0
    1.9402   -2.5581   35.3373 C   0  0  2  0  0  0  0  0  0  0  0  0
   -2.1487   -4.1015   30.1197 C   0  0  1  0  0  0  0  0  0  0  0  0
   -3.0423   -5.0756   29.6215 O   0  0  0  0  0  0  0  0  0  0  0  0
    1.6053    0.6498   36.9607 C   0  0  2  0  0  0  0  0  0  0  0  0
    1.4441    0.2974   35.5511 O   0  0  0  0  0  0  0  0  0  0  0  0
    1.7594   -3.0664   33.8552 C   0  0  2  0  0  0  0  0  0  0  0  0
    1.4342   -1.9813   32.9923 O   0  0  0  0  0  0  0  0  0  0  0  0
   -2.3569   -4.0136   31.6632 C   0  0  0  0  0  0  0  0  0  0  0  0
   -1.8649   -5.2623   32.3351 O   0  0  0  0  0  0  0  0  0  0  0  0
    0.3055    1.2013   37.4975 C   0  0  0  0  0  0  0  0  0  0  0  0
   -0.7513    0.2254   37.4469 N   0  0  0  0  0  0  0  0  0  0  0  0
    0.6213   -4.1451   33.7977 C   0  0  1  0  0  0  0  0  0  0  0  0
    0.4788   -4.5956   32.4560 O   0  0  0  0  0  0  0  0  0  0  0  0
   -2.6616   -2.7988   29.4910 C   0  0  0  0  0  0  0  0  0  0  0  0
   -1.0579   -5.7099   27.6303 C   0  0  0  0  0  0  0  0  0  0  0  0
  1  2  1  1  0  0  0
  1  6  1  0  0  0  0
  1 21  1  0  0  0  0
  3  4  1  1  0  0  0
  3  8  1  0  0  0  0
  3 28  1  0  0  0  0
  5  9  1  0  0  0  0
  5 25  1  0  0  0  0
  5 29  1  6  0  0  0
  6  7  1  1  0  0  0
  6 11  1  0  0  0  0
  8 12  1  0  0  0  0
  9 10  1  1  0  0  0
  9 14  1  0  0  0  0
 11 16  1  0  0  0  0
 12 13  1  1  0  0  0
 12 17  1  0  0  0  0
 14 15  1  6  0  0  0
 14 18  1  0  0  0  0
 15 31  1  0  0  0  0
 16 20  1  0  0  0  0
 17  2  1  6  0  0  0
 17 22  1  0  0  0  0
 18 19  1  6  0  0  0
 18 24  1  0  0  0  0
 18 30  1  0  0  0  0
 20 21  1  0  0  0  0
 20 26  1  6  0  0  0
 22 23  1  6  0  0  0
 22 28  1  0  0  0  0
 24 25  1  0  0  0  0
 26 27  1  0  0  0  0
 28 29  1  6  0  0  0
M  END
>  <CHROM.1>
179.80661526,-177.81178596,54.38913158,-165.59061362,-170.52097768,56.58289801
0.73120488,-2.92060384,33.53674527,0.39291943,-1.10492717,-0.23165812

>  <Name>
2et3_lig

>  <RI>
0

>  <Rbt.Current_Directory>
/home/itssahil/PROJECTS/Mol_Feturizer/New_Systems/rnas/2et3

>  <Rbt.Executable>
rbdock ($Id: //depot/dev/client3/rdock/2013.1/src/exe/rbdock.cxx#4 $)

>  <Rbt.Library>
libRbt.so (2013.1, Build901 2013/11/27)

>  <Rbt.Parameter_File>
/export/apps/rDock/src/rDock_2013.1_src/data/scripts/dock_solv.prm

>  <Rbt.Receptor>
prm/blind_docking_40.prm

>  <SCORE>
2.16132

>  <SCORE.INTER>
3.02345

>  <SCORE.INTER.CONST>
1

>  <SCORE.INTER.POLAR>
-1.38609

>  <SCORE.INTER.ROT>
6

>  <SCORE.INTER.SOLV>
17.8374

>  <SCORE.INTER.VDW>
-6.90988

>  <SCORE.INTER.norm>
0.0975305

>  <SCORE.INTRA>
-9.04767

>  <SCORE.INTRA.DIHEDRAL>
-20.6723

>  <SCORE.INTRA.DIHEDRAL.0>
22.2484

>  <SCORE.INTRA.POLAR>
0

>  <SCORE.INTRA.POLAR.0>
0

>  <SCORE.INTRA.REPUL>
0

>  <SCORE.INTRA.REPUL.0>
0

>  <SCORE.INTRA.SOLV>
-2.07858

>  <SCORE.INTRA.SOLV.lig_0>
-75.7198

>  <SCORE.INTRA.VDW>
2.32779

>  <SCORE.INTRA.VDW.0>
-3.34171

>  <SCORE.INTRA.norm>
-0.29186

>  <SCORE.RESTR>
8.18554

>  <SCORE.RESTR.CAVITY>
8.18554

>  <SCORE.RESTR.norm>
0.26405

>  <SCORE.SYSTEM>
0

>  <SCORE.SYSTEM.CONST>
0

>  <SCORE.SYSTEM.DIHEDRAL>
0

>  <SCORE.SYSTEM.SOLV>
0

>  <SCORE.SYSTEM.norm>
0

>  <SCORE.heavy>
31

>  <SCORE.norm>
0.0697199

>  <RMSD>
9.143

$$$$
2et3_lig
 OpenBabel11021811423D
libRbt.so/2013.1/901 2013/11/27
 31 33  0  0  0  0  0  0  0  0999 V2000
   -4.0053   -2.2388   34.8745 C   0  0  2  0  0  0  0  0  0  0  0  0
   -2.6002   -1.8834   34.9481 O   0  0  0  0  0  0  0  0  0  0  0  0
    0.8550   -4.0618   33.6743 C   0  0  2  0  0  0  0  0  0  0  0  0
    1.8205   -5.1134   33.5878 N   0  0  0  0  0  0  0  0  0  0  0  0
   -1.2565   -6.2711   31.5085 C   0  0  2  0  0  0  0  0  0  0  0  0
   -4.8593   -1.0935   35.4287 C   0  0  2  0  0  0  0  0  0  0  0  0
   -4.5518    0.0986   34.7003 N   0  0  0  0  0  0  0  0  0  0  0  0
    0.8361   -3.4888   35.1280 C   0  0  0  0  0  0  0  0  0  0  0  0
   -0.6002   -6.7398   30.1912 C   0  0  2  0  0  0  0  0  0  0  0  0
    0.7477   -7.0681   30.4436 O   0  0  0  0  0  0  0  0  0  0  0  0
   -4.6091   -0.9192   36.9657 C   0  0  0  0  0  0  0  0  0  0  0  0
   -0.2294   -2.3371   35.2348 C   0  0  2  0  0  0  0  0  0  0  0  0
   -0.2515   -1.7943   36.6024 N   0  0  0  0  0  0  0  0  0  0  0  0
   -0.7331   -5.5672   29.1355 C   0  0  1  0  0  0  0  0  0  0  0  0
   -0.0766   -5.9229   27.8350 N   0  0  0  0  0  0  0  0  0  0  0  0
   -4.9991   -2.2552   37.6728 C   0  0  0  0  0  0  0  0  0  0  0  0
   -1.6495   -2.8935   34.8342 C   0  0  2  0  0  0  0  0  0  0  0  0
   -2.2937   -5.2103   28.8886 C   0  0  1  0  0  0  0  0  0  0  0  0
   -2.9930   -6.3113   28.3462 O   0  0  0  0  0  0  0  0  0  0  0  0
   -4.1186   -3.4304   37.0577 C   0  0  2  0  0  0  0  0  0  0  0  0
   -4.2445   -3.5144   35.6037 O   0  0  0  0  0  0  0  0  0  0  0  0
   -1.5973   -3.4657   33.3653 C   0  0  2  0  0  0  0  0  0  0  0  0
   -2.8722   -3.9708   32.9816 O   0  0  0  0  0  0  0  0  0  0  0  0
   -2.9577   -4.8541   30.2545 C   0  0  0  0  0  0  0  0  0  0  0  0
   -2.6879   -5.9266   31.2692 O   0  0  0  0  0  0  0  0  0  0  0  0
   -4.3838   -4.7861   37.6689 C   0  0  0  0  0  0  0  0  0  0  0  0
   -5.7292   -5.2321   37.4184 N   0  0  0  0  0  0  0  0  0  0  0  0
   -0.5284   -4.6112   33.2782 C   0  0  1  0  0  0  0  0  0  0  0  0
   -0.4914   -5.1086   31.9460 O   0  0  0  0  0  0  0  0  0  0  0  0
   -2.5965   -4.0780   27.8977 C   0  0  0  0  0  0  0  0  0  0  0  0
    1.3948   -5.9758   27.8185 C   0  0  0  0  0  0  0  0  0  0  0  0
  1  2  1  1  0  0  0
  1  6  1  0  0  0  0
  1 21  1  0  0  0  0
  3  4  1  1  0  0  0
  3  8  1  0  0  0  0
  3 28  1  0  0  0  0
  5  9  1  0  0  0  0
  5 25  1  0  0  0  0
  5 29  1  6  0  0  0
  6  7  1  6  0  0  0
  6 11  1  0  0  0  0
  8 12  1  0  0  0  0
  9 10  1  1  0  0  0
  9 14  1  0  0  0  0
 11 16  1  0  0  0  0
 12 13  1  1  0  0  0
 12 17  1  0  0  0  0
 14 15  1  6  0  0  0
 14 18  1  0  0  0  0
 15 31  1  0  0  0  0
 16 20  1  0  0  0  0
 17  2  1  6  0  0  0
 17 22  1  0  0  0  0
 18 19  1  6  0  0  0
 18 24  1  0  0  0  0
 18 30  1  0  0  0  0
 20 21  1  0  0  0  0
 20 26  1  1  0  0  0
 22 23  1  1  0  0  0
 22 28  1  0  0  0  0
 24 25  1  0  0  0  0
 26 27  1  0  0  0  0
 28 29  1  6  0  0  0
M  END
>  <CHROM.1>
163.18664445,-161.92931902,-70.99836841,-168.42404334,63.87081924,145.08581605
-2.01335109,-4.09322815,33.07166530,1.95653147,-0.15340166,1.19105781

>  <Name>
2et3_lig

>  <RI>
3.86414e+07

>  <Rbt.Current_Directory>
/home/itssahil/PROJECTS/Mol_Feturizer/New_Systems/rnas/2et3

>  <Rbt.Executable>
rbdock ($Id: //depot/dev/client3/rdock/2013.1/src/exe/rbdock.cxx#4 $)

>  <Rbt.Library>
libRbt.so (2013.1, Build901 2013/11/27)

>  <Rbt.Parameter_File>
/export/apps/rDock/src/rDock_2013.1_src/data/scripts/dock_solv.prm

>  <Rbt.Receptor>
prm/pocket_docking_8.prm

>  <SCORE>
-16.3605

>  <SCORE.INTER>
-9.36263

>  <SCORE.INTER.CONST>
1

>  <SCORE.INTER.POLAR>
-1.64053

>  <SCORE.INTER.ROT>
6

>  <SCORE.INTER.SOLV>
18.5992

>  <SCORE.INTER.VDW>
-14.573

>  <SCORE.INTER.norm>
-0.30202

>  <SCORE.INTRA>
-6.99785

>  <SCORE.INTRA.DIHEDRAL>
-13.9799

>  <SCORE.INTRA.DIHEDRAL.0>
22.2484

>  <SCORE.INTRA.POLAR>
0

>  <SCORE.INTRA.POLAR.0>
0

>  <SCORE.INTRA.REPUL>
0

>  <SCORE.INTRA.REPUL.0>
0

>  <SCORE.INTRA.SOLV>
-2.40846

>  <SCORE.INTRA.SOLV.lig_0>
-75.7198

>  <SCORE.INTRA.VDW>
1.19632

>  <SCORE.INTRA.VDW.0>
-3.34171

>  <SCORE.INTRA.norm>
-0.225737

>  <SCORE.RESTR>
0

>  <SCORE.RESTR.CAVITY>
0

>  <SCORE.RESTR.norm>
0

>  <SCORE.SYSTEM>
0

>  <SCORE.SYSTEM.CONST>
0

>  <SCORE.SYSTEM.DIHEDRAL>
0

>  <SCORE.SYSTEM.SOLV>
0

>  <SCORE.SYSTEM.norm>
0

>  <SCORE.heavy>
31

>  <SCORE.norm>
-0.527758

>  <RMSD>
9.147

$$$$
2et3_lig
 OpenBabel11021811423D
libRbt.so/2013.1/901 2013/11/27
 31 33  0  0  0  0  0  0  0  0999 V2000
   -1.8446   -6.6093   30.5047 C   0  0  2  0  0  0  0  0  0  0  0  0
   -0.8287   -5.5930   30.3014 O   0  0  0  0  0  0  0  0  0  0  0  0
   -0.0324   -6.1456   26.1341 C   0  0  2  0  0  0  0  0  0  0  0  0
    0.4598   -5.8844   24.8168 N   0  0  0  0  0  0  0  0  0  0  0  0
    3.3242   -7.5145   27.3593 C   0  0  2  0  0  0  0  0  0  0  0  0
   -2.2162   -6.6810   31.9897 C   0  0  2  0  0  0  0  0  0  0  0  0
   -2.6393   -5.3831   32.4171 N   0  0  0  0  0  0  0  0  0  0  0  0
   -1.0259   -5.0147   26.5539 C   0  0  0  0  0  0  0  0  0  0  0  0
    4.3875   -7.3167   26.2566 C   0  0  2  0  0  0  0  0  0  0  0  0
    4.2885   -6.0019   25.7567 O   0  0  0  0  0  0  0  0  0  0  0  0
   -1.0037   -7.2064   32.8319 C   0  0  0  0  0  0  0  0  0  0  0  0
   -1.5658   -5.2892   28.0052 C   0  0  2  0  0  0  0  0  0  0  0  0
   -2.5017   -4.2264   28.4055 N   0  0  0  0  0  0  0  0  0  0  0  0
    4.1275   -8.3969   25.1285 C   0  0  1  0  0  0  0  0  0  0  0  0
    5.0922   -8.2447   23.9905 N   0  0  0  0  0  0  0  0  0  0  0  0
   -0.6368   -8.6320   32.3126 C   0  0  0  0  0  0  0  0  0  0  0  0
   -0.3547   -5.3720   29.0116 C   0  0  2  0  0  0  0  0  0  0  0  0
    4.2330   -9.8899   25.7479 C   0  0  1  0  0  0  0  0  0  0  0  0
    5.5278  -10.1474   26.2506 O   0  0  0  0  0  0  0  0  0  0  0  0
   -0.2844   -8.5325   30.7633 C   0  0  2  0  0  0  0  0  0  0  0  0
   -1.3617   -7.9193   29.9881 O   0  0  0  0  0  0  0  0  0  0  0  0
    0.6294   -6.5190   28.5603 C   0  0  2  0  0  0  0  0  0  0  0  0
    1.7300   -6.6135   29.4590 O   0  0  0  0  0  0  0  0  0  0  0  0
    3.2295  -10.0216   26.9350 C   0  0  0  0  0  0  0  0  0  0  0  0
    3.4153   -8.8970   27.9116 O   0  0  0  0  0  0  0  0  0  0  0  0
    0.1086   -9.8478   30.1331 C   0  0  0  0  0  0  0  0  0  0  0  0
   -0.9477  -10.8215   30.2241 N   0  0  0  0  0  0  0  0  0  0  0  0
    1.1557   -6.2289   27.1109 C   0  0  1  0  0  0  0  0  0  0  0  0
    2.0347   -7.2767   26.7199 O   0  0  0  0  0  0  0  0  0  0  0  0
    3.9911  -11.0585   24.7828 C   0  0  0  0  0  0  0  0  0  0  0  0
    4.5218   -8.1328   22.6376 C   0  0  0  0  0  0  0  0  0  0  0  0
  1  2  1  1  0  0  0
  1  6  1  0  0  0  0
  1 21  1  0  0  0  0
  3  4  1  6  0  0  0
  3  8  1  0  0  0  0
  3 28  1  0  0  0  0
  5  9  1  0  0  0  0
  5 25  1  0  0  0  0
  5 29  1  6  0  0  0
  6  7  1  1  0  0  0
  6 11  1  0  0  0  0
  8 12  1  0  0  0  0
  9 10  1  6  0  0  0
  9 14  1  0  0  0  0
 11 16  1  0  0  0  0
 12 13  1  1  0  0  0
 12 17  1  0  0  0  0
 14 15  1  6  0  0  0
 14 18  1  0  0  0  0
 15 31  1  0  0  0  0
 16 20  1  0  0  0  0
 17  2  1  1  0  0  0
 17 22  1  0  0  0  0
 18 19  1  1  0  0  0
 18 24  1  0  0  0  0
 18 30  1  0  0  0  0
 20 21  1  0  0  0  0
 20 26  1  6  0  0  0
 22 23  1  1  0  0  0
 22 28  1  0  0  0  0
 24 25  1  0  0  0  0
 26 27  1  0  0  0  0
 28 29  1  6  0  0  0
M  END
>  <CHROM.1>
-179.96810793,-117.92735095,-127.09588168,46.00776387,60.40608876,173.19832018
1.17270597,-7.48204791,28.01792822,2.81093552,-0.75257445,2.34245148

>  <Name>
2et3_lig

>  <RI>
0

>  <Rbt.Current_Directory>
/home/itssahil/PROJECTS/Mol_Feturizer/New_Systems/rnas/2et3

>  <Rbt.Executable>
rbdock ($Id: //depot/dev/client3/rdock/2013.1/src/exe/rbdock.cxx#4 $)

>  <Rbt.Library>
libRbt.so (2013.1, Build901 2013/11/27)

>  <Rbt.Parameter_File>
/export/apps/rDock/src/rDock_2013.1_src/data/scripts/dock_solv.prm

>  <Rbt.Receptor>
prm/pocket_docking_6.prm

>  <SCORE>
-27.77

>  <SCORE.INTER>
-21.1864

>  <SCORE.INTER.CONST>
1

>  <SCORE.INTER.POLAR>
-0.938083

>  <SCORE.INTER.ROT>
6

>  <SCORE.INTER.SOLV>
17.9653

>  <SCORE.INTER.VDW>
-24.5857

>  <SCORE.INTER.norm>
-0.683431

>  <SCORE.INTRA>
-6.58365

>  <SCORE.INTRA.DIHEDRAL>
-12.5996

>  <SCORE.INTRA.DIHEDRAL.0>
22.2484

>  <SCORE.INTRA.POLAR>
0

>  <SCORE.INTRA.POLAR.0>
0

>  <SCORE.INTRA.REPUL>
0

>  <SCORE.INTRA.REPUL.0>
0

>  <SCORE.INTRA.SOLV>
-1.59407

>  <SCORE.INTRA.SOLV.lig_0>
-75.7198

>  <SCORE.INTRA.VDW>
0.513205

>  <SCORE.INTRA.VDW.0>
-3.34171

>  <SCORE.INTRA.norm>
-0.212376

>  <SCORE.RESTR>
0

>  <SCORE.RESTR.CAVITY>
0

>  <SCORE.RESTR.norm>
0

>  <SCORE.SYSTEM>
0

>  <SCORE.SYSTEM.CONST>
0

>  <SCORE.SYSTEM.DIHEDRAL>
0

>  <SCORE.SYSTEM.SOLV>
0

>  <SCORE.SYSTEM.norm>
0

>  <SCORE.heavy>
31

>  <SCORE.norm>
-0.895807

>  <RMSD>
9.190

$$$$
2et3_lig
 OpenBabel11021811423D
libRbt.so/2013.1/901 2013/11/27
 31 33  0  0  0  0  0  0  0  0999 V2000
   -0.2231   -8.0827   31.4997 C   0  0  2  0  0  0  0  0  0  0  0  0
   -1.1575   -8.0403   30.3901 O   0  0  0  0  0  0  0  0  0  0  0  0
   -0.5417   -6.5400   26.4307 C   0  0  2  0  0  0  0  0  0  0  0  0
   -0.2918   -5.6105   25.3728 N   0  0  0  0  0  0  0  0  0  0  0  0
    3.1771   -6.8156   27.2662 C   0  0  2  0  0  0  0  0  0  0  0  0
   -0.7058   -9.0935   32.5454 C   0  0  2  0  0  0  0  0  0  0  0  0
   -0.8677  -10.3649   31.9101 N   0  0  0  0  0  0  0  0  0  0  0  0
   -1.8550   -6.1401   27.1775 C   0  0  0  0  0  0  0  0  0  0  0  0
    4.1467   -6.7494   26.0657 C   0  0  2  0  0  0  0  0  0  0  0  0
    3.8182   -5.6296   25.2741 O   0  0  0  0  0  0  0  0  0  0  0  0
   -2.0361   -8.5995   33.2100 C   0  0  0  0  0  0  0  0  0  0  0  0
   -2.1332   -7.1522   28.3486 C   0  0  2  0  0  0  0  0  0  0  0  0
   -3.3690   -6.7796   29.0555 N   0  0  0  0  0  0  0  0  0  0  0  0
    4.0132   -8.1031   25.2553 C   0  0  1  0  0  0  0  0  0  0  0  0
    4.8912   -8.1036   24.0396 N   0  0  0  0  0  0  0  0  0  0  0  0
   -1.7516   -7.2273   33.8977 C   0  0  0  0  0  0  0  0  0  0  0  0
   -0.9068   -7.1621   29.3397 C   0  0  2  0  0  0  0  0  0  0  0  0
    4.3815   -9.3628   26.2047 C   0  0  1  0  0  0  0  0  0  0  0  0
    5.7213   -9.2979   26.6477 O   0  0  0  0  0  0  0  0  0  0  0  0
   -1.2245   -6.2069   32.7951 C   0  0  2  0  0  0  0  0  0  0  0  0
   -0.0592   -6.7203   32.0768 O   0  0  0  0  0  0  0  0  0  0  0  0
    0.4014   -7.5665   28.5570 C   0  0  2  0  0  0  0  0  0  0  0  0
    1.5220   -7.5853   29.4354 O   0  0  0  0  0  0  0  0  0  0  0  0
    3.4642   -9.3360   27.4662 C   0  0  0  0  0  0  0  0  0  0  0  0
    3.5107   -7.9884   28.1254 O   0  0  0  0  0  0  0  0  0  0  0  0
   -0.9249   -4.8245   33.3252 C   0  0  0  0  0  0  0  0  0  0  0  0
   -0.5554   -3.9160   32.2718 N   0  0  0  0  0  0  0  0  0  0  0  0
    0.6613   -6.5473   27.3926 C   0  0  1  0  0  0  0  0  0  0  0  0
    1.8397   -6.9328   26.6953 O   0  0  0  0  0  0  0  0  0  0  0  0
    4.2870  -10.7578   25.5718 C   0  0  0  0  0  0  0  0  0  0  0  0
    4.2235   -8.0256   22.7295 C   0  0  0  0  0  0  0  0  0  0  0  0
  1  2  1  6  0  0  0
  1  6  1  0  0  0  0
  1 21  1  0  0  0  0
  3  4  1  6  0  0  0
  3  8  1  0  0  0  0
  3 28  1  0  0  0  0
  5  9  1  0  0  0  0
  5 25  1  0  0  0  0
  5 29  1  6  0  0  0
  6  7  1  6  0  0  0
  6 11  1  0  0  0  0
  8 12  1  0  0  0  0
  9 10  1  6  0  0  0
  9 14  1  0  0  0  0
 11 16  1  0  0  0  0
 12 13  1  1  0  0  0
 12 17  1  0  0  0  0
 14 15  1  6  0  0  0
 14 18  1  0  0  0  0
 15 31  1  0  0  0  0
 16 20  1  0  0  0  0
 17  2  1  1  0  0  0
 17 22  1  0  0  0  0
 18 19  1  1  0  0  0
 18 24  1  0  0  0  0
 18 30  1  0  0  0  0
 20 21  1  0  0  0  0
 20 26  1  1  0  0  0
 22 23  1  1  0  0  0
 22 28  1  0  0  0  0
 24 25  1  0  0  0  0
 26 27  1  0  0  0  0
 28 29  1  6  0  0  0
M  END
>  <CHROM.1>
178.99551166,-156.61028539,-109.87347886,-172.81607912,-175.37710393,169.14647814
1.06122708,-7.46490361,28.57420482,-2.42947938,0.60932110,-1.13679036

>  <Name>
2et3_lig

>  <RI>
2.5794e+07

>  <Rbt.Current_Directory>
/home/itssahil/PROJECTS/Mol_Feturizer/New_Systems/rnas/2et3

>  <Rbt.Executable>
rbdock ($Id: //depot/dev/client3/rdock/2013.1/src/exe/rbdock.cxx#4 $)

>  <Rbt.Library>
libRbt.so (2013.1, Build901 2013/11/27)

>  <Rbt.Parameter_File>
/export/apps/rDock/src/rDock_2013.1_src/data/scripts/dock_solv.prm

>  <Rbt.Receptor>
prm/pocket_docking_5.prm

>  <SCORE>
-25.4609

>  <SCORE.INTER>
-16.1295

>  <SCORE.INTER.CONST>
1

>  <SCORE.INTER.POLAR>
-0.938083

>  <SCORE.INTER.ROT>
6

>  <SCORE.INTER.SOLV>
18.1688

>  <SCORE.INTER.VDW>
-21.2823

>  <SCORE.INTER.norm>
-0.520308

>  <SCORE.INTRA>
-9.33136

>  <SCORE.INTRA.DIHEDRAL>
-17.6839

>  <SCORE.INTRA.DIHEDRAL.0>
22.2484

>  <SCORE.INTRA.POLAR>
0

>  <SCORE.INTRA.POLAR.0>
0

>  <SCORE.INTRA.REPUL>
0

>  <SCORE.INTRA.REPUL.0>
0

>  <SCORE.INTRA.SOLV>
-3.70835

>  <SCORE.INTRA.SOLV.lig_0>
-75.7198

>  <SCORE.INTRA.VDW>
1.36478

>  <SCORE.INTRA.VDW.0>
-3.34171

>  <SCORE.INTRA.norm>
-0.301012

>  <SCORE.RESTR>
0

>  <SCORE.RESTR.CAVITY>
0

>  <SCORE.RESTR.norm>
0

>  <SCORE.SYSTEM>
0

>  <SCORE.SYSTEM.CONST>
0

>  <SCORE.SYSTEM.DIHEDRAL>
0

>  <SCORE.SYSTEM.SOLV>
0

>  <SCORE.SYSTEM.norm>
0

>  <SCORE.heavy>
31

>  <SCORE.norm>
-0.821319

>  <RMSD>
9.191

$$$$
2et3_lig
 OpenBabel11021811423D
libRbt.so/2013.1/901 2013/11/27
 31 33  0  0  0  0  0  0  0  0999 V2000
   -0.1959   -7.8185   31.4612 C   0  0  2  0  0  0  0  0  0  0  0  0
   -1.1549   -7.8076   30.3720 O   0  0  0  0  0  0  0  0  0  0  0  0
   -0.5168   -6.5544   26.3312 C   0  0  2  0  0  0  0  0  0  0  0  0
   -0.2673   -5.6909   25.2186 N   0  0  0  0  0  0  0  0  0  0  0  0
    3.1962   -6.7309   27.2191 C   0  0  2  0  0  0  0  0  0  0  0  0
   -0.7481   -8.6420   32.6297 C   0  0  2  0  0  0  0  0  0  0  0  0
   -1.0606   -9.9547   32.1551 N   0  0  0  0  0  0  0  0  0  0  0  0
   -1.8424   -6.1247   27.0384 C   0  0  0  0  0  0  0  0  0  0  0  0
    4.1797   -6.7468   26.0282 C   0  0  2  0  0  0  0  0  0  0  0  0
    3.8542   -5.6906   25.1525 O   0  0  0  0  0  0  0  0  0  0  0  0
   -1.9987   -7.9341   33.2545 C   0  0  0  0  0  0  0  0  0  0  0  0
   -2.1203   -7.0637   28.2689 C   0  0  2  0  0  0  0  0  0  0  0  0
   -3.3678   -6.6629   28.9389 N   0  0  0  0  0  0  0  0  0  0  0  0
    4.0641   -8.1573   25.3185 C   0  0  1  0  0  0  0  0  0  0  0  0
    4.9567   -8.2414   24.1164 N   0  0  0  0  0  0  0  0  0  0  0  0
   -1.5522   -6.5288   33.7668 C   0  0  0  0  0  0  0  0  0  0  0  0
   -0.9042   -6.9948   29.2703 C   0  0  2  0  0  0  0  0  0  0  0  0
    4.4283   -9.3411   26.3624 C   0  0  1  0  0  0  0  0  0  0  0  0
    5.7622   -9.2347   26.8149 O   0  0  0  0  0  0  0  0  0  0  0  0
   -0.9567   -5.7073   32.5399 C   0  0  2  0  0  0  0  0  0  0  0  0
    0.1262   -6.4230   31.8672 O   0  0  0  0  0  0  0  0  0  0  0  0
    0.4170   -7.4313   28.5274 C   0  0  2  0  0  0  0  0  0  0  0  0
    1.5286   -7.3797   29.4159 O   0  0  0  0  0  0  0  0  0  0  0  0
    3.4956   -9.2276   27.6078 C   0  0  0  0  0  0  0  0  0  0  0  0
    3.5263   -7.8348   28.1662 O   0  0  0  0  0  0  0  0  0  0  0  0
   -0.4991   -4.3120   32.8942 C   0  0  0  0  0  0  0  0  0  0  0  0
   -1.6026   -3.4645   33.2628 N   0  0  0  0  0  0  0  0  0  0  0  0
    0.6763   -6.4850   27.3030 C   0  0  1  0  0  0  0  0  0  0  0  0
    1.8665   -6.8988   26.6429 O   0  0  0  0  0  0  0  0  0  0  0  0
    4.3497  -10.7795   25.8331 C   0  0  0  0  0  0  0  0  0  0  0  0
    4.3195   -8.1013   22.7963 C   0  0  0  0  0  0  0  0  0  0  0  0
  1  2  1  6  0  0  0
  1  6  1  0  0  0  0
  1 21  1  0  0  0  0
  3  4  1  6  0  0  0
  3  8  1  0  0  0  0
  3 28  1  0  0  0  0
  5  9  1  0  0  0  0
  5 25  1  0  0  0  0
  5 29  1  6  0  0  0
  6  7  1  6  0  0  0
  6 11  1  0  0  0  0
  8 12  1  0  0  0  0
  9 10  1  6  0  0  0
  9 14  1  0  0  0  0
 11 16  1  0  0  0  0
 12 13  1  1  0  0  0
 12 17  1  0  0  0  0
 14 15  1  6  0  0  0
 14 18  1  0  0  0  0
 15 31  1  0  0  0  0
 16 20  1  0  0  0  0
 17  2  1  1  0  0  0
 17 22  1  0  0  0  0
 18 19  1  1  0  0  0
 18 24  1  0  0  0  0
 18 30  1  0  0  0  0
 20 21  1  0  0  0  0
 20 26  1  1  0  0  0
 22 23  1  1  0  0  0
 22 28  1  0  0  0  0
 24 25  1  0  0  0  0
 26 27  1  0  0  0  0
 28 29  1  6  0  0  0
M  END
>  <CHROM.1>
173.23358172,-157.36108600,-102.69119834,-175.92571365,-66.89632320,169.27641760
1.07801074,-7.29511808,28.58104319,-2.40769812,0.58004862,-1.25205397

>  <Name>
2et3_lig

>  <RI>
0

>  <Rbt.Current_Directory>
/home/itssahil/PROJECTS/Mol_Feturizer/New_Systems/rnas/2et3

>  <Rbt.Executable>
rbdock ($Id: //depot/dev/client3/rdock/2013.1/src/exe/rbdock.cxx#4 $)

>  <Rbt.Library>
libRbt.so (2013.1, Build901 2013/11/27)

>  <Rbt.Parameter_File>
/export/apps/rDock/src/rDock_2013.1_src/data/scripts/dock_solv.prm

>  <Rbt.Receptor>
prm/pocket_docking_6.prm

>  <SCORE>
-26.214

>  <SCORE.INTER>
-17.0715

>  <SCORE.INTER.CONST>
1

>  <SCORE.INTER.POLAR>
-0.938083

>  <SCORE.INTER.ROT>
6

>  <SCORE.INTER.SOLV>
16.977

>  <SCORE.INTER.VDW>
-21.5131

>  <SCORE.INTER.norm>
-0.550694

>  <SCORE.INTRA>
-9.14248

>  <SCORE.INTRA.DIHEDRAL>
-17.8657

>  <SCORE.INTRA.DIHEDRAL.0>
22.2484

>  <SCORE.INTRA.POLAR>
0

>  <SCORE.INTRA.POLAR.0>
0

>  <SCORE.INTRA.REPUL>
0

>  <SCORE.INTRA.REPUL.0>
0

>  <SCORE.INTRA.SOLV>
-4.00713

>  <SCORE.INTRA.SOLV.lig_0>
-75.7198

>  <SCORE.INTRA.VDW>
1.79393

>  <SCORE.INTRA.VDW.0>
-3.34171

>  <SCORE.INTRA.norm>
-0.294919

>  <SCORE.RESTR>
0

>  <SCORE.RESTR.CAVITY>
0

>  <SCORE.RESTR.norm>
0

>  <SCORE.SYSTEM>
0

>  <SCORE.SYSTEM.CONST>
0

>  <SCORE.SYSTEM.DIHEDRAL>
0

>  <SCORE.SYSTEM.SOLV>
0

>  <SCORE.SYSTEM.norm>
0

>  <SCORE.heavy>
31

>  <SCORE.norm>
-0.845613

>  <RMSD>
9.202

$$$$
2et3_lig
 OpenBabel11021811423D
libRbt.so/2013.1/901 2013/11/27
 31 33  0  0  0  0  0  0  0  0999 V2000
   -2.8481   -8.0891   32.1569 C   0  0  2  0  0  0  0  0  0  0  0  0
   -2.0025   -8.7044   31.1506 O   0  0  0  0  0  0  0  0  0  0  0  0
   -0.1793   -7.0121   27.6695 C   0  0  2  0  0  0  0  0  0  0  0  0
    0.6228   -6.1449   26.8631 N   0  0  0  0  0  0  0  0  0  0  0  0
    3.1169   -8.5065   28.2789 C   0  0  2  0  0  0  0  0  0  0  0  0
   -2.1282   -8.0902   33.5098 C   0  0  2  0  0  0  0  0  0  0  0  0
   -0.8726   -7.4218   33.3589 N   0  0  0  0  0  0  0  0  0  0  0  0
   -1.2643   -6.1731   28.4184 C   0  0  0  0  0  0  0  0  0  0  0  0
    3.6752   -7.2207   27.6302 C   0  0  2  0  0  0  0  0  0  0  0  0
    3.0020   -6.1062   28.1717 O   0  0  0  0  0  0  0  0  0  0  0  0
   -1.9498   -9.5565   34.0329 C   0  0  0  0  0  0  0  0  0  0  0  0
   -2.1459   -7.1178   29.3147 C   0  0  2  0  0  0  0  0  0  0  0  0
   -3.1693   -6.3321   30.0227 N   0  0  0  0  0  0  0  0  0  0  0  0
    3.4646   -7.3326   26.0650 C   0  0  1  0  0  0  0  0  0  0  0  0
    3.9392   -6.0982   25.3579 N   0  0  0  0  0  0  0  0  0  0  0  0
   -3.3683  -10.1884   34.1920 C   0  0  0  0  0  0  0  0  0  0  0  0
   -1.2242   -7.8831   30.3400 C   0  0  2  0  0  0  0  0  0  0  0  0
    4.2381   -8.6334   25.4875 C   0  0  1  0  0  0  0  0  0  0  0  0
    5.6323   -8.5353   25.6926 O   0  0  0  0  0  0  0  0  0  0  0  0
   -4.1031  -10.1473   32.7802 C   0  0  2  0  0  0  0  0  0  0  0  0
   -4.1560   -8.7971   32.2220 O   0  0  0  0  0  0  0  0  0  0  0  0
   -0.1401   -8.7174   29.5549 C   0  0  2  0  0  0  0  0  0  0  0  0
    0.7017   -9.4204   30.4631 O   0  0  0  0  0  0  0  0  0  0  0  0
    3.7366   -9.9023   26.2437 C   0  0  0  0  0  0  0  0  0  0  0  0
    3.8209   -9.7008   27.7286 O   0  0  0  0  0  0  0  0  0  0  0  0
   -5.4891  -10.7478   32.7872 C   0  0  0  0  0  0  0  0  0  0  0  0
   -6.3893  -10.0063   33.6307 N   0  0  0  0  0  0  0  0  0  0  0  0
    0.7276   -7.7590   28.6657 C   0  0  1  0  0  0  0  0  0  0  0  0
    1.6932   -8.5301   27.9612 O   0  0  0  0  0  0  0  0  0  0  0  0
    4.1216   -8.8956   23.9798 C   0  0  0  0  0  0  0  0  0  0  0  0
    2.9765   -5.4183   24.4753 C   0  0  0  0  0  0  0  0  0  0  0  0
  1  2  1  6  0  0  0
  1  6  1  0  0  0  0
  1 21  1  0  0  0  0
  3  4  1  1  0  0  0
  3  8  1  0  0  0  0
  3 28  1  0  0  0  0
  5  9  1  0  0  0  0
  5 25  1  0  0  0  0
  5 29  1  6  0  0  0
  6  7  1  6  0  0  0
  6 11  1  0  0  0  0
  8 12  1  0  0  0  0
  9 10  1  1  0  0  0
  9 14  1  0  0  0  0
 11 16  1  0  0  0  0
 12 13  1  1  0  0  0
 12 17  1  0  0  0  0
 14 15  1  6  0  0  0
 14 18  1  0  0  0  0
 15 31  1  0  0  0  0
 16 20  1  0  0  0  0
 17  2  1  6  0  0  0
 17 22  1  0  0  0  0
 18 19  1  1  0  0  0
 18 24  1  0  0  0  0
 18 30  1  0  0  0  0
 20 21  1  0  0  0  0
 20 26  1  1  0  0  0
 22 23  1  1  0  0  0
 22 28  1  0  0  0  0
 24 25  1  0  0  0  0
 26 27  1  0  0  0  0
 28 29  1  6  0  0  0
M  END
>  <CHROM.1>
-96.23831128,-79.42356309,-125.42230608,-71.82520433,64.11366081,131.40801391
0.16991553,-8.17715037,29.27488386,2.55048883,-0.50412214,2.40201762

>  <Name>
2et3_lig

>  <RI>
3.50789e+07

>  <Rbt.Current_Directory>
/home/itssahil/PROJECTS/Mol_Feturizer/New_Systems/rnas/2et3

>  <Rbt.Executable>
rbdock ($Id: //depot/dev/client3/rdock/2013.1/src/exe/rbdock.cxx#4 $)

>  <Rbt.Library>
libRbt.so (2013.1, Build901 2013/11/27)

>  <Rbt.Parameter_File>
/export/apps/rDock/src/rDock_2013.1_src/data/scripts/dock_solv.prm

>  <Rbt.Receptor>
prm/pocket_docking_4.prm

>  <SCORE>
-12.1477

>  <SCORE.INTER>
-10.2244

>  <SCORE.INTER.CONST>
1

>  <SCORE.INTER.POLAR>
-0.561278

>  <SCORE.INTER.ROT>
6

>  <SCORE.INTER.SOLV>
14.5832

>  <SCORE.INTER.VDW>
-17.4064

>  <SCORE.INTER.norm>
-0.329818

>  <SCORE.INTRA>
-1.92362

>  <SCORE.INTRA.DIHEDRAL>
-7.19225

>  <SCORE.INTRA.DIHEDRAL.0>
22.2484

>  <SCORE.INTRA.POLAR>
0

>  <SCORE.INTRA.POLAR.0>
0

>  <SCORE.INTRA.REPUL>
0

>  <SCORE.INTRA.REPUL.0>
0

>  <SCORE.INTRA.SOLV>
3.59594

>  <SCORE.INTRA.SOLV.lig_0>
-75.7198

>  <SCORE.INTRA.VDW>
-0.125467

>  <SCORE.INTRA.VDW.0>
-3.34171

>  <SCORE.INTRA.norm>
-0.0620524

>  <SCORE.RESTR>
0.000241961

>  <SCORE.RESTR.CAVITY>
0.000241961

>  <SCORE.RESTR.norm>
7.80519e-06

>  <SCORE.SYSTEM>
0

>  <SCORE.SYSTEM.CONST>
0

>  <SCORE.SYSTEM.DIHEDRAL>
0

>  <SCORE.SYSTEM.SOLV>
0

>  <SCORE.SYSTEM.norm>
0

>  <SCORE.heavy>
31

>  <SCORE.norm>
-0.391863

>  <RMSD>
9.239

$$$$
2et3_lig
 OpenBabel11021811423D
libRbt.so/2013.1/901 2013/11/27
 31 33  0  0  0  0  0  0  0  0999 V2000
   -0.2788   -7.5203   31.8390 C   0  0  2  0  0  0  0  0  0  0  0  0
   -0.9449   -7.0103   30.6548 O   0  0  0  0  0  0  0  0  0  0  0  0
    0.5637   -6.4237   26.6942 C   0  0  2  0  0  0  0  0  0  0  0  0
    1.3756   -5.9212   25.6293 N   0  0  0  0  0  0  0  0  0  0  0  0
    3.0515   -9.1417   27.7382 C   0  0  2  0  0  0  0  0  0  0  0  0
   -1.2992   -8.2092   32.7514 C   0  0  2  0  0  0  0  0  0  0  0  0
   -1.9601   -9.2344   32.0042 N   0  0  0  0  0  0  0  0  0  0  0  0
   -0.1855   -5.2382   27.3836 C   0  0  0  0  0  0  0  0  0  0  0  0
    4.4517   -8.5324   27.5060 C   0  0  2  0  0  0  0  0  0  0  0  0
    4.4776   -7.2286   28.0426 O   0  0  0  0  0  0  0  0  0  0  0  0
   -2.3122   -7.1618   33.3276 C   0  0  0  0  0  0  0  0  0  0  0  0
   -1.0744   -5.7807   28.5620 C   0  0  2  0  0  0  0  0  0  0  0  0
   -1.7819   -4.6678   29.2150 N   0  0  0  0  0  0  0  0  0  0  0  0
    4.7323   -8.5337   25.9477 C   0  0  1  0  0  0  0  0  0  0  0  0
    6.0592   -7.9122   25.6287 N   0  0  0  0  0  0  0  0  0  0  0  0
   -1.5031   -6.1073   34.1462 C   0  0  0  0  0  0  0  0  0  0  0  0
   -0.1660   -6.5469   29.5985 C   0  0  2  0  0  0  0  0  0  0  0  0
    4.6758  -10.0458   25.3698 C   0  0  1  0  0  0  0  0  0  0  0  0
    5.6759  -10.8560   25.9519 O   0  0  0  0  0  0  0  0  0  0  0  0
   -0.4326   -5.4295   33.1823 C   0  0  2  0  0  0  0  0  0  0  0  0
    0.4333   -6.4143   32.5360 O   0  0  0  0  0  0  0  0  0  0  0  0
    0.5772   -7.7340   28.8730 C   0  0  2  0  0  0  0  0  0  0  0  0
    1.4013   -8.4425   29.7931 O   0  0  0  0  0  0  0  0  0  0  0  0
    3.2925  -10.6751   25.7219 C   0  0  0  0  0  0  0  0  0  0  0  0
    3.0017  -10.5267   27.1869 O   0  0  0  0  0  0  0  0  0  0  0  0
    0.4133   -4.3689   33.8468 C   0  0  0  0  0  0  0  0  0  0  0  0
    1.7760   -4.8003   34.0169 N   0  0  0  0  0  0  0  0  0  0  0  0
    1.4567   -7.1739   27.7005 C   0  0  1  0  0  0  0  0  0  0  0  0
    2.1120   -8.2590   27.0551 O   0  0  0  0  0  0  0  0  0  0  0  0
    4.9135  -10.2207   23.8636 C   0  0  0  0  0  0  0  0  0  0  0  0
    6.1283   -6.4413   25.6267 C   0  0  0  0  0  0  0  0  0  0  0  0
  1  2  1  6  0  0  0
  1  6  1  0  0  0  0
  1 21  1  0  0  0  0
  3  4  1  6  0  0  0
  3  8  1  0  0  0  0
  3 28  1  0  0  0  0
  5  9  1  0  0  0  0
  5 25  1  0  0  0  0
  5 29  1  6  0  0  0
  6  7  1  6  0  0  0
  6 11  1  0  0  0  0
  8 12  1  0  0  0  0
  9 10  1  6  0  0  0
  9 14  1  0  0  0  0
 11 16  1  0  0  0  0
 12 13  1  1  0  0  0
 12 17  1  0  0  0  0
 14 15  1  1  0  0  0
 14 18  1  0  0  0  0
 15 31  1  0  0  0  0
 16 20  1  0  0  0  0
 17  2  1  1  0  0  0
 17 22  1  0  0  0  0
 18 19  1  1  0  0  0
 18 24  1  0  0  0  0
 18 30  1  0  0  0  0
 20 21  1  0  0  0  0
 20 26  1  1  0  0  0
 22 23  1  1  0  0  0
 22 28  1  0  0  0  0
 24 25  1  0  0  0  0
 26 27  1  0  0  0  0
 28 29  1  6  0  0  0
M  END
>  <CHROM.1>
-169.50053054,-92.48940518,-79.01479873,-168.52440174,109.68650478,178.54610564
1.60915527,-7.52573369,28.93430681,-2.72847795,0.86318297,-0.91230315

>  <Name>
2et3_lig

>  <RI>
3.86414e+07

>  <Rbt.Current_Directory>
/home/itssahil/PROJECTS/Mol_Feturizer/New_Systems/rnas/2et3

>  <Rbt.Executable>
rbdock ($Id: //depot/dev/client3/rdock/2013.1/src/exe/rbdock.cxx#4 $)

>  <Rbt.Library>
libRbt.so (2013.1, Build901 2013/11/27)

>  <Rbt.Parameter_File>
/export/apps/rDock/src/rDock_2013.1_src/data/scripts/dock_solv.prm

>  <Rbt.Receptor>
prm/pocket_docking_8.prm

>  <SCORE>
-24.5643

>  <SCORE.INTER>
-18.7457

>  <SCORE.INTER.CONST>
1

>  <SCORE.INTER.POLAR>
-1.1586

>  <SCORE.INTER.ROT>
6

>  <SCORE.INTER.SOLV>
20.887

>  <SCORE.INTER.VDW>
-23.1975

>  <SCORE.INTER.norm>
-0.6047

>  <SCORE.INTRA>
-5.81861

>  <SCORE.INTRA.DIHEDRAL>
-11.867

>  <SCORE.INTRA.DIHEDRAL.0>
22.2484

>  <SCORE.INTRA.POLAR>
0

>  <SCORE.INTRA.POLAR.0>
0

>  <SCORE.INTRA.REPUL>
0

>  <SCORE.INTRA.REPUL.0>
0

>  <SCORE.INTRA.SOLV>
-2.59307

>  <SCORE.INTRA.SOLV.lig_0>
-75.7198

>  <SCORE.INTRA.VDW>
1.41144

>  <SCORE.INTRA.VDW.0>
-3.34171

>  <SCORE.INTRA.norm>
-0.187697

>  <SCORE.RESTR>
0

>  <SCORE.RESTR.CAVITY>
0

>  <SCORE.RESTR.norm>
0

>  <SCORE.SYSTEM>
0

>  <SCORE.SYSTEM.CONST>
0

>  <SCORE.SYSTEM.DIHEDRAL>
0

>  <SCORE.SYSTEM.SOLV>
0

>  <SCORE.SYSTEM.norm>
0

>  <SCORE.heavy>
31

>  <SCORE.norm>
-0.792397

>  <RMSD>
9.247

$$$$
2et3_lig
 OpenBabel11021811423D
libRbt.so/2013.1/901 2013/11/27
 31 33  0  0  0  0  0  0  0  0999 V2000
    3.1814   -0.5993   38.0058 C   0  0  2  0  0  0  0  0  0  0  0  0
    2.0032   -1.4047   38.2693 O   0  0  0  0  0  0  0  0  0  0  0  0
    2.4434   -4.6195   35.4805 C   0  0  2  0  0  0  0  0  0  0  0  0
    2.3477   -5.9327   34.9220 N   0  0  0  0  0  0  0  0  0  0  0  0
   -0.7409   -4.9597   34.1444 C   0  0  2  0  0  0  0  0  0  0  0  0
    2.9325    0.8451   38.4532 C   0  0  2  0  0  0  0  0  0  0  0  0
    2.5659    0.8375   39.8359 N   0  0  0  0  0  0  0  0  0  0  0  0
    3.2626   -4.6761   36.8101 C   0  0  0  0  0  0  0  0  0  0  0  0
   -0.3152   -5.5733   32.7924 C   0  0  2  0  0  0  0  0  0  0  0  0
    0.9329   -6.2098   32.9521 O   0  0  0  0  0  0  0  0  0  0  0  0
    1.8304    1.5116   37.5608 C   0  0  0  0  0  0  0  0  0  0  0  0
    3.3656   -3.2371   37.4361 C   0  0  2  0  0  0  0  0  0  0  0  0
    4.1359   -3.2851   38.6891 N   0  0  0  0  0  0  0  0  0  0  0  0
   -0.2484   -4.4051   31.7257 C   0  0  1  0  0  0  0  0  0  0  0  0
    0.2053   -4.9089   30.3881 N   0  0  0  0  0  0  0  0  0  0  0  0
    2.3327    1.4986   36.0829 C   0  0  0  0  0  0  0  0  0  0  0  0
    1.9174   -2.6695   37.6949 C   0  0  2  0  0  0  0  0  0  0  0  0
   -1.6954   -3.6905   31.5865 C   0  0  1  0  0  0  0  0  0  0  0  0
   -2.6732   -4.5968   31.1193 O   0  0  0  0  0  0  0  0  0  0  0  0
    2.6108   -0.0095   35.6550 C   0  0  2  0  0  0  0  0  0  0  0  0
    3.5391   -0.6811   36.5631 O   0  0  0  0  0  0  0  0  0  0  0  0
    1.1164   -2.6270   36.3368 C   0  0  2  0  0  0  0  0  0  0  0  0
   -0.1949   -2.1133   36.5474 O   0  0  0  0  0  0  0  0  0  0  0  0
   -2.1514   -3.1843   32.9898 C   0  0  0  0  0  0  0  0  0  0  0  0
   -2.0650   -4.2877   34.0037 O   0  0  0  0  0  0  0  0  0  0  0  0
    3.0890   -0.1698   34.2311 C   0  0  0  0  0  0  0  0  0  0  0  0
    4.4328    0.3168   34.0600 N   0  0  0  0  0  0  0  0  0  0  0  0
    1.0257   -4.0700   35.7271 C   0  0  1  0  0  0  0  0  0  0  0  0
    0.3071   -4.0094   34.5010 O   0  0  0  0  0  0  0  0  0  0  0  0
   -1.7979   -2.5212   30.5976 C   0  0  0  0  0  0  0  0  0  0  0  0
   -0.4438   -6.1266   29.8742 C   0  0  0  0  0  0  0  0  0  0  0  0
  1  2  1  6  0  0  0
  1  6  1  0  0  0  0
  1 21  1  0  0  0  0
  3  4  1  1  0  0  0
  3  8  1  0  0  0  0
  3 28  1  0  0  0  0
  5  9  1  0  0  0  0
  5 25  1  0  0  0  0
  5 29  1  6  0  0  0
  6  7  1  1  0  0  0
  6 11  1  0  0  0  0
  8 12  1  0  0  0  0
  9 10  1  1  0  0  0
  9 14  1  0  0  0  0
 11 16  1  0  0  0  0
 12 13  1  1  0  0  0
 12 17  1  0  0  0  0
 14 15  1  6  0  0  0
 14 18  1  0  0  0  0
 15 31  1  0  0  0  0
 16 20  1  0  0  0  0
 17  2  1  6  0  0  0
 17 22  1  0  0  0  0
 18 19  1  6  0  0  0
 18 24  1  0  0  0  0
 18 30  1  0  0  0  0
 20 21  1  0  0  0  0
 20 26  1  6  0  0  0
 22 23  1  1  0  0  0
 22 28  1  0  0  0  0
 24 25  1  0  0  0  0
 26 27  1  0  0  0  0
 28 29  1  6  0  0  0
M  END
>  <CHROM.1>
167.06326914,-123.81785666,47.44068933,26.69418533,70.89554148,104.93032943
1.16498399,-2.77726156,34.97061176,-0.60654721,0.96578279,-3.07800493

>  <Name>
2et3_lig

>  <RI>
0

>  <Rbt.Current_Directory>
/home/itssahil/PROJECTS/Mol_Feturizer/New_Systems/rnas/2et3

>  <Rbt.Executable>
rbdock ($Id: //depot/dev/client3/rdock/2013.1/src/exe/rbdock.cxx#4 $)

>  <Rbt.Library>
libRbt.so (2013.1, Build901 2013/11/27)

>  <Rbt.Parameter_File>
/export/apps/rDock/src/rDock_2013.1_src/data/scripts/dock_solv.prm

>  <Rbt.Receptor>
prm/blind_docking_40.prm

>  <SCORE>
12.8543

>  <SCORE.INTER>
-5.20553

>  <SCORE.INTER.CONST>
1

>  <SCORE.INTER.POLAR>
-1.36924

>  <SCORE.INTER.ROT>
6

>  <SCORE.INTER.SOLV>
23.1619

>  <SCORE.INTER.VDW>
-14.2269

>  <SCORE.INTER.norm>
-0.16792

>  <SCORE.INTRA>
2.72745

>  <SCORE.INTRA.DIHEDRAL>
-3.27097

>  <SCORE.INTRA.DIHEDRAL.0>
22.2484

>  <SCORE.INTRA.POLAR>
0

>  <SCORE.INTRA.POLAR.0>
0

>  <SCORE.INTRA.REPUL>
0

>  <SCORE.INTRA.REPUL.0>
0

>  <SCORE.INTRA.SOLV>
0.802915

>  <SCORE.INTRA.SOLV.lig_0>
-75.7198

>  <SCORE.INTRA.VDW>
3.96148

>  <SCORE.INTRA.VDW.0>
-3.34171

>  <SCORE.INTRA.norm>
0.0879823

>  <SCORE.RESTR>
15.3323

>  <SCORE.RESTR.CAVITY>
15.3323

>  <SCORE.RESTR.norm>
0.494592

>  <SCORE.SYSTEM>
0

>  <SCORE.SYSTEM.CONST>
0

>  <SCORE.SYSTEM.DIHEDRAL>
0

>  <SCORE.SYSTEM.SOLV>
0

>  <SCORE.SYSTEM.norm>
0

>  <SCORE.heavy>
31

>  <SCORE.norm>
0.414654

>  <RMSD>
9.251

$$$$
2et3_lig
 OpenBabel11021811423D
libRbt.so/2013.1/901 2013/11/27
 31 33  0  0  0  0  0  0  0  0999 V2000
   -0.0388   -7.0245   31.8496 C   0  0  2  0  0  0  0  0  0  0  0  0
   -0.7966   -6.5259   30.7167 O   0  0  0  0  0  0  0  0  0  0  0  0
    0.4108   -6.3032   26.6181 C   0  0  2  0  0  0  0  0  0  0  0  0
    1.1301   -5.8909   25.4526 N   0  0  0  0  0  0  0  0  0  0  0  0
    2.9330   -8.9344   27.7865 C   0  0  2  0  0  0  0  0  0  0  0  0
   -0.9274   -7.9300   32.7092 C   0  0  2  0  0  0  0  0  0  0  0  0
   -1.4431   -8.9788   31.8844 N   0  0  0  0  0  0  0  0  0  0  0  0
   -0.3235   -5.0723   27.2410 C   0  0  0  0  0  0  0  0  0  0  0  0
    4.3422   -8.3181   27.6453 C   0  0  2  0  0  0  0  0  0  0  0  0
    4.3265   -7.0139   28.1813 O   0  0  0  0  0  0  0  0  0  0  0  0
   -2.0733   -7.0962   33.3778 C   0  0  0  0  0  0  0  0  0  0  0  0
   -1.1103   -5.5148   28.5286 C   0  0  2  0  0  0  0  0  0  0  0  0
   -1.8034   -4.3588   29.1195 N   0  0  0  0  0  0  0  0  0  0  0  0
    4.7236   -8.3189   26.1086 C   0  0  1  0  0  0  0  0  0  0  0  0
    6.0653   -7.6908   25.8761 N   0  0  0  0  0  0  0  0  0  0  0  0
   -1.4139   -6.0022   34.2751 C   0  0  0  0  0  0  0  0  0  0  0  0
   -0.1084   -6.1524   29.5660 C   0  0  2  0  0  0  0  0  0  0  0  0
    4.7125   -9.8316   25.5296 C   0  0  1  0  0  0  0  0  0  0  0  0
    5.6767  -10.6364   26.1764 O   0  0  0  0  0  0  0  0  0  0  0  0
   -0.4753   -5.0959   33.3628 C   0  0  2  0  0  0  0  0  0  0  0  0
    0.5145   -5.8844   32.6307 O   0  0  0  0  0  0  0  0  0  0  0  0
    0.6173   -7.3886   28.9080 C   0  0  2  0  0  0  0  0  0  0  0  0
    1.5253   -7.9824   29.8303 O   0  0  0  0  0  0  0  0  0  0  0  0
    3.3124  -10.4677   25.7916 C   0  0  0  0  0  0  0  0  0  0  0  0
    2.9262  -10.3200   27.2344 O   0  0  0  0  0  0  0  0  0  0  0  0
    0.2165   -3.9779   34.1067 C   0  0  0  0  0  0  0  0  0  0  0  0
    0.9327   -3.1045   33.2145 N   0  0  0  0  0  0  0  0  0  0  0  0
    1.3947   -6.9282   27.6250 C   0  0  1  0  0  0  0  0  0  0  0  0
    2.0355   -8.0569   27.0430 O   0  0  0  0  0  0  0  0  0  0  0  0
    5.0486  -10.0061   24.0423 C   0  0  0  0  0  0  0  0  0  0  0  0
    6.0999   -6.4631   25.0637 C   0  0  0  0  0  0  0  0  0  0  0  0
  1  2  1  6  0  0  0
  1  6  1  0  0  0  0
  1 21  1  0  0  0  0
  3  4  1  6  0  0  0
  3  8  1  0  0  0  0
  3 28  1  0  0  0  0
  5  9  1  0  0  0  0
  5 25  1  0  0  0  0
  5 29  1  6  0  0  0
  6  7  1  6  0  0  0
  6 11  1  0  0  0  0
  8 12  1  0  0  0  0
  9 10  1  6  0  0  0
  9 14  1  0  0  0  0
 11 16  1  0  0  0  0
 12 13  1  1  0  0  0
 12 17  1  0  0  0  0
 14 15  1  1  0  0  0
 14 18  1  0  0  0  0
 15 31  1  0  0  0  0
 16 20  1  0  0  0  0
 17  2  1  1  0  0  0
 17 22  1  0  0  0  0
 18 19  1  1  0  0  0
 18 24  1  0  0  0  0
 18 30  1  0  0  0  0
 20 21  1  0  0  0  0
 20 26  1  1  0  0  0
 22 23  1  1  0  0  0
 22 28  1  0  0  0  0
 24 25  1  0  0  0  0
 26 27  1  0  0  0  0
 28 29  1  6  0  0  0
M  END
>  <CHROM.1>
-154.73136742,-88.70768955,-116.83908797,-174.48983077,-173.64436576,-174.29780057
1.60265455,-7.22528690,28.93794502,-2.80271274,0.90429583,-0.85500453

>  <Name>
2et3_lig

>  <RI>
0

>  <Rbt.Current_Directory>
/home/itssahil/PROJECTS/Mol_Feturizer/New_Systems/rnas/2et3

>  <Rbt.Executable>
rbdock ($Id: //depot/dev/client3/rdock/2013.1/src/exe/rbdock.cxx#4 $)

>  <Rbt.Library>
libRbt.so (2013.1, Build901 2013/11/27)

>  <Rbt.Parameter_File>
/export/apps/rDock/src/rDock_2013.1_src/data/scripts/dock_solv.prm

>  <Rbt.Receptor>
prm/pocket_docking_6.prm

>  <SCORE>
-25.1831

>  <SCORE.INTER>
-17.7492

>  <SCORE.INTER.CONST>
1

>  <SCORE.INTER.POLAR>
-0.829947

>  <SCORE.INTER.ROT>
6

>  <SCORE.INTER.SOLV>
20.9961

>  <SCORE.INTER.VDW>
-23.665

>  <SCORE.INTER.norm>
-0.572554

>  <SCORE.INTRA>
-7.43387

>  <SCORE.INTRA.DIHEDRAL>
-14.3919

>  <SCORE.INTRA.DIHEDRAL.0>
22.2484

>  <SCORE.INTRA.POLAR>
0

>  <SCORE.INTRA.POLAR.0>
0

>  <SCORE.INTRA.REPUL>
0

>  <SCORE.INTRA.REPUL.0>
0

>  <SCORE.INTRA.SOLV>
-3.17811

>  <SCORE.INTRA.SOLV.lig_0>
-75.7198

>  <SCORE.INTRA.VDW>
1.35113

>  <SCORE.INTRA.VDW.0>
-3.34171

>  <SCORE.INTRA.norm>
-0.239802

>  <SCORE.RESTR>
0

>  <SCORE.RESTR.CAVITY>
0

>  <SCORE.RESTR.norm>
0

>  <SCORE.SYSTEM>
0

>  <SCORE.SYSTEM.CONST>
0

>  <SCORE.SYSTEM.DIHEDRAL>
0

>  <SCORE.SYSTEM.SOLV>
0

>  <SCORE.SYSTEM.norm>
0

>  <SCORE.heavy>
31

>  <SCORE.norm>
-0.812357

>  <RMSD>
9.272

$$$$
2et3_lig
 OpenBabel11021811423D
libRbt.so/2013.1/901 2013/11/27
 31 33  0  0  0  0  0  0  0  0999 V2000
   -0.6024   -3.6999   31.3458 C   0  0  2  0  0  0  0  0  0  0  0  0
   -0.9258   -4.9136   30.6188 O   0  0  0  0  0  0  0  0  0  0  0  0
   -0.5160   -6.3669   26.6156 C   0  0  2  0  0  0  0  0  0  0  0  0
   -0.0587   -6.4617   25.2637 N   0  0  0  0  0  0  0  0  0  0  0  0
    2.4350   -8.2717   28.1418 C   0  0  2  0  0  0  0  0  0  0  0  0
   -0.8254   -3.9193   32.8460 C   0  0  2  0  0  0  0  0  0  0  0  0
   -0.0411   -5.0399   33.2645 N   0  0  0  0  0  0  0  0  0  0  0  0
   -1.2178   -4.9878   26.8338 C   0  0  0  0  0  0  0  0  0  0  0  0
    3.6374   -7.4157   27.6864 C   0  0  2  0  0  0  0  0  0  0  0  0
    3.3547   -6.0581   27.9421 O   0  0  0  0  0  0  0  0  0  0  0  0
   -2.3489   -4.1278   33.1474 C   0  0  0  0  0  0  0  0  0  0  0  0
   -1.7163   -4.8711   28.3207 C   0  0  2  0  0  0  0  0  0  0  0  0
   -2.3777   -3.5735   28.5315 N   0  0  0  0  0  0  0  0  0  0  0  0
    3.8743   -7.6879   26.1448 C   0  0  1  0  0  0  0  0  0  0  0  0
    5.0008   -6.8563   25.6077 N   0  0  0  0  0  0  0  0  0  0  0  0
   -3.1123   -2.8474   32.6845 C   0  0  0  0  0  0  0  0  0  0  0  0
   -0.4932   -5.0379   29.3018 C   0  0  2  0  0  0  0  0  0  0  0  0
    4.1775   -9.2591   25.8937 C   0  0  1  0  0  0  0  0  0  0  0  0
    5.3587   -9.6663   26.5529 O   0  0  0  0  0  0  0  0  0  0  0  0
   -2.8394   -2.6278   31.1315 C   0  0  2  0  0  0  0  0  0  0  0  0
   -1.4117   -2.5650   30.8231 O   0  0  0  0  0  0  0  0  0  0  0  0
    0.1941   -6.4361   29.0559 C   0  0  2  0  0  0  0  0  0  0  0  0
    1.3006   -6.6091   29.9354 O   0  0  0  0  0  0  0  0  0  0  0  0
    2.9991  -10.1042   26.4689 C   0  0  0  0  0  0  0  0  0  0  0  0
    2.7140   -9.7152   27.8903 O   0  0  0  0  0  0  0  0  0  0  0  0
   -3.5382   -1.4236   30.5454 C   0  0  0  0  0  0  0  0  0  0  0  0
   -4.9704   -1.5538   30.6066 N   0  0  0  0  0  0  0  0  0  0  0  0
    0.6829   -6.5344   27.5681 C   0  0  1  0  0  0  0  0  0  0  0  0
    1.2925   -7.8034   27.3647 O   0  0  0  0  0  0  0  0  0  0  0  0
    4.4167   -9.6947   24.4416 C   0  0  0  0  0  0  0  0  0  0  0  0
    4.8288   -6.2819   24.2629 C   0  0  0  0  0  0  0  0  0  0  0  0
  1  2  1  6  0  0  0
  1  6  1  0  0  0  0
  1 21  1  0  0  0  0
  3  4  1  6  0  0  0
  3  8  1  0  0  0  0
  3 28  1  0  0  0  0
  5  9  1  0  0  0  0
  5 25  1  0  0  0  0
  5 29  1  6  0  0  0
  6  7  1  6  0  0  0
  6 11  1  0  0  0  0
  8 12  1  0  0  0  0
  9 10  1  6  0  0  0
  9 14  1  0  0  0  0
 11 16  1  0  0  0  0
 12 13  1  6  0  0  0
 12 17  1  0  0  0  0
 14 15  1  1  0  0  0
 14 18  1  0  0  0  0
 15 31  1  0  0  0  0
 16 20  1  0  0  0  0
 17  2  1  1  0  0  0
 17 22  1  0  0  0  0
 18 19  1  1  0  0  0
 18 24  1  0  0  0  0
 18 30  1  0  0  0  0
 20 21  1  0  0  0  0
 20 26  1  1  0  0  0
 22 23  1  1  0  0  0
 22 28  1  0  0  0  0
 24 25  1  0  0  0  0
 26 27  1  0  0  0  0
 28 29  1  1  0  0  0
M  END
>  <CHROM.1>
-164.71045560,-70.52282463,-140.37069676,-106.45086027,-63.60194532,-178.43164371
0.66397914,-5.91061954,28.59649903,-2.58094516,0.70302905,-1.57106819

>  <Name>
2et3_lig

>  <RI>
0

>  <Rbt.Current_Directory>
/home/itssahil/PROJECTS/Mol_Feturizer/New_Systems/rnas/2et3

>  <Rbt.Executable>
rbdock ($Id: //depot/dev/client3/rdock/2013.1/src/exe/rbdock.cxx#4 $)

>  <Rbt.Library>
libRbt.so (2013.1, Build901 2013/11/27)

>  <Rbt.Parameter_File>
/export/apps/rDock/src/rDock_2013.1_src/data/scripts/dock_solv.prm

>  <Rbt.Receptor>
prm/pocket_docking_6.prm

>  <SCORE>
-25.8342

>  <SCORE.INTER>
-20.7889

>  <SCORE.INTER.CONST>
1

>  <SCORE.INTER.POLAR>
-0.938083

>  <SCORE.INTER.ROT>
6

>  <SCORE.INTER.SOLV>
24.6394

>  <SCORE.INTER.VDW>
-26.5454

>  <SCORE.INTER.norm>
-0.670609

>  <SCORE.INTRA>
-5.04526

>  <SCORE.INTRA.DIHEDRAL>
-13.2123

>  <SCORE.INTRA.DIHEDRAL.0>
22.2484

>  <SCORE.INTRA.POLAR>
0

>  <SCORE.INTRA.POLAR.0>
0

>  <SCORE.INTRA.REPUL>
0

>  <SCORE.INTRA.REPUL.0>
0

>  <SCORE.INTRA.SOLV>
0.81084

>  <SCORE.INTRA.SOLV.lig_0>
-75.7198

>  <SCORE.INTRA.VDW>
1.15547

>  <SCORE.INTRA.VDW.0>
-3.34171

>  <SCORE.INTRA.norm>
-0.16275

>  <SCORE.RESTR>
0

>  <SCORE.RESTR.CAVITY>
0

>  <SCORE.RESTR.norm>
0

>  <SCORE.SYSTEM>
0

>  <SCORE.SYSTEM.CONST>
0

>  <SCORE.SYSTEM.DIHEDRAL>
0

>  <SCORE.SYSTEM.SOLV>
0

>  <SCORE.SYSTEM.norm>
0

>  <SCORE.heavy>
31

>  <SCORE.norm>
-0.83336

>  <RMSD>
9.311

$$$$
2et3_lig
 OpenBabel11021811423D
libRbt.so/2013.1/901 2013/11/27
 31 33  0  0  0  0  0  0  0  0999 V2000
   -0.1996   -7.2115   31.9454 C   0  0  2  0  0  0  0  0  0  0  0  0
   -0.9448   -6.7449   30.7908 O   0  0  0  0  0  0  0  0  0  0  0  0
    0.3326   -6.3400   26.7275 C   0  0  2  0  0  0  0  0  0  0  0  0
    1.0688   -5.8734   25.5935 N   0  0  0  0  0  0  0  0  0  0  0  0
    3.0501   -8.8345   27.7442 C   0  0  2  0  0  0  0  0  0  0  0  0
   -1.1454   -7.9196   32.9212 C   0  0  2  0  0  0  0  0  0  0  0  0
   -1.8082   -8.9795   32.2259 N   0  0  0  0  0  0  0  0  0  0  0  0
   -0.4228   -5.1422   27.3884 C   0  0  0  0  0  0  0  0  0  0  0  0
    4.3367   -8.0318   27.4509 C   0  0  2  0  0  0  0  0  0  0  0  0
    4.1998   -6.7359   27.9899 O   0  0  0  0  0  0  0  0  0  0  0  0
   -2.1630   -6.8980   33.5347 C   0  0  0  0  0  0  0  0  0  0  0  0
   -1.2285   -5.6446   28.6420 C   0  0  2  0  0  0  0  0  0  0  0  0
   -1.9414   -4.5200   29.2685 N   0  0  0  0  0  0  0  0  0  0  0  0
    4.5439   -7.9982   25.8816 C   0  0  1  0  0  0  0  0  0  0  0  0
    5.7524   -7.1941   25.5049 N   0  0  0  0  0  0  0  0  0  0  0  0
   -1.3495   -5.8026   34.2930 C   0  0  0  0  0  0  0  0  0  0  0  0
   -0.2397   -6.3180   29.6694 C   0  0  2  0  0  0  0  0  0  0  0  0
    4.6785   -9.5047   25.3021 C   0  0  1  0  0  0  0  0  0  0  0  0
    5.8096  -10.1614   25.8359 O   0  0  0  0  0  0  0  0  0  0  0  0
   -0.3559   -5.1047   33.2632 C   0  0  2  0  0  0  0  0  0  0  0  0
    0.5089   -6.0700   32.5866 O   0  0  0  0  0  0  0  0  0  0  0  0
    0.5078   -7.5197   28.9729 C   0  0  2  0  0  0  0  0  0  0  0  0
    1.4043   -8.1451   29.8855 O   0  0  0  0  0  0  0  0  0  0  0  0
    3.4169  -10.3244   25.7144 C   0  0  0  0  0  0  0  0  0  0  0  0
    3.1743  -10.2143   27.1915 O   0  0  0  0  0  0  0  0  0  0  0  0
    0.4859   -4.0045   33.8654 C   0  0  0  0  0  0  0  0  0  0  0  0
   -0.2822   -2.8098   34.0985 N   0  0  0  0  0  0  0  0  0  0  0  0
    1.3037   -6.9996   27.7247 C   0  0  1  0  0  0  0  0  0  0  0  0
    1.9640   -8.0978   27.1071 O   0  0  0  0  0  0  0  0  0  0  0  0
    4.8705   -9.6489   23.7862 C   0  0  0  0  0  0  0  0  0  0  0  0
    7.0216   -7.5405   26.1661 C   0  0  0  0  0  0  0  0  0  0  0  0
  1  2  1  6  0  0  0
  1  6  1  0  0  0  0
  1 21  1  0  0  0  0
  3  4  1  6  0  0  0
  3  8  1  0  0  0  0
  3 28  1  0  0  0  0
  5  9  1  0  0  0  0
  5 25  1  0  0  0  0
  5 29  1  6  0  0  0
  6  7  1  6  0  0  0
  6 11  1  0  0  0  0
  8 12  1  0  0  0  0
  9 10  1  6  0  0  0
  9 14  1  0  0  0  0
 11 16  1  0  0  0  0
 12 13  1  1  0  0  0
 12 17  1  0  0  0  0
 14 15  1  1  0  0  0
 14 18  1  0  0  0  0
 15 31  1  0  0  0  0
 16 20  1  0  0  0  0
 17  2  1  1  0  0  0
 17 22  1  0  0  0  0
 18 19  1  1  0  0  0
 18 24  1  0  0  0  0
 18 30  1  0  0  0  0
 20 21  1  0  0  0  0
 20 26  1  1  0  0  0
 22 23  1  1  0  0  0
 22 28  1  0  0  0  0
 24 25  1  0  0  0  0
 26 27  1  0  0  0  0
 28 29  1  6  0  0  0
M  END
>  <CHROM.1>
-167.22342577,-84.15131760,52.52660938,-170.89781403,-74.52784912,173.08844247
1.53944168,-7.19730355,28.98898164,-2.49844511,0.73258069,-1.25193506

>  <Name>
2et3_lig

>  <RI>
0

>  <Rbt.Current_Directory>
/home/itssahil/PROJECTS/Mol_Feturizer/New_Systems/rnas/2et3

>  <Rbt.Executable>
rbdock ($Id: //depot/dev/client3/rdock/2013.1/src/exe/rbdock.cxx#4 $)

>  <Rbt.Library>
libRbt.so (2013.1, Build901 2013/11/27)

>  <Rbt.Parameter_File>
/export/apps/rDock/src/rDock_2013.1_src/data/scripts/dock_solv.prm

>  <Rbt.Receptor>
prm/pocket_docking_7.prm

>  <SCORE>
-25.2569

>  <SCORE.INTER>
-17.3646

>  <SCORE.INTER.CONST>
1

>  <SCORE.INTER.POLAR>
-0.614543

>  <SCORE.INTER.ROT>
6

>  <SCORE.INTER.SOLV>
16.5935

>  <SCORE.INTER.VDW>
-22.6591

>  <SCORE.INTER.norm>
-0.560149

>  <SCORE.INTRA>
-7.89224

>  <SCORE.INTRA.DIHEDRAL>
-17.4529

>  <SCORE.INTRA.DIHEDRAL.0>
22.2484

>  <SCORE.INTRA.POLAR>
0

>  <SCORE.INTRA.POLAR.0>
0

>  <SCORE.INTRA.REPUL>
0

>  <SCORE.INTRA.REPUL.0>
0

>  <SCORE.INTRA.SOLV>
-2.96758

>  <SCORE.INTRA.SOLV.lig_0>
-75.7198

>  <SCORE.INTRA.VDW>
2.31798

>  <SCORE.INTRA.VDW.0>
-3.34171

>  <SCORE.INTRA.norm>
-0.254588

>  <SCORE.RESTR>
0

>  <SCORE.RESTR.CAVITY>
0

>  <SCORE.RESTR.norm>
0

>  <SCORE.SYSTEM>
0

>  <SCORE.SYSTEM.CONST>
0

>  <SCORE.SYSTEM.DIHEDRAL>
0

>  <SCORE.SYSTEM.SOLV>
0

>  <SCORE.SYSTEM.norm>
0

>  <SCORE.heavy>
31

>  <SCORE.norm>
-0.814737

>  <RMSD>
9.329

$$$$
2et3_lig
 OpenBabel11021811423D
libRbt.so/2013.1/901 2013/11/27
 31 33  0  0  0  0  0  0  0  0999 V2000
   -1.9660   -5.2246   31.5296 C   0  0  2  0  0  0  0  0  0  0  0  0
   -1.1884   -6.2294   30.8283 O   0  0  0  0  0  0  0  0  0  0  0  0
   -0.2261   -6.3379   26.6607 C   0  0  2  0  0  0  0  0  0  0  0  0
    0.3596   -5.9671   25.4097 N   0  0  0  0  0  0  0  0  0  0  0  0
    2.7841   -8.3292   27.9392 C   0  0  2  0  0  0  0  0  0  0  0  0
   -1.0556   -4.0665   31.9521 C   0  0  2  0  0  0  0  0  0  0  0  0
   -0.4056   -3.5492   30.7876 N   0  0  0  0  0  0  0  0  0  0  0  0
   -1.1256   -5.1712   27.1822 C   0  0  0  0  0  0  0  0  0  0  0  0
    4.0562   -7.5693   27.5031 C   0  0  2  0  0  0  0  0  0  0  0  0
    3.8937   -6.1997   27.7968 O   0  0  0  0  0  0  0  0  0  0  0  0
   -0.0254   -4.5465   33.0309 C   0  0  0  0  0  0  0  0  0  0  0  0
   -1.7672   -5.5669   28.5623 C   0  0  2  0  0  0  0  0  0  0  0  0
   -2.6151   -4.4710   29.0581 N   0  0  0  0  0  0  0  0  0  0  0  0
    4.2664   -7.8185   25.9537 C   0  0  1  0  0  0  0  0  0  0  0  0
    5.4605   -7.0740   25.4354 N   0  0  0  0  0  0  0  0  0  0  0  0
   -0.8264   -5.0631   34.2672 C   0  0  0  0  0  0  0  0  0  0  0  0
   -0.6261   -5.8997   29.5985 C   0  0  2  0  0  0  0  0  0  0  0  0
    4.4306   -9.4027   25.6585 C   0  0  1  0  0  0  0  0  0  0  0  0
    5.5725   -9.9296   26.3019 O   0  0  0  0  0  0  0  0  0  0  0  0
   -1.7836   -6.2440   33.7939 C   0  0  2  0  0  0  0  0  0  0  0  0
   -2.6586   -5.8412   32.6942 O   0  0  0  0  0  0  0  0  0  0  0  0
    0.2642   -7.0774   29.0433 C   0  0  2  0  0  0  0  0  0  0  0  0
    1.3001   -7.3970   29.9666 O   0  0  0  0  0  0  0  0  0  0  0  0
    3.1836  -10.1570   26.2147 C   0  0  0  0  0  0  0  0  0  0  0  0
    2.9355   -9.7840   27.6472 O   0  0  0  0  0  0  0  0  0  0  0  0
   -2.6099   -6.8518   34.9029 C   0  0  0  0  0  0  0  0  0  0  0  0
   -3.5452   -5.9062   35.4531 N   0  0  0  0  0  0  0  0  0  0  0  0
    0.8937   -6.6651   27.6665 C   0  0  1  0  0  0  0  0  0  0  0  0
    1.6859   -7.7416   27.1796 O   0  0  0  0  0  0  0  0  0  0  0  0
    4.6288   -9.8172   24.1941 C   0  0  0  0  0  0  0  0  0  0  0  0
    6.7354   -7.2732   26.1447 C   0  0  0  0  0  0  0  0  0  0  0  0
  1  2  1  1  0  0  0
  1  6  1  0  0  0  0
  1 21  1  0  0  0  0
  3  4  1  6  0  0  0
  3  8  1  0  0  0  0
  3 28  1  0  0  0  0
  5  9  1  0  0  0  0
  5 25  1  0  0  0  0
  5 29  1  6  0  0  0
  6  7  1  6  0  0  0
  6 11  1  0  0  0  0
  8 12  1  0  0  0  0
  9 10  1  6  0  0  0
  9 14  1  0  0  0  0
 11 16  1  0  0  0  0
 12 13  1  1  0  0  0
 12 17  1  0  0  0  0
 14 15  1  1  0  0  0
 14 18  1  0  0  0  0
 15 31  1  0  0  0  0
 16 20  1  0  0  0  0
 17  2  1  1  0  0  0
 17 22  1  0  0  0  0
 18 19  1  1  0  0  0
 18 24  1  0  0  0  0
 18 30  1  0  0  0  0
 20 21  1  0  0  0  0
 20 26  1  1  0  0  0
 22 23  1  1  0  0  0
 22 28  1  0  0  0  0
 24 25  1  0  0  0  0
 26 27  1  0  0  0  0
 28 29  1  6  0  0  0
M  END
>  <CHROM.1>
-65.87473758,-92.35208182,52.70857896,-62.72536225,64.68202750,-176.73339333
1.00946613,-6.77829032,29.03577535,2.45723247,-0.58590897,1.74195886

>  <Name>
2et3_lig

>  <RI>
0

>  <Rbt.Current_Directory>
/home/itssahil/PROJECTS/Mol_Feturizer/New_Systems/rnas/2et3

>  <Rbt.Executable>
rbdock ($Id: //depot/dev/client3/rdock/2013.1/src/exe/rbdock.cxx#4 $)

>  <Rbt.Library>
libRbt.so (2013.1, Build901 2013/11/27)

>  <Rbt.Parameter_File>
/export/apps/rDock/src/rDock_2013.1_src/data/scripts/dock_solv.prm

>  <Rbt.Receptor>
prm/pocket_docking_7.prm

>  <SCORE>
-19.3864

>  <SCORE.INTER>
-16.2057

>  <SCORE.INTER.CONST>
1

>  <SCORE.INTER.POLAR>
-0.893089

>  <SCORE.INTER.ROT>
6

>  <SCORE.INTER.SOLV>
18.5395

>  <SCORE.INTER.VDW>
-21.6067

>  <SCORE.INTER.norm>
-0.522763

>  <SCORE.INTRA>
-3.18076

>  <SCORE.INTRA.DIHEDRAL>
-17.6525

>  <SCORE.INTRA.DIHEDRAL.0>
22.2484

>  <SCORE.INTRA.POLAR>
0

>  <SCORE.INTRA.POLAR.0>
0

>  <SCORE.INTRA.REPUL>
0

>  <SCORE.INTRA.REPUL.0>
0

>  <SCORE.INTRA.SOLV>
2.59455

>  <SCORE.INTRA.SOLV.lig_0>
-75.7198

>  <SCORE.INTRA.VDW>
4.3482

>  <SCORE.INTRA.VDW.0>
-3.34171

>  <SCORE.INTRA.norm>
-0.102605

>  <SCORE.RESTR>
0

>  <SCORE.RESTR.CAVITY>
0

>  <SCORE.RESTR.norm>
0

>  <SCORE.SYSTEM>
0

>  <SCORE.SYSTEM.CONST>
0

>  <SCORE.SYSTEM.DIHEDRAL>
0

>  <SCORE.SYSTEM.SOLV>
0

>  <SCORE.SYSTEM.norm>
0

>  <SCORE.heavy>
31

>  <SCORE.norm>
-0.625369

>  <RMSD>
9.330

$$$$
2et3_lig
 OpenBabel11021811423D
libRbt.so/2013.1/901 2013/11/27
 31 33  0  0  0  0  0  0  0  0999 V2000
   -0.0573   -6.5143   31.7616 C   0  0  2  0  0  0  0  0  0  0  0  0
   -0.8860   -6.1792   30.6183 O   0  0  0  0  0  0  0  0  0  0  0  0
    0.1750   -6.3191   26.4757 C   0  0  2  0  0  0  0  0  0  0  0  0
    0.8230   -5.9841   25.2455 N   0  0  0  0  0  0  0  0  0  0  0  0
    2.9690   -8.5743   27.8053 C   0  0  2  0  0  0  0  0  0  0  0  0
   -0.9017   -7.2289   32.8221 C   0  0  2  0  0  0  0  0  0  0  0  0
   -1.5088   -8.3776   32.2237 N   0  0  0  0  0  0  0  0  0  0  0  0
   -0.6374   -5.0872   26.9902 C   0  0  0  0  0  0  0  0  0  0  0  0
    4.3036   -7.8696   27.4768 C   0  0  2  0  0  0  0  0  0  0  0  0
    4.2029   -6.5098   27.8363 O   0  0  0  0  0  0  0  0  0  0  0  0
   -1.9687   -6.2505   33.4217 C   0  0  0  0  0  0  0  0  0  0  0  0
   -1.3466   -5.4438   28.3478 C   0  0  2  0  0  0  0  0  0  0  0  0
   -2.1127   -4.2865   28.8368 N   0  0  0  0  0  0  0  0  0  0  0  0
    4.5829   -8.0505   25.9288 C   0  0  1  0  0  0  0  0  0  0  0  0
    5.8434   -7.3522   25.5136 N   0  0  0  0  0  0  0  0  0  0  0  0
   -1.2116   -5.0511   34.0736 C   0  0  0  0  0  0  0  0  0  0  0  0
   -0.2654   -5.8834   29.4081 C   0  0  2  0  0  0  0  0  0  0  0  0
    4.6733   -9.6243   25.5563 C   0  0  1  0  0  0  0  0  0  0  0  0
    5.7471  -10.2504   26.2274 O   0  0  0  0  0  0  0  0  0  0  0  0
   -0.3212   -4.3465   32.9576 C   0  0  2  0  0  0  0  0  0  0  0  0
    0.5866   -5.2844   32.2990 O   0  0  0  0  0  0  0  0  0  0  0  0
    0.5378   -7.1251   28.8596 C   0  0  2  0  0  0  0  0  0  0  0  0
    1.5183   -7.5414   29.8046 O   0  0  0  0  0  0  0  0  0  0  0  0
    3.3574  -10.3313   26.0062 C   0  0  0  0  0  0  0  0  0  0  0  0
    3.0536  -10.0186   27.4424 O   0  0  0  0  0  0  0  0  0  0  0  0
    0.4571   -3.1501   33.4522 C   0  0  0  0  0  0  0  0  0  0  0  0
   -0.4086   -2.1348   33.9923 N   0  0  0  0  0  0  0  0  0  0  0  0
    1.2362   -6.7510   27.5052 C   0  0  1  0  0  0  0  0  0  0  0  0
    1.9484   -7.8844   27.0239 O   0  0  0  0  0  0  0  0  0  0  0  0
    4.9267   -9.9737   24.0835 C   0  0  0  0  0  0  0  0  0  0  0  0
    5.7200   -6.2907   24.5007 C   0  0  0  0  0  0  0  0  0  0  0  0
  1  2  1  6  0  0  0
  1  6  1  0  0  0  0
  1 21  1  0  0  0  0
  3  4  1  6  0  0  0
  3  8  1  0  0  0  0
  3 28  1  0  0  0  0
  5  9  1  0  0  0  0
  5 25  1  0  0  0  0
  5 29  1  6  0  0  0
  6  7  1  6  0  0  0
  6 11  1  0  0  0  0
  8 12  1  0  0  0  0
  9 10  1  6  0  0  0
  9 14  1  0  0  0  0
 11 16  1  0  0  0  0
 12 13  1  1  0  0  0
 12 17  1  0  0  0  0
 14 15  1  1  0  0  0
 14 18  1  0  0  0  0
 15 31  1  0  0  0  0
 16 20  1  0  0  0  0
 17  2  1  1  0  0  0
 17 22  1  0  0  0  0
 18 19  1  1  0  0  0
 18 24  1  0  0  0  0
 18 30  1  0  0  0  0
 20 21  1  0  0  0  0
 20 26  1  1  0  0  0
 22 23  1  1  0  0  0
 22 28  1  0  0  0  0
 24 25  1  0  0  0  0
 26 27  1  0  0  0  0
 28 29  1  6  0  0  0
M  END
>  <CHROM.1>
-161.75914902,-89.36355478,-119.55755899,-175.65221041,-58.76416605,-176.47452095
1.49473687,-6.85021230,28.84106347,-2.56837387,0.82766762,-1.20807673

>  <Name>
2et3_lig

>  <RI>
0

>  <Rbt.Current_Directory>
/home/itssahil/PROJECTS/Mol_Feturizer/New_Systems/rnas/2et3

>  <Rbt.Executable>
rbdock ($Id: //depot/dev/client3/rdock/2013.1/src/exe/rbdock.cxx#4 $)

>  <Rbt.Library>
libRbt.so (2013.1, Build901 2013/11/27)

>  <Rbt.Parameter_File>
/export/apps/rDock/src/rDock_2013.1_src/data/scripts/dock_solv.prm

>  <Rbt.Receptor>
prm/pocket_docking_6.prm

>  <SCORE>
-27.4478

>  <SCORE.INTER>
-19.3588

>  <SCORE.INTER.CONST>
1

>  <SCORE.INTER.POLAR>
-1.03116

>  <SCORE.INTER.ROT>
6

>  <SCORE.INTER.SOLV>
19.301

>  <SCORE.INTER.VDW>
-23.5023

>  <SCORE.INTER.norm>
-0.624476

>  <SCORE.INTRA>
-8.089

>  <SCORE.INTRA.DIHEDRAL>
-15.7414

>  <SCORE.INTRA.DIHEDRAL.0>
22.2484

>  <SCORE.INTRA.POLAR>
0

>  <SCORE.INTRA.POLAR.0>
0

>  <SCORE.INTRA.REPUL>
0

>  <SCORE.INTRA.REPUL.0>
0

>  <SCORE.INTRA.SOLV>
-3.40462

>  <SCORE.INTRA.SOLV.lig_0>
-75.7198

>  <SCORE.INTRA.VDW>
1.48399

>  <SCORE.INTRA.VDW.0>
-3.34171

>  <SCORE.INTRA.norm>
-0.260935

>  <SCORE.RESTR>
0

>  <SCORE.RESTR.CAVITY>
0

>  <SCORE.RESTR.norm>
0

>  <SCORE.SYSTEM>
0

>  <SCORE.SYSTEM.CONST>
0

>  <SCORE.SYSTEM.DIHEDRAL>
0

>  <SCORE.SYSTEM.SOLV>
0

>  <SCORE.SYSTEM.norm>
0

>  <SCORE.heavy>
31

>  <SCORE.norm>
-0.885411

>  <RMSD>
9.331

$$$$
2et3_lig
 OpenBabel11021811423D
libRbt.so/2013.1/901 2013/11/27
 31 33  0  0  0  0  0  0  0  0999 V2000
   -0.5443   -5.2279   31.8999 C   0  0  2  0  0  0  0  0  0  0  0  0
   -1.0651   -6.0439   30.8186 O   0  0  0  0  0  0  0  0  0  0  0  0
   -0.5409   -6.2399   26.5768 C   0  0  2  0  0  0  0  0  0  0  0  0
   -0.2689   -5.8155   25.2383 N   0  0  0  0  0  0  0  0  0  0  0  0
    3.1717   -6.5960   27.4248 C   0  0  2  0  0  0  0  0  0  0  0  0
   -1.0576   -5.7583   33.2429 C   0  0  2  0  0  0  0  0  0  0  0  0
   -0.6871   -7.1349   33.3613 N   0  0  0  0  0  0  0  0  0  0  0  0
   -1.7696   -5.4518   27.1348 C   0  0  0  0  0  0  0  0  0  0  0  0
    4.0827   -6.6491   26.1786 C   0  0  2  0  0  0  0  0  0  0  0  0
    3.7260   -5.5998   25.3067 O   0  0  0  0  0  0  0  0  0  0  0  0
   -2.6080   -5.5597   33.3527 C   0  0  0  0  0  0  0  0  0  0  0  0
   -2.0707   -5.9059   28.6100 C   0  0  2  0  0  0  0  0  0  0  0  0
   -3.2270   -5.1661   29.1403 N   0  0  0  0  0  0  0  0  0  0  0  0
    3.8986   -8.0675   25.4995 C   0  0  1  0  0  0  0  0  0  0  0  0
    4.7169   -8.1871   24.2485 N   0  0  0  0  0  0  0  0  0  0  0  0
   -2.9080   -4.0318   33.2420 C   0  0  0  0  0  0  0  0  0  0  0  0
   -0.7966   -5.6639   29.5069 C   0  0  2  0  0  0  0  0  0  0  0  0
    4.3015   -9.2426   26.5391 C   0  0  1  0  0  0  0  0  0  0  0  0
    5.6616   -9.1559   26.9106 O   0  0  0  0  0  0  0  0  0  0  0  0
   -2.3388   -3.5025   31.8525 C   0  0  2  0  0  0  0  0  0  0  0  0
   -0.9179   -3.8030   31.6850 O   0  0  0  0  0  0  0  0  0  0  0  0
    0.4248   -6.4693   28.9175 C   0  0  2  0  0  0  0  0  0  0  0  0
    1.5867   -6.2674   29.7157 O   0  0  0  0  0  0  0  0  0  0  0  0
    3.4464   -9.0922   27.8351 C   0  0  0  0  0  0  0  0  0  0  0  0
    3.5363   -7.6921   28.3684 O   0  0  0  0  0  0  0  0  0  0  0  0
   -2.5785   -2.0315   31.6065 C   0  0  0  0  0  0  0  0  0  0  0  0
   -3.9825   -1.7227   31.5354 N   0  0  0  0  0  0  0  0  0  0  0  0
    0.7086   -6.0042   27.4461 C   0  0  1  0  0  0  0  0  0  0  0  0
    1.8073   -6.7462   26.9306 O   0  0  0  0  0  0  0  0  0  0  0  0
    4.1646  -10.6869   26.0384 C   0  0  0  0  0  0  0  0  0  0  0  0
    3.9926   -8.1525   22.9670 C   0  0  0  0  0  0  0  0  0  0  0  0
  1  2  1  6  0  0  0
  1  6  1  0  0  0  0
  1 21  1  0  0  0  0
  3  4  1  6  0  0  0
  3  8  1  0  0  0  0
  3 28  1  0  0  0  0
  5  9  1  0  0  0  0
  5 25  1  0  0  0  0
  5 29  1  6  0  0  0
  6  7  1  6  0  0  0
  6 11  1  0  0  0  0
  8 12  1  0  0  0  0
  9 10  1  6  0  0  0
  9 14  1  0  0  0  0
 11 16  1  0  0  0  0
 12 13  1  1  0  0  0
 12 17  1  0  0  0  0
 14 15  1  6  0  0  0
 14 18  1  0  0  0  0
 15 31  1  0  0  0  0
 16 20  1  0  0  0  0
 17  2  1  1  0  0  0
 17 22  1  0  0  0  0
 18 19  1  1  0  0  0
 18 24  1  0  0  0  0
 18 30  1  0  0  0  0
 20 21  1  0  0  0  0
 20 26  1  1  0  0  0
 22 23  1  1  0  0  0
 22 28  1  0  0  0  0
 24 25  1  0  0  0  0
 26 27  1  0  0  0  0
 28 29  1  6  0  0  0
M  END
>  <CHROM.1>
175.16806958,-139.85996705,-107.03441338,-140.57020661,-62.86366036,171.58912140
0.75348201,-6.26150427,28.66375871,-2.55199772,0.67026383,-1.38954279

>  <Name>
2et3_lig

>  <RI>
0

>  <Rbt.Current_Directory>
/home/itssahil/PROJECTS/Mol_Feturizer/New_Systems/rnas/2et3

>  <Rbt.Executable>
rbdock ($Id: //depot/dev/client3/rdock/2013.1/src/exe/rbdock.cxx#4 $)

>  <Rbt.Library>
libRbt.so (2013.1, Build901 2013/11/27)

>  <Rbt.Parameter_File>
/export/apps/rDock/src/rDock_2013.1_src/data/scripts/dock_solv.prm

>  <Rbt.Receptor>
prm/pocket_docking_7.prm

>  <SCORE>
-24.9586

>  <SCORE.INTER>
-19.0981

>  <SCORE.INTER.CONST>
1

>  <SCORE.INTER.POLAR>
-1.27097

>  <SCORE.INTER.ROT>
6

>  <SCORE.INTER.SOLV>
20.9457

>  <SCORE.INTER.VDW>
-23.0774

>  <SCORE.INTER.norm>
-0.616066

>  <SCORE.INTRA>
-6.02226

>  <SCORE.INTRA.DIHEDRAL>
-9.82123

>  <SCORE.INTRA.DIHEDRAL.0>
22.2484

>  <SCORE.INTRA.POLAR>
0

>  <SCORE.INTRA.POLAR.0>
0

>  <SCORE.INTRA.REPUL>
0

>  <SCORE.INTRA.REPUL.0>
0

>  <SCORE.INTRA.SOLV>
-1.81384

>  <SCORE.INTRA.SOLV.lig_0>
-75.7198

>  <SCORE.INTRA.VDW>
-0.204727

>  <SCORE.INTRA.VDW.0>
-3.34171

>  <SCORE.INTRA.norm>
-0.194267

>  <SCORE.RESTR>
0.161682

>  <SCORE.RESTR.CAVITY>
0.161682

>  <SCORE.RESTR.norm>
0.00521554

>  <SCORE.SYSTEM>
0

>  <SCORE.SYSTEM.CONST>
0

>  <SCORE.SYSTEM.DIHEDRAL>
0

>  <SCORE.SYSTEM.SOLV>
0

>  <SCORE.SYSTEM.norm>
0

>  <SCORE.heavy>
31

>  <SCORE.norm>
-0.805117

>  <RMSD>
9.355

$$$$
2et3_lig
 OpenBabel11021811423D
libRbt.so/2013.1/901 2013/11/27
 31 33  0  0  0  0  0  0  0  0999 V2000
   -0.0843   -6.6355   31.3220 C   0  0  2  0  0  0  0  0  0  0  0  0
   -0.9575   -6.8525   30.1833 O   0  0  0  0  0  0  0  0  0  0  0  0
   -0.1627   -6.3998   26.0036 C   0  0  2  0  0  0  0  0  0  0  0  0
    0.1795   -5.7742   24.7639 N   0  0  0  0  0  0  0  0  0  0  0  0
    3.4410   -7.0039   27.1486 C   0  0  2  0  0  0  0  0  0  0  0  0
   -0.5631   -7.4768   32.5100 C   0  0  2  0  0  0  0  0  0  0  0  0
   -0.6147   -8.8481   32.1064 N   0  0  0  0  0  0  0  0  0  0  0  0
   -1.4476   -5.7301   26.5892 C   0  0  0  0  0  0  0  0  0  0  0  0
    4.5371   -7.0624   26.0619 C   0  0  2  0  0  0  0  0  0  0  0  0
    4.4699   -5.8900   25.2814 O   0  0  0  0  0  0  0  0  0  0  0  0
   -1.9546   -6.9648   33.0170 C   0  0  0  0  0  0  0  0  0  0  0  0
   -1.8265   -6.4063   27.9575 C   0  0  2  0  0  0  0  0  0  0  0  0
   -3.0359   -5.7787   28.5135 N   0  0  0  0  0  0  0  0  0  0  0  0
    4.2939   -8.3634   25.1929 C   0  0  1  0  0  0  0  0  0  0  0  0
    5.2918   -8.4735   24.0789 N   0  0  0  0  0  0  0  0  0  0  0  0
   -1.7896   -5.4769   33.4594 C   0  0  0  0  0  0  0  0  0  0  0  0
   -0.6190   -6.2747   28.9632 C   0  0  2  0  0  0  0  0  0  0  0  0
    4.3617   -9.6832   26.1295 C   0  0  1  0  0  0  0  0  0  0  0  0
    5.6384   -9.8325   26.7154 O   0  0  0  0  0  0  0  0  0  0  0  0
   -1.2641   -4.6332   32.2157 C   0  0  2  0  0  0  0  0  0  0  0  0
   -0.0330   -5.1848   31.6523 O   0  0  0  0  0  0  0  0  0  0  0  0
    0.6610   -6.9570   28.3436 C   0  0  2  0  0  0  0  0  0  0  0  0
    1.7638   -6.8527   29.2384 O   0  0  0  0  0  0  0  0  0  0  0  0
    3.3240   -9.5420   27.2857 C   0  0  0  0  0  0  0  0  0  0  0  0
    3.4978   -8.2308   27.9950 O   0  0  0  0  0  0  0  0  0  0  0  0
   -1.0762   -3.1620   32.5020 C   0  0  0  0  0  0  0  0  0  0  0  0
   -0.8503   -2.4071   31.2975 N   0  0  0  0  0  0  0  0  0  0  0  0
    1.0221   -6.2709   26.9795 C   0  0  1  0  0  0  0  0  0  0  0  0
    2.1731   -6.9041   26.4340 O   0  0  0  0  0  0  0  0  0  0  0  0
    4.1308  -11.0346   25.4394 C   0  0  0  0  0  0  0  0  0  0  0  0
    4.7740   -8.3873   22.7032 C   0  0  0  0  0  0  0  0  0  0  0  0
  1  2  1  6  0  0  0
  1  6  1  0  0  0  0
  1 21  1  0  0  0  0
  3  4  1  6  0  0  0
  3  8  1  0  0  0  0
  3 28  1  0  0  0  0
  5  9  1  0  0  0  0
  5 25  1  0  0  0  0
  5 29  1  6  0  0  0
  6  7  1  6  0  0  0
  6 11  1  0  0  0  0
  8 12  1  0  0  0  0
  9 10  1  6  0  0  0
  9 14  1  0  0  0  0
 11 16  1  0  0  0  0
 12 13  1  1  0  0  0
 12 17  1  0  0  0  0
 14 15  1  6  0  0  0
 14 18  1  0  0  0  0
 15 31  1  0  0  0  0
 16 20  1  0  0  0  0
 17  2  1  1  0  0  0
 17 22  1  0  0  0  0
 18 19  1  1  0  0  0
 18 24  1  0  0  0  0
 18 30  1  0  0  0  0
 20 21  1  0  0  0  0
 20 26  1  1  0  0  0
 22 23  1  1  0  0  0
 22 28  1  0  0  0  0
 24 25  1  0  0  0  0
 26 27  1  0  0  0  0
 28 29  1  6  0  0  0
M  END
>  <CHROM.1>
-174.01108114,-151.93685431,-115.14493320,-169.26931611,-168.93935200,-177.16345098
1.24868182,-6.93141330,28.30976143,-2.55190933,0.72835432,-1.22582043

>  <Name>
2et3_lig

>  <RI>
2.5794e+07

>  <Rbt.Current_Directory>
/home/itssahil/PROJECTS/Mol_Feturizer/New_Systems/rnas/2et3

>  <Rbt.Executable>
rbdock ($Id: //depot/dev/client3/rdock/2013.1/src/exe/rbdock.cxx#4 $)

>  <Rbt.Library>
libRbt.so (2013.1, Build901 2013/11/27)

>  <Rbt.Parameter_File>
/export/apps/rDock/src/rDock_2013.1_src/data/scripts/dock_solv.prm

>  <Rbt.Receptor>
prm/pocket_docking_5.prm

>  <SCORE>
-24.4385

>  <SCORE.INTER>
-15.4991

>  <SCORE.INTER.CONST>
1

>  <SCORE.INTER.POLAR>
-0.943965

>  <SCORE.INTER.ROT>
6

>  <SCORE.INTER.SOLV>
24.7385

>  <SCORE.INTER.VDW>
-23.0324

>  <SCORE.INTER.norm>
-0.499972

>  <SCORE.INTRA>
-8.93931

>  <SCORE.INTRA.DIHEDRAL>
-16.4699

>  <SCORE.INTRA.DIHEDRAL.0>
22.2484

>  <SCORE.INTRA.POLAR>
0

>  <SCORE.INTRA.POLAR.0>
0

>  <SCORE.INTRA.REPUL>
0

>  <SCORE.INTRA.REPUL.0>
0

>  <SCORE.INTRA.SOLV>
-3.91231

>  <SCORE.INTRA.SOLV.lig_0>
-75.7198

>  <SCORE.INTRA.VDW>
1.25182

>  <SCORE.INTRA.VDW.0>
-3.34171

>  <SCORE.INTRA.norm>
-0.288365

>  <SCORE.RESTR>
0

>  <SCORE.RESTR.CAVITY>
0

>  <SCORE.RESTR.norm>
0

>  <SCORE.SYSTEM>
0

>  <SCORE.SYSTEM.CONST>
0

>  <SCORE.SYSTEM.DIHEDRAL>
0

>  <SCORE.SYSTEM.SOLV>
0

>  <SCORE.SYSTEM.norm>
0

>  <SCORE.heavy>
31

>  <SCORE.norm>
-0.788337

>  <RMSD>
9.358

$$$$
2et3_lig
 OpenBabel11021811423D
libRbt.so/2013.1/901 2013/11/27
 31 33  0  0  0  0  0  0  0  0999 V2000
   -0.0121   -7.7998   30.5926 C   0  0  2  0  0  0  0  0  0  0  0  0
   -0.6377   -7.3856   29.3503 O   0  0  0  0  0  0  0  0  0  0  0  0
    1.5055   -6.2411   25.8285 C   0  0  2  0  0  0  0  0  0  0  0  0
    2.2596   -5.4327   24.9211 N   0  0  0  0  0  0  0  0  0  0  0  0
    4.1497   -8.0487   27.7400 C   0  0  2  0  0  0  0  0  0  0  0  0
   -1.0139   -8.5937   31.4378 C   0  0  2  0  0  0  0  0  0  0  0  0
   -1.4897   -9.6982   30.6634 N   0  0  0  0  0  0  0  0  0  0  0  0
    0.1249   -5.5641   26.1072 C   0  0  0  0  0  0  0  0  0  0  0  0
    5.5251   -8.3883   27.1246 C   0  0  2  0  0  0  0  0  0  0  0  0
    6.2999   -7.2119   27.0599 O   0  0  0  0  0  0  0  0  0  0  0  0
   -2.1845   -7.6664   31.9126 C   0  0  0  0  0  0  0  0  0  0  0  0
   -0.7080   -6.4422   27.1112 C   0  0  2  0  0  0  0  0  0  0  0  0
   -2.0093   -5.8086   27.3774 N   0  0  0  0  0  0  0  0  0  0  0  0
    5.2776   -9.0104   25.6898 C   0  0  1  0  0  0  0  0  0  0  0  0
    6.5704   -9.3274   24.9989 N   0  0  0  0  0  0  0  0  0  0  0  0
   -1.5710   -6.5146   32.7691 C   0  0  0  0  0  0  0  0  0  0  0  0
    0.1047   -6.6272   28.4498 C   0  0  2  0  0  0  0  0  0  0  0  0
    4.3706  -10.3472   25.8079 C   0  0  1  0  0  0  0  0  0  0  0  0
    5.0234  -11.3459   26.5642 O   0  0  0  0  0  0  0  0  0  0  0  0
   -0.5142   -5.7264   31.8765 C   0  0  2  0  0  0  0  0  0  0  0  0
    0.5090   -6.6096   31.3193 O   0  0  0  0  0  0  0  0  0  0  0  0
    1.4915   -7.3097   28.1355 C   0  0  2  0  0  0  0  0  0  0  0  0
    2.2411   -7.4897   29.3328 O   0  0  0  0  0  0  0  0  0  0  0  0
    3.0375   -9.9962   26.5380 C   0  0  0  0  0  0  0  0  0  0  0  0
    3.3138   -9.2809   27.8282 O   0  0  0  0  0  0  0  0  0  0  0  0
    0.1472   -4.5659   32.5820 C   0  0  0  0  0  0  0  0  0  0  0  0
    1.1081   -5.0100   33.5573 N   0  0  0  0  0  0  0  0  0  0  0  0
    2.3067   -6.4207   27.1318 C   0  0  1  0  0  0  0  0  0  0  0  0
    3.5492   -7.0558   26.8558 O   0  0  0  0  0  0  0  0  0  0  0  0
    4.0252  -11.0675   24.4974 C   0  0  0  0  0  0  0  0  0  0  0  0
    7.6048  -10.0123   25.7921 C   0  0  0  0  0  0  0  0  0  0  0  0
  1  2  1  6  0  0  0
  1  6  1  0  0  0  0
  1 21  1  0  0  0  0
  3  4  1  6  0  0  0
  3  8  1  0  0  0  0
  3 28  1  0  0  0  0
  5  9  1  0  0  0  0
  5 25  1  0  0  0  0
  5 29  1  6  0  0  0
  6  7  1  6  0  0  0
  6 11  1  0  0  0  0
  8 12  1  0  0  0  0
  9 10  1  6  0  0  0
  9 14  1  0  0  0  0
 11 16  1  0  0  0  0
 12 13  1  1  0  0  0
 12 17  1  0  0  0  0
 14 15  1  1  0  0  0
 14 18  1  0  0  0  0
 15 31  1  0  0  0  0
 16 20  1  0  0  0  0
 17  2  1  1  0  0  0
 17 22  1  0  0  0  0
 18 19  1  1  0  0  0
 18 24  1  0  0  0  0
 18 30  1  0  0  0  0
 20 21  1  0  0  0  0
 20 26  1  1  0  0  0
 22 23  1  1  0  0  0
 22 28  1  0  0  0  0
 24 25  1  0  0  0  0
 26 27  1  0  0  0  0
 28 29  1  6  0  0  0
M  END
>  <CHROM.1>
178.84131585,-175.65867150,45.37948120,173.24740337,73.43316810,-141.89188650
1.99304253,-7.69916311,28.28718558,-2.58696943,0.59219488,-1.31076702

>  <Name>
2et3_lig

>  <RI>
2.5794e+07

>  <Rbt.Current_Directory>
/home/itssahil/PROJECTS/Mol_Feturizer/New_Systems/rnas/2et3

>  <Rbt.Executable>
rbdock ($Id: //depot/dev/client3/rdock/2013.1/src/exe/rbdock.cxx#4 $)

>  <Rbt.Library>
libRbt.so (2013.1, Build901 2013/11/27)

>  <Rbt.Parameter_File>
/export/apps/rDock/src/rDock_2013.1_src/data/scripts/dock_solv.prm

>  <Rbt.Receptor>
prm/pocket_docking_5.prm

>  <SCORE>
-25.5023

>  <SCORE.INTER>
-22.4505

>  <SCORE.INTER.CONST>
1

>  <SCORE.INTER.POLAR>
-1.87226

>  <SCORE.INTER.ROT>
6

>  <SCORE.INTER.SOLV>
20.3681

>  <SCORE.INTER.VDW>
-23.1155

>  <SCORE.INTER.norm>
-0.724211

>  <SCORE.INTRA>
-3.0518

>  <SCORE.INTRA.DIHEDRAL>
-15.8824

>  <SCORE.INTRA.DIHEDRAL.0>
22.2484

>  <SCORE.INTRA.POLAR>
0

>  <SCORE.INTRA.POLAR.0>
0

>  <SCORE.INTRA.REPUL>
0

>  <SCORE.INTRA.REPUL.0>
0

>  <SCORE.INTRA.SOLV>
-3.17166

>  <SCORE.INTRA.SOLV.lig_0>
-75.7198

>  <SCORE.INTRA.VDW>
6.47525

>  <SCORE.INTRA.VDW.0>
-3.34171

>  <SCORE.INTRA.norm>
-0.0984452

>  <SCORE.RESTR>
0

>  <SCORE.RESTR.CAVITY>
0

>  <SCORE.RESTR.norm>
0

>  <SCORE.SYSTEM>
0

>  <SCORE.SYSTEM.CONST>
0

>  <SCORE.SYSTEM.DIHEDRAL>
0

>  <SCORE.SYSTEM.SOLV>
0

>  <SCORE.SYSTEM.norm>
0

>  <SCORE.heavy>
31

>  <SCORE.norm>
-0.822656

>  <RMSD>
9.365

$$$$
2et3_lig
 OpenBabel11021811423D
libRbt.so/2013.1/901 2013/11/27
 31 33  0  0  0  0  0  0  0  0999 V2000
   -0.4142   -5.1043   31.6227 C   0  0  2  0  0  0  0  0  0  0  0  0
   -0.8123   -6.0040   30.5558 O   0  0  0  0  0  0  0  0  0  0  0  0
   -0.2890   -6.2471   26.3163 C   0  0  2  0  0  0  0  0  0  0  0  0
   -0.0173   -5.8376   24.9732 N   0  0  0  0  0  0  0  0  0  0  0  0
    3.3929   -6.7053   27.2650 C   0  0  2  0  0  0  0  0  0  0  0  0
   -0.9211   -5.6380   32.9668 C   0  0  2  0  0  0  0  0  0  0  0  0
   -0.4212   -6.9659   33.1481 N   0  0  0  0  0  0  0  0  0  0  0  0
   -1.5176   -5.4529   26.8658 C   0  0  0  0  0  0  0  0  0  0  0  0
    4.3827   -6.8332   26.0862 C   0  0  2  0  0  0  0  0  0  0  0  0
    4.1719   -5.7618   25.1941 O   0  0  0  0  0  0  0  0  0  0  0  0
   -2.4865   -5.5916   33.0182 C   0  0  0  0  0  0  0  0  0  0  0  0
   -1.8184   -5.8906   28.3460 C   0  0  2  0  0  0  0  0  0  0  0  0
   -2.9746   -5.1449   28.8683 N   0  0  0  0  0  0  0  0  0  0  0  0
    4.1364   -8.2348   25.3921 C   0  0  1  0  0  0  0  0  0  0  0  0
    5.0291   -8.4219   24.2017 N   0  0  0  0  0  0  0  0  0  0  0  0
   -2.9315   -4.1058   32.8413 C   0  0  0  0  0  0  0  0  0  0  0  0
   -0.5441   -5.6385   29.2399 C   0  0  2  0  0  0  0  0  0  0  0  0
    4.3714   -9.4348   26.4544 C   0  0  1  0  0  0  0  0  0  0  0  0
    5.7044   -9.4540   26.9213 O   0  0  0  0  0  0  0  0  0  0  0  0
   -2.3672   -3.5693   31.4527 C   0  0  2  0  0  0  0  0  0  0  0  0
   -0.9184   -3.7318   31.3432 O   0  0  0  0  0  0  0  0  0  0  0  0
    0.6772   -6.4504   28.6593 C   0  0  2  0  0  0  0  0  0  0  0  0
    1.8392   -6.2397   29.4549 O   0  0  0  0  0  0  0  0  0  0  0  0
    3.4412   -9.2141   27.6871 C   0  0  0  0  0  0  0  0  0  0  0  0
    3.6028   -7.8238   28.2292 O   0  0  0  0  0  0  0  0  0  0  0  0
   -2.7417   -2.1386   31.1448 C   0  0  0  0  0  0  0  0  0  0  0  0
   -2.4205   -1.7816   29.7879 N   0  0  0  0  0  0  0  0  0  0  0  0
    0.9607   -6.0017   27.1827 C   0  0  1  0  0  0  0  0  0  0  0  0
    2.0593   -6.7494   26.6752 O   0  0  0  0  0  0  0  0  0  0  0  0
    4.1573  -10.8654   25.9414 C   0  0  0  0  0  0  0  0  0  0  0  0
    4.4283   -8.2158   22.8733 C   0  0  0  0  0  0  0  0  0  0  0  0
  1  2  1  6  0  0  0
  1  6  1  0  0  0  0
  1 21  1  0  0  0  0
  3  4  1  6  0  0  0
  3  8  1  0  0  0  0
  3 28  1  0  0  0  0
  5  9  1  0  0  0  0
  5 25  1  0  0  0  0
  5 29  1  6  0  0  0
  6  7  1  6  0  0  0
  6 11  1  0  0  0  0
  8 12  1  0  0  0  0
  9 10  1  6  0  0  0
  9 14  1  0  0  0  0
 11 16  1  0  0  0  0
 12 13  1  1  0  0  0
 12 17  1  0  0  0  0
 14 15  1  6  0  0  0
 14 18  1  0  0  0  0
 15 31  1  0  0  0  0
 16 20  1  0  0  0  0
 17  2  1  1  0  0  0
 17 22  1  0  0  0  0
 18 19  1  1  0  0  0
 18 24  1  0  0  0  0
 18 30  1  0  0  0  0
 20 21  1  0  0  0  0
 20 26  1  1  0  0  0
 22 23  1  1  0  0  0
 22 28  1  0  0  0  0
 24 25  1  0  0  0  0
 26 27  1  0  0  0  0
 28 29  1  6  0  0  0
M  END
>  <CHROM.1>
174.69244420,-145.10182353,-101.72803932,-134.16253839,-169.47798837,178.68990391
0.97581057,-6.31338601,28.39368143,-2.62142931,0.70535592,-1.32820069

>  <Name>
2et3_lig

>  <RI>
2.5794e+07

>  <Rbt.Current_Directory>
/home/itssahil/PROJECTS/Mol_Feturizer/New_Systems/rnas/2et3

>  <Rbt.Executable>
rbdock ($Id: //depot/dev/client3/rdock/2013.1/src/exe/rbdock.cxx#4 $)

>  <Rbt.Library>
libRbt.so (2013.1, Build901 2013/11/27)

>  <Rbt.Parameter_File>
/export/apps/rDock/src/rDock_2013.1_src/data/scripts/dock_solv.prm

>  <Rbt.Receptor>
prm/pocket_docking_5.prm

>  <SCORE>
-25.1178

>  <SCORE.INTER>
-19.9487

>  <SCORE.INTER.CONST>
1

>  <SCORE.INTER.POLAR>
-1.003

>  <SCORE.INTER.ROT>
6

>  <SCORE.INTER.SOLV>
24.6215

>  <SCORE.INTER.VDW>
-25.763

>  <SCORE.INTER.norm>
-0.643507

>  <SCORE.INTRA>
-5.17372

>  <SCORE.INTRA.DIHEDRAL>
-9.84251

>  <SCORE.INTRA.DIHEDRAL.0>
22.2484

>  <SCORE.INTRA.POLAR>
0

>  <SCORE.INTRA.POLAR.0>
0

>  <SCORE.INTRA.REPUL>
0

>  <SCORE.INTRA.REPUL.0>
0

>  <SCORE.INTRA.SOLV>
-0.245164

>  <SCORE.INTRA.SOLV.lig_0>
-75.7198

>  <SCORE.INTRA.VDW>
-0.129883

>  <SCORE.INTRA.VDW.0>
-3.34171

>  <SCORE.INTRA.norm>
-0.166894

>  <SCORE.RESTR>
0.00464488

>  <SCORE.RESTR.CAVITY>
0.00464488

>  <SCORE.RESTR.norm>
0.000149835

>  <SCORE.SYSTEM>
0

>  <SCORE.SYSTEM.CONST>
0

>  <SCORE.SYSTEM.DIHEDRAL>
0

>  <SCORE.SYSTEM.SOLV>
0

>  <SCORE.SYSTEM.norm>
0

>  <SCORE.heavy>
31

>  <SCORE.norm>
-0.810252

>  <RMSD>
9.386

$$$$
2et3_lig
 OpenBabel11021811423D
libRbt.so/2013.1/901 2013/11/27
 31 33  0  0  0  0  0  0  0  0999 V2000
   -0.0783   -6.2142   31.3053 C   0  0  2  0  0  0  0  0  0  0  0  0
   -0.8764   -6.5446   30.1391 O   0  0  0  0  0  0  0  0  0  0  0  0
    0.0081   -6.3295   25.9585 C   0  0  2  0  0  0  0  0  0  0  0  0
    0.4037   -5.7813   24.6981 N   0  0  0  0  0  0  0  0  0  0  0  0
    3.5408   -7.1067   27.2121 C   0  0  2  0  0  0  0  0  0  0  0  0
   -0.6082   -6.9716   32.5275 C   0  0  2  0  0  0  0  0  0  0  0  0
   -0.6043   -8.3715   32.2336 N   0  0  0  0  0  0  0  0  0  0  0  0
   -1.2473   -5.5651   26.4894 C   0  0  0  0  0  0  0  0  0  0  0  0
    4.6766   -7.1591   26.1667 C   0  0  2  0  0  0  0  0  0  0  0  0
    4.6765   -5.9562   25.4310 O   0  0  0  0  0  0  0  0  0  0  0  0
   -2.0389   -6.4595   32.9100 C   0  0  0  0  0  0  0  0  0  0  0  0
   -1.6843   -6.1558   27.8798 C   0  0  2  0  0  0  0  0  0  0  0  0
   -2.8662   -5.4387   28.3844 N   0  0  0  0  0  0  0  0  0  0  0  0
    4.4277   -8.4174   25.2383 C   0  0  1  0  0  0  0  0  0  0  0  0
    5.4649   -8.5171   24.1599 N   0  0  0  0  0  0  0  0  0  0  0  0
   -1.9346   -4.9373   33.2398 C   0  0  0  0  0  0  0  0  0  0  0  0
   -0.4875   -6.0431   28.9004 C   0  0  2  0  0  0  0  0  0  0  0  0
    4.4176   -9.7735   26.1240 C   0  0  1  0  0  0  0  0  0  0  0  0
    5.6650   -9.9864   26.7519 O   0  0  0  0  0  0  0  0  0  0  0  0
   -1.3547   -4.1807   31.9647 C   0  0  2  0  0  0  0  0  0  0  0  0
   -0.0798   -4.7411   31.5199 O   0  0  0  0  0  0  0  0  0  0  0  0
    0.7629   -6.8214   28.3360 C   0  0  2  0  0  0  0  0  0  0  0  0
    1.8554   -6.7353   29.2452 O   0  0  0  0  0  0  0  0  0  0  0  0
    3.3400   -9.6431   27.2443 C   0  0  0  0  0  0  0  0  0  0  0  0
    3.5262   -8.3662   28.0110 O   0  0  0  0  0  0  0  0  0  0  0  0
   -1.2178   -2.6868   32.1418 C   0  0  0  0  0  0  0  0  0  0  0  0
   -0.3950   -2.3556   33.2754 N   0  0  0  0  0  0  0  0  0  0  0  0
    1.1826   -6.2196   26.9490 C   0  0  1  0  0  0  0  0  0  0  0  0
    2.3057   -6.9386   26.4540 O   0  0  0  0  0  0  0  0  0  0  0  0
    4.1725  -11.0893   25.3728 C   0  0  0  0  0  0  0  0  0  0  0  0
    4.9872   -8.7759   22.7913 C   0  0  0  0  0  0  0  0  0  0  0  0
  1  2  1  6  0  0  0
  1  6  1  0  0  0  0
  1 21  1  0  0  0  0
  3  4  1  6  0  0  0
  3  8  1  0  0  0  0
  3 28  1  0  0  0  0
  5  9  1  0  0  0  0
  5 25  1  0  0  0  0
  5 29  1  6  0  0  0
  6  7  1  6  0  0  0
  6 11  1  0  0  0  0
  8 12  1  0  0  0  0
  9 10  1  6  0  0  0
  9 14  1  0  0  0  0
 11 16  1  0  0  0  0
 12 13  1  1  0  0  0
 12 17  1  0  0  0  0
 14 15  1  6  0  0  0
 14 18  1  0  0  0  0
 15 31  1  0  0  0  0
 16 20  1  0  0  0  0
 17  2  1  1  0  0  0
 17 22  1  0  0  0  0
 18 19  1  1  0  0  0
 18 24  1  0  0  0  0
 18 30  1  0  0  0  0
 20 21  1  0  0  0  0
 20 26  1  1  0  0  0
 22 23  1  1  0  0  0
 22 28  1  0  0  0  0
 24 25  1  0  0  0  0
 26 27  1  0  0  0  0
 28 29  1  6  0  0  0
M  END
>  <CHROM.1>
-174.76485061,-148.01579976,-133.37319300,-163.43785205,56.68231590,-175.30065638
1.33438367,-6.79913927,28.34172234,-2.49680221,0.71210734,-1.36451117

>  <Name>
2et3_lig

>  <RI>
0

>  <Rbt.Current_Directory>
/home/itssahil/PROJECTS/Mol_Feturizer/New_Systems/rnas/2et3

>  <Rbt.Executable>
rbdock ($Id: //depot/dev/client3/rdock/2013.1/src/exe/rbdock.cxx#4 $)

>  <Rbt.Library>
libRbt.so (2013.1, Build901 2013/11/27)

>  <Rbt.Parameter_File>
/export/apps/rDock/src/rDock_2013.1_src/data/scripts/dock_solv.prm

>  <Rbt.Receptor>
prm/pocket_docking_6.prm

>  <SCORE>
-25.7856

>  <SCORE.INTER>
-17.6097

>  <SCORE.INTER.CONST>
1

>  <SCORE.INTER.POLAR>
-0.954193

>  <SCORE.INTER.ROT>
6

>  <SCORE.INTER.SOLV>
21.5282

>  <SCORE.INTER.VDW>
-23.3352

>  <SCORE.INTER.norm>
-0.568056

>  <SCORE.INTRA>
-8.17587

>  <SCORE.INTRA.DIHEDRAL>
-15.5132

>  <SCORE.INTRA.DIHEDRAL.0>
22.2484

>  <SCORE.INTRA.POLAR>
0

>  <SCORE.INTRA.POLAR.0>
0

>  <SCORE.INTRA.REPUL>
0

>  <SCORE.INTRA.REPUL.0>
0

>  <SCORE.INTRA.SOLV>
-3.07873

>  <SCORE.INTRA.SOLV.lig_0>
-75.7198

>  <SCORE.INTRA.VDW>
1.1201

>  <SCORE.INTRA.VDW.0>
-3.34171

>  <SCORE.INTRA.norm>
-0.263738

>  <SCORE.RESTR>
0

>  <SCORE.RESTR.CAVITY>
0

>  <SCORE.RESTR.norm>
0

>  <SCORE.SYSTEM>
0

>  <SCORE.SYSTEM.CONST>
0

>  <SCORE.SYSTEM.DIHEDRAL>
0

>  <SCORE.SYSTEM.SOLV>
0

>  <SCORE.SYSTEM.norm>
0

>  <SCORE.heavy>
31

>  <SCORE.norm>
-0.831794

>  <RMSD>
9.427

$$$$
2et3_lig
 OpenBabel11021811423D
libRbt.so/2013.1/901 2013/11/27
 31 33  0  0  0  0  0  0  0  0999 V2000
   -0.0923   -6.8800   31.6361 C   0  0  2  0  0  0  0  0  0  0  0  0
   -0.9125   -6.4588   30.5154 O   0  0  0  0  0  0  0  0  0  0  0  0
    0.2898   -6.2118   26.4167 C   0  0  2  0  0  0  0  0  0  0  0  0
    0.9447   -5.7355   25.2378 N   0  0  0  0  0  0  0  0  0  0  0  0
    3.4685   -8.0126   27.5001 C   0  0  2  0  0  0  0  0  0  0  0  0
   -0.9702   -7.5523   32.6971 C   0  0  2  0  0  0  0  0  0  0  0  0
   -1.6720   -8.6390   32.0865 N   0  0  0  0  0  0  0  0  0  0  0  0
   -0.6453   -5.0946   26.9820 C   0  0  0  0  0  0  0  0  0  0  0  0
    4.5285   -7.5978   26.4560 C   0  0  2  0  0  0  0  0  0  0  0  0
    4.4279   -6.2096   26.2293 O   0  0  0  0  0  0  0  0  0  0  0  0
   -1.9502   -6.5101   33.3363 C   0  0  0  0  0  0  0  0  0  0  0  0
   -1.3633   -5.6068   28.2840 C   0  0  2  0  0  0  0  0  0  0  0  0
   -2.2450   -4.5579   28.8207 N   0  0  0  0  0  0  0  0  0  0  0  0
    4.2649   -8.4308   25.1355 C   0  0  1  0  0  0  0  0  0  0  0  0
    5.2261   -8.0536   24.0480 N   0  0  0  0  0  0  0  0  0  0  0  0
   -1.0940   -5.3853   33.9986 C   0  0  0  0  0  0  0  0  0  0  0  0
   -0.2820   -6.0252   29.3528 C   0  0  2  0  0  0  0  0  0  0  0  0
    4.3722  -10.0174   25.4436 C   0  0  1  0  0  0  0  0  0  0  0  0
    5.6685  -10.3695   25.8807 O   0  0  0  0  0  0  0  0  0  0  0  0
   -0.1720   -4.7252   32.8810 C   0  0  2  0  0  0  0  0  0  0  0  0
    0.6513   -5.7138   32.1867 O   0  0  0  0  0  0  0  0  0  0  0  0
    0.6459   -7.1506   28.7525 C   0  0  2  0  0  0  0  0  0  0  0  0
    1.6286   -7.5463   29.7041 O   0  0  0  0  0  0  0  0  0  0  0  0
    3.3724  -10.3843   26.5835 C   0  0  0  0  0  0  0  0  0  0  0  0
    3.5612   -9.4776   27.7645 O   0  0  0  0  0  0  0  0  0  0  0  0
    0.7023   -3.6015   33.3857 C   0  0  0  0  0  0  0  0  0  0  0  0
   -0.0714   -2.5605   34.0097 N   0  0  0  0  0  0  0  0  0  0  0  0
    1.3515   -6.6221   27.4545 C   0  0  1  0  0  0  0  0  0  0  0  0
    2.1770   -7.6525   26.9250 O   0  0  0  0  0  0  0  0  0  0  0  0
    4.1272  -10.9696   24.2651 C   0  0  0  0  0  0  0  0  0  0  0  0
    4.8065   -6.9894   23.1209 C   0  0  0  0  0  0  0  0  0  0  0  0
  1  2  1  6  0  0  0
  1  6  1  0  0  0  0
  1 21  1  0  0  0  0
  3  4  1  6  0  0  0
  3  8  1  0  0  0  0
  3 28  1  0  0  0  0
  5  9  1  0  0  0  0
  5 25  1  0  0  0  0
  5 29  1  6  0  0  0
  6  7  1  6  0  0  0
  6 11  1  0  0  0  0
  8 12  1  0  0  0  0
  9 10  1  6  0  0  0
  9 14  1  0  0  0  0
 11 16  1  0  0  0  0
 12 13  1  1  0  0  0
 12 17  1  0  0  0  0
 14 15  1  6  0  0  0
 14 18  1  0  0  0  0
 15 31  1  0  0  0  0
 16 20  1  0  0  0  0
 17  2  1  1  0  0  0
 17 22  1  0  0  0  0
 18 19  1  1  0  0  0
 18 24  1  0  0  0  0
 18 30  1  0  0  0  0
 20 21  1  0  0  0  0
 20 26  1  1  0  0  0
 22 23  1  1  0  0  0
 22 28  1  0  0  0  0
 24 25  1  0  0  0  0
 26 27  1  0  0  0  0
 28 29  1  6  0  0  0
M  END
>  <CHROM.1>
-169.62240447,-112.27228775,-91.76867473,-179.42193042,-56.48347571,163.46329810
1.48576670,-7.01219231,28.59858659,-2.61021680,0.89806855,-1.07602127

>  <Name>
2et3_lig

>  <RI>
0

>  <Rbt.Current_Directory>
/home/itssahil/PROJECTS/Mol_Feturizer/New_Systems/rnas/2et3

>  <Rbt.Executable>
rbdock ($Id: //depot/dev/client3/rdock/2013.1/src/exe/rbdock.cxx#4 $)

>  <Rbt.Library>
libRbt.so (2013.1, Build901 2013/11/27)

>  <Rbt.Parameter_File>
/export/apps/rDock/src/rDock_2013.1_src/data/scripts/dock_solv.prm

>  <Rbt.Receptor>
prm/pocket_docking_7.prm

>  <SCORE>
-26.4215

>  <SCORE.INTER>
-19.6018

>  <SCORE.INTER.CONST>
1

>  <SCORE.INTER.POLAR>
-1.04972

>  <SCORE.INTER.ROT>
6

>  <SCORE.INTER.SOLV>
17.4281

>  <SCORE.INTER.VDW>
-22.9782

>  <SCORE.INTER.norm>
-0.632316

>  <SCORE.INTRA>
-6.81973

>  <SCORE.INTRA.DIHEDRAL>
-12.6872

>  <SCORE.INTRA.DIHEDRAL.0>
22.2484

>  <SCORE.INTRA.POLAR>
0

>  <SCORE.INTRA.POLAR.0>
0

>  <SCORE.INTRA.REPUL>
0

>  <SCORE.INTRA.REPUL.0>
0

>  <SCORE.INTRA.SOLV>
-3.05815

>  <SCORE.INTRA.SOLV.lig_0>
-75.7198

>  <SCORE.INTRA.VDW>
1.05295

>  <SCORE.INTRA.VDW.0>
-3.34171

>  <SCORE.INTRA.norm>
-0.219991

>  <SCORE.RESTR>
0

>  <SCORE.RESTR.CAVITY>
0

>  <SCORE.RESTR.norm>
0

>  <SCORE.SYSTEM>
0

>  <SCORE.SYSTEM.CONST>
0

>  <SCORE.SYSTEM.DIHEDRAL>
0

>  <SCORE.SYSTEM.SOLV>
0

>  <SCORE.SYSTEM.norm>
0

>  <SCORE.heavy>
31

>  <SCORE.norm>
-0.852307

>  <RMSD>
9.437

$$$$
2et3_lig
 OpenBabel11021811423D
libRbt.so/2013.1/901 2013/11/27
 31 33  0  0  0  0  0  0  0  0999 V2000
   -0.0213   -7.1724   31.5716 C   0  0  2  0  0  0  0  0  0  0  0  0
   -0.8757   -6.7560   30.4749 O   0  0  0  0  0  0  0  0  0  0  0  0
    0.2758   -6.2319   26.3876 C   0  0  2  0  0  0  0  0  0  0  0  0
    0.8892   -5.6570   25.2305 N   0  0  0  0  0  0  0  0  0  0  0  0
    3.5451   -7.9207   27.4027 C   0  0  2  0  0  0  0  0  0  0  0  0
   -0.7713   -8.1672   32.4639 C   0  0  2  0  0  0  0  0  0  0  0  0
   -1.2087   -9.2641   31.6567 N   0  0  0  0  0  0  0  0  0  0  0  0
   -0.7253   -5.2069   27.0115 C   0  0  0  0  0  0  0  0  0  0  0  0
    4.6049   -7.5890   26.3291 C   0  0  2  0  0  0  0  0  0  0  0  0
    4.5296   -6.2148   26.0219 O   0  0  0  0  0  0  0  0  0  0  0  0
   -1.9689   -7.4594   33.1853 C   0  0  0  0  0  0  0  0  0  0  0  0
   -1.3983   -5.8276   28.2901 C   0  0  2  0  0  0  0  0  0  0  0  0
   -2.3419   -4.8657   28.8818 N   0  0  0  0  0  0  0  0  0  0  0  0
    4.3152   -8.4927   25.0617 C   0  0  1  0  0  0  0  0  0  0  0  0
    5.2753   -8.1991   23.9477 N   0  0  0  0  0  0  0  0  0  0  0  0
   -1.3904   -6.3024   34.0591 C   0  0  0  0  0  0  0  0  0  0  0  0
   -0.2838   -6.2262   29.3320 C   0  0  2  0  0  0  0  0  0  0  0  0
    4.3940  -10.0603   25.4619 C   0  0  1  0  0  0  0  0  0  0  0  0
    5.6866  -10.4117   25.9106 O   0  0  0  0  0  0  0  0  0  0  0  0
   -0.5929   -5.3015   33.1119 C   0  0  2  0  0  0  0  0  0  0  0  0
    0.4419   -5.9807   32.3340 O   0  0  0  0  0  0  0  0  0  0  0  0
    0.7104   -7.2581   28.6729 C   0  0  2  0  0  0  0  0  0  0  0  0
    1.7242   -7.6347   29.5992 O   0  0  0  0  0  0  0  0  0  0  0  0
    3.3960  -10.3398   26.6278 C   0  0  0  0  0  0  0  0  0  0  0  0
    3.6114   -9.3692   27.7523 O   0  0  0  0  0  0  0  0  0  0  0  0
    0.0085   -4.1171   33.8311 C   0  0  0  0  0  0  0  0  0  0  0  0
    0.5216   -3.1365   32.9109 N   0  0  0  0  0  0  0  0  0  0  0  0
    1.3701   -6.6222   27.3990 C   0  0  1  0  0  0  0  0  0  0  0  0
    2.2565   -7.5695   26.8158 O   0  0  0  0  0  0  0  0  0  0  0  0
    4.1217  -11.0750   24.3431 C   0  0  0  0  0  0  0  0  0  0  0  0
    4.8544   -7.2087   22.9427 C   0  0  0  0  0  0  0  0  0  0  0  0
  1  2  1  6  0  0  0
  1  6  1  0  0  0  0
  1 21  1  0  0  0  0
  3  4  1  6  0  0  0
  3  8  1  0  0  0  0
  3 28  1  0  0  0  0
  5  9  1  0  0  0  0
  5 25  1  0  0  0  0
  5 29  1  6  0  0  0
  6  7  1  6  0  0  0
  6 11  1  0  0  0  0
  8 12  1  0  0  0  0
  9 10  1  6  0  0  0
  9 14  1  0  0  0  0
 11 16  1  0  0  0  0
 12 13  1  1  0  0  0
 12 17  1  0  0  0  0
 14 15  1  6  0  0  0
 14 18  1  0  0  0  0
 15 31  1  0  0  0  0
 16 20  1  0  0  0  0
 17  2  1  1  0  0  0
 17 22  1  0  0  0  0
 18 19  1  1  0  0  0
 18 24  1  0  0  0  0
 18 30  1  0  0  0  0
 20 21  1  0  0  0  0
 20 26  1  1  0  0  0
 22 23  1  1  0  0  0
 22 28  1  0  0  0  0
 24 25  1  0  0  0  0
 26 27  1  0  0  0  0
 28 29  1  6  0  0  0
M  END
>  <CHROM.1>
-159.04425827,-121.38428883,-93.32142161,-179.19775204,-170.35080017,166.59119862
1.49300341,-7.23149194,28.53190649,-2.64423745,0.88141829,-0.97962385

>  <Name>
2et3_lig

>  <RI>
0

>  <Rbt.Current_Directory>
/home/itssahil/PROJECTS/Mol_Feturizer/New_Systems/rnas/2et3

>  <Rbt.Executable>
rbdock ($Id: //depot/dev/client3/rdock/2013.1/src/exe/rbdock.cxx#4 $)

>  <Rbt.Library>
libRbt.so (2013.1, Build901 2013/11/27)

>  <Rbt.Parameter_File>
/export/apps/rDock/src/rDock_2013.1_src/data/scripts/dock_solv.prm

>  <Rbt.Receptor>
prm/pocket_docking_6.prm

>  <SCORE>
-24.4068

>  <SCORE.INTER>
-18.1893

>  <SCORE.INTER.CONST>
1

>  <SCORE.INTER.POLAR>
-1.05343

>  <SCORE.INTER.ROT>
6

>  <SCORE.INTER.SOLV>
19.2754

>  <SCORE.INTER.VDW>
-22.6399

>  <SCORE.INTER.norm>
-0.586753

>  <SCORE.INTRA>
-6.21743

>  <SCORE.INTRA.DIHEDRAL>
-11.0637

>  <SCORE.INTRA.DIHEDRAL.0>
22.2484

>  <SCORE.INTRA.POLAR>
0

>  <SCORE.INTRA.POLAR.0>
0

>  <SCORE.INTRA.REPUL>
0

>  <SCORE.INTRA.REPUL.0>
0

>  <SCORE.INTRA.SOLV>
-3.15809

>  <SCORE.INTRA.SOLV.lig_0>
-75.7198

>  <SCORE.INTRA.VDW>
0.89344

>  <SCORE.INTRA.VDW.0>
-3.34171

>  <SCORE.INTRA.norm>
-0.200562

>  <SCORE.RESTR>
0

>  <SCORE.RESTR.CAVITY>
0

>  <SCORE.RESTR.norm>
0

>  <SCORE.SYSTEM>
0

>  <SCORE.SYSTEM.CONST>
0

>  <SCORE.SYSTEM.DIHEDRAL>
0

>  <SCORE.SYSTEM.SOLV>
0

>  <SCORE.SYSTEM.norm>
0

>  <SCORE.heavy>
31

>  <SCORE.norm>
-0.787316

>  <RMSD>
9.446

$$$$
2et3_lig
 OpenBabel11021811423D
libRbt.so/2013.1/901 2013/11/27
 31 33  0  0  0  0  0  0  0  0999 V2000
   -0.0987   -7.7025   30.6947 C   0  0  2  0  0  0  0  0  0  0  0  0
   -0.7629   -7.2477   29.4872 O   0  0  0  0  0  0  0  0  0  0  0  0
    1.1765   -6.0936   25.8522 C   0  0  2  0  0  0  0  0  0  0  0  0
    1.9218   -5.3021   24.9229 N   0  0  0  0  0  0  0  0  0  0  0  0
    4.0644   -7.8769   27.5841 C   0  0  2  0  0  0  0  0  0  0  0  0
   -1.0892   -8.4769   31.5707 C   0  0  2  0  0  0  0  0  0  0  0  0
   -1.6345   -9.5524   30.8013 N   0  0  0  0  0  0  0  0  0  0  0  0
   -0.1117   -5.3199   26.2814 C   0  0  0  0  0  0  0  0  0  0  0  0
    5.4241   -8.0481   26.8715 C   0  0  2  0  0  0  0  0  0  0  0  0
    5.9563   -6.7730   26.5900 O   0  0  0  0  0  0  0  0  0  0  0  0
   -2.2066   -7.5197   32.1098 C   0  0  0  0  0  0  0  0  0  0  0  0
   -0.9335   -6.1795   27.3104 C   0  0  2  0  0  0  0  0  0  0  0  0
   -2.1477   -5.4549   27.7182 N   0  0  0  0  0  0  0  0  0  0  0  0
    5.1812   -8.8894   25.5524 C   0  0  1  0  0  0  0  0  0  0  0  0
    6.4495   -9.0631   24.7712 N   0  0  0  0  0  0  0  0  0  0  0  0
   -1.5186   -6.4028   32.9559 C   0  0  0  0  0  0  0  0  0  0  0  0
   -0.0331   -6.5054   28.5633 C   0  0  2  0  0  0  0  0  0  0  0  0
    4.5540  -10.3371   25.9190 C   0  0  1  0  0  0  0  0  0  0  0  0
    5.4423  -11.0956   26.7134 O   0  0  0  0  0  0  0  0  0  0  0  0
   -0.4755   -5.6351   32.0301 C   0  0  2  0  0  0  0  0  0  0  0  0
    0.4926   -6.5421   31.4158 O   0  0  0  0  0  0  0  0  0  0  0  0
    1.2578   -7.2830   28.0978 C   0  0  2  0  0  0  0  0  0  0  0  0
    2.0843   -7.5909   29.2158 O   0  0  0  0  0  0  0  0  0  0  0  0
    3.2430  -10.1320   26.7391 C   0  0  0  0  0  0  0  0  0  0  0  0
    3.4847   -9.2139   27.9016 O   0  0  0  0  0  0  0  0  0  0  0  0
    0.2541   -4.5086   32.7234 C   0  0  0  0  0  0  0  0  0  0  0  0
   -0.6522   -3.4953   33.1964 N   0  0  0  0  0  0  0  0  0  0  0  0
    2.0629   -6.4112   27.0712 C   0  0  1  0  0  0  0  0  0  0  0  0
    3.2179   -7.1318   26.6586 O   0  0  0  0  0  0  0  0  0  0  0  0
    4.2438  -11.2748   24.7443 C   0  0  0  0  0  0  0  0  0  0  0  0
    6.4841   -8.4959   23.4128 C   0  0  0  0  0  0  0  0  0  0  0  0
  1  2  1  6  0  0  0
  1  6  1  0  0  0  0
  1 21  1  0  0  0  0
  3  4  1  6  0  0  0
  3  8  1  0  0  0  0
  3 28  1  0  0  0  0
  5  9  1  0  0  0  0
  5 25  1  0  0  0  0
  5 29  1  6  0  0  0
  6  7  1  6  0  0  0
  6 11  1  0  0  0  0
  8 12  1  0  0  0  0
  9 10  1  6  0  0  0
  9 14  1  0  0  0  0
 11 16  1  0  0  0  0
 12 13  1  1  0  0  0
 12 17  1  0  0  0  0
 14 15  1  1  0  0  0
 14 18  1  0  0  0  0
 15 31  1  0  0  0  0
 16 20  1  0  0  0  0
 17  2  1  1  0  0  0
 17 22  1  0  0  0  0
 18 19  1  1  0  0  0
 18 24  1  0  0  0  0
 18 30  1  0  0  0  0
 20 21  1  0  0  0  0
 20 26  1  1  0  0  0
 22 23  1  1  0  0  0
 22 28  1  0  0  0  0
 24 25  1  0  0  0  0
 26 27  1  0  0  0  0
 28 29  1  6  0  0  0
M  END
>  <CHROM.1>
179.17901793,-159.52428522,-118.36992038,177.43893739,-60.56569107,-163.41065417
1.82943855,-7.48962916,28.23275351,-2.87529805,0.78670861,-0.80925434

>  <Name>
2et3_lig

>  <RI>
2.5794e+07

>  <Rbt.Current_Directory>
/home/itssahil/PROJECTS/Mol_Feturizer/New_Systems/rnas/2et3

>  <Rbt.Executable>
rbdock ($Id: //depot/dev/client3/rdock/2013.1/src/exe/rbdock.cxx#4 $)

>  <Rbt.Library>
libRbt.so (2013.1, Build901 2013/11/27)

>  <Rbt.Parameter_File>
/export/apps/rDock/src/rDock_2013.1_src/data/scripts/dock_solv.prm

>  <Rbt.Receptor>
prm/pocket_docking_5.prm

>  <SCORE>
-27.6884

>  <SCORE.INTER>
-20.1428

>  <SCORE.INTER.CONST>
1

>  <SCORE.INTER.POLAR>
-1.11065

>  <SCORE.INTER.ROT>
6

>  <SCORE.INTER.SOLV>
16.6912

>  <SCORE.INTER.VDW>
-22.8901

>  <SCORE.INTER.norm>
-0.649768

>  <SCORE.INTRA>
-7.5495

>  <SCORE.INTRA.DIHEDRAL>
-17.7003

>  <SCORE.INTRA.DIHEDRAL.0>
22.2484

>  <SCORE.INTRA.POLAR>
0

>  <SCORE.INTRA.POLAR.0>
0

>  <SCORE.INTRA.REPUL>
0

>  <SCORE.INTRA.REPUL.0>
0

>  <SCORE.INTRA.SOLV>
-4.24023

>  <SCORE.INTRA.SOLV.lig_0>
-75.7198

>  <SCORE.INTRA.VDW>
3.42074

>  <SCORE.INTRA.VDW.0>
-3.34171

>  <SCORE.INTRA.norm>
-0.243532

>  <SCORE.RESTR>
0.0039119

>  <SCORE.RESTR.CAVITY>
0.0039119

>  <SCORE.RESTR.norm>
0.00012619

>  <SCORE.SYSTEM>
0

>  <SCORE.SYSTEM.CONST>
0

>  <SCORE.SYSTEM.DIHEDRAL>
0

>  <SCORE.SYSTEM.SOLV>
0

>  <SCORE.SYSTEM.norm>
0

>  <SCORE.heavy>
31

>  <SCORE.norm>
-0.893174

>  <RMSD>
9.476

$$$$
2et3_lig
 OpenBabel11021811423D
libRbt.so/2013.1/901 2013/11/27
 31 33  0  0  0  0  0  0  0  0999 V2000
   -0.0047   -7.8802   30.8692 C   0  0  2  0  0  0  0  0  0  0  0  0
   -0.7283   -7.3932   29.7092 O   0  0  0  0  0  0  0  0  0  0  0  0
    1.0374   -6.0853   26.0380 C   0  0  2  0  0  0  0  0  0  0  0  0
    1.7295   -5.2502   25.1057 N   0  0  0  0  0  0  0  0  0  0  0  0
    4.0429   -7.8442   27.5931 C   0  0  2  0  0  0  0  0  0  0  0  0
   -0.7016   -9.1245   31.4299 C   0  0  2  0  0  0  0  0  0  0  0  0
   -0.7987  -10.1009   30.3890 N   0  0  0  0  0  0  0  0  0  0  0  0
   -0.2448   -5.3500   26.5455 C   0  0  0  0  0  0  0  0  0  0  0  0
    5.3725   -7.9524   26.8146 C   0  0  2  0  0  0  0  0  0  0  0  0
    5.8462   -6.6537   26.5364 O   0  0  0  0  0  0  0  0  0  0  0  0
   -2.1076   -8.7487   32.0107 C   0  0  0  0  0  0  0  0  0  0  0  0
   -1.0080   -6.2578   27.5783 C   0  0  2  0  0  0  0  0  0  0  0  0
   -2.2163   -5.5695   28.0598 N   0  0  0  0  0  0  0  0  0  0  0  0
    5.0969   -8.7752   25.4902 C   0  0  1  0  0  0  0  0  0  0  0  0
    6.3322   -8.8878   24.6474 N   0  0  0  0  0  0  0  0  0  0  0  0
   -1.8952   -7.7060   33.1528 C   0  0  0  0  0  0  0  0  0  0  0  0
   -0.0505   -6.6078   28.7814 C   0  0  2  0  0  0  0  0  0  0  0  0
    4.5384  -10.2514   25.8540 C   0  0  1  0  0  0  0  0  0  0  0  0
    5.4889  -10.9936   26.5896 O   0  0  0  0  0  0  0  0  0  0  0  0
   -1.1444   -6.4385   32.5491 C   0  0  2  0  0  0  0  0  0  0  0  0
    0.1079   -6.7995   31.8869 O   0  0  0  0  0  0  0  0  0  0  0  0
    1.2329   -7.3457   28.2374 C   0  0  2  0  0  0  0  0  0  0  0  0
    2.1106   -7.6747   29.3094 O   0  0  0  0  0  0  0  0  0  0  0  0
    3.2612  -10.1098   26.7385 C   0  0  0  0  0  0  0  0  0  0  0  0
    3.5255   -9.2072   27.9082 O   0  0  0  0  0  0  0  0  0  0  0  0
   -0.8893   -5.3366   33.5504 C   0  0  0  0  0  0  0  0  0  0  0  0
   -0.1821   -5.8185   34.7078 N   0  0  0  0  0  0  0  0  0  0  0  0
    1.9793   -6.4262   27.2081 C   0  0  1  0  0  0  0  0  0  0  0  0
    3.1282   -7.1113   26.7244 O   0  0  0  0  0  0  0  0  0  0  0  0
    4.2058  -11.1759   24.6749 C   0  0  0  0  0  0  0  0  0  0  0  0
    6.7531   -7.6851   23.9094 C   0  0  0  0  0  0  0  0  0  0  0  0
  1  2  1  6  0  0  0
  1  6  1  0  0  0  0
  1 21  1  0  0  0  0
  3  4  1  6  0  0  0
  3  8  1  0  0  0  0
  3 28  1  0  0  0  0
  5  9  1  0  0  0  0
  5 25  1  0  0  0  0
  5 29  1  6  0  0  0
  6  7  1  6  0  0  0
  6 11  1  0  0  0  0
  8 12  1  0  0  0  0
  9 10  1  6  0  0  0
  9 14  1  0  0  0  0
 11 16  1  0  0  0  0
 12 13  1  1  0  0  0
 12 17  1  0  0  0  0
 14 15  1  1  0  0  0
 14 18  1  0  0  0  0
 15 31  1  0  0  0  0
 16 20  1  0  0  0  0
 17  2  1  1  0  0  0
 17 22  1  0  0  0  0
 18 19  1  1  0  0  0
 18 24  1  0  0  0  0
 18 30  1  0  0  0  0
 20 21  1  0  0  0  0
 20 26  1  1  0  0  0
 22 23  1  1  0  0  0
 22 28  1  0  0  0  0
 24 25  1  0  0  0  0
 26 27  1  0  0  0  0
 28 29  1  6  0  0  0
M  END
>  <CHROM.1>
-157.21651619,-158.66951300,-74.47687168,177.14803773,54.50895294,-164.90661334
1.78109183,-7.70974435,28.39810152,-2.69215652,0.71440398,-0.90010910

>  <Name>
2et3_lig

>  <RI>
2.5794e+07

>  <Rbt.Current_Directory>
/home/itssahil/PROJECTS/Mol_Feturizer/New_Systems/rnas/2et3

>  <Rbt.Executable>
rbdock ($Id: //depot/dev/client3/rdock/2013.1/src/exe/rbdock.cxx#4 $)

>  <Rbt.Library>
libRbt.so (2013.1, Build901 2013/11/27)

>  <Rbt.Parameter_File>
/export/apps/rDock/src/rDock_2013.1_src/data/scripts/dock_solv.prm

>  <Rbt.Receptor>
prm/pocket_docking_5.prm

>  <SCORE>
-27.8658

>  <SCORE.INTER>
-22.1432

>  <SCORE.INTER.CONST>
1

>  <SCORE.INTER.POLAR>
-1.64382

>  <SCORE.INTER.ROT>
6

>  <SCORE.INTER.SOLV>
18.8126

>  <SCORE.INTER.VDW>
-23.1536

>  <SCORE.INTER.norm>
-0.714298

>  <SCORE.INTRA>
-5.72255

>  <SCORE.INTRA.DIHEDRAL>
-16.4504

>  <SCORE.INTRA.DIHEDRAL.0>
22.2484

>  <SCORE.INTRA.POLAR>
0

>  <SCORE.INTRA.POLAR.0>
0

>  <SCORE.INTRA.REPUL>
0

>  <SCORE.INTRA.REPUL.0>
0

>  <SCORE.INTRA.SOLV>
-2.82014

>  <SCORE.INTRA.SOLV.lig_0>
-75.7198

>  <SCORE.INTRA.VDW>
3.91273

>  <SCORE.INTRA.VDW.0>
-3.34171

>  <SCORE.INTRA.norm>
-0.184598

>  <SCORE.RESTR>
0

>  <SCORE.RESTR.CAVITY>
0

>  <SCORE.RESTR.norm>
0

>  <SCORE.SYSTEM>
0

>  <SCORE.SYSTEM.CONST>
0

>  <SCORE.SYSTEM.DIHEDRAL>
0

>  <SCORE.SYSTEM.SOLV>
0

>  <SCORE.SYSTEM.norm>
0

>  <SCORE.heavy>
31

>  <SCORE.norm>
-0.898896

>  <RMSD>
9.512

$$$$
2et3_lig
 OpenBabel11021811423D
libRbt.so/2013.1/901 2013/11/27
 31 33  0  0  0  0  0  0  0  0999 V2000
   -0.0354   -7.7142   30.7896 C   0  0  2  0  0  0  0  0  0  0  0  0
   -0.7143   -7.3412   29.5623 O   0  0  0  0  0  0  0  0  0  0  0  0
    1.0729   -6.0811   25.8847 C   0  0  2  0  0  0  0  0  0  0  0  0
    1.7728   -5.2593   24.9464 N   0  0  0  0  0  0  0  0  0  0  0  0
    4.0942   -7.7898   27.4773 C   0  0  2  0  0  0  0  0  0  0  0  0
   -0.9671   -8.5651   31.6592 C   0  0  2  0  0  0  0  0  0  0  0  0
   -1.3937   -9.6980   30.8971 N   0  0  0  0  0  0  0  0  0  0  0  0
   -0.2081   -5.3347   26.3787 C   0  0  0  0  0  0  0  0  0  0  0  0
    5.4201   -7.8942   26.6920 C   0  0  2  0  0  0  0  0  0  0  0  0
    5.8613   -6.5954   26.3652 O   0  0  0  0  0  0  0  0  0  0  0  0
   -2.1797   -7.7091   32.1611 C   0  0  0  0  0  0  0  0  0  0  0  0
   -0.9797   -6.2278   27.4179 C   0  0  2  0  0  0  0  0  0  0  0  0
   -2.1871   -5.5289   27.8867 N   0  0  0  0  0  0  0  0  0  0  0  0
    5.1540   -8.7686   25.3991 C   0  0  1  0  0  0  0  0  0  0  0  0
    6.3853   -8.8819   24.5505 N   0  0  0  0  0  0  0  0  0  0  0  0
   -1.6166   -6.5205   33.0018 C   0  0  0  0  0  0  0  0  0  0  0  0
   -0.0291   -6.5689   28.6289 C   0  0  2  0  0  0  0  0  0  0  0  0
    4.6329  -10.2439   25.8183 C   0  0  1  0  0  0  0  0  0  0  0  0
    5.6060  -10.9379   26.5712 O   0  0  0  0  0  0  0  0  0  0  0  0
   -0.6308   -5.6720   32.0835 C   0  0  2  0  0  0  0  0  0  0  0  0
    0.4301   -6.4931   31.5027 O   0  0  0  0  0  0  0  0  0  0  0  0
    1.2534   -7.3184   28.0985 C   0  0  2  0  0  0  0  0  0  0  0  0
    2.1250   -7.6395   29.1779 O   0  0  0  0  0  0  0  0  0  0  0  0
    3.3593  -10.1012   26.7078 C   0  0  0  0  0  0  0  0  0  0  0  0
    3.6112   -9.1527   27.8435 O   0  0  0  0  0  0  0  0  0  0  0  0
   -0.0241   -4.4722   32.7721 C   0  0  0  0  0  0  0  0  0  0  0  0
   -1.0319   -3.5555   33.2368 N   0  0  0  0  0  0  0  0  0  0  0  0
    2.0083   -6.4134   27.0626 C   0  0  1  0  0  0  0  0  0  0  0  0
    3.1562   -7.1089   26.5913 O   0  0  0  0  0  0  0  0  0  0  0  0
    4.3132  -11.2161   24.6746 C   0  0  0  0  0  0  0  0  0  0  0  0
    7.6287   -9.2929   25.2236 C   0  0  0  0  0  0  0  0  0  0  0  0
  1  2  1  6  0  0  0
  1  6  1  0  0  0  0
  1 21  1  0  0  0  0
  3  4  1  6  0  0  0
  3  8  1  0  0  0  0
  3 28  1  0  0  0  0
  5  9  1  0  0  0  0
  5 25  1  0  0  0  0
  5 29  1  6  0  0  0
  6  7  1  6  0  0  0
  6 11  1  0  0  0  0
  8 12  1  0  0  0  0
  9 10  1  6  0  0  0
  9 14  1  0  0  0  0
 11 16  1  0  0  0  0
 12 13  1  1  0  0  0
 12 17  1  0  0  0  0
 14 15  1  1  0  0  0
 14 18  1  0  0  0  0
 15 31  1  0  0  0  0
 16 20  1  0  0  0  0
 17  2  1  1  0  0  0
 17 22  1  0  0  0  0
 18 19  1  1  0  0  0
 18 24  1  0  0  0  0
 18 30  1  0  0  0  0
 20 21  1  0  0  0  0
 20 26  1  1  0  0  0
 22 23  1  1  0  0  0
 22 28  1  0  0  0  0
 24 25  1  0  0  0  0
 26 27  1  0  0  0  0
 28 29  1  6  0  0  0
M  END
>  <CHROM.1>
-179.59395682,-157.48972547,50.43088325,-177.19650611,-59.30677974,-167.51894164
1.85086393,-7.50783657,28.28645450,-2.86697239,0.75150038,-0.84443419

>  <Name>
2et3_lig

>  <RI>
0

>  <Rbt.Current_Directory>
/home/itssahil/PROJECTS/Mol_Feturizer/New_Systems/rnas/2et3

>  <Rbt.Executable>
rbdock ($Id: //depot/dev/client3/rdock/2013.1/src/exe/rbdock.cxx#4 $)

>  <Rbt.Library>
libRbt.so (2013.1, Build901 2013/11/27)

>  <Rbt.Parameter_File>
/export/apps/rDock/src/rDock_2013.1_src/data/scripts/dock_solv.prm

>  <Rbt.Receptor>
prm/pocket_docking_6.prm

>  <SCORE>
-27.1152

>  <SCORE.INTER>
-19.9153

>  <SCORE.INTER.CONST>
1

>  <SCORE.INTER.POLAR>
-1.04307

>  <SCORE.INTER.ROT>
6

>  <SCORE.INTER.SOLV>
15.7614

>  <SCORE.INTER.VDW>
-22.6537

>  <SCORE.INTER.norm>
-0.642428

>  <SCORE.INTRA>
-7.19992

>  <SCORE.INTRA.DIHEDRAL>
-18.9975

>  <SCORE.INTRA.DIHEDRAL.0>
22.2484

>  <SCORE.INTRA.POLAR>
0

>  <SCORE.INTRA.POLAR.0>
0

>  <SCORE.INTRA.REPUL>
0

>  <SCORE.INTRA.REPUL.0>
0

>  <SCORE.INTRA.SOLV>
-3.95049

>  <SCORE.INTRA.SOLV.lig_0>
-75.7198

>  <SCORE.INTRA.VDW>
4.27406

>  <SCORE.INTRA.VDW.0>
-3.34171

>  <SCORE.INTRA.norm>
-0.232255

>  <SCORE.RESTR>
0

>  <SCORE.RESTR.CAVITY>
0

>  <SCORE.RESTR.norm>
0

>  <SCORE.SYSTEM>
0

>  <SCORE.SYSTEM.CONST>
0

>  <SCORE.SYSTEM.DIHEDRAL>
0

>  <SCORE.SYSTEM.SOLV>
0

>  <SCORE.SYSTEM.norm>
0

>  <SCORE.heavy>
31

>  <SCORE.norm>
-0.874684

>  <RMSD>
9.527

$$$$
2et3_lig
 OpenBabel11021811423D
libRbt.so/2013.1/901 2013/11/27
 31 33  0  0  0  0  0  0  0  0999 V2000
   -0.0054   -6.1983   31.2426 C   0  0  2  0  0  0  0  0  0  0  0  0
   -0.7875   -6.4098   30.0386 O   0  0  0  0  0  0  0  0  0  0  0  0
    0.3940   -6.2303   25.9303 C   0  0  2  0  0  0  0  0  0  0  0  0
    0.8938   -5.6971   24.7009 N   0  0  0  0  0  0  0  0  0  0  0  0
    3.9596   -6.7353   27.1626 C   0  0  2  0  0  0  0  0  0  0  0  0
   -0.6143   -6.9934   32.4025 C   0  0  2  0  0  0  0  0  0  0  0  0
   -0.6845   -8.3710   32.0238 N   0  0  0  0  0  0  0  0  0  0  0  0
   -0.8710   -5.4262   26.3721 C   0  0  0  0  0  0  0  0  0  0  0  0
    4.9523   -6.8490   25.9847 C   0  0  2  0  0  0  0  0  0  0  0  0
    4.6583   -5.8437   25.0406 O   0  0  0  0  0  0  0  0  0  0  0  0
   -2.0227   -6.4191   32.7792 C   0  0  0  0  0  0  0  0  0  0  0  0
   -1.4226   -6.0003   27.7283 C   0  0  2  0  0  0  0  0  0  0  0  0
   -2.6140   -5.2459   28.1490 N   0  0  0  0  0  0  0  0  0  0  0  0
    4.8099   -8.2990   25.3648 C   0  0  1  0  0  0  0  0  0  0  0  0
    5.7102   -8.4794   24.1791 N   0  0  0  0  0  0  0  0  0  0  0  0
   -1.8383   -4.9283   33.2038 C   0  0  0  0  0  0  0  0  0  0  0  0
   -0.2974   -5.9229   28.8303 C   0  0  2  0  0  0  0  0  0  0  0  0
    5.1383   -9.4217   26.4852 C   0  0  1  0  0  0  0  0  0  0  0  0
    6.4706   -9.3168   26.9429 O   0  0  0  0  0  0  0  0  0  0  0  0
   -1.1781   -4.1338   31.9923 C   0  0  2  0  0  0  0  0  0  0  0  0
    0.0739   -4.7432   31.5466 O   0  0  0  0  0  0  0  0  0  0  0  0
    0.9646   -6.7409   28.3548 C   0  0  2  0  0  0  0  0  0  0  0  0
    1.9930   -6.6871   29.3383 O   0  0  0  0  0  0  0  0  0  0  0  0
    4.1983   -9.2083   27.7118 C   0  0  0  0  0  0  0  0  0  0  0  0
    4.2565   -7.7839   28.1810 O   0  0  0  0  0  0  0  0  0  0  0  0
   -0.9583   -2.6642   32.2637 C   0  0  0  0  0  0  0  0  0  0  0  0
   -0.1445   -2.4516   33.4318 N   0  0  0  0  0  0  0  0  0  0  0  0
    1.4991   -6.1551   27.0007 C   0  0  1  0  0  0  0  0  0  0  0  0
    2.6311   -6.9096   26.5855 O   0  0  0  0  0  0  0  0  0  0  0  0
    5.0309  -10.8888   26.0474 C   0  0  0  0  0  0  0  0  0  0  0  0
    5.0661   -8.6148   22.8619 C   0  0  0  0  0  0  0  0  0  0  0  0
  1  2  1  6  0  0  0
  1  6  1  0  0  0  0
  1 21  1  0  0  0  0
  3  4  1  6  0  0  0
  3  8  1  0  0  0  0
  3 28  1  0  0  0  0
  5  9  1  0  0  0  0
  5 25  1  0  0  0  0
  5 29  1  6  0  0  0
  6  7  1  6  0  0  0
  6 11  1  0  0  0  0
  8 12  1  0  0  0  0
  9 10  1  6  0  0  0
  9 14  1  0  0  0  0
 11 16  1  0  0  0  0
 12 13  1  1  0  0  0
 12 17  1  0  0  0  0
 14 15  1  6  0  0  0
 14 18  1  0  0  0  0
 15 31  1  0  0  0  0
 16 20  1  0  0  0  0
 17  2  1  1  0  0  0
 17 22  1  0  0  0  0
 18 19  1  1  0  0  0
 18 24  1  0  0  0  0
 18 30  1  0  0  0  0
 20 21  1  0  0  0  0
 20 26  1  1  0  0  0
 22 23  1  1  0  0  0
 22 28  1  0  0  0  0
 24 25  1  0  0  0  0
 26 27  1  0  0  0  0
 28 29  1  6  0  0  0
M  END
>  <CHROM.1>
-171.29773915,-140.67073770,-111.75847306,-168.53389550,56.99482838,161.64629885
1.63594043,-6.65125964,28.36971349,-2.48063010,0.62124603,-1.41473812

>  <Name>
2et3_lig

>  <RI>
0

>  <Rbt.Current_Directory>
/home/itssahil/PROJECTS/Mol_Feturizer/New_Systems/rnas/2et3

>  <Rbt.Executable>
rbdock ($Id: //depot/dev/client3/rdock/2013.1/src/exe/rbdock.cxx#4 $)

>  <Rbt.Library>
libRbt.so (2013.1, Build901 2013/11/27)

>  <Rbt.Parameter_File>
/export/apps/rDock/src/rDock_2013.1_src/data/scripts/dock_solv.prm

>  <Rbt.Receptor>
prm/pocket_docking_7.prm

>  <SCORE>
-24.8693

>  <SCORE.INTER>
-17.1863

>  <SCORE.INTER.CONST>
1

>  <SCORE.INTER.POLAR>
-0.936443

>  <SCORE.INTER.ROT>
6

>  <SCORE.INTER.SOLV>
19.8488

>  <SCORE.INTER.VDW>
-22.5523

>  <SCORE.INTER.norm>
-0.554397

>  <SCORE.INTRA>
-7.6892

>  <SCORE.INTRA.DIHEDRAL>
-13.098

>  <SCORE.INTRA.DIHEDRAL.0>
22.2484

>  <SCORE.INTRA.POLAR>
0

>  <SCORE.INTRA.POLAR.0>
0

>  <SCORE.INTRA.REPUL>
0

>  <SCORE.INTRA.REPUL.0>
0

>  <SCORE.INTRA.SOLV>
-2.58767

>  <SCORE.INTRA.SOLV.lig_0>
-75.7198

>  <SCORE.INTRA.VDW>
0.153647

>  <SCORE.INTRA.VDW.0>
-3.34171

>  <SCORE.INTRA.norm>
-0.248039

>  <SCORE.RESTR>
0.00618219

>  <SCORE.RESTR.CAVITY>
0.00618219

>  <SCORE.RESTR.norm>
0.000199425

>  <SCORE.SYSTEM>
0

>  <SCORE.SYSTEM.CONST>
0

>  <SCORE.SYSTEM.DIHEDRAL>
0

>  <SCORE.SYSTEM.SOLV>
0

>  <SCORE.SYSTEM.norm>
0

>  <SCORE.heavy>
31

>  <SCORE.norm>
-0.802236

>  <RMSD>
9.534

$$$$
2et3_lig
 OpenBabel11021811423D
libRbt.so/2013.1/901 2013/11/27
 31 33  0  0  0  0  0  0  0  0999 V2000
    0.0797   -7.9672   30.8899 C   0  0  2  0  0  0  0  0  0  0  0  0
   -0.6362   -7.5108   29.7129 O   0  0  0  0  0  0  0  0  0  0  0  0
    1.0789   -6.0892   26.0599 C   0  0  2  0  0  0  0  0  0  0  0  0
    1.7590   -5.2259   25.1447 N   0  0  0  0  0  0  0  0  0  0  0  0
    4.1325   -7.8558   27.5216 C   0  0  2  0  0  0  0  0  0  0  0  0
   -0.6190   -9.1985   31.4765 C   0  0  2  0  0  0  0  0  0  0  0  0
   -0.7068  -10.2007   30.4597 N   0  0  0  0  0  0  0  0  0  0  0  0
   -0.1947   -5.3689   26.6089 C   0  0  0  0  0  0  0  0  0  0  0  0
    5.4366   -7.9446   26.6988 C   0  0  2  0  0  0  0  0  0  0  0  0
    5.8801   -6.6391   26.4029 O   0  0  0  0  0  0  0  0  0  0  0  0
   -2.0299   -8.8110   32.0374 C   0  0  0  0  0  0  0  0  0  0  0  0
   -0.9445   -6.3080   27.6232 C   0  0  2  0  0  0  0  0  0  0  0  0
   -2.1446   -5.6339   28.1436 N   0  0  0  0  0  0  0  0  0  0  0  0
    5.1296   -8.7741   25.3855 C   0  0  1  0  0  0  0  0  0  0  0  0
    6.3373   -8.8689   24.5016 N   0  0  0  0  0  0  0  0  0  0  0  0
   -1.8278   -7.7396   33.1546 C   0  0  0  0  0  0  0  0  0  0  0  0
    0.0295   -6.6972   28.8007 C   0  0  2  0  0  0  0  0  0  0  0  0
    4.6070  -10.2583   25.7701 C   0  0  1  0  0  0  0  0  0  0  0  0
    5.5935  -10.9840   26.4742 O   0  0  0  0  0  0  0  0  0  0  0  0
   -1.0748   -6.4861   32.5249 C   0  0  2  0  0  0  0  0  0  0  0  0
    0.1830   -6.8612   31.8810 O   0  0  0  0  0  0  0  0  0  0  0  0
    1.3038   -7.4191   28.2152 C   0  0  2  0  0  0  0  0  0  0  0  0
    2.1962   -7.7830   29.2635 O   0  0  0  0  0  0  0  0  0  0  0  0
    3.3583  -10.1351   26.6970 C   0  0  0  0  0  0  0  0  0  0  0  0
    3.6477   -9.2262   27.8559 O   0  0  0  0  0  0  0  0  0  0  0  0
   -0.8289   -5.3590   33.5001 C   0  0  0  0  0  0  0  0  0  0  0  0
   -0.2109   -5.8263   34.7131 N   0  0  0  0  0  0  0  0  0  0  0  0
    2.0369   -6.4682   27.2050 C   0  0  1  0  0  0  0  0  0  0  0  0
    3.1776   -7.1392   26.6833 O   0  0  0  0  0  0  0  0  0  0  0  0
    4.2495  -11.1901   24.6041 C   0  0  0  0  0  0  0  0  0  0  0  0
    6.4478   -7.8881   23.4090 C   0  0  0  0  0  0  0  0  0  0  0  0
  1  2  1  6  0  0  0
  1  6  1  0  0  0  0
  1 21  1  0  0  0  0
  3  4  1  6  0  0  0
  3  8  1  0  0  0  0
  3 28  1  0  0  0  0
  5  9  1  0  0  0  0
  5 25  1  0  0  0  0
  5 29  1  6  0  0  0
  6  7  1  6  0  0  0
  6 11  1  0  0  0  0
  8 12  1  0  0  0  0
  9 10  1  6  0  0  0
  9 14  1  0  0  0  0
 11 16  1  0  0  0  0
 12 13  1  1  0  0  0
 12 17  1  0  0  0  0
 14 15  1  6  0  0  0
 14 18  1  0  0  0  0
 15 31  1  0  0  0  0
 16 20  1  0  0  0  0
 17  2  1  1  0  0  0
 17 22  1  0  0  0  0
 18 19  1  1  0  0  0
 18 24  1  0  0  0  0
 18 30  1  0  0  0  0
 20 21  1  0  0  0  0
 20 26  1  1  0  0  0
 22 23  1  1  0  0  0
 22 28  1  0  0  0  0
 24 25  1  0  0  0  0
 26 27  1  0  0  0  0
 28 29  1  6  0  0  0
M  END
>  <CHROM.1>
-160.08791956,-158.49814864,-95.90529089,-179.06644479,50.57894042,-167.41726800
1.83321950,-7.75207821,28.35798448,-2.69742614,0.73704766,-0.87137766

>  <Name>
2et3_lig

>  <RI>
0

>  <Rbt.Current_Directory>
/home/itssahil/PROJECTS/Mol_Feturizer/New_Systems/rnas/2et3

>  <Rbt.Executable>
rbdock ($Id: //depot/dev/client3/rdock/2013.1/src/exe/rbdock.cxx#4 $)

>  <Rbt.Library>
libRbt.so (2013.1, Build901 2013/11/27)

>  <Rbt.Parameter_File>
/export/apps/rDock/src/rDock_2013.1_src/data/scripts/dock_solv.prm

>  <Rbt.Receptor>
prm/pocket_docking_6.prm

>  <SCORE>
-28.374

>  <SCORE.INTER>
-21.7174

>  <SCORE.INTER.CONST>
1

>  <SCORE.INTER.POLAR>
-1.56123

>  <SCORE.INTER.ROT>
6

>  <SCORE.INTER.SOLV>
18.8024

>  <SCORE.INTER.VDW>
-23.1417

>  <SCORE.INTER.norm>
-0.700563

>  <SCORE.INTRA>
-6.6566

>  <SCORE.INTRA.DIHEDRAL>
-16.4474

>  <SCORE.INTRA.DIHEDRAL.0>
22.2484

>  <SCORE.INTRA.POLAR>
0

>  <SCORE.INTRA.POLAR.0>
0

>  <SCORE.INTRA.REPUL>
0

>  <SCORE.INTRA.REPUL.0>
0

>  <SCORE.INTRA.SOLV>
-2.94105

>  <SCORE.INTRA.SOLV.lig_0>
-75.7198

>  <SCORE.INTRA.VDW>
3.03761

>  <SCORE.INTRA.VDW.0>
-3.34171

>  <SCORE.INTRA.norm>
-0.214729

>  <SCORE.RESTR>
0

>  <SCORE.RESTR.CAVITY>
0

>  <SCORE.RESTR.norm>
0

>  <SCORE.SYSTEM>
0

>  <SCORE.SYSTEM.CONST>
0

>  <SCORE.SYSTEM.DIHEDRAL>
0

>  <SCORE.SYSTEM.SOLV>
0

>  <SCORE.SYSTEM.norm>
0

>  <SCORE.heavy>
31

>  <SCORE.norm>
-0.915292

>  <RMSD>
9.559

$$$$
2et3_lig
 OpenBabel11021811423D
libRbt.so/2013.1/901 2013/11/27
 31 33  0  0  0  0  0  0  0  0999 V2000
   -0.0155   -6.1670   31.1471 C   0  0  2  0  0  0  0  0  0  0  0  0
   -0.7383   -6.4884   29.9304 O   0  0  0  0  0  0  0  0  0  0  0  0
    0.4193   -6.2611   25.8176 C   0  0  2  0  0  0  0  0  0  0  0  0
    0.8979   -5.7095   24.5879 N   0  0  0  0  0  0  0  0  0  0  0  0
    3.9799   -6.7472   27.1065 C   0  0  2  0  0  0  0  0  0  0  0  0
   -0.5999   -6.9591   32.3216 C   0  0  2  0  0  0  0  0  0  0  0  0
   -0.5512   -8.3524   32.0014 N   0  0  0  0  0  0  0  0  0  0  0  0
   -0.8666   -5.4956   26.2677 C   0  0  0  0  0  0  0  0  0  0  0  0
    5.0282   -6.8983   25.9823 C   0  0  2  0  0  0  0  0  0  0  0  0
    4.8190   -5.8859   25.0232 O   0  0  0  0  0  0  0  0  0  0  0  0
   -2.0602   -6.4818   32.6302 C   0  0  0  0  0  0  0  0  0  0  0  0
   -1.3952   -6.0900   27.6243 C   0  0  2  0  0  0  0  0  0  0  0  0
   -2.6062   -5.3720   28.0528 N   0  0  0  0  0  0  0  0  0  0  0  0
    4.8684   -8.3441   25.3570 C   0  0  1  0  0  0  0  0  0  0  0  0
    5.8226   -8.5587   24.2202 N   0  0  0  0  0  0  0  0  0  0  0  0
   -2.0055   -4.9650   32.9948 C   0  0  0  0  0  0  0  0  0  0  0  0
   -0.2678   -5.9835   28.7217 C   0  0  2  0  0  0  0  0  0  0  0  0
    5.0986   -9.4745   26.4941 C   0  0  1  0  0  0  0  0  0  0  0  0
    6.4080   -9.4144   27.0207 O   0  0  0  0  0  0  0  0  0  0  0  0
   -1.3681   -4.1717   31.7704 C   0  0  2  0  0  0  0  0  0  0  0  0
   -0.0588   -4.6989   31.3897 O   0  0  0  0  0  0  0  0  0  0  0  0
    1.0153   -6.7628   28.2378 C   0  0  2  0  0  0  0  0  0  0  0  0
    2.0460   -6.6824   29.2171 O   0  0  0  0  0  0  0  0  0  0  0  0
    4.1038   -9.2255   27.6696 C   0  0  0  0  0  0  0  0  0  0  0  0
    4.1867   -7.8026   28.1400 O   0  0  0  0  0  0  0  0  0  0  0  0
   -1.2714   -2.6794   31.9841 C   0  0  0  0  0  0  0  0  0  0  0  0
   -2.5664   -2.0815   32.1771 N   0  0  0  0  0  0  0  0  0  0  0  0
    1.5265   -6.1572   26.8835 C   0  0  1  0  0  0  0  0  0  0  0  0
    2.6782   -6.8771   26.4608 O   0  0  0  0  0  0  0  0  0  0  0  0
    4.9635  -10.9382   26.0526 C   0  0  0  0  0  0  0  0  0  0  0  0
    5.2420   -8.9165   22.9152 C   0  0  0  0  0  0  0  0  0  0  0  0
  1  2  1  6  0  0  0
  1  6  1  0  0  0  0
  1 21  1  0  0  0  0
  3  4  1  6  0  0  0
  3  8  1  0  0  0  0
  3 28  1  0  0  0  0
  5  9  1  0  0  0  0
  5 25  1  0  0  0  0
  5 29  1  6  0  0  0
  6  7  1  6  0  0  0
  6 11  1  0  0  0  0
  8 12  1  0  0  0  0
  9 10  1  6  0  0  0
  9 14  1  0  0  0  0
 11 16  1  0  0  0  0
 12 13  1  1  0  0  0
 12 17  1  0  0  0  0
 14 15  1  6  0  0  0
 14 18  1  0  0  0  0
 15 31  1  0  0  0  0
 16 20  1  0  0  0  0
 17  2  1  1  0  0  0
 17 22  1  0  0  0  0
 18 19  1  1  0  0  0
 18 24  1  0  0  0  0
 18 30  1  0  0  0  0
 20 21  1  0  0  0  0
 20 26  1  1  0  0  0
 22 23  1  1  0  0  0
 22 28  1  0  0  0  0
 24 25  1  0  0  0  0
 26 27  1  0  0  0  0
 28 29  1  6  0  0  0
M  END
>  <CHROM.1>
-173.07421685,-145.67973967,-122.48849639,-163.61566494,-61.17587270,166.90477637
1.55528109,-6.67988414,28.25209129,-2.61719496,0.67012951,-1.28078066

>  <Name>
2et3_lig

>  <RI>
0

>  <Rbt.Current_Directory>
/home/itssahil/PROJECTS/Mol_Feturizer/New_Systems/rnas/2et3

>  <Rbt.Executable>
rbdock ($Id: //depot/dev/client3/rdock/2013.1/src/exe/rbdock.cxx#4 $)

>  <Rbt.Library>
libRbt.so (2013.1, Build901 2013/11/27)

>  <Rbt.Parameter_File>
/export/apps/rDock/src/rDock_2013.1_src/data/scripts/dock_solv.prm

>  <Rbt.Receptor>
prm/pocket_docking_7.prm

>  <SCORE>
-25.5849

>  <SCORE.INTER>
-17.0094

>  <SCORE.INTER.CONST>
1

>  <SCORE.INTER.POLAR>
-0.89803

>  <SCORE.INTER.ROT>
6

>  <SCORE.INTER.SOLV>
19.8949

>  <SCORE.INTER.VDW>
-22.5778

>  <SCORE.INTER.norm>
-0.548689

>  <SCORE.INTRA>
-8.57754

>  <SCORE.INTRA.DIHEDRAL>
-14.1941

>  <SCORE.INTRA.DIHEDRAL.0>
22.2484

>  <SCORE.INTRA.POLAR>
0

>  <SCORE.INTRA.POLAR.0>
0

>  <SCORE.INTRA.REPUL>
0

>  <SCORE.INTRA.REPUL.0>
0

>  <SCORE.INTRA.SOLV>
-3.42409

>  <SCORE.INTRA.SOLV.lig_0>
-75.7198

>  <SCORE.INTRA.VDW>
0.231537

>  <SCORE.INTRA.VDW.0>
-3.34171

>  <SCORE.INTRA.norm>
-0.276695

>  <SCORE.RESTR>
0.00205572

>  <SCORE.RESTR.CAVITY>
0.00205572

>  <SCORE.RESTR.norm>
6.63136e-05

>  <SCORE.SYSTEM>
0

>  <SCORE.SYSTEM.CONST>
0

>  <SCORE.SYSTEM.DIHEDRAL>
0

>  <SCORE.SYSTEM.SOLV>
0

>  <SCORE.SYSTEM.norm>
0

>  <SCORE.heavy>
31

>  <SCORE.norm>
-0.825318

>  <RMSD>
9.580

$$$$
2et3_lig
 OpenBabel11021811423D
libRbt.so/2013.1/901 2013/11/27
 31 33  0  0  0  0  0  0  0  0999 V2000
   -0.0223   -8.3275   30.6938 C   0  0  2  0  0  0  0  0  0  0  0  0
   -0.5539   -7.7488   29.4736 O   0  0  0  0  0  0  0  0  0  0  0  0
    1.4339   -6.2467   25.9952 C   0  0  2  0  0  0  0  0  0  0  0  0
    2.3120   -5.4566   25.1889 N   0  0  0  0  0  0  0  0  0  0  0  0
    4.3668   -7.4237   25.6383 C   0  0  2  0  0  0  0  0  0  0  0  0
   -1.0943   -9.1906   31.3678 C   0  0  2  0  0  0  0  0  0  0  0  0
   -1.5369  -10.1798   30.4340 N   0  0  0  0  0  0  0  0  0  0  0  0
    0.4153   -5.3137   26.7261 C   0  0  0  0  0  0  0  0  0  0  0  0
    4.8981   -8.6136   24.8091 C   0  0  2  0  0  0  0  0  0  0  0  0
    3.9032   -9.0127   23.8929 O   0  0  0  0  0  0  0  0  0  0  0  0
   -2.2767   -8.2965   31.8753 C   0  0  0  0  0  0  0  0  0  0  0  0
   -0.5493   -6.1737   27.6223 C   0  0  2  0  0  0  0  0  0  0  0  0
   -1.5105   -5.2994   28.3133 N   0  0  0  0  0  0  0  0  0  0  0  0
    5.2756   -9.7783   25.8131 C   0  0  1  0  0  0  0  0  0  0  0  0
    5.7589  -10.9962   25.0837 N   0  0  0  0  0  0  0  0  0  0  0  0
   -1.7014   -7.2741   32.9051 C   0  0  0  0  0  0  0  0  0  0  0  0
    0.2968   -7.0025   28.6633 C   0  0  2  0  0  0  0  0  0  0  0  0
    6.4063   -9.2731   26.8571 C   0  0  1  0  0  0  0  0  0  0  0  0
    7.6016   -8.9232   26.1905 O   0  0  0  0  0  0  0  0  0  0  0  0
   -0.5715   -6.4123   32.1871 C   0  0  2  0  0  0  0  0  0  0  0  0
    0.4703   -7.2488   31.5937 O   0  0  0  0  0  0  0  0  0  0  0  0
    1.3152   -7.9310   27.8961 C   0  0  2  0  0  0  0  0  0  0  0  0
    2.0880   -8.6922   28.8187 O   0  0  0  0  0  0  0  0  0  0  0  0
    5.8865   -8.0011   27.5957 C   0  0  0  0  0  0  0  0  0  0  0  0
    5.4064   -6.9763   26.6098 O   0  0  0  0  0  0  0  0  0  0  0  0
    0.0619   -5.3643   33.0715 C   0  0  0  0  0  0  0  0  0  0  0  0
   -0.8950   -4.3803   33.5049 N   0  0  0  0  0  0  0  0  0  0  0  0
    2.2670   -7.0562   27.0068 C   0  0  1  0  0  0  0  0  0  0  0  0
    3.1718   -7.9111   26.3186 O   0  0  0  0  0  0  0  0  0  0  0  0
    6.8747  -10.2836   27.9130 C   0  0  0  0  0  0  0  0  0  0  0  0
    4.7358  -11.8715   24.4876 C   0  0  0  0  0  0  0  0  0  0  0  0
  1  2  1  6  0  0  0
  1  6  1  0  0  0  0
  1 21  1  0  0  0  0
  3  4  1  1  0  0  0
  3  8  1  0  0  0  0
  3 28  1  0  0  0  0
  5  9  1  0  0  0  0
  5 25  1  0  0  0  0
  5 29  1  1  0  0  0
  6  7  1  6  0  0  0
  6 11  1  0  0  0  0
  8 12  1  0  0  0  0
  9 10  1  6  0  0  0
  9 14  1  0  0  0  0
 11 16  1  0  0  0  0
 12 13  1  1  0  0  0
 12 17  1  0  0  0  0
 14 15  1  6  0  0  0
 14 18  1  0  0  0  0
 15 31  1  0  0  0  0
 16 20  1  0  0  0  0
 17  2  1  6  0  0  0
 17 22  1  0  0  0  0
 18 19  1  6  0  0  0
 18 24  1  0  0  0  0
 18 30  1  0  0  0  0
 20 21  1  0  0  0  0
 20 26  1  1  0  0  0
 22 23  1  1  0  0  0
 22 28  1  0  0  0  0
 24 25  1  0  0  0  0
 26 27  1  0  0  0  0
 28 29  1  6  0  0  0
M  END
>  <CHROM.1>
-175.62408706,-169.29697888,-79.44132971,-165.33962763,-62.61567187,73.34906038
2.11571886,-7.84840677,28.19350130,-2.71535063,0.66273879,-1.01329499

>  <Name>
2et3_lig

>  <RI>
3.86414e+07

>  <Rbt.Current_Directory>
/home/itssahil/PROJECTS/Mol_Feturizer/New_Systems/rnas/2et3

>  <Rbt.Executable>
rbdock ($Id: //depot/dev/client3/rdock/2013.1/src/exe/rbdock.cxx#4 $)

>  <Rbt.Library>
libRbt.so (2013.1, Build901 2013/11/27)

>  <Rbt.Parameter_File>
/export/apps/rDock/src/rDock_2013.1_src/data/scripts/dock_solv.prm

>  <Rbt.Receptor>
prm/pocket_docking_8.prm

>  <SCORE>
-22.4914

>  <SCORE.INTER>
-12.0966

>  <SCORE.INTER.CONST>
1

>  <SCORE.INTER.POLAR>
-0.0664986

>  <SCORE.INTER.ROT>
6

>  <SCORE.INTER.SOLV>
13.5985

>  <SCORE.INTER.VDW>
-19.9756

>  <SCORE.INTER.norm>
-0.390213

>  <SCORE.INTRA>
-10.3948

>  <SCORE.INTRA.DIHEDRAL>
-19.2826

>  <SCORE.INTRA.DIHEDRAL.0>
22.2484

>  <SCORE.INTRA.POLAR>
0

>  <SCORE.INTRA.POLAR.0>
0

>  <SCORE.INTRA.REPUL>
0

>  <SCORE.INTRA.REPUL.0>
0

>  <SCORE.INTRA.SOLV>
-2.67419

>  <SCORE.INTRA.SOLV.lig_0>
-75.7198

>  <SCORE.INTRA.VDW>
0.583599

>  <SCORE.INTRA.VDW.0>
-3.34171

>  <SCORE.INTRA.norm>
-0.335315

>  <SCORE.RESTR>
0

>  <SCORE.RESTR.CAVITY>
0

>  <SCORE.RESTR.norm>
0

>  <SCORE.SYSTEM>
0

>  <SCORE.SYSTEM.CONST>
0

>  <SCORE.SYSTEM.DIHEDRAL>
0

>  <SCORE.SYSTEM.SOLV>
0

>  <SCORE.SYSTEM.norm>
0

>  <SCORE.heavy>
31

>  <SCORE.norm>
-0.725528

>  <RMSD>
9.598

$$$$
2et3_lig
 OpenBabel11021811423D
libRbt.so/2013.1/901 2013/11/27
 31 33  0  0  0  0  0  0  0  0999 V2000
   -0.1974   -4.6985   31.5372 C   0  0  2  0  0  0  0  0  0  0  0  0
   -0.4504   -5.7110   30.5288 O   0  0  0  0  0  0  0  0  0  0  0  0
    0.0654   -6.1560   26.3048 C   0  0  2  0  0  0  0  0  0  0  0  0
    0.4717   -5.8623   24.9652 N   0  0  0  0  0  0  0  0  0  0  0  0
    3.5112   -7.5339   27.2226 C   0  0  2  0  0  0  0  0  0  0  0  0
   -0.4374   -5.2852   32.9324 C   0  0  2  0  0  0  0  0  0  0  0  0
    0.3906   -6.4410   33.0897 N   0  0  0  0  0  0  0  0  0  0  0  0
   -0.8900   -5.0313   26.8190 C   0  0  0  0  0  0  0  0  0  0  0  0
    4.4536   -7.2668   26.0284 C   0  0  2  0  0  0  0  0  0  0  0  0
    4.2700   -5.9395   25.5892 O   0  0  0  0  0  0  0  0  0  0  0  0
   -1.9547   -5.6229   33.1299 C   0  0  0  0  0  0  0  0  0  0  0  0
   -1.3350   -5.3416   28.2951 C   0  0  2  0  0  0  0  0  0  0  0  0
   -2.2347   -4.2848   28.7843 N   0  0  0  0  0  0  0  0  0  0  0  0
    4.1115   -8.3157   24.8927 C   0  0  1  0  0  0  0  0  0  0  0  0
    4.9536   -8.0960   23.6714 N   0  0  0  0  0  0  0  0  0  0  0  0
   -2.7685   -4.3006   32.9689 C   0  0  0  0  0  0  0  0  0  0  0  0
   -0.0608   -5.4581   29.2168 C   0  0  2  0  0  0  0  0  0  0  0  0
    4.3182   -9.8249   25.4435 C   0  0  1  0  0  0  0  0  0  0  0  0
    5.6630  -10.0598   25.8063 O   0  0  0  0  0  0  0  0  0  0  0  0
   -2.4777   -3.6987   31.5240 C   0  0  2  0  0  0  0  0  0  0  0  0
   -1.0491   -3.5045   31.2817 O   0  0  0  0  0  0  0  0  0  0  0  0
    0.8831   -6.5980   28.6713 C   0  0  2  0  0  0  0  0  0  0  0  0
    2.0398   -6.7227   29.4924 O   0  0  0  0  0  0  0  0  0  0  0  0
    3.4419  -10.0269   26.7182 C   0  0  0  0  0  0  0  0  0  0  0  0
    3.6938   -8.9309   27.7122 O   0  0  0  0  0  0  0  0  0  0  0  0
   -3.2212   -2.4177   31.2270 C   0  0  0  0  0  0  0  0  0  0  0  0
   -2.9474   -1.4005   32.2078 N   0  0  0  0  0  0  0  0  0  0  0  0
    1.3147   -6.2720   27.1984 C   0  0  1  0  0  0  0  0  0  0  0  0
    2.1584   -7.3138   26.7227 O   0  0  0  0  0  0  0  0  0  0  0  0
    4.0127  -10.9670   24.4649 C   0  0  0  0  0  0  0  0  0  0  0  0
    4.2693   -7.6036   22.4641 C   0  0  0  0  0  0  0  0  0  0  0  0
  1  2  1  6  0  0  0
  1  6  1  0  0  0  0
  1 21  1  0  0  0  0
  3  4  1  6  0  0  0
  3  8  1  0  0  0  0
  3 28  1  0  0  0  0
  5  9  1  0  0  0  0
  5 25  1  0  0  0  0
  5 29  1  6  0  0  0
  6  7  1  6  0  0  0
  6 11  1  0  0  0  0
  8 12  1  0  0  0  0
  9 10  1  6  0  0  0
  9 14  1  0  0  0  0
 11 16  1  0  0  0  0
 12 13  1  1  0  0  0
 12 17  1  0  0  0  0
 14 15  1  6  0  0  0
 14 18  1  0  0  0  0
 15 31  1  0  0  0  0
 16 20  1  0  0  0  0
 17  2  1  1  0  0  0
 17 22  1  0  0  0  0
 18 19  1  1  0  0  0
 18 24  1  0  0  0  0
 18 30  1  0  0  0  0
 20 21  1  0  0  0  0
 20 26  1  1  0  0  0
 22 23  1  1  0  0  0
 22 28  1  0  0  0  0
 24 25  1  0  0  0  0
 26 27  1  0  0  0  0
 28 29  1  6  0  0  0
M  END
>  <CHROM.1>
-168.57564513,-115.26557639,-111.25027732,-113.80375655,56.41252670,170.03263909
1.14027263,-6.36678622,28.26816316,-2.58081443,0.78434013,-1.33846228

>  <Name>
2et3_lig

>  <RI>
3.86414e+07

>  <Rbt.Current_Directory>
/home/itssahil/PROJECTS/Mol_Feturizer/New_Systems/rnas/2et3

>  <Rbt.Executable>
rbdock ($Id: //depot/dev/client3/rdock/2013.1/src/exe/rbdock.cxx#4 $)

>  <Rbt.Library>
libRbt.so (2013.1, Build901 2013/11/27)

>  <Rbt.Parameter_File>
/export/apps/rDock/src/rDock_2013.1_src/data/scripts/dock_solv.prm

>  <Rbt.Receptor>
prm/pocket_docking_8.prm

>  <SCORE>
-25.1204

>  <SCORE.INTER>
-22.4183

>  <SCORE.INTER.CONST>
1

>  <SCORE.INTER.POLAR>
-1.49238

>  <SCORE.INTER.ROT>
6

>  <SCORE.INTER.SOLV>
23.9855

>  <SCORE.INTER.VDW>
-25.5661

>  <SCORE.INTER.norm>
-0.72317

>  <SCORE.INTRA>
-2.70214

>  <SCORE.INTRA.DIHEDRAL>
-5.7258

>  <SCORE.INTRA.DIHEDRAL.0>
22.2484

>  <SCORE.INTRA.POLAR>
0

>  <SCORE.INTRA.POLAR.0>
0

>  <SCORE.INTRA.REPUL>
0

>  <SCORE.INTRA.REPUL.0>
0

>  <SCORE.INTRA.SOLV>
0.658252

>  <SCORE.INTRA.SOLV.lig_0>
-75.7198

>  <SCORE.INTRA.VDW>
-0.168368

>  <SCORE.INTRA.VDW.0>
-3.34171

>  <SCORE.INTRA.norm>
-0.0871658

>  <SCORE.RESTR>
0

>  <SCORE.RESTR.CAVITY>
0

>  <SCORE.RESTR.norm>
0

>  <SCORE.SYSTEM>
0

>  <SCORE.SYSTEM.CONST>
0

>  <SCORE.SYSTEM.DIHEDRAL>
0

>  <SCORE.SYSTEM.SOLV>
0

>  <SCORE.SYSTEM.norm>
0

>  <SCORE.heavy>
31

>  <SCORE.norm>
-0.810335

>  <RMSD>
9.673

$$$$
2et3_lig
 OpenBabel11021811423D
libRbt.so/2013.1/901 2013/11/27
 31 33  0  0  0  0  0  0  0  0999 V2000
   -0.9537   -5.0409   31.2512 C   0  0  2  0  0  0  0  0  0  0  0  0
   -0.2802   -6.0479   30.4521 O   0  0  0  0  0  0  0  0  0  0  0  0
    0.3766   -6.2007   26.2270 C   0  0  2  0  0  0  0  0  0  0  0  0
    0.8278   -5.8162   24.9254 N   0  0  0  0  0  0  0  0  0  0  0  0
    3.7320   -7.7397   27.2434 C   0  0  2  0  0  0  0  0  0  0  0  0
   -0.5659   -5.2038   32.7247 C   0  0  2  0  0  0  0  0  0  0  0  0
    0.8588   -5.1327   32.8319 N   0  0  0  0  0  0  0  0  0  0  0  0
   -0.5946   -5.1114   26.7858 C   0  0  0  0  0  0  0  0  0  0  0  0
    4.7998   -7.5113   26.1511 C   0  0  2  0  0  0  0  0  0  0  0  0
    4.7642   -6.1591   25.7527 O   0  0  0  0  0  0  0  0  0  0  0  0
   -1.1272   -6.5524   33.2919 C   0  0  0  0  0  0  0  0  0  0  0  0
   -1.0891   -5.5219   28.2211 C   0  0  2  0  0  0  0  0  0  0  0  0
   -2.0039   -4.4988   28.7521 N   0  0  0  0  0  0  0  0  0  0  0  0
    4.4827   -8.4888   24.9466 C   0  0  1  0  0  0  0  0  0  0  0  0
    5.4497   -8.2983   23.8163 N   0  0  0  0  0  0  0  0  0  0  0  0
   -2.6822   -6.5223   33.1581 C   0  0  0  0  0  0  0  0  0  0  0  0
    0.1534   -5.7059   29.1745 C   0  0  2  0  0  0  0  0  0  0  0  0
    4.5164  -10.0278   25.4506 C   0  0  1  0  0  0  0  0  0  0  0  0
    5.7986  -10.3859   25.9230 O   0  0  0  0  0  0  0  0  0  0  0  0
   -3.0555   -6.3230   31.6233 C   0  0  2  0  0  0  0  0  0  0  0  0
   -2.4257   -5.1349   31.0496 O   0  0  0  0  0  0  0  0  0  0  0  0
    1.1141   -6.8081   28.5832 C   0  0  2  0  0  0  0  0  0  0  0  0
    2.2426   -6.9930   29.4318 O   0  0  0  0  0  0  0  0  0  0  0  0
    3.5119  -10.1998   26.6317 C   0  0  0  0  0  0  0  0  0  0  0  0
    3.7565   -9.1630   27.6890 O   0  0  0  0  0  0  0  0  0  0  0  0
   -4.5403   -6.2932   31.3473 C   0  0  0  0  0  0  0  0  0  0  0  0
   -4.8218   -6.2726   29.9358 N   0  0  0  0  0  0  0  0  0  0  0  0
    1.5952   -6.3822   27.1516 C   0  0  1  0  0  0  0  0  0  0  0  0
    2.4535   -7.3912   26.6332 O   0  0  0  0  0  0  0  0  0  0  0  0
    4.2136  -11.1067   24.4018 C   0  0  0  0  0  0  0  0  0  0  0  0
    4.8813   -8.1195   22.4698 C   0  0  0  0  0  0  0  0  0  0  0  0
  1  2  1  6  0  0  0
  1  6  1  0  0  0  0
  1 21  1  0  0  0  0
  3  4  1  6  0  0  0
  3  8  1  0  0  0  0
  3 28  1  0  0  0  0
  5  9  1  0  0  0  0
  5 25  1  0  0  0  0
  5 29  1  6  0  0  0
  6  7  1  6  0  0  0
  6 11  1  0  0  0  0
  8 12  1  0  0  0  0
  9 10  1  6  0  0  0
  9 14  1  0  0  0  0
 11 16  1  0  0  0  0
 12 13  1  1  0  0  0
 12 17  1  0  0  0  0
 14 15  1  6  0  0  0
 14 18  1  0  0  0  0
 15 31  1  0  0  0  0
 16 20  1  0  0  0  0
 17  2  1  1  0  0  0
 17 22  1  0  0  0  0
 18 19  1  1  0  0  0
 18 24  1  0  0  0  0
 18 30  1  0  0  0  0
 20 21  1  0  0  0  0
 20 26  1  1  0  0  0
 22 23  1  1  0  0  0
 22 28  1  0  0  0  0
 24 25  1  0  0  0  0
 26 27  1  0  0  0  0
 28 29  1  6  0  0  0
M  END
>  <CHROM.1>
-143.95986394,-121.42579087,-129.89241146,-70.48299889,-173.05380364,176.33133108
1.18401054,-6.99541744,28.17597406,-2.50479309,0.53426235,-1.41919077

>  <Name>
2et3_lig

>  <RI>
2.5794e+07

>  <Rbt.Current_Directory>
/home/itssahil/PROJECTS/Mol_Feturizer/New_Systems/rnas/2et3

>  <Rbt.Executable>
rbdock ($Id: //depot/dev/client3/rdock/2013.1/src/exe/rbdock.cxx#4 $)

>  <Rbt.Library>
libRbt.so (2013.1, Build901 2013/11/27)

>  <Rbt.Parameter_File>
/export/apps/rDock/src/rDock_2013.1_src/data/scripts/dock_solv.prm

>  <Rbt.Receptor>
prm/pocket_docking_5.prm

>  <SCORE>
-22.2663

>  <SCORE.INTER>
-19.7772

>  <SCORE.INTER.CONST>
1

>  <SCORE.INTER.POLAR>
-1.42526

>  <SCORE.INTER.ROT>
6

>  <SCORE.INTER.SOLV>
19.4438

>  <SCORE.INTER.VDW>
-22.5152

>  <SCORE.INTER.norm>
-0.637975

>  <SCORE.INTRA>
-2.48911

>  <SCORE.INTRA.DIHEDRAL>
-8.33549

>  <SCORE.INTRA.DIHEDRAL.0>
22.2484

>  <SCORE.INTRA.POLAR>
0

>  <SCORE.INTRA.POLAR.0>
0

>  <SCORE.INTRA.REPUL>
0

>  <SCORE.INTRA.REPUL.0>
0

>  <SCORE.INTRA.SOLV>
0.405957

>  <SCORE.INTRA.SOLV.lig_0>
-75.7198

>  <SCORE.INTRA.VDW>
1.47565

>  <SCORE.INTRA.VDW.0>
-3.34171

>  <SCORE.INTRA.norm>
-0.0802938

>  <SCORE.RESTR>
0

>  <SCORE.RESTR.CAVITY>
0

>  <SCORE.RESTR.norm>
0

>  <SCORE.SYSTEM>
0

>  <SCORE.SYSTEM.CONST>
0

>  <SCORE.SYSTEM.DIHEDRAL>
0

>  <SCORE.SYSTEM.SOLV>
0

>  <SCORE.SYSTEM.norm>
0

>  <SCORE.heavy>
31

>  <SCORE.norm>
-0.718269

>  <RMSD>
9.679

$$$$
2et3_lig
 OpenBabel11021811423D
libRbt.so/2013.1/901 2013/11/27
 31 33  0  0  0  0  0  0  0  0999 V2000
    0.1063   -7.5531   29.9060 C   0  0  2  0  0  0  0  0  0  0  0  0
   -0.0993   -7.1579   28.5247 O   0  0  0  0  0  0  0  0  0  0  0  0
    3.0081   -6.5164   25.6545 C   0  0  2  0  0  0  0  0  0  0  0  0
    4.0827   -5.8744   24.9626 N   0  0  0  0  0  0  0  0  0  0  0  0
    4.5762   -8.9103   27.7737 C   0  0  2  0  0  0  0  0  0  0  0  0
   -1.1304   -8.2965   30.4219 C   0  0  2  0  0  0  0  0  0  0  0  0
   -1.3857   -9.4097   29.5607 N   0  0  0  0  0  0  0  0  0  0  0  0
    1.7263   -5.6265   25.5685 C   0  0  0  0  0  0  0  0  0  0  0  0
    6.0061   -9.4619   27.5819 C   0  0  2  0  0  0  0  0  0  0  0  0
    6.9186   -8.5996   28.2240 O   0  0  0  0  0  0  0  0  0  0  0  0
   -2.3582   -7.3261   30.5010 C   0  0  0  0  0  0  0  0  0  0  0  0
    0.5413   -6.3209   26.3345 C   0  0  2  0  0  0  0  0  0  0  0  0
   -0.6683   -5.4864   26.2569 N   0  0  0  0  0  0  0  0  0  0  0  0
    6.2858   -9.5630   26.0268 C   0  0  1  0  0  0  0  0  0  0  0  0
    7.6774  -10.0486   25.7501 N   0  0  0  0  0  0  0  0  0  0  0  0
   -1.9950   -6.1669   31.4813 C   0  0  0  0  0  0  0  0  0  0  0  0
    0.9544   -6.5633   27.8368 C   0  0  2  0  0  0  0  0  0  0  0  0
    5.2065  -10.5472   25.3266 C   0  0  1  0  0  0  0  0  0  0  0  0
    5.3064  -11.8624   25.8324 O   0  0  0  0  0  0  0  0  0  0  0  0
   -0.6918   -5.4319   30.9371 C   0  0  2  0  0  0  0  0  0  0  0  0
    0.4220   -6.3568   30.7339 O   0  0  0  0  0  0  0  0  0  0  0  0
    2.2502   -7.4611   27.8899 C   0  0  2  0  0  0  0  0  0  0  0  0
    2.6389   -7.6957   29.2396 O   0  0  0  0  0  0  0  0  0  0  0  0
    3.7679  -10.0292   25.6361 C   0  0  0  0  0  0  0  0  0  0  0  0
    3.5901   -9.8117   27.1105 O   0  0  0  0  0  0  0  0  0  0  0  0
   -0.2370   -4.2696   31.7880 C   0  0  0  0  0  0  0  0  0  0  0  0
    0.0328   -4.6719   33.1434 N   0  0  0  0  0  0  0  0  0  0  0  0
    3.4198   -6.7533   27.1197 C   0  0  1  0  0  0  0  0  0  0  0  0
    4.5756   -7.5808   27.1729 O   0  0  0  0  0  0  0  0  0  0  0  0
    5.3302  -10.7430   23.8094 C   0  0  0  0  0  0  0  0  0  0  0  0
    8.7433   -9.0344   25.6943 C   0  0  0  0  0  0  0  0  0  0  0  0
  1  2  1  6  0  0  0
  1  6  1  0  0  0  0
  1 21  1  0  0  0  0
  3  4  1  6  0  0  0
  3  8  1  0  0  0  0
  3 28  1  0  0  0  0
  5  9  1  0  0  0  0
  5 25  1  0  0  0  0
  5 29  1  6  0  0  0
  6  7  1  6  0  0  0
  6 11  1  0  0  0  0
  8 12  1  0  0  0  0
  9 10  1  1  0  0  0
  9 14  1  0  0  0  0
 11 16  1  0  0  0  0
 12 13  1  1  0  0  0
 12 17  1  0  0  0  0
 14 15  1  1  0  0  0
 14 18  1  0  0  0  0
 15 31  1  0  0  0  0
 16 20  1  0  0  0  0
 17  2  1  1  0  0  0
 17 22  1  0  0  0  0
 18 19  1  1  0  0  0
 18 24  1  0  0  0  0
 18 30  1  0  0  0  0
 20 21  1  0  0  0  0
 20 26  1  1  0  0  0
 22 23  1  1  0  0  0
 22 28  1  0  0  0  0
 24 25  1  0  0  0  0
 26 27  1  0  0  0  0
 28 29  1  6  0  0  0
M  END
>  <CHROM.1>
-174.84518911,178.49875975,-86.84194193,175.74639061,57.94387672,-116.01198634
2.57527196,-7.80263248,27.86765519,-2.66479046,0.53033099,-1.42687226

>  <Name>
2et3_lig

>  <RI>
0

>  <Rbt.Current_Directory>
/home/itssahil/PROJECTS/Mol_Feturizer/New_Systems/rnas/2et3

>  <Rbt.Executable>
rbdock ($Id: //depot/dev/client3/rdock/2013.1/src/exe/rbdock.cxx#4 $)

>  <Rbt.Library>
libRbt.so (2013.1, Build901 2013/11/27)

>  <Rbt.Parameter_File>
/export/apps/rDock/src/rDock_2013.1_src/data/scripts/dock_solv.prm

>  <Rbt.Receptor>
prm/pocket_docking_7.prm

>  <SCORE>
-24.9156

>  <SCORE.INTER>
-19.6993

>  <SCORE.INTER.CONST>
1

>  <SCORE.INTER.POLAR>
-1.19774

>  <SCORE.INTER.ROT>
6

>  <SCORE.INTER.SOLV>
18.9797

>  <SCORE.INTER.VDW>
-23.067

>  <SCORE.INTER.norm>
-0.635461

>  <SCORE.INTRA>
-5.21634

>  <SCORE.INTRA.DIHEDRAL>
-14.2207

>  <SCORE.INTRA.DIHEDRAL.0>
22.2484

>  <SCORE.INTRA.POLAR>
0

>  <SCORE.INTRA.POLAR.0>
0

>  <SCORE.INTRA.REPUL>
0

>  <SCORE.INTRA.REPUL.0>
0

>  <SCORE.INTRA.SOLV>
-2.90503

>  <SCORE.INTRA.SOLV.lig_0>
-75.7198

>  <SCORE.INTRA.VDW>
3.34654

>  <SCORE.INTRA.VDW.0>
-3.34171

>  <SCORE.INTRA.norm>
-0.168269

>  <SCORE.RESTR>
0

>  <SCORE.RESTR.CAVITY>
0

>  <SCORE.RESTR.norm>
0

>  <SCORE.SYSTEM>
0

>  <SCORE.SYSTEM.CONST>
0

>  <SCORE.SYSTEM.DIHEDRAL>
0

>  <SCORE.SYSTEM.SOLV>
0

>  <SCORE.SYSTEM.norm>
0

>  <SCORE.heavy>
31

>  <SCORE.norm>
-0.803731

>  <RMSD>
9.719

$$$$
2et3_lig
 OpenBabel11021811423D
libRbt.so/2013.1/901 2013/11/27
 31 33  0  0  0  0  0  0  0  0999 V2000
   -0.5900   -4.4486   31.2420 C   0  0  2  0  0  0  0  0  0  0  0  0
   -0.1193   -5.5845   30.4712 O   0  0  0  0  0  0  0  0  0  0  0  0
    0.2489   -6.2014   26.2533 C   0  0  2  0  0  0  0  0  0  0  0  0
    0.6130   -5.9657   24.8905 N   0  0  0  0  0  0  0  0  0  0  0  0
    3.6948   -7.6069   27.1374 C   0  0  2  0  0  0  0  0  0  0  0  0
   -0.0428   -4.5295   32.6711 C   0  0  2  0  0  0  0  0  0  0  0  0
    1.3844   -4.6026   32.6096 N   0  0  0  0  0  0  0  0  0  0  0  0
   -0.6760   -5.0456   26.7540 C   0  0  0  0  0  0  0  0  0  0  0  0
    4.6320   -7.3576   25.9352 C   0  0  2  0  0  0  0  0  0  0  0  0
    4.4651   -6.0290   25.4933 O   0  0  0  0  0  0  0  0  0  0  0  0
   -0.6584   -5.7586   33.4234 C   0  0  0  0  0  0  0  0  0  0  0  0
   -1.0745   -5.2922   28.2552 C   0  0  2  0  0  0  0  0  0  0  0  0
   -1.9454   -4.2059   28.7317 N   0  0  0  0  0  0  0  0  0  0  0  0
    4.2655   -8.4046   24.8054 C   0  0  1  0  0  0  0  0  0  0  0  0
    5.1015   -8.2012   23.5770 N   0  0  0  0  0  0  0  0  0  0  0  0
   -2.2078   -5.5735   33.4637 C   0  0  0  0  0  0  0  0  0  0  0  0
    0.2286   -5.3882   29.1379 C   0  0  2  0  0  0  0  0  0  0  0  0
    4.4536   -9.9150   25.3593 C   0  0  1  0  0  0  0  0  0  0  0  0
    5.7975  -10.1692   25.7126 O   0  0  0  0  0  0  0  0  0  0  0  0
   -2.7445   -5.4630   31.9689 C   0  0  2  0  0  0  0  0  0  0  0  0
   -2.0777   -4.4008   31.2177 O   0  0  0  0  0  0  0  0  0  0  0  0
    1.1408   -6.5603   28.6071 C   0  0  2  0  0  0  0  0  0  0  0  0
    2.3231   -6.6670   29.3936 O   0  0  0  0  0  0  0  0  0  0  0  0
    3.5842  -10.1001   26.6412 C   0  0  0  0  0  0  0  0  0  0  0  0
    3.8602   -9.0050   27.6299 O   0  0  0  0  0  0  0  0  0  0  0  0
   -4.2421   -5.2974   31.8606 C   0  0  0  0  0  0  0  0  0  0  0  0
   -4.9446   -6.4629   32.3296 N   0  0  0  0  0  0  0  0  0  0  0  0
    1.5262   -6.2978   27.1088 C   0  0  1  0  0  0  0  0  0  0  0  0
    2.3417   -7.3679   26.6471 O   0  0  0  0  0  0  0  0  0  0  0  0
    4.1235  -11.0554   24.3865 C   0  0  0  0  0  0  0  0  0  0  0  0
    6.5598   -8.1201   23.7636 C   0  0  0  0  0  0  0  0  0  0  0  0
  1  2  1  6  0  0  0
  1  6  1  0  0  0  0
  1 21  1  0  0  0  0
  3  4  1  6  0  0  0
  3  8  1  0  0  0  0
  3 28  1  0  0  0  0
  5  9  1  0  0  0  0
  5 25  1  0  0  0  0
  5 29  1  6  0  0  0
  6  7  1  6  0  0  0
  6 11  1  0  0  0  0
  8 12  1  0  0  0  0
  9 10  1  6  0  0  0
  9 14  1  0  0  0  0
 11 16  1  0  0  0  0
 12 13  1  1  0  0  0
 12 17  1  0  0  0  0
 14 15  1  6  0  0  0
 14 18  1  0  0  0  0
 15 31  1  0  0  0  0
 16 20  1  0  0  0  0
 17  2  1  1  0  0  0
 17 22  1  0  0  0  0
 18 19  1  1  0  0  0
 18 24  1  0  0  0  0
 18 30  1  0  0  0  0
 20 21  1  0  0  0  0
 20 26  1  1  0  0  0
 22 23  1  1  0  0  0
 22 28  1  0  0  0  0
 24 25  1  0  0  0  0
 26 27  1  0  0  0  0
 28 29  1  6  0  0  0
M  END
>  <CHROM.1>
-141.84263196,-114.11554924,50.87146286,-77.37437287,-65.61909962,171.78441128
1.30411620,-6.70336736,28.28865321,-2.44992140,0.53704112,-1.50936550

>  <Name>
2et3_lig

>  <RI>
3.86414e+07

>  <Rbt.Current_Directory>
/home/itssahil/PROJECTS/Mol_Feturizer/New_Systems/rnas/2et3

>  <Rbt.Executable>
rbdock ($Id: //depot/dev/client3/rdock/2013.1/src/exe/rbdock.cxx#4 $)

>  <Rbt.Library>
libRbt.so (2013.1, Build901 2013/11/27)

>  <Rbt.Parameter_File>
/export/apps/rDock/src/rDock_2013.1_src/data/scripts/dock_solv.prm

>  <Rbt.Receptor>
prm/pocket_docking_8.prm

>  <SCORE>
-21.1619

>  <SCORE.INTER>
-19.1567

>  <SCORE.INTER.CONST>
1

>  <SCORE.INTER.POLAR>
-1.27267

>  <SCORE.INTER.ROT>
6

>  <SCORE.INTER.SOLV>
22.1036

>  <SCORE.INTER.VDW>
-23.4968

>  <SCORE.INTER.norm>
-0.617958

>  <SCORE.INTRA>
-2.00524

>  <SCORE.INTRA.DIHEDRAL>
-8.13838

>  <SCORE.INTRA.DIHEDRAL.0>
22.2484

>  <SCORE.INTRA.POLAR>
0

>  <SCORE.INTRA.POLAR.0>
0

>  <SCORE.INTRA.REPUL>
0

>  <SCORE.INTRA.REPUL.0>
0

>  <SCORE.INTRA.SOLV>
-0.442741

>  <SCORE.INTRA.SOLV.lig_0>
-75.7198

>  <SCORE.INTRA.VDW>
2.28532

>  <SCORE.INTRA.VDW.0>
-3.34171

>  <SCORE.INTRA.norm>
-0.0646852

>  <SCORE.RESTR>
0

>  <SCORE.RESTR.CAVITY>
0

>  <SCORE.RESTR.norm>
0

>  <SCORE.SYSTEM>
0

>  <SCORE.SYSTEM.CONST>
0

>  <SCORE.SYSTEM.DIHEDRAL>
0

>  <SCORE.SYSTEM.SOLV>
0

>  <SCORE.SYSTEM.norm>
0

>  <SCORE.heavy>
31

>  <SCORE.norm>
-0.682643

>  <RMSD>
9.776

$$$$
2et3_lig
 OpenBabel11021811423D
libRbt.so/2013.1/901 2013/11/27
 31 33  0  0  0  0  0  0  0  0999 V2000
    5.0376   -2.7814   35.4614 C   0  0  2  0  0  0  0  0  0  0  0  0
    4.9127   -2.7445   36.9068 O   0  0  0  0  0  0  0  0  0  0  0  0
    0.8575   -4.0268   37.3735 C   0  0  2  0  0  0  0  0  0  0  0  0
   -0.3247   -4.5347   37.9978 N   0  0  0  0  0  0  0  0  0  0  0  0
    0.2065   -0.5669   38.8361 C   0  0  2  0  0  0  0  0  0  0  0  0
    6.3392   -2.0936   35.0359 C   0  0  2  0  0  0  0  0  0  0  0  0
    7.4318   -2.7331   35.7017 N   0  0  0  0  0  0  0  0  0  0  0  0
    1.9867   -5.1053   37.4383 C   0  0  0  0  0  0  0  0  0  0  0  0
   -0.1705   -1.0594   40.2508 C   0  0  2  0  0  0  0  0  0  0  0  0
    0.8105   -1.9702   40.6941 O   0  0  0  0  0  0  0  0  0  0  0  0
    6.2774   -0.5608   35.3557 C   0  0  0  0  0  0  0  0  0  0  0  0
    3.2938   -4.5519   36.7615 C   0  0  2  0  0  0  0  0  0  0  0  0
    4.3607   -5.5638   36.8205 N   0  0  0  0  0  0  0  0  0  0  0  0
   -1.6026   -1.7296   40.1687 C   0  0  1  0  0  0  0  0  0  0  0  0
   -2.0276   -2.2800   41.4974 N   0  0  0  0  0  0  0  0  0  0  0  0
    5.0778    0.0494   34.5649 C   0  0  0  0  0  0  0  0  0  0  0  0
    3.7436   -3.2266   37.4881 C   0  0  2  0  0  0  0  0  0  0  0  0
   -2.6939   -0.6561   39.6394 C   0  0  1  0  0  0  0  0  0  0  0  0
   -2.8177    0.4328   40.5308 O   0  0  0  0  0  0  0  0  0  0  0  0
    3.7453   -0.7028   35.0046 C   0  0  2  0  0  0  0  0  0  0  0  0
    3.8441   -2.1513   34.8331 O   0  0  0  0  0  0  0  0  0  0  0  0
    2.5839   -2.1605   37.4075 C   0  0  2  0  0  0  0  0  0  0  0  0
    2.9711   -0.9530   38.0553 O   0  0  0  0  0  0  0  0  0  0  0  0
   -2.2263   -0.0900   38.2629 C   0  0  0  0  0  0  0  0  0  0  0  0
   -0.8126    0.4068   38.3482 O   0  0  0  0  0  0  0  0  0  0  0  0
    2.4959   -0.1956   34.3236 C   0  0  0  0  0  0  0  0  0  0  0  0
    1.3121   -0.8404   34.8283 N   0  0  0  0  0  0  0  0  0  0  0  0
    1.2888   -2.7308   38.0856 C   0  0  1  0  0  0  0  0  0  0  0  0
    0.2541   -1.7589   37.9963 O   0  0  0  0  0  0  0  0  0  0  0  0
   -4.1379   -1.1537   39.4885 C   0  0  0  0  0  0  0  0  0  0  0  0
   -1.2215   -3.3772   42.0582 C   0  0  0  0  0  0  0  0  0  0  0  0
  1  2  1  1  0  0  0
  1  6  1  0  0  0  0
  1 21  1  0  0  0  0
  3  4  1  1  0  0  0
  3  8  1  0  0  0  0
  3 28  1  0  0  0  0
  5  9  1  0  0  0  0
  5 25  1  0  0  0  0
  5 29  1  6  0  0  0
  6  7  1  1  0  0  0
  6 11  1  0  0  0  0
  8 12  1  0  0  0  0
  9 10  1  6  0  0  0
  9 14  1  0  0  0  0
 11 16  1  0  0  0  0
 12 13  1  1  0  0  0
 12 17  1  0  0  0  0
 14 15  1  1  0  0  0
 14 18  1  0  0  0  0
 15 31  1  0  0  0  0
 16 20  1  0  0  0  0
 17  2  1  6  0  0  0
 17 22  1  0  0  0  0
 18 19  1  1  0  0  0
 18 24  1  0  0  0  0
 18 30  1  0  0  0  0
 20 21  1  0  0  0  0
 20 26  1  6  0  0  0
 22 23  1  1  0  0  0
 22 28  1  0  0  0  0
 24 25  1  0  0  0  0
 26 27  1  0  0  0  0
 28 29  1  6  0  0  0
M  END
>  <CHROM.1>
175.03019878,-72.08861176,-63.77038381,41.56073980,-175.72879888,164.21898847
1.61128798,-1.95613102,37.67984077,-0.17915793,-0.55649045,2.61909386

>  <Name>
2et3_lig

>  <RI>
0

>  <Rbt.Current_Directory>
/home/itssahil/PROJECTS/Mol_Feturizer/New_Systems/rnas/2et3

>  <Rbt.Executable>
rbdock ($Id: //depot/dev/client3/rdock/2013.1/src/exe/rbdock.cxx#4 $)

>  <Rbt.Library>
libRbt.so (2013.1, Build901 2013/11/27)

>  <Rbt.Parameter_File>
/export/apps/rDock/src/rDock_2013.1_src/data/scripts/dock_solv.prm

>  <Rbt.Receptor>
prm/blind_docking_60.prm

>  <SCORE>
-3.72873

>  <SCORE.INTER>
-2.17663

>  <SCORE.INTER.CONST>
1

>  <SCORE.INTER.POLAR>
-0.840081

>  <SCORE.INTER.ROT>
6

>  <SCORE.INTER.SOLV>
20.2977

>  <SCORE.INTER.VDW>
-13.0167

>  <SCORE.INTER.norm>
-0.0702139

>  <SCORE.INTRA>
-6.45491

>  <SCORE.INTRA.DIHEDRAL>
-18.4688

>  <SCORE.INTRA.DIHEDRAL.0>
22.2484

>  <SCORE.INTRA.POLAR>
0

>  <SCORE.INTRA.POLAR.0>
0

>  <SCORE.INTRA.REPUL>
0

>  <SCORE.INTRA.REPUL.0>
0

>  <SCORE.INTRA.SOLV>
2.28761

>  <SCORE.INTRA.SOLV.lig_0>
-75.7198

>  <SCORE.INTRA.VDW>
1.63568

>  <SCORE.INTRA.VDW.0>
-3.34171

>  <SCORE.INTRA.norm>
-0.208223

>  <SCORE.RESTR>
4.90282

>  <SCORE.RESTR.CAVITY>
4.90282

>  <SCORE.RESTR.norm>
0.158155

>  <SCORE.SYSTEM>
0

>  <SCORE.SYSTEM.CONST>
0

>  <SCORE.SYSTEM.DIHEDRAL>
0

>  <SCORE.SYSTEM.SOLV>
0

>  <SCORE.SYSTEM.norm>
0

>  <SCORE.heavy>
31

>  <SCORE.norm>
-0.120282

>  <RMSD>
9.824

$$$$
2et3_lig
 OpenBabel11021811423D
libRbt.so/2013.1/901 2013/11/27
 31 33  0  0  0  0  0  0  0  0999 V2000
    0.5247   -8.5164   30.1055 C   0  0  2  0  0  0  0  0  0  0  0  0
   -0.0919   -8.0783   28.8669 O   0  0  0  0  0  0  0  0  0  0  0  0
    1.7408   -6.0433   25.5795 C   0  0  2  0  0  0  0  0  0  0  0  0
    2.3827   -5.0041   24.8355 N   0  0  0  0  0  0  0  0  0  0  0  0
    4.0447   -7.6958   25.0788 C   0  0  2  0  0  0  0  0  0  0  0  0
   -0.2762   -9.6799   30.6998 C   0  0  2  0  0  0  0  0  0  0  0  0
   -0.3581  -10.7226   29.7241 N   0  0  0  0  0  0  0  0  0  0  0  0
    0.3426   -5.5469   26.0703 C   0  0  0  0  0  0  0  0  0  0  0  0
    4.4029   -9.1255   25.5406 C   0  0  2  0  0  0  0  0  0  0  0  0
    3.3613   -9.6175   26.3540 O   0  0  0  0  0  0  0  0  0  0  0  0
   -1.6945   -9.1920   31.1533 C   0  0  0  0  0  0  0  0  0  0  0  0
   -0.3671   -6.6807   26.8972 C   0  0  2  0  0  0  0  0  0  0  0  0
   -1.6843   -6.2179   27.3622 N   0  0  0  0  0  0  0  0  0  0  0  0
    5.7779   -9.0558   26.3225 C   0  0  1  0  0  0  0  0  0  0  0  0
    6.1783  -10.4015   26.8492 N   0  0  0  0  0  0  0  0  0  0  0  0
   -1.5007   -8.0817   32.2333 C   0  0  0  0  0  0  0  0  0  0  0  0
    0.5418   -7.0901   28.1191 C   0  0  2  0  0  0  0  0  0  0  0  0
    6.9408   -8.4698   25.3591 C   0  0  1  0  0  0  0  0  0  0  0  0
    7.1607   -9.3134   24.2476 O   0  0  0  0  0  0  0  0  0  0  0  0
   -0.6420   -6.9009   31.5984 C   0  0  2  0  0  0  0  0  0  0  0  0
    0.6295   -7.3722   31.0520 O   0  0  0  0  0  0  0  0  0  0  0  0
    1.9441   -7.5837   27.5921 C   0  0  2  0  0  0  0  0  0  0  0  0
    2.7804   -7.9623   28.6806 O   0  0  0  0  0  0  0  0  0  0  0  0
    6.4985   -7.0762   24.8154 C   0  0  0  0  0  0  0  0  0  0  0  0
    5.1285   -7.1562   24.2076 O   0  0  0  0  0  0  0  0  0  0  0  0
   -0.3929   -5.7440   32.5372 C   0  0  0  0  0  0  0  0  0  0  0  0
    0.5597   -6.0819   33.5618 N   0  0  0  0  0  0  0  0  0  0  0  0
    2.6355   -6.4407   26.7688 C   0  0  1  0  0  0  0  0  0  0  0  0
    3.8937   -6.9072   26.2969 O   0  0  0  0  0  0  0  0  0  0  0  0
    8.3400   -8.3239   25.9727 C   0  0  0  0  0  0  0  0  0  0  0  0
    6.2470  -11.5081   25.8803 C   0  0  0  0  0  0  0  0  0  0  0  0
  1  2  1  6  0  0  0
  1  6  1  0  0  0  0
  1 21  1  0  0  0  0
  3  4  1  1  0  0  0
  3  8  1  0  0  0  0
  3 28  1  0  0  0  0
  5  9  1  0  0  0  0
  5 25  1  0  0  0  0
  5 29  1  1  0  0  0
  6  7  1  6  0  0  0
  6 11  1  0  0  0  0
  8 12  1  0  0  0  0
  9 10  1  1  0  0  0
  9 14  1  0  0  0  0
 11 16  1  0  0  0  0
 12 13  1  1  0  0  0
 12 17  1  0  0  0  0
 14 15  1  6  0  0  0
 14 18  1  0  0  0  0
 15 31  1  0  0  0  0
 16 20  1  0  0  0  0
 17  2  1  6  0  0  0
 17 22  1  0  0  0  0
 18 19  1  6  0  0  0
 18 24  1  0  0  0  0
 18 30  1  0  0  0  0
 20 21  1  0  0  0  0
 20 26  1  1  0  0  0
 22 23  1  1  0  0  0
 22 28  1  0  0  0  0
 24 25  1  0  0  0  0
 26 27  1  0  0  0  0
 28 29  1  6  0  0  0
M  END
>  <CHROM.1>
-175.40678153,-108.78872303,54.22541866,-174.74115550,72.61632217,-36.63081275
2.46397818,-7.87452248,27.73774405,-2.68980060,0.57336261,-0.90786607

>  <Name>
2et3_lig

>  <RI>
0

>  <Rbt.Current_Directory>
/home/itssahil/PROJECTS/Mol_Feturizer/New_Systems/rnas/2et3

>  <Rbt.Executable>
rbdock ($Id: //depot/dev/client3/rdock/2013.1/src/exe/rbdock.cxx#4 $)

>  <Rbt.Library>
libRbt.so (2013.1, Build901 2013/11/27)

>  <Rbt.Parameter_File>
/export/apps/rDock/src/rDock_2013.1_src/data/scripts/dock_solv.prm

>  <Rbt.Receptor>
prm/pocket_docking_6.prm

>  <SCORE>
-19.4961

>  <SCORE.INTER>
-15.2002

>  <SCORE.INTER.CONST>
1

>  <SCORE.INTER.POLAR>
-1.30264

>  <SCORE.INTER.ROT>
6

>  <SCORE.INTER.SOLV>
20.6584

>  <SCORE.INTER.VDW>
-20.2775

>  <SCORE.INTER.norm>
-0.490329

>  <SCORE.INTRA>
-4.29592

>  <SCORE.INTRA.DIHEDRAL>
-12.2859

>  <SCORE.INTRA.DIHEDRAL.0>
22.2484

>  <SCORE.INTRA.POLAR>
0

>  <SCORE.INTRA.POLAR.0>
0

>  <SCORE.INTRA.REPUL>
0

>  <SCORE.INTRA.REPUL.0>
0

>  <SCORE.INTRA.SOLV>
-1.61774

>  <SCORE.INTRA.SOLV.lig_0>
-75.7198

>  <SCORE.INTRA.VDW>
2.65591

>  <SCORE.INTRA.VDW.0>
-3.34171

>  <SCORE.INTRA.norm>
-0.138578

>  <SCORE.RESTR>
0

>  <SCORE.RESTR.CAVITY>
0

>  <SCORE.RESTR.norm>
0

>  <SCORE.SYSTEM>
0

>  <SCORE.SYSTEM.CONST>
0

>  <SCORE.SYSTEM.DIHEDRAL>
0

>  <SCORE.SYSTEM.SOLV>
0

>  <SCORE.SYSTEM.norm>
0

>  <SCORE.heavy>
31

>  <SCORE.norm>
-0.628907

>  <RMSD>
9.853

$$$$
2et3_lig
 OpenBabel11021811423D
libRbt.so/2013.1/901 2013/11/27
 31 33  0  0  0  0  0  0  0  0999 V2000
    0.2783   -8.0658   29.6747 C   0  0  2  0  0  0  0  0  0  0  0  0
    0.1925   -7.4947   28.3433 O   0  0  0  0  0  0  0  0  0  0  0  0
    3.3612   -6.9394   25.5225 C   0  0  2  0  0  0  0  0  0  0  0  0
    4.5546   -6.4170   24.9320 N   0  0  0  0  0  0  0  0  0  0  0  0
    4.2539  -10.0501   26.6427 C   0  0  2  0  0  0  0  0  0  0  0  0
   -1.0448   -8.7522   30.0304 C   0  0  2  0  0  0  0  0  0  0  0  0
   -1.3356   -9.7297   29.0274 N   0  0  0  0  0  0  0  0  0  0  0  0
    2.3202   -5.7877   25.7020 C   0  0  0  0  0  0  0  0  0  0  0  0
    5.5680  -10.8477   26.4916 C   0  0  2  0  0  0  0  0  0  0  0  0
    6.4009  -10.5696   27.5948 O   0  0  0  0  0  0  0  0  0  0  0  0
   -2.1919   -7.6930   30.1632 C   0  0  0  0  0  0  0  0  0  0  0  0
    1.0074   -6.3516   26.3590 C   0  0  2  0  0  0  0  0  0  0  0  0
    0.0238   -5.2705   26.5307 N   0  0  0  0  0  0  0  0  0  0  0  0
    6.2418  -10.4234   25.1230 C   0  0  1  0  0  0  0  0  0  0  0  0
    7.5539  -11.1200   24.9184 N   0  0  0  0  0  0  0  0  0  0  0  0
   -1.7974   -6.6936   31.2956 C   0  0  0  0  0  0  0  0  0  0  0  0
    1.3546   -7.0134   27.7475 C   0  0  2  0  0  0  0  0  0  0  0  0
    5.2463  -10.7430   23.8859 C   0  0  1  0  0  0  0  0  0  0  0  0
    4.9816  -12.1268   23.7836 O   0  0  0  0  0  0  0  0  0  0  0  0
   -0.4071   -6.0180   30.9143 C   0  0  2  0  0  0  0  0  0  0  0  0
    0.6381   -7.0076   30.6581 O   0  0  0  0  0  0  0  0  0  0  0  0
    2.4073   -8.1683   27.5335 C   0  0  2  0  0  0  0  0  0  0  0  0
    2.7325   -8.7828   28.7762 O   0  0  0  0  0  0  0  0  0  0  0  0
    3.8861  -10.0175   24.1252 C   0  0  0  0  0  0  0  0  0  0  0  0
    3.3504  -10.3353   25.4907 O   0  0  0  0  0  0  0  0  0  0  0  0
    0.0868   -5.0084   31.9235 C   0  0  0  0  0  0  0  0  0  0  0  0
   -0.8473   -3.9277   32.1003 N   0  0  0  0  0  0  0  0  0  0  0  0
    3.7083   -7.5874   26.8761 C   0  0  1  0  0  0  0  0  0  0  0  0
    4.6410   -8.6442   26.6850 O   0  0  0  0  0  0  0  0  0  0  0  0
    5.7462  -10.3754   22.4821 C   0  0  0  0  0  0  0  0  0  0  0  0
    7.5743  -12.5806   25.1041 C   0  0  0  0  0  0  0  0  0  0  0  0
  1  2  1  6  0  0  0
  1  6  1  0  0  0  0
  1 21  1  0  0  0  0
  3  4  1  1  0  0  0
  3  8  1  0  0  0  0
  3 28  1  0  0  0  0
  5  9  1  0  0  0  0
  5 25  1  0  0  0  0
  5 29  1  6  0  0  0
  6  7  1  6  0  0  0
  6 11  1  0  0  0  0
  8 12  1  0  0  0  0
  9 10  1  1  0  0  0
  9 14  1  0  0  0  0
 11 16  1  0  0  0  0
 12 13  1  1  0  0  0
 12 17  1  0  0  0  0
 14 15  1  6  0  0  0
 14 18  1  0  0  0  0
 15 31  1  0  0  0  0
 16 20  1  0  0  0  0
 17  2  1  6  0  0  0
 17 22  1  0  0  0  0
 18 19  1  1  0  0  0
 18 24  1  0  0  0  0
 18 30  1  0  0  0  0
 20 21  1  0  0  0  0
 20 26  1  1  0  0  0
 22 23  1  1  0  0  0
 22 28  1  0  0  0  0
 24 25  1  0  0  0  0
 26 27  1  0  0  0  0
 28 29  1  6  0  0  0
M  END
>  <CHROM.1>
-169.88717731,-177.22924340,49.71188463,-176.00456832,-59.52492965,-99.75637955
2.62867755,-8.44101997,27.29894782,3.14088775,0.82686206,-0.65619885

>  <Name>
2et3_lig

>  <RI>
3.86414e+07

>  <Rbt.Current_Directory>
/home/itssahil/PROJECTS/Mol_Feturizer/New_Systems/rnas/2et3

>  <Rbt.Executable>
rbdock ($Id: //depot/dev/client3/rdock/2013.1/src/exe/rbdock.cxx#4 $)

>  <Rbt.Library>
libRbt.so (2013.1, Build901 2013/11/27)

>  <Rbt.Parameter_File>
/export/apps/rDock/src/rDock_2013.1_src/data/scripts/dock_solv.prm

>  <Rbt.Receptor>
prm/pocket_docking_8.prm

>  <SCORE>
-22.865

>  <SCORE.INTER>
-16.4754

>  <SCORE.INTER.CONST>
1

>  <SCORE.INTER.POLAR>
-0.573561

>  <SCORE.INTER.ROT>
6

>  <SCORE.INTER.SOLV>
17.7835

>  <SCORE.INTER.VDW>
-22.5995

>  <SCORE.INTER.norm>
-0.531464

>  <SCORE.INTRA>
-6.38966

>  <SCORE.INTRA.DIHEDRAL>
-16.0295

>  <SCORE.INTRA.DIHEDRAL.0>
22.2484

>  <SCORE.INTRA.POLAR>
0

>  <SCORE.INTRA.POLAR.0>
0

>  <SCORE.INTRA.REPUL>
0

>  <SCORE.INTRA.REPUL.0>
0

>  <SCORE.INTRA.SOLV>
-2.87445

>  <SCORE.INTRA.SOLV.lig_0>
-75.7198

>  <SCORE.INTRA.VDW>
3.06231

>  <SCORE.INTRA.VDW.0>
-3.34171

>  <SCORE.INTRA.norm>
-0.206118

>  <SCORE.RESTR>
0

>  <SCORE.RESTR.CAVITY>
0

>  <SCORE.RESTR.norm>
0

>  <SCORE.SYSTEM>
0

>  <SCORE.SYSTEM.CONST>
0

>  <SCORE.SYSTEM.DIHEDRAL>
0

>  <SCORE.SYSTEM.SOLV>
0

>  <SCORE.SYSTEM.norm>
0

>  <SCORE.heavy>
31

>  <SCORE.norm>
-0.737582

>  <RMSD>
10.071

$$$$
2et3_lig
 OpenBabel11021811423D
libRbt.so/2013.1/901 2013/11/27
 31 33  0  0  0  0  0  0  0  0999 V2000
    2.7214    1.5034   37.4284 C   0  0  2  0  0  0  0  0  0  0  0  0
    2.7703    0.4021   38.3722 O   0  0  0  0  0  0  0  0  0  0  0  0
    5.6070   -2.1201   36.3978 C   0  0  2  0  0  0  0  0  0  0  0  0
    6.5039   -3.2116   36.1752 N   0  0  0  0  0  0  0  0  0  0  0  0
    3.3438   -4.7964   35.5264 C   0  0  2  0  0  0  0  0  0  0  0  0
    1.2924    1.6705   36.9005 C   0  0  2  0  0  0  0  0  0  0  0  0
    0.4138    1.8571   38.0138 N   0  0  0  0  0  0  0  0  0  0  0  0
    6.0862   -1.2946   37.6352 C   0  0  0  0  0  0  0  0  0  0  0  0
    1.9887   -4.8615   34.7879 C   0  0  2  0  0  0  0  0  0  0  0  0
    2.1706   -4.4243   33.4597 O   0  0  0  0  0  0  0  0  0  0  0  0
    0.8814    0.4314   36.0338 C   0  0  0  0  0  0  0  0  0  0  0  0
    5.1005   -0.0967   37.8929 C   0  0  2  0  0  0  0  0  0  0  0  0
    5.5472    0.6837   39.0577 N   0  0  0  0  0  0  0  0  0  0  0  0
    0.9607   -3.9485   35.5730 C   0  0  1  0  0  0  0  0  0  0  0  0
   -0.3757   -3.9174   34.8933 N   0  0  0  0  0  0  0  0  0  0  0  0
    1.8759    0.3295   34.8349 C   0  0  0  0  0  0  0  0  0  0  0  0
    3.6428   -0.6530   38.1219 C   0  0  2  0  0  0  0  0  0  0  0  0
    0.7950   -4.4737   37.0963 C   0  0  1  0  0  0  0  0  0  0  0  0
    0.2683   -5.7840   37.1336 O   0  0  0  0  0  0  0  0  0  0  0  0
    3.3529    0.1866   35.4118 C   0  0  2  0  0  0  0  0  0  0  0  0
    3.6974    1.2722   36.3284 O   0  0  0  0  0  0  0  0  0  0  0  0
    3.1894   -1.4818   36.8589 C   0  0  2  0  0  0  0  0  0  0  0  0
    1.8724   -1.9910   37.0434 O   0  0  0  0  0  0  0  0  0  0  0  0
    2.1970   -4.5076   37.7794 C   0  0  0  0  0  0  0  0  0  0  0  0
    3.1793   -5.2638   36.9332 O   0  0  0  0  0  0  0  0  0  0  0  0
    4.4210    0.0601   34.3512 C   0  0  0  0  0  0  0  0  0  0  0  0
    4.5562   -1.2957   33.8870 N   0  0  0  0  0  0  0  0  0  0  0  0
    4.1850   -2.6703   36.6169 C   0  0  1  0  0  0  0  0  0  0  0  0
    3.7636   -3.4003   35.4711 O   0  0  0  0  0  0  0  0  0  0  0  0
   -0.1609   -3.6841   38.0008 C   0  0  0  0  0  0  0  0  0  0  0  0
   -0.9047   -5.1978   34.3943 C   0  0  0  0  0  0  0  0  0  0  0  0
  1  2  1  1  0  0  0
  1  6  1  0  0  0  0
  1 21  1  0  0  0  0
  3  4  1  1  0  0  0
  3  8  1  0  0  0  0
  3 28  1  0  0  0  0
  5  9  1  0  0  0  0
  5 25  1  0  0  0  0
  5 29  1  1  0  0  0
  6  7  1  1  0  0  0
  6 11  1  0  0  0  0
  8 12  1  0  0  0  0
  9 10  1  6  0  0  0
  9 14  1  0  0  0  0
 11 16  1  0  0  0  0
 12 13  1  1  0  0  0
 12 17  1  0  0  0  0
 14 15  1  6  0  0  0
 14 18  1  0  0  0  0
 15 31  1  0  0  0  0
 16 20  1  0  0  0  0
 17  2  1  6  0  0  0
 17 22  1  0  0  0  0
 18 19  1  6  0  0  0
 18 24  1  0  0  0  0
 18 30  1  0  0  0  0
 20 21  1  0  0  0  0
 20 26  1  6  0  0  0
 22 23  1  1  0  0  0
 22 28  1  0  0  0  0
 24 25  1  0  0  0  0
 26 27  1  0  0  0  0
 28 29  1  6  0  0  0
M  END
>  <CHROM.1>
122.45067306,129.89179626,43.30283033,53.33167029,-83.40705319,122.76659516
2.71517941,-1.99193905,36.39336521,1.12615805,-0.01074118,0.24808180

>  <Name>
2et3_lig

>  <RI>
0

>  <Rbt.Current_Directory>
/home/itssahil/PROJECTS/Mol_Feturizer/New_Systems/rnas/2et3

>  <Rbt.Executable>
rbdock ($Id: //depot/dev/client3/rdock/2013.1/src/exe/rbdock.cxx#4 $)

>  <Rbt.Library>
libRbt.so (2013.1, Build901 2013/11/27)

>  <Rbt.Parameter_File>
/export/apps/rDock/src/rDock_2013.1_src/data/scripts/dock_solv.prm

>  <Rbt.Receptor>
prm/blind_docking_40.prm

>  <SCORE>
25.0068

>  <SCORE.INTER>
-7.25985

>  <SCORE.INTER.CONST>
1

>  <SCORE.INTER.POLAR>
-1.30482

>  <SCORE.INTER.ROT>
6

>  <SCORE.INTER.SOLV>
18.823

>  <SCORE.INTER.VDW>
-14.3648

>  <SCORE.INTER.norm>
-0.234189

>  <SCORE.INTRA>
26.2876

>  <SCORE.INTRA.DIHEDRAL>
0.957627

>  <SCORE.INTRA.DIHEDRAL.0>
22.2484

>  <SCORE.INTRA.POLAR>
0

>  <SCORE.INTRA.POLAR.0>
0

>  <SCORE.INTRA.REPUL>
0.0173104

>  <SCORE.INTRA.REPUL.0>
0

>  <SCORE.INTRA.SOLV>
6.25757

>  <SCORE.INTRA.SOLV.lig_0>
-75.7198

>  <SCORE.INTRA.VDW>
22.5934

>  <SCORE.INTRA.VDW.0>
-3.34171

>  <SCORE.INTRA.norm>
0.847986

>  <SCORE.RESTR>
5.97909

>  <SCORE.RESTR.CAVITY>
5.97909

>  <SCORE.RESTR.norm>
0.192874

>  <SCORE.SYSTEM>
0

>  <SCORE.SYSTEM.CONST>
0

>  <SCORE.SYSTEM.DIHEDRAL>
0

>  <SCORE.SYSTEM.SOLV>
0

>  <SCORE.SYSTEM.norm>
0

>  <SCORE.heavy>
31

>  <SCORE.norm>
0.806671

>  <RMSD>
10.221

$$$$
2et3_lig
 OpenBabel11021811423D
libRbt.so/2013.1/901 2013/11/27
 31 33  0  0  0  0  0  0  0  0999 V2000
    1.4481   -4.6236   34.9039 C   0  0  2  0  0  0  0  0  0  0  0  0
    0.8705   -3.2963   35.0086 O   0  0  0  0  0  0  0  0  0  0  0  0
    4.3983   -1.0325   35.8666 C   0  0  2  0  0  0  0  0  0  0  0  0
    5.2452    0.0991   36.0852 N   0  0  0  0  0  0  0  0  0  0  0  0
    3.6346   -0.0499   39.2213 C   0  0  2  0  0  0  0  0  0  0  0  0
    0.9250   -5.5076   36.0410 C   0  0  2  0  0  0  0  0  0  0  0  0
   -0.5044   -5.5210   35.9877 N   0  0  0  0  0  0  0  0  0  0  0  0
    3.8192   -0.9787   34.4161 C   0  0  0  0  0  0  0  0  0  0  0  0
    2.1846   -0.2000   39.7318 C   0  0  2  0  0  0  0  0  0  0  0  0
    2.0277   -1.4849   40.2911 O   0  0  0  0  0  0  0  0  0  0  0  0
    1.4526   -4.9902   37.4228 C   0  0  0  0  0  0  0  0  0  0  0  0
    2.8793   -2.2152   34.1696 C   0  0  2  0  0  0  0  0  0  0  0  0
    2.3309   -2.1688   32.8047 N   0  0  0  0  0  0  0  0  0  0  0  0
    1.2093    0.0321   38.5063 C   0  0  1  0  0  0  0  0  0  0  0  0
   -0.2254   -0.1427   38.9063 N   0  0  0  0  0  0  0  0  0  0  0  0
    3.0126   -5.0403   37.3934 C   0  0  0  0  0  0  0  0  0  0  0  0
    1.7178   -2.2158   35.2360 C   0  0  2  0  0  0  0  0  0  0  0  0
    1.4343    1.5103   37.8836 C   0  0  1  0  0  0  0  0  0  0  0  0
    1.1302    2.5170   38.8268 O   0  0  0  0  0  0  0  0  0  0  0  0
    3.5264   -4.1382   36.1863 C   0  0  2  0  0  0  0  0  0  0  0  0
    2.9339   -4.5317   34.9090 O   0  0  0  0  0  0  0  0  0  0  0  0
    2.3334   -2.2684   36.6873 C   0  0  2  0  0  0  0  0  0  0  0  0
    1.3001   -2.2735   37.6671 O   0  0  0  0  0  0  0  0  0  0  0  0
    2.9337    1.6729   37.4849 C   0  0  0  0  0  0  0  0  0  0  0  0
    3.8288    1.3068   38.6327 O   0  0  0  0  0  0  0  0  0  0  0  0
    5.0300   -4.0832   36.0524 C   0  0  0  0  0  0  0  0  0  0  0  0
    5.4361   -3.3689   34.8706 N   0  0  0  0  0  0  0  0  0  0  0  0
    3.2686   -1.0289   36.9137 C   0  0  1  0  0  0  0  0  0  0  0  0
    3.8189   -1.0982   38.2236 O   0  0  0  0  0  0  0  0  0  0  0  0
    0.5715    1.8902   36.6725 C   0  0  0  0  0  0  0  0  0  0  0  0
   -1.1939   -0.4129   37.8305 C   0  0  0  0  0  0  0  0  0  0  0  0
  1  2  1  1  0  0  0
  1  6  1  0  0  0  0
  1 21  1  0  0  0  0
  3  4  1  1  0  0  0
  3  8  1  0  0  0  0
  3 28  1  0  0  0  0
  5  9  1  0  0  0  0
  5 25  1  0  0  0  0
  5 29  1  6  0  0  0
  6  7  1  1  0  0  0
  6 11  1  0  0  0  0
  8 12  1  0  0  0  0
  9 10  1  6  0  0  0
  9 14  1  0  0  0  0
 11 16  1  0  0  0  0
 12 13  1  6  0  0  0
 12 17  1  0  0  0  0
 14 15  1  1  0  0  0
 14 18  1  0  0  0  0
 15 31  1  0  0  0  0
 16 20  1  0  0  0  0
 17  2  1  6  0  0  0
 17 22  1  0  0  0  0
 18 19  1  1  0  0  0
 18 24  1  0  0  0  0
 18 30  1  0  0  0  0
 20 21  1  0  0  0  0
 20 26  1  6  0  0  0
 22 23  1  1  0  0  0
 22 28  1  0  0  0  0
 24 25  1  0  0  0  0
 26 27  1  0  0  0  0
 28 29  1  1  0  0  0
M  END
>  <CHROM.1>
116.79196263,75.32818107,-159.70619143,52.41190411,174.12159195,118.23330499
2.33332247,-1.70948470,36.82835133,1.46869162,-0.48489465,-2.65243127

>  <Name>
2et3_lig

>  <RI>
0

>  <Rbt.Current_Directory>
/home/itssahil/PROJECTS/Mol_Feturizer/New_Systems/rnas/2et3

>  <Rbt.Executable>
rbdock ($Id: //depot/dev/client3/rdock/2013.1/src/exe/rbdock.cxx#4 $)

>  <Rbt.Library>
libRbt.so (2013.1, Build901 2013/11/27)

>  <Rbt.Parameter_File>
/export/apps/rDock/src/rDock_2013.1_src/data/scripts/dock_solv.prm

>  <Rbt.Receptor>
prm/blind_docking_40.prm

>  <SCORE>
51.9515

>  <SCORE.INTER>
17.8373

>  <SCORE.INTER.CONST>
1

>  <SCORE.INTER.POLAR>
-1.25708

>  <SCORE.INTER.ROT>
6

>  <SCORE.INTER.SOLV>
19.8133

>  <SCORE.INTER.VDW>
1.87736

>  <SCORE.INTER.norm>
0.575397

>  <SCORE.INTRA>
28.4341

>  <SCORE.INTRA.DIHEDRAL>
-6.03726

>  <SCORE.INTRA.DIHEDRAL.0>
22.2484

>  <SCORE.INTRA.POLAR>
0

>  <SCORE.INTRA.POLAR.0>
0

>  <SCORE.INTRA.REPUL>
0

>  <SCORE.INTRA.REPUL.0>
0

>  <SCORE.INTRA.SOLV>
9.04311

>  <SCORE.INTRA.SOLV.lig_0>
-75.7198

>  <SCORE.INTRA.VDW>
26.9312

>  <SCORE.INTRA.VDW.0>
-3.34171

>  <SCORE.INTRA.norm>
0.917228

>  <SCORE.RESTR>
5.68008

>  <SCORE.RESTR.CAVITY>
5.68008

>  <SCORE.RESTR.norm>
0.183228

>  <SCORE.SYSTEM>
0

>  <SCORE.SYSTEM.CONST>
0

>  <SCORE.SYSTEM.DIHEDRAL>
0

>  <SCORE.SYSTEM.SOLV>
0

>  <SCORE.SYSTEM.norm>
0

>  <SCORE.heavy>
31

>  <SCORE.norm>
1.67585

>  <RMSD>
10.346

$$$$
2et3_lig
 OpenBabel11021811423D
libRbt.so/2013.1/901 2013/11/27
 31 33  0  0  0  0  0  0  0  0999 V2000
    0.3274    0.4133   37.3809 C   0  0  2  0  0  0  0  0  0  0  0  0
    1.0429    0.5375   36.1244 O   0  0  0  0  0  0  0  0  0  0  0  0
    4.3141   -1.5156   34.2832 C   0  0  2  0  0  0  0  0  0  0  0  0
    5.5515   -2.2209   34.1521 N   0  0  0  0  0  0  0  0  0  0  0  0
    3.2457   -4.8633   35.3009 C   0  0  2  0  0  0  0  0  0  0  0  0
    0.3869    1.7406   38.1446 C   0  0  2  0  0  0  0  0  0  0  0  0
   -0.1417    2.7727   37.3071 N   0  0  0  0  0  0  0  0  0  0  0  0
    4.5800   -0.1057   34.9026 C   0  0  0  0  0  0  0  0  0  0  0  0
    1.9138   -5.6170   35.0920 C   0  0  2  0  0  0  0  0  0  0  0  0
    1.7219   -5.8318   33.7116 O   0  0  0  0  0  0  0  0  0  0  0  0
    1.8566    2.0480   38.5928 C   0  0  0  0  0  0  0  0  0  0  0  0
    3.2232    0.6740   35.0586 C   0  0  2  0  0  0  0  0  0  0  0  0
    3.4681    2.0026   35.6422 N   0  0  0  0  0  0  0  0  0  0  0  0
    0.7536   -4.7405   35.7186 C   0  0  1  0  0  0  0  0  0  0  0  0
   -0.5875   -5.3805   35.5168 N   0  0  0  0  0  0  0  0  0  0  0  0
    2.3314    0.8861   39.5208 C   0  0  0  0  0  0  0  0  0  0  0  0
    2.2376   -0.1586   35.9652 C   0  0  2  0  0  0  0  0  0  0  0  0
    1.0218   -4.5032   37.2983 C   0  0  1  0  0  0  0  0  0  0  0  0
    1.0221   -5.7243   38.0085 O   0  0  0  0  0  0  0  0  0  0  0  0
    2.2313   -0.4819   38.7125 C   0  0  2  0  0  0  0  0  0  0  0  0
    0.8909   -0.7119   38.1762 O   0  0  0  0  0  0  0  0  0  0  0  0
    1.9914   -1.5746   35.3156 C   0  0  2  0  0  0  0  0  0  0  0  0
    1.0998   -2.3426   36.1175 O   0  0  0  0  0  0  0  0  0  0  0  0
    2.4248   -3.8471   37.4845 C   0  0  0  0  0  0  0  0  0  0  0  0
    3.4765   -4.6322   36.7563 O   0  0  0  0  0  0  0  0  0  0  0  0
    2.6804   -1.6950   39.4926 C   0  0  0  0  0  0  0  0  0  0  0  0
    4.1134   -1.7514   39.6159 N   0  0  0  0  0  0  0  0  0  0  0  0
    3.3553   -2.3360   35.1665 C   0  0  1  0  0  0  0  0  0  0  0  0
    3.1133   -3.6059   34.5731 O   0  0  0  0  0  0  0  0  0  0  0  0
   -0.0091   -3.6554   38.0560 C   0  0  0  0  0  0  0  0  0  0  0  0
   -1.0913   -5.4618   34.1356 C   0  0  0  0  0  0  0  0  0  0  0  0
  1  2  1  6  0  0  0
  1  6  1  0  0  0  0
  1 21  1  0  0  0  0
  3  4  1  1  0  0  0
  3  8  1  0  0  0  0
  3 28  1  0  0  0  0
  5  9  1  0  0  0  0
  5 25  1  0  0  0  0
  5 29  1  6  0  0  0
  6  7  1  6  0  0  0
  6 11  1  0  0  0  0
  8 12  1  0  0  0  0
  9 10  1  6  0  0  0
  9 14  1  0  0  0  0
 11 16  1  0  0  0  0
 12 13  1  1  0  0  0
 12 17  1  0  0  0  0
 14 15  1  1  0  0  0
 14 18  1  0  0  0  0
 15 31  1  0  0  0  0
 16 20  1  0  0  0  0
 17  2  1  6  0  0  0
 17 22  1  0  0  0  0
 18 19  1  1  0  0  0
 18 24  1  0  0  0  0
 18 30  1  0  0  0  0
 20 21  1  0  0  0  0
 20 26  1  1  0  0  0
 22 23  1  1  0  0  0
 22 28  1  0  0  0  0
 24 25  1  0  0  0  0
 26 27  1  0  0  0  0
 28 29  1  6  0  0  0
M  END
>  <CHROM.1>
110.90396199,127.35172944,-67.43765492,-146.53453266,-74.63507020,129.59996724
1.99822661,-2.03597371,36.49199155,1.47758853,0.77549170,0.39257404

>  <Name>
2et3_lig

>  <RI>
0

>  <Rbt.Current_Directory>
/home/itssahil/PROJECTS/Mol_Feturizer/New_Systems/rnas/2et3

>  <Rbt.Executable>
rbdock ($Id: //depot/dev/client3/rdock/2013.1/src/exe/rbdock.cxx#4 $)

>  <Rbt.Library>
libRbt.so (2013.1, Build901 2013/11/27)

>  <Rbt.Parameter_File>
/export/apps/rDock/src/rDock_2013.1_src/data/scripts/dock_solv.prm

>  <Rbt.Receptor>
prm/blind_docking_40.prm

>  <SCORE>
50.1526

>  <SCORE.INTER>
26.9661

>  <SCORE.INTER.CONST>
1

>  <SCORE.INTER.POLAR>
-0.76422

>  <SCORE.INTER.ROT>
6

>  <SCORE.INTER.SOLV>
27.9958

>  <SCORE.INTER.VDW>
3.59285

>  <SCORE.INTER.norm>
0.869873

>  <SCORE.INTRA>
17.2956

>  <SCORE.INTRA.DIHEDRAL>
3.29449

>  <SCORE.INTRA.DIHEDRAL.0>
22.2484

>  <SCORE.INTRA.POLAR>
0

>  <SCORE.INTRA.POLAR.0>
0

>  <SCORE.INTRA.REPUL>
0

>  <SCORE.INTRA.REPUL.0>
0

>  <SCORE.INTRA.SOLV>
1.62913

>  <SCORE.INTRA.SOLV.lig_0>
-75.7198

>  <SCORE.INTRA.VDW>
14.8338

>  <SCORE.INTRA.VDW.0>
-3.34171

>  <SCORE.INTRA.norm>
0.557922

>  <SCORE.RESTR>
5.89098

>  <SCORE.RESTR.CAVITY>
5.89098

>  <SCORE.RESTR.norm>
0.190032

>  <SCORE.SYSTEM>
0

>  <SCORE.SYSTEM.CONST>
0

>  <SCORE.SYSTEM.DIHEDRAL>
0

>  <SCORE.SYSTEM.SOLV>
0

>  <SCORE.SYSTEM.norm>
0

>  <SCORE.heavy>
31

>  <SCORE.norm>
1.61783

>  <RMSD>
10.401

$$$$
2et3_lig
 OpenBabel11021811423D
libRbt.so/2013.1/901 2013/11/27
 31 33  0  0  0  0  0  0  0  0999 V2000
    4.1693    1.0324   37.6318 C   0  0  2  0  0  0  0  0  0  0  0  0
    4.1637   -0.1591   38.4604 O   0  0  0  0  0  0  0  0  0  0  0  0
    6.0458   -2.9183   35.7862 C   0  0  2  0  0  0  0  0  0  0  0  0
    6.6665   -4.1176   35.3153 N   0  0  0  0  0  0  0  0  0  0  0  0
    3.1984   -5.0817   35.2596 C   0  0  2  0  0  0  0  0  0  0  0  0
    3.2995    2.1165   38.2772 C   0  0  2  0  0  0  0  0  0  0  0  0
    3.7833    2.3614   39.6009 N   0  0  0  0  0  0  0  0  0  0  0  0
    6.9024   -2.3058   36.9409 C   0  0  0  0  0  0  0  0  0  0  0  0
    1.7944   -4.8804   34.6481 C   0  0  2  0  0  0  0  0  0  0  0  0
    1.9350   -4.4323   33.3185 O   0  0  0  0  0  0  0  0  0  0  0  0
    1.7941    1.6816   38.2770 C   0  0  0  0  0  0  0  0  0  0  0  0
    6.2224   -0.9907   37.4711 C   0  0  2  0  0  0  0  0  0  0  0  0
    7.0252   -0.4100   38.5592 N   0  0  0  0  0  0  0  0  0  0  0  0
    1.0176   -3.8314   35.5442 C   0  0  1  0  0  0  0  0  0  0  0  0
   -0.3459   -3.5409   34.9914 N   0  0  0  0  0  0  0  0  0  0  0  0
    1.3536    1.4677   36.7948 C   0  0  0  0  0  0  0  0  0  0  0  0
    4.7622   -1.3159   37.9697 C   0  0  2  0  0  0  0  0  0  0  0  0
    0.8941   -4.3763   37.0645 C   0  0  1  0  0  0  0  0  0  0  0  0
    0.1478   -5.5743   37.1220 O   0  0  0  0  0  0  0  0  0  0  0  0
    2.2915    0.3594   36.1417 C   0  0  2  0  0  0  0  0  0  0  0  0
    3.7096    0.6958   36.2565 O   0  0  0  0  0  0  0  0  0  0  0  0
    3.9248   -1.9336   36.7844 C   0  0  2  0  0  0  0  0  0  0  0  0
    2.5998   -2.2318   37.2126 O   0  0  0  0  0  0  0  0  0  0  0  0
    2.3217   -4.6812   37.6145 C   0  0  0  0  0  0  0  0  0  0  0  0
    3.0763   -5.5656   36.6652 O   0  0  0  0  0  0  0  0  0  0  0  0
    1.9610    0.0398   34.7029 C   0  0  0  0  0  0  0  0  0  0  0  0
    3.0574   -0.6096   34.0335 N   0  0  0  0  0  0  0  0  0  0  0  0
    4.6191   -3.2426   36.2680 C   0  0  1  0  0  0  0  0  0  0  0  0
    3.8537   -3.7798   35.1961 O   0  0  0  0  0  0  0  0  0  0  0  0
    0.1764   -3.4658   38.0703 C   0  0  0  0  0  0  0  0  0  0  0  0
   -0.4593   -2.4258   34.0365 C   0  0  0  0  0  0  0  0  0  0  0  0
  1  2  1  1  0  0  0
  1  6  1  0  0  0  0
  1 21  1  0  0  0  0
  3  4  1  1  0  0  0
  3  8  1  0  0  0  0
  3 28  1  0  0  0  0
  5  9  1  0  0  0  0
  5 25  1  0  0  0  0
  5 29  1  1  0  0  0
  6  7  1  1  0  0  0
  6 11  1  0  0  0  0
  8 12  1  0  0  0  0
  9 10  1  6  0  0  0
  9 14  1  0  0  0  0
 11 16  1  0  0  0  0
 12 13  1  1  0  0  0
 12 17  1  0  0  0  0
 14 15  1  6  0  0  0
 14 18  1  0  0  0  0
 15 31  1  0  0  0  0
 16 20  1  0  0  0  0
 17  2  1  6  0  0  0
 17 22  1  0  0  0  0
 18 19  1  6  0  0  0
 18 24  1  0  0  0  0
 18 30  1  0  0  0  0
 20 21  1  0  0  0  0
 20 26  1  6  0  0  0
 22 23  1  1  0  0  0
 22 28  1  0  0  0  0
 24 25  1  0  0  0  0
 26 27  1  0  0  0  0
 28 29  1  6  0  0  0
M  END
>  <CHROM.1>
172.28546527,136.90359223,-90.39876031,51.36403223,161.11938882,123.17095876
3.06389010,-2.03209952,36.50548388,1.12551624,-0.17572996,0.33102440

>  <Name>
2et3_lig

>  <RI>
0

>  <Rbt.Current_Directory>
/home/itssahil/PROJECTS/Mol_Feturizer/New_Systems/rnas/2et3

>  <Rbt.Executable>
rbdock ($Id: //depot/dev/client3/rdock/2013.1/src/exe/rbdock.cxx#4 $)

>  <Rbt.Library>
libRbt.so (2013.1, Build901 2013/11/27)

>  <Rbt.Parameter_File>
/export/apps/rDock/src/rDock_2013.1_src/data/scripts/dock_solv.prm

>  <Rbt.Receptor>
prm/blind_docking_40.prm

>  <SCORE>
3.05973

>  <SCORE.INTER>
-7.70414

>  <SCORE.INTER.CONST>
1

>  <SCORE.INTER.POLAR>
-1.13697

>  <SCORE.INTER.ROT>
6

>  <SCORE.INTER.SOLV>
22.3753

>  <SCORE.INTER.VDW>
-16.4046

>  <SCORE.INTER.norm>
-0.248521

>  <SCORE.INTRA>
2.56908

>  <SCORE.INTRA.DIHEDRAL>
-6.6938

>  <SCORE.INTRA.DIHEDRAL.0>
22.2484

>  <SCORE.INTRA.POLAR>
0

>  <SCORE.INTRA.POLAR.0>
0

>  <SCORE.INTRA.REPUL>
0

>  <SCORE.INTRA.REPUL.0>
0

>  <SCORE.INTRA.SOLV>
2.69443

>  <SCORE.INTRA.SOLV.lig_0>
-75.7198

>  <SCORE.INTRA.VDW>
4.56876

>  <SCORE.INTRA.VDW.0>
-3.34171

>  <SCORE.INTRA.norm>
0.0828734

>  <SCORE.RESTR>
8.1948

>  <SCORE.RESTR.CAVITY>
8.1948

>  <SCORE.RESTR.norm>
0.264348

>  <SCORE.SYSTEM>
0

>  <SCORE.SYSTEM.CONST>
0

>  <SCORE.SYSTEM.DIHEDRAL>
0

>  <SCORE.SYSTEM.SOLV>
0

>  <SCORE.SYSTEM.norm>
0

>  <SCORE.heavy>
31

>  <SCORE.norm>
0.098701

>  <RMSD>
10.515

$$$$
2et3_lig
 OpenBabel11021811423D
libRbt.so/2013.1/901 2013/11/27
 31 33  0  0  0  0  0  0  0  0999 V2000
    4.0893    1.3233   38.1826 C   0  0  2  0  0  0  0  0  0  0  0  0
    4.0801    0.1142   38.9852 O   0  0  0  0  0  0  0  0  0  0  0  0
    5.7203   -2.6944   36.2053 C   0  0  2  0  0  0  0  0  0  0  0  0
    6.3481   -3.8803   35.7100 N   0  0  0  0  0  0  0  0  0  0  0  0
    2.9494   -5.0448   36.3017 C   0  0  2  0  0  0  0  0  0  0  0  0
    2.9461    2.2449   38.6209 C   0  0  2  0  0  0  0  0  0  0  0  0
    3.0840    2.5090   40.0199 N   0  0  0  0  0  0  0  0  0  0  0  0
    6.6995   -1.9487   37.1683 C   0  0  0  0  0  0  0  0  0  0  0  0
    2.1235   -5.4096   35.0486 C   0  0  2  0  0  0  0  0  0  0  0  0
    2.9815   -5.4451   33.9301 O   0  0  0  0  0  0  0  0  0  0  0  0
    1.5605    1.5958   38.2832 C   0  0  0  0  0  0  0  0  0  0  0  0
    6.0140   -0.6474   37.7248 C   0  0  2  0  0  0  0  0  0  0  0  0
    6.9321    0.0585   38.6329 N   0  0  0  0  0  0  0  0  0  0  0  0
    0.9834   -4.3236   34.8821 C   0  0  1  0  0  0  0  0  0  0  0  0
    0.1588   -4.5773   33.6556 N   0  0  0  0  0  0  0  0  0  0  0  0
    1.4945    1.3745   36.7394 C   0  0  0  0  0  0  0  0  0  0  0  0
    4.6796   -1.0322   38.4716 C   0  0  2  0  0  0  0  0  0  0  0  0
    0.0332   -4.3036   36.1938 C   0  0  1  0  0  0  0  0  0  0  0  0
   -0.6234   -5.5417   36.3714 O   0  0  0  0  0  0  0  0  0  0  0  0
    2.7087    0.4391   36.3087 C   0  0  2  0  0  0  0  0  0  0  0  0
    3.9997    0.9738   36.7383 O   0  0  0  0  0  0  0  0  0  0  0  0
    3.7149   -1.7839   37.4756 C   0  0  2  0  0  0  0  0  0  0  0  0
    2.5005   -2.1378   38.1296 O   0  0  0  0  0  0  0  0  0  0  0  0
    0.9126   -4.0489   37.4568 C   0  0  0  0  0  0  0  0  0  0  0  0
    2.0644   -5.0102   37.5019 O   0  0  0  0  0  0  0  0  0  0  0  0
    2.7550    0.1276   34.8313 C   0  0  0  0  0  0  0  0  0  0  0  0
    3.8917   -0.6876   34.4918 N   0  0  0  0  0  0  0  0  0  0  0  0
    4.4162   -3.0773   36.9300 C   0  0  1  0  0  0  0  0  0  0  0  0
    3.5342   -3.7363   36.0293 O   0  0  0  0  0  0  0  0  0  0  0  0
   -1.1192   -3.2900   36.1986 C   0  0  0  0  0  0  0  0  0  0  0  0
   -0.1578   -5.9799   33.3382 C   0  0  0  0  0  0  0  0  0  0  0  0
  1  2  1  1  0  0  0
  1  6  1  0  0  0  0
  1 21  1  0  0  0  0
  3  4  1  1  0  0  0
  3  8  1  0  0  0  0
  3 28  1  0  0  0  0
  5  9  1  0  0  0  0
  5 25  1  0  0  0  0
  5 29  1  6  0  0  0
  6  7  1  1  0  0  0
  6 11  1  0  0  0  0
  8 12  1  0  0  0  0
  9 10  1  6  0  0  0
  9 14  1  0  0  0  0
 11 16  1  0  0  0  0
 12 13  1  1  0  0  0
 12 17  1  0  0  0  0
 14 15  1  6  0  0  0
 14 18  1  0  0  0  0
 15 31  1  0  0  0  0
 16 20  1  0  0  0  0
 17  2  1  6  0  0  0
 17 22  1  0  0  0  0
 18 19  1  1  0  0  0
 18 24  1  0  0  0  0
 18 30  1  0  0  0  0
 20 21  1  0  0  0  0
 20 26  1  6  0  0  0
 22 23  1  1  0  0  0
 22 28  1  0  0  0  0
 24 25  1  0  0  0  0
 26 27  1  0  0  0  0
 28 29  1  6  0  0  0
M  END
>  <CHROM.1>
156.96778382,-177.30598914,39.13269556,39.98638919,178.32098093,126.05986630
2.91974128,-2.09586703,36.65472449,1.10689362,-0.07965736,0.43048666

>  <Name>
2et3_lig

>  <RI>
0

>  <Rbt.Current_Directory>
/home/itssahil/PROJECTS/Mol_Feturizer/New_Systems/rnas/2et3

>  <Rbt.Executable>
rbdock ($Id: //depot/dev/client3/rdock/2013.1/src/exe/rbdock.cxx#4 $)

>  <Rbt.Library>
libRbt.so (2013.1, Build901 2013/11/27)

>  <Rbt.Parameter_File>
/export/apps/rDock/src/rDock_2013.1_src/data/scripts/dock_solv.prm

>  <Rbt.Receptor>
prm/blind_docking_40.prm

>  <SCORE>
9.54458

>  <SCORE.INTER>
-2.89883

>  <SCORE.INTER.CONST>
1

>  <SCORE.INTER.POLAR>
-0.434629

>  <SCORE.INTER.ROT>
6

>  <SCORE.INTER.SOLV>
22.6819

>  <SCORE.INTER.VDW>
-15.6444

>  <SCORE.INTER.norm>
-0.0935105

>  <SCORE.INTRA>
1.62329

>  <SCORE.INTRA.DIHEDRAL>
-10.6075

>  <SCORE.INTRA.DIHEDRAL.0>
22.2484

>  <SCORE.INTRA.POLAR>
0

>  <SCORE.INTRA.POLAR.0>
0

>  <SCORE.INTRA.REPUL>
0

>  <SCORE.INTRA.REPUL.0>
0

>  <SCORE.INTRA.SOLV>
2.99807

>  <SCORE.INTRA.SOLV.lig_0>
-75.7198

>  <SCORE.INTRA.VDW>
5.42803

>  <SCORE.INTRA.VDW.0>
-3.34171

>  <SCORE.INTRA.norm>
0.0523643

>  <SCORE.RESTR>
10.8201

>  <SCORE.RESTR.CAVITY>
10.8201

>  <SCORE.RESTR.norm>
0.349036

>  <SCORE.SYSTEM>
0

>  <SCORE.SYSTEM.CONST>
0

>  <SCORE.SYSTEM.DIHEDRAL>
0

>  <SCORE.SYSTEM.SOLV>
0

>  <SCORE.SYSTEM.norm>
0

>  <SCORE.heavy>
31

>  <SCORE.norm>
0.30789

>  <RMSD>
10.577

$$$$
2et3_lig
 OpenBabel11021811423D
libRbt.so/2013.1/901 2013/11/27
 31 33  0  0  0  0  0  0  0  0999 V2000
   -1.1890   -6.3482   28.7989 C   0  0  2  0  0  0  0  0  0  0  0  0
    0.1776   -5.9304   28.5458 O   0  0  0  0  0  0  0  0  0  0  0  0
    3.7065   -7.8085   27.0208 C   0  0  2  0  0  0  0  0  0  0  0  0
    4.5317   -8.6944   26.2593 N   0  0  0  0  0  0  0  0  0  0  0  0
    4.7492   -6.7718   24.3485 C   0  0  2  0  0  0  0  0  0  0  0  0
   -2.0430   -6.1125   27.5485 C   0  0  2  0  0  0  0  0  0  0  0  0
   -1.4464   -6.8090   26.4508 N   0  0  0  0  0  0  0  0  0  0  0  0
    2.7703   -8.6408   27.9552 C   0  0  0  0  0  0  0  0  0  0  0  0
    5.2827   -5.6257   23.4611 C   0  0  2  0  0  0  0  0  0  0  0  0
    5.8574   -4.6378   24.2870 O   0  0  0  0  0  0  0  0  0  0  0  0
   -2.1800   -4.5782   27.2612 C   0  0  0  0  0  0  0  0  0  0  0  0
    1.8528   -7.6746   28.7904 C   0  0  2  0  0  0  0  0  0  0  0  0
    0.9686   -8.4538   29.6718 N   0  0  0  0  0  0  0  0  0  0  0  0
    4.0696   -5.0560   22.6181 C   0  0  1  0  0  0  0  0  0  0  0  0
    4.4927   -3.9021   21.7588 N   0  0  0  0  0  0  0  0  0  0  0  0
   -2.8642   -3.9147   28.4975 C   0  0  0  0  0  0  0  0  0  0  0  0
    1.0076   -6.7724   27.8115 C   0  0  2  0  0  0  0  0  0  0  0  0
    3.4285   -6.2253   21.6985 C   0  0  1  0  0  0  0  0  0  0  0  0
    4.3658   -6.7140   20.7615 O   0  0  0  0  0  0  0  0  0  0  0  0
   -1.9720   -4.2001   29.7849 C   0  0  2  0  0  0  0  0  0  0  0  0
   -1.7281   -5.6276   29.9848 O   0  0  0  0  0  0  0  0  0  0  0  0
    1.9792   -5.9480   26.8819 C   0  0  2  0  0  0  0  0  0  0  0  0
    1.2356   -5.1225   25.9912 O   0  0  0  0  0  0  0  0  0  0  0  0
    3.0059   -7.4177   22.6112 C   0  0  0  0  0  0  0  0  0  0  0  0
    4.1440   -7.8356   23.4960 O   0  0  0  0  0  0  0  0  0  0  0  0
   -2.5135   -3.5949   31.0586 C   0  0  0  0  0  0  0  0  0  0  0  0
   -2.5227   -2.1565   31.0057 N   0  0  0  0  0  0  0  0  0  0  0  0
    2.8869   -6.9281   26.0587 C   0  0  1  0  0  0  0  0  0  0  0  0
    3.7596   -6.1664   25.2331 O   0  0  0  0  0  0  0  0  0  0  0  0
    2.2266   -5.8391   20.8257 C   0  0  0  0  0  0  0  0  0  0  0  0
    4.5561   -2.5771   22.3980 C   0  0  0  0  0  0  0  0  0  0  0  0
  1  2  1  6  0  0  0
  1  6  1  0  0  0  0
  1 21  1  0  0  0  0
  3  4  1  6  0  0  0
  3  8  1  0  0  0  0
  3 28  1  0  0  0  0
  5  9  1  0  0  0  0
  5 25  1  0  0  0  0
  5 29  1  1  0  0  0
  6  7  1  6  0  0  0
  6 11  1  0  0  0  0
  8 12  1  0  0  0  0
  9 10  1  1  0  0  0
  9 14  1  0  0  0  0
 11 16  1  0  0  0  0
 12 13  1  6  0  0  0
 12 17  1  0  0  0  0
 14 15  1  6  0  0  0
 14 18  1  0  0  0  0
 15 31  1  0  0  0  0
 16 20  1  0  0  0  0
 17  2  1  1  0  0  0
 17 22  1  0  0  0  0
 18 19  1  6  0  0  0
 18 24  1  0  0  0  0
 18 30  1  0  0  0  0
 20 21  1  0  0  0  0
 20 26  1  1  0  0  0
 22 23  1  6  0  0  0
 22 28  1  0  0  0  0
 24 25  1  0  0  0  0
 26 27  1  0  0  0  0
 28 29  1  6  0  0  0
M  END
>  <CHROM.1>
-78.31657650,169.73757812,-82.57297168,-94.83118685,-64.51470369,58.94525323
1.71952123,-5.92193619,26.05844305,-2.62138354,0.70779057,-0.85290344

>  <Name>
2et3_lig

>  <RI>
0

>  <Rbt.Current_Directory>
/home/itssahil/PROJECTS/Mol_Feturizer/New_Systems/rnas/2et3

>  <Rbt.Executable>
rbdock ($Id: //depot/dev/client3/rdock/2013.1/src/exe/rbdock.cxx#4 $)

>  <Rbt.Library>
libRbt.so (2013.1, Build901 2013/11/27)

>  <Rbt.Parameter_File>
/export/apps/rDock/src/rDock_2013.1_src/data/scripts/dock_solv.prm

>  <Rbt.Receptor>
prm/pocket_docking_7.prm

>  <SCORE>
-21.8222

>  <SCORE.INTER>
-15.7118

>  <SCORE.INTER.CONST>
1

>  <SCORE.INTER.POLAR>
-0.664299

>  <SCORE.INTER.ROT>
6

>  <SCORE.INTER.SOLV>
16.1889

>  <SCORE.INTER.VDW>
-21.2565

>  <SCORE.INTER.norm>
-0.506831

>  <SCORE.INTRA>
-6.11344

>  <SCORE.INTRA.DIHEDRAL>
-15.128

>  <SCORE.INTRA.DIHEDRAL.0>
22.2484

>  <SCORE.INTRA.POLAR>
0

>  <SCORE.INTRA.POLAR.0>
0

>  <SCORE.INTRA.REPUL>
0

>  <SCORE.INTRA.REPUL.0>
0

>  <SCORE.INTRA.SOLV>
1.00878

>  <SCORE.INTRA.SOLV.lig_0>
-75.7198

>  <SCORE.INTRA.VDW>
0.946186

>  <SCORE.INTRA.VDW.0>
-3.34171

>  <SCORE.INTRA.norm>
-0.197208

>  <SCORE.RESTR>
0.00303911

>  <SCORE.RESTR.CAVITY>
0.00303911

>  <SCORE.RESTR.norm>
9.80357e-05

>  <SCORE.SYSTEM>
0

>  <SCORE.SYSTEM.CONST>
0

>  <SCORE.SYSTEM.DIHEDRAL>
0

>  <SCORE.SYSTEM.SOLV>
0

>  <SCORE.SYSTEM.norm>
0

>  <SCORE.heavy>
31

>  <SCORE.norm>
-0.703941

>  <RMSD>
10.671

$$$$
2et3_lig
 OpenBabel11021811423D
libRbt.so/2013.1/901 2013/11/27
 31 33  0  0  0  0  0  0  0  0999 V2000
    1.1823    1.8686   37.5748 C   0  0  2  0  0  0  0  0  0  0  0  0
    1.3641    1.0012   38.7239 O   0  0  0  0  0  0  0  0  0  0  0  0
    4.8446   -1.1457   37.4654 C   0  0  2  0  0  0  0  0  0  0  0  0
    5.9609   -2.0383   37.5168 N   0  0  0  0  0  0  0  0  0  0  0  0
    3.2866   -4.3593   36.9640 C   0  0  2  0  0  0  0  0  0  0  0  0
   -0.2412    1.7139   37.0287 C   0  0  2  0  0  0  0  0  0  0  0  0
   -1.1669    1.9920   38.0832 N   0  0  0  0  0  0  0  0  0  0  0  0
    5.0126   -0.0365   38.5534 C   0  0  0  0  0  0  0  0  0  0  0  0
    3.0568   -5.0516   35.6025 C   0  0  2  0  0  0  0  0  0  0  0  0
    4.1556   -4.7814   34.7611 O   0  0  0  0  0  0  0  0  0  0  0  0
   -0.4461    0.2781   36.4356 C   0  0  0  0  0  0  0  0  0  0  0  0
    3.7847    0.9451   38.5100 C   0  0  2  0  0  0  0  0  0  0  0  0
    3.9380    1.9915   39.5333 N   0  0  0  0  0  0  0  0  0  0  0  0
    1.7017   -4.4999   34.9972 C   0  0  1  0  0  0  0  0  0  0  0  0
    1.4247   -5.0886   33.6460 N   0  0  0  0  0  0  0  0  0  0  0  0
    0.5843    0.0817   35.2795 C   0  0  0  0  0  0  0  0  0  0  0  0
    2.4523    0.1336   38.7396 C   0  0  2  0  0  0  0  0  0  0  0  0
    0.4705   -4.8150   36.0014 C   0  0  1  0  0  0  0  0  0  0  0  0
    0.2897   -6.2055   36.1723 O   0  0  0  0  0  0  0  0  0  0  0  0
    2.0505    0.2767   35.8685 C   0  0  2  0  0  0  0  0  0  0  0  0
    2.2105    1.5643   36.5421 O   0  0  0  0  0  0  0  0  0  0  0  0
    2.3129   -0.9777   37.6289 C   0  0  2  0  0  0  0  0  0  0  0  0
    1.1127   -1.7210   37.8156 O   0  0  0  0  0  0  0  0  0  0  0  0
    0.7849   -4.2031   37.4015 C   0  0  0  0  0  0  0  0  0  0  0  0
    2.1404   -4.6386   37.8766 O   0  0  0  0  0  0  0  0  0  0  0  0
    3.1537    0.0954   34.8526 C   0  0  0  0  0  0  0  0  0  0  0  0
    3.1192   -1.2127   34.2530 N   0  0  0  0  0  0  0  0  0  0  0  0
    3.5468   -1.9453   37.6866 C   0  0  1  0  0  0  0  0  0  0  0  0
    3.4060   -2.9345   36.6741 O   0  0  0  0  0  0  0  0  0  0  0  0
   -0.9192   -4.3301   35.5665 C   0  0  0  0  0  0  0  0  0  0  0  0
    0.4982   -4.3519   32.7702 C   0  0  0  0  0  0  0  0  0  0  0  0
  1  2  1  1  0  0  0
  1  6  1  0  0  0  0
  1 21  1  0  0  0  0
  3  4  1  1  0  0  0
  3  8  1  0  0  0  0
  3 28  1  0  0  0  0
  5  9  1  0  0  0  0
  5 25  1  0  0  0  0
  5 29  1  6  0  0  0
  6  7  1  1  0  0  0
  6 11  1  0  0  0  0
  8 12  1  0  0  0  0
  9 10  1  6  0  0  0
  9 14  1  0  0  0  0
 11 16  1  0  0  0  0
 12 13  1  1  0  0  0
 12 17  1  0  0  0  0
 14 15  1  6  0  0  0
 14 18  1  0  0  0  0
 15 31  1  0  0  0  0
 16 20  1  0  0  0  0
 17  2  1  6  0  0  0
 17 22  1  0  0  0  0
 18 19  1  1  0  0  0
 18 24  1  0  0  0  0
 18 30  1  0  0  0  0
 20 21  1  0  0  0  0
 20 26  1  6  0  0  0
 22 23  1  1  0  0  0
 22 28  1  0  0  0  0
 24 25  1  0  0  0  0
 26 27  1  0  0  0  0
 28 29  1  6  0  0  0
M  END
>  <CHROM.1>
127.71415465,176.14790114,-159.01800177,54.53452532,-58.73957118,122.04361411
2.08449012,-1.72748503,36.65135755,1.48145588,-0.31479915,0.37607422

>  <Name>
2et3_lig

>  <RI>
0

>  <Rbt.Current_Directory>
/home/itssahil/PROJECTS/Mol_Feturizer/New_Systems/rnas/2et3

>  <Rbt.Executable>
rbdock ($Id: //depot/dev/client3/rdock/2013.1/src/exe/rbdock.cxx#4 $)

>  <Rbt.Library>
libRbt.so (2013.1, Build901 2013/11/27)

>  <Rbt.Parameter_File>
/export/apps/rDock/src/rDock_2013.1_src/data/scripts/dock_solv.prm

>  <Rbt.Receptor>
prm/blind_docking_40.prm

>  <SCORE>
18.2197

>  <SCORE.INTER>
-3.67468

>  <SCORE.INTER.CONST>
1

>  <SCORE.INTER.POLAR>
-1.50562

>  <SCORE.INTER.ROT>
6

>  <SCORE.INTER.SOLV>
26.4765

>  <SCORE.INTER.VDW>
-13.8566

>  <SCORE.INTER.norm>
-0.118538

>  <SCORE.INTRA>
16.939

>  <SCORE.INTRA.DIHEDRAL>
-7.51632

>  <SCORE.INTRA.DIHEDRAL.0>
22.2484

>  <SCORE.INTRA.POLAR>
0

>  <SCORE.INTRA.POLAR.0>
0

>  <SCORE.INTRA.REPUL>
0

>  <SCORE.INTRA.REPUL.0>
0

>  <SCORE.INTRA.SOLV>
3.63746

>  <SCORE.INTRA.SOLV.lig_0>
-75.7198

>  <SCORE.INTRA.VDW>
18.8784

>  <SCORE.INTRA.VDW.0>
-3.34171

>  <SCORE.INTRA.norm>
0.546418

>  <SCORE.RESTR>
4.95539

>  <SCORE.RESTR.CAVITY>
4.95539

>  <SCORE.RESTR.norm>
0.159851

>  <SCORE.SYSTEM>
0

>  <SCORE.SYSTEM.CONST>
0

>  <SCORE.SYSTEM.DIHEDRAL>
0

>  <SCORE.SYSTEM.SOLV>
0

>  <SCORE.SYSTEM.norm>
0

>  <SCORE.heavy>
31

>  <SCORE.norm>
0.587732

>  <RMSD>
10.683

$$$$
2et3_lig
 OpenBabel11021811423D
libRbt.so/2013.1/901 2013/11/27
 31 33  0  0  0  0  0  0  0  0999 V2000
    0.3220    0.4500   37.8400 C   0  0  2  0  0  0  0  0  0  0  0  0
    0.8044    0.4858   36.4717 O   0  0  0  0  0  0  0  0  0  0  0  0
    3.7869   -1.5105   34.1423 C   0  0  2  0  0  0  0  0  0  0  0  0
    4.9388   -2.2984   33.8296 N   0  0  0  0  0  0  0  0  0  0  0  0
    2.7380   -4.8676   34.4367 C   0  0  2  0  0  0  0  0  0  0  0  0
    0.3801    1.8560   38.4468 C   0  0  2  0  0  0  0  0  0  0  0  0
   -0.3762    2.7424   37.6171 N   0  0  0  0  0  0  0  0  0  0  0  0
    4.2173   -0.2694   34.9889 C   0  0  0  0  0  0  0  0  0  0  0  0
    1.6487   -5.3704   35.4096 C   0  0  2  0  0  0  0  0  0  0  0  0
    0.3942   -5.2933   34.7704 O   0  0  0  0  0  0  0  0  0  0  0  0
    1.8675    2.3250   38.5985 C   0  0  0  0  0  0  0  0  0  0  0  0
    2.9552    0.5985   35.3449 C   0  0  2  0  0  0  0  0  0  0  0  0
    3.3553    1.7686   36.1427 N   0  0  0  0  0  0  0  0  0  0  0  0
    1.7032   -4.4698   36.7108 C   0  0  1  0  0  0  0  0  0  0  0  0
    0.6412   -4.8622   37.6942 N   0  0  0  0  0  0  0  0  0  0  0  0
    2.5983    1.3161   39.5392 C   0  0  0  0  0  0  0  0  0  0  0  0
    1.9141   -0.2838   36.1350 C   0  0  2  0  0  0  0  0  0  0  0  0
    3.1640   -4.5733   37.4027 C   0  0  1  0  0  0  0  0  0  0  0  0
    3.4409   -5.8931   37.8237 O   0  0  0  0  0  0  0  0  0  0  0  0
    2.4970   -0.1383   38.8997 C   0  0  2  0  0  0  0  0  0  0  0  0
    1.1145   -0.5307   38.6314 O   0  0  0  0  0  0  0  0  0  0  0  0
    1.5017   -1.5273   35.2567 C   0  0  2  0  0  0  0  0  0  0  0  0
    0.5579   -2.3367   35.9509 O   0  0  0  0  0  0  0  0  0  0  0  0
    4.2521   -4.1713   36.3596 C   0  0  0  0  0  0  0  0  0  0  0  0
    4.0777   -4.9485   35.0874 O   0  0  0  0  0  0  0  0  0  0  0  0
    3.1830   -1.2166   39.7049 C   0  0  0  0  0  0  0  0  0  0  0  0
    4.6140   -1.0614   39.6974 N   0  0  0  0  0  0  0  0  0  0  0  0
    2.7730   -2.3793   34.9104 C   0  0  1  0  0  0  0  0  0  0  0  0
    2.3817   -3.4904   34.1131 O   0  0  0  0  0  0  0  0  0  0  0  0
    3.3882   -3.7437   38.6743 C   0  0  0  0  0  0  0  0  0  0  0  0
   -0.7590   -4.7316   37.2576 C   0  0  0  0  0  0  0  0  0  0  0  0
  1  2  1  6  0  0  0
  1  6  1  0  0  0  0
  1 21  1  0  0  0  0
  3  4  1  1  0  0  0
  3  8  1  0  0  0  0
  3 28  1  0  0  0  0
  5  9  1  0  0  0  0
  5 25  1  0  0  0  0
  5 29  1  1  0  0  0
  6  7  1  6  0  0  0
  6 11  1  0  0  0  0
  8 12  1  0  0  0  0
  9 10  1  6  0  0  0
  9 14  1  0  0  0  0
 11 16  1  0  0  0  0
 12 13  1  1  0  0  0
 12 17  1  0  0  0  0
 14 15  1  1  0  0  0
 14 18  1  0  0  0  0
 15 31  1  0  0  0  0
 16 20  1  0  0  0  0
 17  2  1  6  0  0  0
 17 22  1  0  0  0  0
 18 19  1  1  0  0  0
 18 24  1  0  0  0  0
 18 30  1  0  0  0  0
 20 21  1  0  0  0  0
 20 26  1  1  0  0  0
 22 23  1  1  0  0  0
 22 28  1  0  0  0  0
 24 25  1  0  0  0  0
 26 27  1  0  0  0  0
 28 29  1  6  0  0  0
M  END
>  <CHROM.1>
119.82760301,86.10435344,-61.71097600,-131.15018140,-68.40435832,112.04679869
2.24422483,-1.93027175,36.70450415,1.84939309,1.10612405,0.10221708

>  <Name>
2et3_lig

>  <RI>
0

>  <Rbt.Current_Directory>
/home/itssahil/PROJECTS/Mol_Feturizer/New_Systems/rnas/2et3

>  <Rbt.Executable>
rbdock ($Id: //depot/dev/client3/rdock/2013.1/src/exe/rbdock.cxx#4 $)

>  <Rbt.Library>
libRbt.so (2013.1, Build901 2013/11/27)

>  <Rbt.Parameter_File>
/export/apps/rDock/src/rDock_2013.1_src/data/scripts/dock_solv.prm

>  <Rbt.Receptor>
prm/blind_docking_40.prm

>  <SCORE>
66.1464

>  <SCORE.INTER>
48.5637

>  <SCORE.INTER.CONST>
1

>  <SCORE.INTER.POLAR>
-0.420313

>  <SCORE.INTER.ROT>
6

>  <SCORE.INTER.SOLV>
28.8972

>  <SCORE.INTER.VDW>
16.5444

>  <SCORE.INTER.norm>
1.56657

>  <SCORE.INTRA>
13.4598

>  <SCORE.INTRA.DIHEDRAL>
1.61684

>  <SCORE.INTRA.DIHEDRAL.0>
22.2484

>  <SCORE.INTRA.POLAR>
0

>  <SCORE.INTRA.POLAR.0>
0

>  <SCORE.INTRA.REPUL>
0

>  <SCORE.INTRA.REPUL.0>
0

>  <SCORE.INTRA.SOLV>
4.70902

>  <SCORE.INTRA.SOLV.lig_0>
-75.7198

>  <SCORE.INTRA.VDW>
10.2968

>  <SCORE.INTRA.VDW.0>
-3.34171

>  <SCORE.INTRA.norm>
0.434186

>  <SCORE.RESTR>
4.12294

>  <SCORE.RESTR.CAVITY>
4.12294

>  <SCORE.RESTR.norm>
0.132998

>  <SCORE.SYSTEM>
0

>  <SCORE.SYSTEM.CONST>
0

>  <SCORE.SYSTEM.DIHEDRAL>
0

>  <SCORE.SYSTEM.SOLV>
0

>  <SCORE.SYSTEM.norm>
0

>  <SCORE.heavy>
31

>  <SCORE.norm>
2.13375

>  <RMSD>
10.691

$$$$
2et3_lig
 OpenBabel11021811423D
libRbt.so/2013.1/901 2013/11/27
 31 33  0  0  0  0  0  0  0  0999 V2000
    3.4436   -4.7447   36.0576 C   0  0  2  0  0  0  0  0  0  0  0  0
    3.8421   -3.7848   35.0447 O   0  0  0  0  0  0  0  0  0  0  0  0
    5.2378   -0.6106   37.5513 C   0  0  2  0  0  0  0  0  0  0  0  0
    5.8605    0.6174   37.9383 N   0  0  0  0  0  0  0  0  0  0  0  0
    2.4116    1.6006   36.5316 C   0  0  2  0  0  0  0  0  0  0  0  0
    2.0946   -5.3662   35.6803 C   0  0  2  0  0  0  0  0  0  0  0  0
    2.2094   -5.9505   34.3797 N   0  0  0  0  0  0  0  0  0  0  0  0
    6.2967   -1.5445   36.8815 C   0  0  0  0  0  0  0  0  0  0  0  0
    1.0659    1.7674   37.2711 C   0  0  2  0  0  0  0  0  0  0  0  0
    1.3224    2.0954   38.6184 O   0  0  0  0  0  0  0  0  0  0  0  0
    0.9602   -4.2867   35.7371 C   0  0  0  0  0  0  0  0  0  0  0  0
    5.6186   -2.8945   36.4447 C   0  0  2  0  0  0  0  0  0  0  0  0
    6.6118   -3.7776   35.8128 N   0  0  0  0  0  0  0  0  0  0  0  0
    0.2641    0.4087   37.1380 C   0  0  1  0  0  0  0  0  0  0  0  0
   -1.0423    0.4684   37.8719 N   0  0  0  0  0  0  0  0  0  0  0  0
    0.8940   -3.7323   37.1948 C   0  0  0  0  0  0  0  0  0  0  0  0
    4.4318   -2.5915   35.4515 C   0  0  2  0  0  0  0  0  0  0  0  0
    0.0068    0.0610   35.5770 C   0  0  1  0  0  0  0  0  0  0  0  0
   -0.7861    1.0503   34.9541 O   0  0  0  0  0  0  0  0  0  0  0  0
    2.3150   -3.1202   37.5698 C   0  0  2  0  0  0  0  0  0  0  0  0
    3.3987   -4.0851   37.3914 O   0  0  0  0  0  0  0  0  0  0  0  0
    3.3829   -1.6466   36.1548 C   0  0  2  0  0  0  0  0  0  0  0  0
    2.2994   -1.3629   35.2753 O   0  0  0  0  0  0  0  0  0  0  0  0
    1.3767    0.0144   34.8323 C   0  0  0  0  0  0  0  0  0  0  0  0
    2.1666    1.2623   35.0997 O   0  0  0  0  0  0  0  0  0  0  0  0
    2.3863   -2.5284   38.9578 C   0  0  0  0  0  0  0  0  0  0  0  0
    3.7462   -2.3418   39.3908 N   0  0  0  0  0  0  0  0  0  0  0  0
    4.0777   -0.3070   36.5846 C   0  0  1  0  0  0  0  0  0  0  0  0
    3.1183    0.5274   37.2224 O   0  0  0  0  0  0  0  0  0  0  0  0
   -0.7495   -1.2395   35.2729 C   0  0  0  0  0  0  0  0  0  0  0  0
   -1.2751   -0.5483   38.9113 C   0  0  0  0  0  0  0  0  0  0  0  0
  1  2  1  6  0  0  0
  1  6  1  0  0  0  0
  1 21  1  0  0  0  0
  3  4  1  6  0  0  0
  3  8  1  0  0  0  0
  3 28  1  0  0  0  0
  5  9  1  0  0  0  0
  5 25  1  0  0  0  0
  5 29  1  1  0  0  0
  6  7  1  6  0  0  0
  6 11  1  0  0  0  0
  8 12  1  0  0  0  0
  9 10  1  1  0  0  0
  9 14  1  0  0  0  0
 11 16  1  0  0  0  0
 12 13  1  6  0  0  0
 12 17  1  0  0  0  0
 14 15  1  1  0  0  0
 14 18  1  0  0  0  0
 15 31  1  0  0  0  0
 16 20  1  0  0  0  0
 17  2  1  1  0  0  0
 17 22  1  0  0  0  0
 18 19  1  6  0  0  0
 18 24  1  0  0  0  0
 18 30  1  0  0  0  0
 20 21  1  0  0  0  0
 20 26  1  1  0  0  0
 22 23  1  6  0  0  0
 22 28  1  0  0  0  0
 24 25  1  0  0  0  0
 26 27  1  0  0  0  0
 28 29  1  1  0  0  0
M  END
>  <CHROM.1>
139.77219028,152.67037546,-122.61924418,50.78132478,163.43696728,141.98031886
2.45320423,-1.47684946,36.60194168,0.87902837,0.13703680,-2.88611422

>  <Name>
2et3_lig

>  <RI>
0

>  <Rbt.Current_Directory>
/home/itssahil/PROJECTS/Mol_Feturizer/New_Systems/rnas/2et3

>  <Rbt.Executable>
rbdock ($Id: //depot/dev/client3/rdock/2013.1/src/exe/rbdock.cxx#4 $)

>  <Rbt.Library>
libRbt.so (2013.1, Build901 2013/11/27)

>  <Rbt.Parameter_File>
/export/apps/rDock/src/rDock_2013.1_src/data/scripts/dock_solv.prm

>  <Rbt.Receptor>
prm/blind_docking_40.prm

>  <SCORE>
23.0814

>  <SCORE.INTER>
-10.4286

>  <SCORE.INTER.CONST>
1

>  <SCORE.INTER.POLAR>
-1.87568

>  <SCORE.INTER.ROT>
6

>  <SCORE.INTER.SOLV>
21.9462

>  <SCORE.INTER.VDW>
-15.6155

>  <SCORE.INTER.norm>
-0.336405

>  <SCORE.INTRA>
28.8255

>  <SCORE.INTRA.DIHEDRAL>
-6.08305

>  <SCORE.INTRA.DIHEDRAL.0>
22.2484

>  <SCORE.INTRA.POLAR>
0

>  <SCORE.INTRA.POLAR.0>
0

>  <SCORE.INTRA.REPUL>
0

>  <SCORE.INTRA.REPUL.0>
0

>  <SCORE.INTRA.SOLV>
4.08411

>  <SCORE.INTRA.SOLV.lig_0>
-75.7198

>  <SCORE.INTRA.VDW>
29.825

>  <SCORE.INTRA.VDW.0>
-3.34171

>  <SCORE.INTRA.norm>
0.929856

>  <SCORE.RESTR>
4.68447

>  <SCORE.RESTR.CAVITY>
4.68447

>  <SCORE.RESTR.norm>
0.151112

>  <SCORE.SYSTEM>
0

>  <SCORE.SYSTEM.CONST>
0

>  <SCORE.SYSTEM.DIHEDRAL>
0

>  <SCORE.SYSTEM.SOLV>
0

>  <SCORE.SYSTEM.norm>
0

>  <SCORE.heavy>
31

>  <SCORE.norm>
0.744563

>  <RMSD>
10.841

$$$$
2et3_lig
 OpenBabel11021811423D
libRbt.so/2013.1/901 2013/11/27
 31 33  0  0  0  0  0  0  0  0999 V2000
    0.8328    1.4242   37.8797 C   0  0  2  0  0  0  0  0  0  0  0  0
    0.9147    0.2678   38.7528 O   0  0  0  0  0  0  0  0  0  0  0  0
    4.9119   -1.0516   37.9857 C   0  0  2  0  0  0  0  0  0  0  0  0
    6.1691   -1.7047   38.1814 N   0  0  0  0  0  0  0  0  0  0  0  0
    3.7564   -4.4654   37.0457 C   0  0  2  0  0  0  0  0  0  0  0  0
   -0.5994    1.5785   37.3569 C   0  0  2  0  0  0  0  0  0  0  0  0
   -1.4863    1.6666   38.4758 N   0  0  0  0  0  0  0  0  0  0  0  0
    4.6835   -0.0065   39.1249 C   0  0  0  0  0  0  0  0  0  0  0  0
    3.4807   -4.9808   35.6160 C   0  0  2  0  0  0  0  0  0  0  0  0
    4.6098   -4.7229   34.8116 O   0  0  0  0  0  0  0  0  0  0  0  0
   -0.9682    0.3838   36.4124 C   0  0  0  0  0  0  0  0  0  0  0  0
    3.2987    0.7107   38.9226 C   0  0  2  0  0  0  0  0  0  0  0  0
    3.0786    1.6958   39.9935 N   0  0  0  0  0  0  0  0  0  0  0  0
    2.1892   -4.2438   35.0721 C   0  0  1  0  0  0  0  0  0  0  0  0
    1.8760   -4.6534   33.6639 N   0  0  0  0  0  0  0  0  0  0  0  0
    0.0320    0.3893   35.2139 C   0  0  0  0  0  0  0  0  0  0  0  0
    2.1449   -0.3640   38.9097 C   0  0  2  0  0  0  0  0  0  0  0  0
    0.9222   -4.5516   36.0331 C   0  0  1  0  0  0  0  0  0  0  0  0
    0.6130   -5.9299   36.0500 O   0  0  0  0  0  0  0  0  0  0  0  0
    1.5113    0.2575   35.7873 C   0  0  2  0  0  0  0  0  0  0  0  0
    1.8185    1.2938   36.7717 O   0  0  0  0  0  0  0  0  0  0  0  0
    2.4047   -1.4039   37.7525 C   0  0  2  0  0  0  0  0  0  0  0  0
    1.3710   -2.3827   37.7207 O   0  0  0  0  0  0  0  0  0  0  0  0
    1.2743   -4.1277   37.4926 C   0  0  0  0  0  0  0  0  0  0  0  0
    2.5783   -4.7357   37.9198 O   0  0  0  0  0  0  0  0  0  0  0  0
    2.5856    0.2320   34.7257 C   0  0  0  0  0  0  0  0  0  0  0  0
    3.8972    0.4234   35.2870 N   0  0  0  0  0  0  0  0  0  0  0  0
    3.7903   -2.1073   37.9704 C   0  0  1  0  0  0  0  0  0  0  0  0
    4.0091   -3.0346   36.9143 O   0  0  0  0  0  0  0  0  0  0  0  0
   -0.4119   -3.8960   35.6513 C   0  0  0  0  0  0  0  0  0  0  0  0
    0.8491   -3.8751   32.9513 C   0  0  0  0  0  0  0  0  0  0  0  0
  1  2  1  1  0  0  0
  1  6  1  0  0  0  0
  1 21  1  0  0  0  0
  3  4  1  1  0  0  0
  3  8  1  0  0  0  0
  3 28  1  0  0  0  0
  5  9  1  0  0  0  0
  5 25  1  0  0  0  0
  5 29  1  6  0  0  0
  6  7  1  1  0  0  0
  6 11  1  0  0  0  0
  8 12  1  0  0  0  0
  9 10  1  6  0  0  0
  9 14  1  0  0  0  0
 11 16  1  0  0  0  0
 12 13  1  1  0  0  0
 12 17  1  0  0  0  0
 14 15  1  6  0  0  0
 14 18  1  0  0  0  0
 15 31  1  0  0  0  0
 16 20  1  0  0  0  0
 17  2  1  6  0  0  0
 17 22  1  0  0  0  0
 18 19  1  1  0  0  0
 18 24  1  0  0  0  0
 18 30  1  0  0  0  0
 20 21  1  0  0  0  0
 20 26  1  6  0  0  0
 22 23  1  1  0  0  0
 22 28  1  0  0  0  0
 24 25  1  0  0  0  0
 26 27  1  0  0  0  0
 28 29  1  6  0  0  0
M  END
>  <CHROM.1>
154.93360663,154.54206348,-169.45896738,37.05866824,166.60443930,140.85915467
2.12470745,-1.71446390,36.83810693,1.71457237,-0.41872105,0.47177633

>  <Name>
2et3_lig

>  <RI>
0

>  <Rbt.Current_Directory>
/home/itssahil/PROJECTS/Mol_Feturizer/New_Systems/rnas/2et3

>  <Rbt.Executable>
rbdock ($Id: //depot/dev/client3/rdock/2013.1/src/exe/rbdock.cxx#4 $)

>  <Rbt.Library>
libRbt.so (2013.1, Build901 2013/11/27)

>  <Rbt.Parameter_File>
/export/apps/rDock/src/rDock_2013.1_src/data/scripts/dock_solv.prm

>  <Rbt.Receptor>
prm/blind_docking_40.prm

>  <SCORE>
16.6618

>  <SCORE.INTER>
-5.79595

>  <SCORE.INTER.CONST>
1

>  <SCORE.INTER.POLAR>
-1.19048

>  <SCORE.INTER.ROT>
6

>  <SCORE.INTER.SOLV>
25.0881

>  <SCORE.INTER.VDW>
-15.8584

>  <SCORE.INTER.norm>
-0.186966

>  <SCORE.INTRA>
18.1028

>  <SCORE.INTRA.DIHEDRAL>
-8.4683

>  <SCORE.INTRA.DIHEDRAL.0>
22.2484

>  <SCORE.INTRA.POLAR>
0

>  <SCORE.INTRA.POLAR.0>
0

>  <SCORE.INTRA.REPUL>
0

>  <SCORE.INTRA.REPUL.0>
0

>  <SCORE.INTRA.SOLV>
2.75401

>  <SCORE.INTRA.SOLV.lig_0>
-75.7198

>  <SCORE.INTRA.VDW>
20.96

>  <SCORE.INTRA.VDW.0>
-3.34171

>  <SCORE.INTRA.norm>
0.583963

>  <SCORE.RESTR>
4.3549

>  <SCORE.RESTR.CAVITY>
4.3549

>  <SCORE.RESTR.norm>
0.140481

>  <SCORE.SYSTEM>
0

>  <SCORE.SYSTEM.CONST>
0

>  <SCORE.SYSTEM.DIHEDRAL>
0

>  <SCORE.SYSTEM.SOLV>
0

>  <SCORE.SYSTEM.norm>
0

>  <SCORE.heavy>
31

>  <SCORE.norm>
0.537477

>  <RMSD>
10.866

$$$$
2et3_lig
 OpenBabel11021811423D
libRbt.so/2013.1/901 2013/11/27
 31 33  0  0  0  0  0  0  0  0999 V2000
   -0.2474   -3.6973   37.0193 C   0  0  2  0  0  0  0  0  0  0  0  0
    0.9462   -3.9547   37.8036 O   0  0  0  0  0  0  0  0  0  0  0  0
    3.9692   -1.2463   39.1573 C   0  0  2  0  0  0  0  0  0  0  0  0
    5.0265   -0.2843   39.1095 N   0  0  0  0  0  0  0  0  0  0  0  0
    2.3793    1.8595   38.5987 C   0  0  2  0  0  0  0  0  0  0  0  0
   -1.0537   -4.9910   36.8628 C   0  0  2  0  0  0  0  0  0  0  0  0
   -1.3480   -5.5053   38.1647 N   0  0  0  0  0  0  0  0  0  0  0  0
    4.4194   -2.5535   38.4288 C   0  0  0  0  0  0  0  0  0  0  0  0
    1.2754    1.9037   37.5193 C   0  0  2  0  0  0  0  0  0  0  0  0
    0.0273    1.6689   38.1322 O   0  0  0  0  0  0  0  0  0  0  0  0
   -0.2631   -6.0259   35.9914 C   0  0  0  0  0  0  0  0  0  0  0  0
    3.2593   -3.6143   38.4689 C   0  0  2  0  0  0  0  0  0  0  0  0
    3.6782   -4.8474   37.7835 N   0  0  0  0  0  0  0  0  0  0  0  0
    1.6130    0.8049   36.4305 C   0  0  1  0  0  0  0  0  0  0  0  0
    0.5604    0.7479   35.3639 N   0  0  0  0  0  0  0  0  0  0  0  0
   -0.0167   -5.3874   34.5884 C   0  0  0  0  0  0  0  0  0  0  0  0
    1.9697   -3.0116   37.7904 C   0  0  2  0  0  0  0  0  0  0  0  0
    3.0598    1.1016   35.7653 C   0  0  1  0  0  0  0  0  0  0  0  0
    3.0703    2.3427   35.0907 O   0  0  0  0  0  0  0  0  0  0  0  0
    0.7959   -4.0323   34.7835 C   0  0  2  0  0  0  0  0  0  0  0  0
    0.1275   -3.1126   35.7026 O   0  0  0  0  0  0  0  0  0  0  0  0
    1.5424   -1.6944   38.5455 C   0  0  2  0  0  0  0  0  0  0  0  0
    0.3760   -1.1349   37.9504 O   0  0  0  0  0  0  0  0  0  0  0  0
    4.1358    1.1668   36.8929 C   0  0  0  0  0  0  0  0  0  0  0  0
    3.7103    2.1151   37.9757 O   0  0  0  0  0  0  0  0  0  0  0  0
    1.1197   -3.3148   33.4943 C   0  0  0  0  0  0  0  0  0  0  0  0
    2.2695   -2.4598   33.6319 N   0  0  0  0  0  0  0  0  0  0  0  0
    2.7122   -0.6497   38.4965 C   0  0  1  0  0  0  0  0  0  0  0  0
    2.3106    0.5267   39.1880 O   0  0  0  0  0  0  0  0  0  0  0  0
    3.5452    0.1147   34.6948 C   0  0  0  0  0  0  0  0  0  0  0  0
   -0.3015   -0.4456   35.3347 C   0  0  0  0  0  0  0  0  0  0  0  0
  1  2  1  1  0  0  0
  1  6  1  0  0  0  0
  1 21  1  0  0  0  0
  3  4  1  6  0  0  0
  3  8  1  0  0  0  0
  3 28  1  0  0  0  0
  5  9  1  0  0  0  0
  5 25  1  0  0  0  0
  5 29  1  6  0  0  0
  6  7  1  1  0  0  0
  6 11  1  0  0  0  0
  8 12  1  0  0  0  0
  9 10  1  1  0  0  0
  9 14  1  0  0  0  0
 11 16  1  0  0  0  0
 12 13  1  6  0  0  0
 12 17  1  0  0  0  0
 14 15  1  6  0  0  0
 14 18  1  0  0  0  0
 15 31  1  0  0  0  0
 16 20  1  0  0  0  0
 17  2  1  1  0  0  0
 17 22  1  0  0  0  0
 18 19  1  6  0  0  0
 18 24  1  0  0  0  0
 18 30  1  0  0  0  0
 20 21  1  0  0  0  0
 20 26  1  6  0  0  0
 22 23  1  6  0  0  0
 22 28  1  0  0  0  0
 24 25  1  0  0  0  0
 26 27  1  0  0  0  0
 28 29  1  1  0  0  0
M  END
>  <CHROM.1>
164.51067999,70.85867980,-110.09520387,-169.03450492,-155.84557228,112.54575825
1.75153384,-1.49654170,36.92220450,-2.32197436,-0.94604505,-0.45271848

>  <Name>
2et3_lig

>  <RI>
0

>  <Rbt.Current_Directory>
/home/itssahil/PROJECTS/Mol_Feturizer/New_Systems/rnas/2et3

>  <Rbt.Executable>
rbdock ($Id: //depot/dev/client3/rdock/2013.1/src/exe/rbdock.cxx#4 $)

>  <Rbt.Library>
libRbt.so (2013.1, Build901 2013/11/27)

>  <Rbt.Parameter_File>
/export/apps/rDock/src/rDock_2013.1_src/data/scripts/dock_solv.prm

>  <Rbt.Receptor>
prm/blind_docking_40.prm

>  <SCORE>
13.2618

>  <SCORE.INTER>
3.07962

>  <SCORE.INTER.CONST>
1

>  <SCORE.INTER.POLAR>
-0.0244463

>  <SCORE.INTER.ROT>
6

>  <SCORE.INTER.SOLV>
21.6473

>  <SCORE.INTER.VDW>
-12.6812

>  <SCORE.INTER.norm>
0.0993426

>  <SCORE.INTRA>
0.761267

>  <SCORE.INTRA.DIHEDRAL>
-9.98253

>  <SCORE.INTRA.DIHEDRAL.0>
22.2484

>  <SCORE.INTRA.POLAR>
0

>  <SCORE.INTRA.POLAR.0>
0

>  <SCORE.INTRA.REPUL>
0

>  <SCORE.INTRA.REPUL.0>
0

>  <SCORE.INTRA.SOLV>
3.53809

>  <SCORE.INTRA.SOLV.lig_0>
-75.7198

>  <SCORE.INTRA.VDW>
3.98349

>  <SCORE.INTRA.VDW.0>
-3.34171

>  <SCORE.INTRA.norm>
0.024557

>  <SCORE.RESTR>
9.42089

>  <SCORE.RESTR.CAVITY>
9.42089

>  <SCORE.RESTR.norm>
0.3039

>  <SCORE.SYSTEM>
0

>  <SCORE.SYSTEM.CONST>
0

>  <SCORE.SYSTEM.DIHEDRAL>
0

>  <SCORE.SYSTEM.SOLV>
0

>  <SCORE.SYSTEM.norm>
0

>  <SCORE.heavy>
31

>  <SCORE.norm>
0.427799

>  <RMSD>
10.936

$$$$
2et3_lig
 OpenBabel11021811423D
libRbt.so/2013.1/901 2013/11/27
 31 33  0  0  0  0  0  0  0  0999 V2000
   -1.3442   -6.0378   28.6367 C   0  0  2  0  0  0  0  0  0  0  0  0
   -0.4012   -5.5437   27.6504 O   0  0  0  0  0  0  0  0  0  0  0  0
    3.7342   -6.5188   27.1462 C   0  0  2  0  0  0  0  0  0  0  0  0
    4.9080   -7.2999   26.9062 N   0  0  0  0  0  0  0  0  0  0  0  0
    4.7127   -6.6765   24.2190 C   0  0  2  0  0  0  0  0  0  0  0  0
   -2.7770   -5.7777   28.1597 C   0  0  2  0  0  0  0  0  0  0  0  0
   -2.9485   -6.3874   26.8771 N   0  0  0  0  0  0  0  0  0  0  0  0
    2.9945   -7.0631   28.4107 C   0  0  0  0  0  0  0  0  0  0  0  0
    5.3614   -5.6052   23.3149 C   0  0  2  0  0  0  0  0  0  0  0  0
    5.6697   -4.4730   24.0969 O   0  0  0  0  0  0  0  0  0  0  0  0
   -3.0685   -4.2387   28.1181 C   0  0  0  0  0  0  0  0  0  0  0  0
    1.6971   -6.2153   28.6772 C   0  0  2  0  0  0  0  0  0  0  0  0
    0.9965   -6.7242   29.8670 N   0  0  0  0  0  0  0  0  0  0  0  0
    4.3389   -5.2602   22.1563 C   0  0  1  0  0  0  0  0  0  0  0  0
    4.8734   -4.1880   21.2543 N   0  0  0  0  0  0  0  0  0  0  0  0
   -2.8845   -3.6733   29.5614 C   0  0  0  0  0  0  0  0  0  0  0  0
    0.7588   -6.2748   27.4113 C   0  0  2  0  0  0  0  0  0  0  0  0
    3.9988   -6.5894   21.2953 C   0  0  1  0  0  0  0  0  0  0  0  0
    5.1537   -7.1018   20.6635 O   0  0  0  0  0  0  0  0  0  0  0  0
   -1.3986   -3.9831   30.0419 C   0  0  2  0  0  0  0  0  0  0  0  0
   -1.0741   -5.4060   29.9573 O   0  0  0  0  0  0  0  0  0  0  0  0
    1.5333   -5.7219   26.1534 C   0  0  2  0  0  0  0  0  0  0  0  0
    0.7017   -5.7633   24.9982 O   0  0  0  0  0  0  0  0  0  0  0  0
    3.4551   -7.6930   22.2544 C   0  0  0  0  0  0  0  0  0  0  0  0
    4.3856   -7.8898   23.4155 O   0  0  0  0  0  0  0  0  0  0  0  0
   -1.0773   -3.4710   31.4262 C   0  0  0  0  0  0  0  0  0  0  0  0
   -1.8612   -4.1319   32.4364 N   0  0  0  0  0  0  0  0  0  0  0  0
    2.8243   -6.5784   25.9047 C   0  0  1  0  0  0  0  0  0  0  0  0
    3.5116   -6.0602   24.7722 O   0  0  0  0  0  0  0  0  0  0  0  0
    3.0055   -6.4284   20.1364 C   0  0  0  0  0  0  0  0  0  0  0  0
    4.4866   -2.8003   21.5590 C   0  0  0  0  0  0  0  0  0  0  0  0
  1  2  1  6  0  0  0
  1  6  1  0  0  0  0
  1 21  1  0  0  0  0
  3  4  1  6  0  0  0
  3  8  1  0  0  0  0
  3 28  1  0  0  0  0
  5  9  1  0  0  0  0
  5 25  1  0  0  0  0
  5 29  1  6  0  0  0
  6  7  1  6  0  0  0
  6 11  1  0  0  0  0
  8 12  1  0  0  0  0
  9 10  1  1  0  0  0
  9 14  1  0  0  0  0
 11 16  1  0  0  0  0
 12 13  1  1  0  0  0
 12 17  1  0  0  0  0
 14 15  1  6  0  0  0
 14 18  1  0  0  0  0
 15 31  1  0  0  0  0
 16 20  1  0  0  0  0
 17  2  1  1  0  0  0
 17 22  1  0  0  0  0
 18 19  1  6  0  0  0
 18 24  1  0  0  0  0
 18 30  1  0  0  0  0
 20 21  1  0  0  0  0
 20 26  1  1  0  0  0
 22 23  1  6  0  0  0
 22 28  1  0  0  0  0
 24 25  1  0  0  0  0
 26 27  1  0  0  0  0
 28 29  1  6  0  0  0
M  END
>  <CHROM.1>
-142.22972028,-163.28124148,-93.93471373,-68.07990499,64.91088040,63.51595517
1.77474030,-5.72503449,26.00248770,2.28123387,-0.28684937,1.67297103

>  <Name>
2et3_lig

>  <RI>
3.86414e+07

>  <Rbt.Current_Directory>
/home/itssahil/PROJECTS/Mol_Feturizer/New_Systems/rnas/2et3

>  <Rbt.Executable>
rbdock ($Id: //depot/dev/client3/rdock/2013.1/src/exe/rbdock.cxx#4 $)

>  <Rbt.Library>
libRbt.so (2013.1, Build901 2013/11/27)

>  <Rbt.Parameter_File>
/export/apps/rDock/src/rDock_2013.1_src/data/scripts/dock_solv.prm

>  <Rbt.Receptor>
prm/pocket_docking_8.prm

>  <SCORE>
-25.4232

>  <SCORE.INTER>
-20.2251

>  <SCORE.INTER.CONST>
1

>  <SCORE.INTER.POLAR>
-1.28641

>  <SCORE.INTER.ROT>
6

>  <SCORE.INTER.SOLV>
13.8816

>  <SCORE.INTER.VDW>
-21.4226

>  <SCORE.INTER.norm>
-0.652423

>  <SCORE.INTRA>
-5.19805

>  <SCORE.INTRA.DIHEDRAL>
-14.6287

>  <SCORE.INTRA.DIHEDRAL.0>
22.2484

>  <SCORE.INTRA.POLAR>
0

>  <SCORE.INTRA.POLAR.0>
0

>  <SCORE.INTRA.REPUL>
0

>  <SCORE.INTRA.REPUL.0>
0

>  <SCORE.INTRA.SOLV>
0.962044

>  <SCORE.INTRA.SOLV.lig_0>
-75.7198

>  <SCORE.INTRA.VDW>
1.63528

>  <SCORE.INTRA.VDW.0>
-3.34171

>  <SCORE.INTRA.norm>
-0.167679

>  <SCORE.RESTR>
0

>  <SCORE.RESTR.CAVITY>
0

>  <SCORE.RESTR.norm>
0

>  <SCORE.SYSTEM>
0

>  <SCORE.SYSTEM.CONST>
0

>  <SCORE.SYSTEM.DIHEDRAL>
0

>  <SCORE.SYSTEM.SOLV>
0

>  <SCORE.SYSTEM.norm>
0

>  <SCORE.heavy>
31

>  <SCORE.norm>
-0.820102

>  <RMSD>
10.990

$$$$
2et3_lig
 OpenBabel11021811423D
libRbt.so/2013.1/901 2013/11/27
 31 33  0  0  0  0  0  0  0  0999 V2000
    0.6512    1.0580   38.1669 C   0  0  2  0  0  0  0  0  0  0  0  0
    0.5094   -0.2459   38.7880 O   0  0  0  0  0  0  0  0  0  0  0  0
    4.6348   -1.3171   39.1620 C   0  0  2  0  0  0  0  0  0  0  0  0
    5.7980   -2.0669   39.5229 N   0  0  0  0  0  0  0  0  0  0  0  0
    4.6567   -3.8917   36.6094 C   0  0  2  0  0  0  0  0  0  0  0  0
   -0.6696    1.4625   37.5035 C   0  0  2  0  0  0  0  0  0  0  0  0
   -1.7045    1.4300   38.4905 N   0  0  0  0  0  0  0  0  0  0  0  0
    3.8571   -0.9060   40.4536 C   0  0  0  0  0  0  0  0  0  0  0  0
    4.1665   -3.9315   35.1452 C   0  0  2  0  0  0  0  0  0  0  0  0
    4.9349   -3.0290   34.3813 O   0  0  0  0  0  0  0  0  0  0  0  0
   -0.9862    0.5172   36.2946 C   0  0  0  0  0  0  0  0  0  0  0  0
    2.5712   -0.0882   40.0658 C   0  0  2  0  0  0  0  0  0  0  0  0
    1.8348    0.3010   41.2790 N   0  0  0  0  0  0  0  0  0  0  0  0
    2.6294   -3.5520   35.1346 C   0  0  1  0  0  0  0  0  0  0  0  0
    2.0816   -3.5208   33.7390 N   0  0  0  0  0  0  0  0  0  0  0  0
    0.1796    0.6440   35.2643 C   0  0  0  0  0  0  0  0  0  0  0  0
    1.6597   -0.9572   39.1167 C   0  0  2  0  0  0  0  0  0  0  0  0
    1.7873   -4.6013   36.0366 C   0  0  1  0  0  0  0  0  0  0  0  0
    1.8743   -5.9117   35.5161 O   0  0  0  0  0  0  0  0  0  0  0  0
    1.5412    0.2468   35.9876 C   0  0  2  0  0  0  0  0  0  0  0  0
    1.7784    1.0366   37.1947 O   0  0  0  0  0  0  0  0  0  0  0  0
    2.4723   -1.3574   37.8254 C   0  0  2  0  0  0  0  0  0  0  0  0
    1.6655   -2.1406   36.9517 O   0  0  0  0  0  0  0  0  0  0  0  0
    2.3806   -4.6247   37.4791 C   0  0  0  0  0  0  0  0  0  0  0  0
    3.8644   -4.8467   37.4371 O   0  0  0  0  0  0  0  0  0  0  0  0
    2.7571    0.3093   35.0935 C   0  0  0  0  0  0  0  0  0  0  0  0
    3.9779    0.1469   35.8384 N   0  0  0  0  0  0  0  0  0  0  0  0
    3.7513   -2.1702   38.2323 C   0  0  1  0  0  0  0  0  0  0  0  0
    4.4733   -2.5151   37.0562 O   0  0  0  0  0  0  0  0  0  0  0  0
    0.2746   -4.3646   36.1433 C   0  0  0  0  0  0  0  0  0  0  0  0
    0.8247   -2.7834   33.5277 C   0  0  0  0  0  0  0  0  0  0  0  0
  1  2  1  6  0  0  0
  1  6  1  0  0  0  0
  1 21  1  0  0  0  0
  3  4  1  1  0  0  0
  3  8  1  0  0  0  0
  3 28  1  0  0  0  0
  5  9  1  0  0  0  0
  5 25  1  0  0  0  0
  5 29  1  1  0  0  0
  6  7  1  1  0  0  0
  6 11  1  0  0  0  0
  8 12  1  0  0  0  0
  9 10  1  6  0  0  0
  9 14  1  0  0  0  0
 11 16  1  0  0  0  0
 12 13  1  1  0  0  0
 12 17  1  0  0  0  0
 14 15  1  6  0  0  0
 14 18  1  0  0  0  0
 15 31  1  0  0  0  0
 16 20  1  0  0  0  0
 17  2  1  6  0  0  0
 17 22  1  0  0  0  0
 18 19  1  6  0  0  0
 18 24  1  0  0  0  0
 18 30  1  0  0  0  0
 20 21  1  0  0  0  0
 20 26  1  6  0  0  0
 22 23  1  6  0  0  0
 22 28  1  0  0  0  0
 24 25  1  0  0  0  0
 26 27  1  0  0  0  0
 28 29  1  6  0  0  0
M  END
>  <CHROM.1>
162.43175528,126.47838251,-160.93567143,56.47131877,170.95138836,124.73332879
2.26704864,-1.69807594,37.05116233,2.12614515,-0.67204143,0.87490360

>  <Name>
2et3_lig

>  <RI>
0

>  <Rbt.Current_Directory>
/home/itssahil/PROJECTS/Mol_Feturizer/New_Systems/rnas/2et3

>  <Rbt.Executable>
rbdock ($Id: //depot/dev/client3/rdock/2013.1/src/exe/rbdock.cxx#4 $)

>  <Rbt.Library>
libRbt.so (2013.1, Build901 2013/11/27)

>  <Rbt.Parameter_File>
/export/apps/rDock/src/rDock_2013.1_src/data/scripts/dock_solv.prm

>  <Rbt.Receptor>
prm/blind_docking_40.prm

>  <SCORE>
50.0989

>  <SCORE.INTER>
33.4538

>  <SCORE.INTER.CONST>
1

>  <SCORE.INTER.POLAR>
0

>  <SCORE.INTER.ROT>
6

>  <SCORE.INTER.SOLV>
19.0036

>  <SCORE.INTER.VDW>
8.36802

>  <SCORE.INTER.norm>
1.07916

>  <SCORE.INTRA>
10.5702

>  <SCORE.INTRA.DIHEDRAL>
-6.00028

>  <SCORE.INTRA.DIHEDRAL.0>
22.2484

>  <SCORE.INTRA.POLAR>
0

>  <SCORE.INTRA.POLAR.0>
0

>  <SCORE.INTRA.REPUL>
0

>  <SCORE.INTRA.REPUL.0>
0

>  <SCORE.INTRA.SOLV>
4.54571

>  <SCORE.INTRA.SOLV.lig_0>
-75.7198

>  <SCORE.INTRA.VDW>
11.2975

>  <SCORE.INTRA.VDW.0>
-3.34171

>  <SCORE.INTRA.norm>
0.340974

>  <SCORE.RESTR>
6.07483

>  <SCORE.RESTR.CAVITY>
6.07483

>  <SCORE.RESTR.norm>
0.195962

>  <SCORE.SYSTEM>
0

>  <SCORE.SYSTEM.CONST>
0

>  <SCORE.SYSTEM.DIHEDRAL>
0

>  <SCORE.SYSTEM.SOLV>
0

>  <SCORE.SYSTEM.norm>
0

>  <SCORE.heavy>
31

>  <SCORE.norm>
1.61609

>  <RMSD>
11.105

$$$$
2et3_lig
 OpenBabel11021811423D
libRbt.so/2013.1/901 2013/11/27
 31 33  0  0  0  0  0  0  0  0999 V2000
    3.7542   -4.7986   35.9854 C   0  0  2  0  0  0  0  0  0  0  0  0
    4.0963   -3.7377   35.0561 O   0  0  0  0  0  0  0  0  0  0  0  0
    6.1780   -1.1026   37.7074 C   0  0  2  0  0  0  0  0  0  0  0  0
    6.9418    0.0206   38.1551 N   0  0  0  0  0  0  0  0  0  0  0  0
    3.7381    1.5238   37.8785 C   0  0  2  0  0  0  0  0  0  0  0  0
    2.3434   -5.3160   35.6848 C   0  0  2  0  0  0  0  0  0  0  0  0
    2.2943   -5.7399   34.3195 N   0  0  0  0  0  0  0  0  0  0  0  0
    7.0137   -1.9232   36.6727 C   0  0  0  0  0  0  0  0  0  0  0  0
    2.3708    1.6874   38.5782 C   0  0  2  0  0  0  0  0  0  0  0  0
    2.5104    1.3468   39.9394 O   0  0  0  0  0  0  0  0  0  0  0  0
    1.2782   -4.2082   35.9907 C   0  0  0  0  0  0  0  0  0  0  0  0
    6.1780   -3.1560   36.1681 C   0  0  2  0  0  0  0  0  0  0  0  0
    6.9606   -3.9320   35.1929 N   0  0  0  0  0  0  0  0  0  0  0  0
    1.3297    0.7503   37.8402 C   0  0  1  0  0  0  0  0  0  0  0  0
   -0.0209    0.8130   38.4890 N   0  0  0  0  0  0  0  0  0  0  0  0
    1.3900   -3.8352   37.5023 C   0  0  0  0  0  0  0  0  0  0  0  0
    4.8299   -2.6515   35.5242 C   0  0  2  0  0  0  0  0  0  0  0  0
    1.2133    1.1634   36.2783 C   0  0  1  0  0  0  0  0  0  0  0  0
    0.7312    2.4830   36.1304 O   0  0  0  0  0  0  0  0  0  0  0  0
    2.8717   -3.3297   37.7918 C   0  0  2  0  0  0  0  0  0  0  0  0
    3.8801   -4.3069   37.3849 O   0  0  0  0  0  0  0  0  0  0  0  0
    4.0116   -1.8264   36.5907 C   0  0  2  0  0  0  0  0  0  0  0  0
    2.7870   -1.3638   36.0302 O   0  0  0  0  0  0  0  0  0  0  0  0
    2.6296    1.1013   35.6274 C   0  0  0  0  0  0  0  0  0  0  0  0
    3.6186    1.8881   36.4370 O   0  0  0  0  0  0  0  0  0  0  0  0
    3.1149   -2.9164   39.2242 C   0  0  0  0  0  0  0  0  0  0  0  0
    2.3154   -1.7787   39.5959 N   0  0  0  0  0  0  0  0  0  0  0  0
    4.8615   -0.6028   37.0832 C   0  0  1  0  0  0  0  0  0  0  0  0
    4.1102    0.1234   38.0482 O   0  0  0  0  0  0  0  0  0  0  0  0
    0.2508    0.3379   35.4136 C   0  0  0  0  0  0  0  0  0  0  0  0
   -0.7859   -0.4426   38.5691 C   0  0  0  0  0  0  0  0  0  0  0  0
  1  2  1  6  0  0  0
  1  6  1  0  0  0  0
  1 21  1  0  0  0  0
  3  4  1  6  0  0  0
  3  8  1  0  0  0  0
  3 28  1  0  0  0  0
  5  9  1  0  0  0  0
  5 25  1  0  0  0  0
  5 29  1  6  0  0  0
  6  7  1  6  0  0  0
  6 11  1  0  0  0  0
  8 12  1  0  0  0  0
  9 10  1  1  0  0  0
  9 14  1  0  0  0  0
 11 16  1  0  0  0  0
 12 13  1  6  0  0  0
 12 17  1  0  0  0  0
 14 15  1  1  0  0  0
 14 18  1  0  0  0  0
 15 31  1  0  0  0  0
 16 20  1  0  0  0  0
 17  2  1  1  0  0  0
 17 22  1  0  0  0  0
 18 19  1  6  0  0  0
 18 24  1  0  0  0  0
 18 30  1  0  0  0  0
 20 21  1  0  0  0  0
 20 26  1  1  0  0  0
 22 23  1  6  0  0  0
 22 28  1  0  0  0  0
 24 25  1  0  0  0  0
 26 27  1  0  0  0  0
 28 29  1  1  0  0  0
M  END
>  <CHROM.1>
142.20169627,147.44414325,-142.16766996,56.47796931,-64.01812819,119.68081625
3.16037603,-1.37998493,37.00021560,1.11232677,-0.00814375,-2.83801367

>  <Name>
2et3_lig

>  <RI>
0

>  <Rbt.Current_Directory>
/home/itssahil/PROJECTS/Mol_Feturizer/New_Systems/rnas/2et3

>  <Rbt.Executable>
rbdock ($Id: //depot/dev/client3/rdock/2013.1/src/exe/rbdock.cxx#4 $)

>  <Rbt.Library>
libRbt.so (2013.1, Build901 2013/11/27)

>  <Rbt.Parameter_File>
/export/apps/rDock/src/rDock_2013.1_src/data/scripts/dock_solv.prm

>  <Rbt.Receptor>
prm/blind_docking_40.prm

>  <SCORE>
13.7531

>  <SCORE.INTER>
-9.19974

>  <SCORE.INTER.CONST>
1

>  <SCORE.INTER.POLAR>
-1.87568

>  <SCORE.INTER.ROT>
6

>  <SCORE.INTER.SOLV>
23.5042

>  <SCORE.INTER.VDW>
-15.3156

>  <SCORE.INTER.norm>
-0.296766

>  <SCORE.INTRA>
17.3944

>  <SCORE.INTRA.DIHEDRAL>
-4.88651

>  <SCORE.INTRA.DIHEDRAL.0>
22.2484

>  <SCORE.INTRA.POLAR>
0

>  <SCORE.INTRA.POLAR.0>
0

>  <SCORE.INTRA.REPUL>
0

>  <SCORE.INTRA.REPUL.0>
0

>  <SCORE.INTRA.SOLV>
4.93966

>  <SCORE.INTRA.SOLV.lig_0>
-75.7198

>  <SCORE.INTRA.VDW>
17.3678

>  <SCORE.INTRA.VDW.0>
-3.34171

>  <SCORE.INTRA.norm>
0.56111

>  <SCORE.RESTR>
5.5584

>  <SCORE.RESTR.CAVITY>
5.5584

>  <SCORE.RESTR.norm>
0.179303

>  <SCORE.SYSTEM>
0

>  <SCORE.SYSTEM.CONST>
0

>  <SCORE.SYSTEM.DIHEDRAL>
0

>  <SCORE.SYSTEM.SOLV>
0

>  <SCORE.SYSTEM.norm>
0

>  <SCORE.heavy>
31

>  <SCORE.norm>
0.443647

>  <RMSD>
11.299

$$$$
2et3_lig
 OpenBabel11021811423D
libRbt.so/2013.1/901 2013/11/27
 31 33  0  0  0  0  0  0  0  0999 V2000
    4.9202   -0.5897   38.8433 C   0  0  2  0  0  0  0  0  0  0  0  0
    4.7562   -1.5907   37.8054 O   0  0  0  0  0  0  0  0  0  0  0  0
    1.0383   -3.4997   36.8894 C   0  0  2  0  0  0  0  0  0  0  0  0
   -0.0614   -4.4092   36.9852 N   0  0  0  0  0  0  0  0  0  0  0  0
   -0.1728   -0.7455   39.2092 C   0  0  2  0  0  0  0  0  0  0  0  0
    6.1148    0.3107   38.5108 C   0  0  2  0  0  0  0  0  0  0  0  0
    5.9073    0.8846   37.2171 N   0  0  0  0  0  0  0  0  0  0  0  0
    2.3592   -4.3007   36.6533 C   0  0  0  0  0  0  0  0  0  0  0  0
   -0.3113   -1.2637   40.6577 C   0  0  2  0  0  0  0  0  0  0  0  0
    0.8196   -2.0444   40.9739 O   0  0  0  0  0  0  0  0  0  0  0  0
    7.4505   -0.5056   38.5799 C   0  0  0  0  0  0  0  0  0  0  0  0
    3.5756   -3.3088   36.5554 C   0  0  2  0  0  0  0  0  0  0  0  0
    4.8223   -4.0585   36.3334 N   0  0  0  0  0  0  0  0  0  0  0  0
   -1.6509   -2.1029   40.7498 C   0  0  1  0  0  0  0  0  0  0  0  0
   -1.8402   -2.6854   42.1186 N   0  0  0  0  0  0  0  0  0  0  0  0
    7.6008   -1.0639   40.0299 C   0  0  0  0  0  0  0  0  0  0  0  0
    3.6678   -2.4551   37.8780 C   0  0  2  0  0  0  0  0  0  0  0  0
   -2.9207   -1.1750   40.3623 C   0  0  1  0  0  0  0  0  0  0  0  0
   -3.0656   -0.0990   41.2661 O   0  0  0  0  0  0  0  0  0  0  0  0
    6.3337   -1.9702   40.3583 C   0  0  2  0  0  0  0  0  0  0  0  0
    5.0745   -1.2526   40.1672 O   0  0  0  0  0  0  0  0  0  0  0  0
    2.3212   -1.6615   38.0893 C   0  0  2  0  0  0  0  0  0  0  0  0
    2.3846   -0.8800   39.2779 O   0  0  0  0  0  0  0  0  0  0  0  0
   -2.6972   -0.5723   38.9409 C   0  0  0  0  0  0  0  0  0  0  0  0
   -1.3544    0.0925   38.8536 O   0  0  0  0  0  0  0  0  0  0  0  0
    6.3591   -2.5925   41.7345 C   0  0  0  0  0  0  0  0  0  0  0  0
    5.0906   -3.1784   42.0802 N   0  0  0  0  0  0  0  0  0  0  0  0
    1.1201   -2.6669   38.1826 C   0  0  1  0  0  0  0  0  0  0  0  0
   -0.0843   -1.9325   38.3656 O   0  0  0  0  0  0  0  0  0  0  0  0
   -4.3013   -1.8449   40.3882 C   0  0  0  0  0  0  0  0  0  0  0  0
   -1.2002   -1.9809   43.2421 C   0  0  0  0  0  0  0  0  0  0  0  0
  1  2  1  6  0  0  0
  1  6  1  0  0  0  0
  1 21  1  0  0  0  0
  3  4  1  1  0  0  0
  3  8  1  0  0  0  0
  3 28  1  0  0  0  0
  5  9  1  0  0  0  0
  5 25  1  0  0  0  0
  5 29  1  6  0  0  0
  6  7  1  6  0  0  0
  6 11  1  0  0  0  0
  8 12  1  0  0  0  0
  9 10  1  6  0  0  0
  9 14  1  0  0  0  0
 11 16  1  0  0  0  0
 12 13  1  1  0  0  0
 12 17  1  0  0  0  0
 14 15  1  1  0  0  0
 14 18  1  0  0  0  0
 15 31  1  0  0  0  0
 16 20  1  0  0  0  0
 17  2  1  6  0  0  0
 17 22  1  0  0  0  0
 18 19  1  1  0  0  0
 18 24  1  0  0  0  0
 18 30  1  0  0  0  0
 20 21  1  0  0  0  0
 20 26  1  1  0  0  0
 22 23  1  1  0  0  0
 22 28  1  0  0  0  0
 24 25  1  0  0  0  0
 26 27  1  0  0  0  0
 28 29  1  6  0  0  0
M  END
>  <CHROM.1>
-175.86459605,-80.95526674,26.15159454,171.94225950,168.65231494,-159.07215740
1.96631171,-1.75970128,39.29663949,-0.17324481,0.05604882,1.25055322

>  <Name>
2et3_lig

>  <RI>
0

>  <Rbt.Current_Directory>
/home/itssahil/PROJECTS/Mol_Feturizer/New_Systems/rnas/2et3

>  <Rbt.Executable>
rbdock ($Id: //depot/dev/client3/rdock/2013.1/src/exe/rbdock.cxx#4 $)

>  <Rbt.Library>
libRbt.so (2013.1, Build901 2013/11/27)

>  <Rbt.Parameter_File>
/export/apps/rDock/src/rDock_2013.1_src/data/scripts/dock_solv.prm

>  <Rbt.Receptor>
prm/blind_docking_60.prm

>  <SCORE>
-4.72222

>  <SCORE.INTER>
-4.40456

>  <SCORE.INTER.CONST>
1

>  <SCORE.INTER.POLAR>
0

>  <SCORE.INTER.ROT>
6

>  <SCORE.INTER.SOLV>
12.4443

>  <SCORE.INTER.VDW>
-14.6845

>  <SCORE.INTER.norm>
-0.142083

>  <SCORE.INTRA>
-3.24503

>  <SCORE.INTRA.DIHEDRAL>
-16.6452

>  <SCORE.INTRA.DIHEDRAL.0>
22.2484

>  <SCORE.INTRA.POLAR>
0

>  <SCORE.INTRA.POLAR.0>
0

>  <SCORE.INTRA.REPUL>
0

>  <SCORE.INTRA.REPUL.0>
0

>  <SCORE.INTRA.SOLV>
-3.28047

>  <SCORE.INTRA.SOLV.lig_0>
-75.7198

>  <SCORE.INTRA.VDW>
6.71783

>  <SCORE.INTRA.VDW.0>
-3.34171

>  <SCORE.INTRA.norm>
-0.104678

>  <SCORE.RESTR>
2.92737

>  <SCORE.RESTR.CAVITY>
2.92737

>  <SCORE.RESTR.norm>
0.0944313

>  <SCORE.SYSTEM>
0

>  <SCORE.SYSTEM.CONST>
0

>  <SCORE.SYSTEM.DIHEDRAL>
0

>  <SCORE.SYSTEM.SOLV>
0

>  <SCORE.SYSTEM.norm>
0

>  <SCORE.heavy>
31

>  <SCORE.norm>
-0.15233

>  <RMSD>
11.341

$$$$
2et3_lig
 OpenBabel11021811423D
libRbt.so/2013.1/901 2013/11/27
 31 33  0  0  0  0  0  0  0  0999 V2000
    5.1907   -1.6787   38.7855 C   0  0  2  0  0  0  0  0  0  0  0  0
    4.6731   -0.3433   38.5511 O   0  0  0  0  0  0  0  0  0  0  0  0
    0.7595    1.0936   37.5892 C   0  0  2  0  0  0  0  0  0  0  0  0
   -0.4960    1.2155   36.9149 N   0  0  0  0  0  0  0  0  0  0  0  0
   -1.2896   -1.4573   38.8310 C   0  0  2  0  0  0  0  0  0  0  0  0
    6.6614   -1.7465   38.3602 C   0  0  2  0  0  0  0  0  0  0  0  0
    7.3883   -0.7395   39.0698 N   0  0  0  0  0  0  0  0  0  0  0  0
    1.9215    1.3834   36.5852 C   0  0  0  0  0  0  0  0  0  0  0  0
   -2.5670   -0.5946   38.9289 C   0  0  2  0  0  0  0  0  0  0  0  0
   -2.4909    0.4442   37.9783 O   0  0  0  0  0  0  0  0  0  0  0  0
    6.7901   -1.5747   36.8080 C   0  0  0  0  0  0  0  0  0  0  0  0
    3.3068    1.2431   37.3162 C   0  0  2  0  0  0  0  0  0  0  0  0
    4.4047    1.5147   36.3747 N   0  0  0  0  0  0  0  0  0  0  0  0
   -2.6659   -0.0348   40.4066 C   0  0  1  0  0  0  0  0  0  0  0  0
   -3.8597    0.8567   40.5768 N   0  0  0  0  0  0  0  0  0  0  0  0
    5.9922   -2.7305   36.1265 C   0  0  0  0  0  0  0  0  0  0  0  0
    3.4392   -0.2068   37.9218 C   0  0  2  0  0  0  0  0  0  0  0  0
   -2.7333   -1.2585   41.4657 C   0  0  1  0  0  0  0  0  0  0  0  0
   -3.8865   -2.0492   41.2647 O   0  0  0  0  0  0  0  0  0  0  0  0
    4.4768   -2.6536   36.6084 C   0  0  2  0  0  0  0  0  0  0  0  0
    4.3565   -2.6794   38.0652 O   0  0  0  0  0  0  0  0  0  0  0  0
    2.2529   -0.4694   38.9275 C   0  0  2  0  0  0  0  0  0  0  0  0
    2.3554   -1.7738   39.4895 O   0  0  0  0  0  0  0  0  0  0  0  0
   -1.4887   -2.1771   41.2635 C   0  0  0  0  0  0  0  0  0  0  0  0
   -1.3507   -2.5707   39.8217 O   0  0  0  0  0  0  0  0  0  0  0  0
    3.5825   -3.7119   36.0068 C   0  0  0  0  0  0  0  0  0  0  0  0
    2.2070   -3.5314   36.3904 N   0  0  0  0  0  0  0  0  0  0  0  0
    0.8804   -0.3233   38.1812 C   0  0  1  0  0  0  0  0  0  0  0  0
   -0.1755   -0.5564   39.1054 O   0  0  0  0  0  0  0  0  0  0  0  0
   -2.8175   -0.8843   42.9518 C   0  0  0  0  0  0  0  0  0  0  0  0
   -5.1107    0.4348   39.9247 C   0  0  0  0  0  0  0  0  0  0  0  0
  1  2  1  6  0  0  0
  1  6  1  0  0  0  0
  1 21  1  0  0  0  0
  3  4  1  6  0  0  0
  3  8  1  0  0  0  0
  3 28  1  0  0  0  0
  5  9  1  0  0  0  0
  5 25  1  0  0  0  0
  5 29  1  1  0  0  0
  6  7  1  1  0  0  0
  6 11  1  0  0  0  0
  8 12  1  0  0  0  0
  9 10  1  6  0  0  0
  9 14  1  0  0  0  0
 11 16  1  0  0  0  0
 12 13  1  6  0  0  0
 12 17  1  0  0  0  0
 14 15  1  6  0  0  0
 14 18  1  0  0  0  0
 15 31  1  0  0  0  0
 16 20  1  0  0  0  0
 17  2  1  1  0  0  0
 17 22  1  0  0  0  0
 18 19  1  6  0  0  0
 18 24  1  0  0  0  0
 18 30  1  0  0  0  0
 20 21  1  0  0  0  0
 20 26  1  6  0  0  0
 22 23  1  6  0  0  0
 22 28  1  0  0  0  0
 24 25  1  0  0  0  0
 26 27  1  0  0  0  0
 28 29  1  1  0  0  0
M  END
>  <CHROM.1>
133.40551935,-120.88447012,40.67437534,-159.96881060,-175.33075011,108.44425584
1.23567180,-0.90613701,38.62446076,-0.10877795,-0.33749937,2.54084470

>  <Name>
2et3_lig

>  <RI>
1.07224e+07

>  <Rbt.Current_Directory>
/home/itssahil/PROJECTS/Mol_Feturizer/New_Systems/rnas/2et3

>  <Rbt.Executable>
rbdock ($Id: //depot/dev/client3/rdock/2013.1/src/exe/rbdock.cxx#4 $)

>  <Rbt.Library>
libRbt.so (2013.1, Build901 2013/11/27)

>  <Rbt.Parameter_File>
/export/apps/rDock/src/rDock_2013.1_src/data/scripts/dock_solv.prm

>  <Rbt.Receptor>
prm/blind_docking_80.prm

>  <SCORE>
-0.815733

>  <SCORE.INTER>
-8.07152

>  <SCORE.INTER.CONST>
1

>  <SCORE.INTER.POLAR>
0

>  <SCORE.INTER.ROT>
6

>  <SCORE.INTER.SOLV>
11.2882

>  <SCORE.INTER.VDW>
-16.7437

>  <SCORE.INTER.norm>
-0.260372

>  <SCORE.INTRA>
3.80979

>  <SCORE.INTRA.DIHEDRAL>
0.120193

>  <SCORE.INTRA.DIHEDRAL.0>
22.2484

>  <SCORE.INTRA.POLAR>
0

>  <SCORE.INTRA.POLAR.0>
0

>  <SCORE.INTRA.REPUL>
0

>  <SCORE.INTRA.REPUL.0>
0

>  <SCORE.INTRA.SOLV>
1.66582

>  <SCORE.INTRA.SOLV.lig_0>
-75.7198

>  <SCORE.INTRA.VDW>
2.91679

>  <SCORE.INTRA.VDW.0>
-3.34171

>  <SCORE.INTRA.norm>
0.122897

>  <SCORE.RESTR>
3.44599

>  <SCORE.RESTR.CAVITY>
3.44599

>  <SCORE.RESTR.norm>
0.111161

>  <SCORE.SYSTEM>
0

>  <SCORE.SYSTEM.CONST>
0

>  <SCORE.SYSTEM.DIHEDRAL>
0

>  <SCORE.SYSTEM.SOLV>
0

>  <SCORE.SYSTEM.norm>
0

>  <SCORE.heavy>
31

>  <SCORE.norm>
-0.026314

>  <RMSD>
11.420

$$$$
2et3_lig
 OpenBabel11021811423D
libRbt.so/2013.1/901 2013/11/27
 31 33  0  0  0  0  0  0  0  0999 V2000
    4.7047   -0.2009   39.5611 C   0  0  2  0  0  0  0  0  0  0  0  0
    4.4948   -0.9469   38.3341 O   0  0  0  0  0  0  0  0  0  0  0  0
    1.0374   -3.2288   37.2637 C   0  0  2  0  0  0  0  0  0  0  0  0
    0.0739   -4.2857   37.2694 N   0  0  0  0  0  0  0  0  0  0  0  0
   -1.3568   -2.8350   39.3780 C   0  0  2  0  0  0  0  0  0  0  0  0
    6.0244    0.5736   39.4774 C   0  0  2  0  0  0  0  0  0  0  0  0
    5.9881    1.4128   38.3195 N   0  0  0  0  0  0  0  0  0  0  0  0
    2.4449   -3.8073   36.9080 C   0  0  0  0  0  0  0  0  0  0  0  0
   -2.5541   -1.8707   39.5268 C   0  0  2  0  0  0  0  0  0  0  0  0
   -2.8090   -1.2628   38.2802 O   0  0  0  0  0  0  0  0  0  0  0  0
    7.2382   -0.4167   39.4427 C   0  0  0  0  0  0  0  0  0  0  0  0
    3.5128   -2.6529   36.9080 C   0  0  2  0  0  0  0  0  0  0  0  0
    4.8404   -3.1928   36.5740 N   0  0  0  0  0  0  0  0  0  0  0  0
   -2.1868   -0.8044   40.6381 C   0  0  1  0  0  0  0  0  0  0  0  0
   -3.2824    0.2044   40.8138 N   0  0  0  0  0  0  0  0  0  0  0  0
    7.2081   -1.2634   40.7538 C   0  0  0  0  0  0  0  0  0  0  0  0
    3.5356   -1.9554   38.3220 C   0  0  2  0  0  0  0  0  0  0  0  0
   -1.8847   -1.5448   42.0466 C   0  0  1  0  0  0  0  0  0  0  0  0
   -3.0240   -2.2326   42.5203 O   0  0  0  0  0  0  0  0  0  0  0  0
    5.8164   -2.0329   40.8288 C   0  0  2  0  0  0  0  0  0  0  0  0
    4.6749   -1.1251   40.7277 O   0  0  0  0  0  0  0  0  0  0  0  0
    2.1028   -1.3847   38.6525 C   0  0  2  0  0  0  0  0  0  0  0  0
    2.1020   -0.7464   39.9254 O   0  0  0  0  0  0  0  0  0  0  0  0
   -0.7506   -2.5955   41.8376 C   0  0  0  0  0  0  0  0  0  0  0  0
   -1.0730   -3.4989   40.6832 O   0  0  0  0  0  0  0  0  0  0  0  0
    5.6602   -2.9101   42.0486 C   0  0  0  0  0  0  0  0  0  0  0  0
    6.5727   -4.0231   42.0277 N   0  0  0  0  0  0  0  0  0  0  0  0
    1.0516   -2.5497   38.6462 C   0  0  1  0  0  0  0  0  0  0  0  0
   -0.2334   -2.0144   38.9387 O   0  0  0  0  0  0  0  0  0  0  0  0
   -1.4968   -0.6487   43.2307 C   0  0  0  0  0  0  0  0  0  0  0  0
   -3.5027    1.1550   39.7111 C   0  0  0  0  0  0  0  0  0  0  0  0
  1  2  1  6  0  0  0
  1  6  1  0  0  0  0
  1 21  1  0  0  0  0
  3  4  1  1  0  0  0
  3  8  1  0  0  0  0
  3 28  1  0  0  0  0
  5  9  1  0  0  0  0
  5 25  1  0  0  0  0
  5 29  1  1  0  0  0
  6  7  1  6  0  0  0
  6 11  1  0  0  0  0
  8 12  1  0  0  0  0
  9 10  1  6  0  0  0
  9 14  1  0  0  0  0
 11 16  1  0  0  0  0
 12 13  1  1  0  0  0
 12 17  1  0  0  0  0
 14 15  1  1  0  0  0
 14 18  1  0  0  0  0
 15 31  1  0  0  0  0
 16 20  1  0  0  0  0
 17  2  1  6  0  0  0
 17 22  1  0  0  0  0
 18 19  1  1  0  0  0
 18 24  1  0  0  0  0
 18 30  1  0  0  0  0
 20 21  1  0  0  0  0
 20 26  1  1  0  0  0
 22 23  1  1  0  0  0
 22 28  1  0  0  0  0
 24 25  1  0  0  0  0
 26 27  1  0  0  0  0
 28 29  1  6  0  0  0
M  END
>  <CHROM.1>
164.82465823,-177.88505115,-69.34049155,-178.28883129,-66.83952845,77.40547999
1.72647990,-1.69027902,39.68618487,-0.10691803,0.03912812,1.22452506

>  <Name>
2et3_lig

>  <RI>
1.07224e+07

>  <Rbt.Current_Directory>
/home/itssahil/PROJECTS/Mol_Feturizer/New_Systems/rnas/2et3

>  <Rbt.Executable>
rbdock ($Id: //depot/dev/client3/rdock/2013.1/src/exe/rbdock.cxx#4 $)

>  <Rbt.Library>
libRbt.so (2013.1, Build901 2013/11/27)

>  <Rbt.Parameter_File>
/export/apps/rDock/src/rDock_2013.1_src/data/scripts/dock_solv.prm

>  <Rbt.Receptor>
prm/blind_docking_80.prm

>  <SCORE>
-12.3388

>  <SCORE.INTER>
-8.14868

>  <SCORE.INTER.CONST>
1

>  <SCORE.INTER.POLAR>
0

>  <SCORE.INTER.ROT>
6

>  <SCORE.INTER.SOLV>
14.7686

>  <SCORE.INTER.VDW>
-17.9553

>  <SCORE.INTER.norm>
-0.262861

>  <SCORE.INTRA>
-9.37894

>  <SCORE.INTRA.DIHEDRAL>
-19.3677

>  <SCORE.INTRA.DIHEDRAL.0>
22.2484

>  <SCORE.INTRA.POLAR>
0

>  <SCORE.INTRA.POLAR.0>
0

>  <SCORE.INTRA.REPUL>
0

>  <SCORE.INTRA.REPUL.0>
0

>  <SCORE.INTRA.SOLV>
-3.10636

>  <SCORE.INTRA.SOLV.lig_0>
-75.7198

>  <SCORE.INTRA.VDW>
1.85807

>  <SCORE.INTRA.VDW.0>
-3.34171

>  <SCORE.INTRA.norm>
-0.302546

>  <SCORE.RESTR>
5.18879

>  <SCORE.RESTR.CAVITY>
5.18879

>  <SCORE.RESTR.norm>
0.16738

>  <SCORE.SYSTEM>
0

>  <SCORE.SYSTEM.CONST>
0

>  <SCORE.SYSTEM.DIHEDRAL>
0

>  <SCORE.SYSTEM.SOLV>
0

>  <SCORE.SYSTEM.norm>
0

>  <SCORE.heavy>
31

>  <SCORE.norm>
-0.398027

>  <RMSD>
11.600

$$$$
2et3_lig
 OpenBabel11021811423D
libRbt.so/2013.1/901 2013/11/27
 31 33  0  0  0  0  0  0  0  0999 V2000
    1.4830   -2.8381   34.2540 C   0  0  2  0  0  0  0  0  0  0  0  0
    0.5647   -2.3513   35.2668 O   0  0  0  0  0  0  0  0  0  0  0  0
    3.0012    0.6768   37.0557 C   0  0  2  0  0  0  0  0  0  0  0  0
    3.3797    1.7700   37.8967 N   0  0  0  0  0  0  0  0  0  0  0  0
    4.1230   -0.1125   39.8958 C   0  0  2  0  0  0  0  0  0  0  0  0
    0.9391   -4.1328   33.6405 C   0  0  2  0  0  0  0  0  0  0  0  0
   -0.3699   -3.8776   33.1231 N   0  0  0  0  0  0  0  0  0  0  0  0
    1.8417    1.1241   36.1083 C   0  0  0  0  0  0  0  0  0  0  0  0
    5.6614   -0.0700   39.7639 C   0  0  2  0  0  0  0  0  0  0  0  0
    5.9980    0.5154   38.5260 O   0  0  0  0  0  0  0  0  0  0  0  0
    0.9318   -5.2817   34.7061 C   0  0  0  0  0  0  0  0  0  0  0  0
    1.4128   -0.0748   35.1855 C   0  0  2  0  0  0  0  0  0  0  0  0
    0.3205    0.3413   34.2914 N   0  0  0  0  0  0  0  0  0  0  0  0
    6.2023   -1.5535   39.8803 C   0  0  1  0  0  0  0  0  0  0  0  0
    7.6918   -1.6088   39.7152 N   0  0  0  0  0  0  0  0  0  0  0  0
    2.4004   -5.5042   35.1862 C   0  0  0  0  0  0  0  0  0  0  0  0
    0.9661   -1.2948   36.0791 C   0  0  2  0  0  0  0  0  0  0  0  0
    5.7793   -2.1935   41.3069 C   0  0  1  0  0  0  0  0  0  0  0  0
    6.3531   -1.4782   42.3814 O   0  0  0  0  0  0  0  0  0  0  0  0
    2.9489   -4.1375   35.7909 C   0  0  2  0  0  0  0  0  0  0  0  0
    2.8358   -3.0281   34.8455 O   0  0  0  0  0  0  0  0  0  0  0  0
    2.1550   -1.7206   37.0240 C   0  0  2  0  0  0  0  0  0  0  0  0
    1.7736   -2.8247   37.8383 O   0  0  0  0  0  0  0  0  0  0  0  0
    4.2288   -2.1158   41.4611 C   0  0  0  0  0  0  0  0  0  0  0  0
    3.7412   -0.7199   41.2035 O   0  0  0  0  0  0  0  0  0  0  0  0
    4.3642   -4.2166   36.3130 C   0  0  0  0  0  0  0  0  0  0  0  0
    5.3319   -4.1286   35.2511 N   0  0  0  0  0  0  0  0  0  0  0  0
    2.5697   -0.5121   37.9350 C   0  0  1  0  0  0  0  0  0  0  0  0
    3.6464   -0.9134   38.7734 O   0  0  0  0  0  0  0  0  0  0  0  0
    6.2164   -3.6403   41.5737 C   0  0  0  0  0  0  0  0  0  0  0  0
    8.4965   -0.7377   40.5880 C   0  0  0  0  0  0  0  0  0  0  0  0
  1  2  1  1  0  0  0
  1  6  1  0  0  0  0
  1 21  1  0  0  0  0
  3  4  1  1  0  0  0
  3  8  1  0  0  0  0
  3 28  1  0  0  0  0
  5  9  1  0  0  0  0
  5 25  1  0  0  0  0
  5 29  1  6  0  0  0
  6  7  1  1  0  0  0
  6 11  1  0  0  0  0
  8 12  1  0  0  0  0
  9 10  1  6  0  0  0
  9 14  1  0  0  0  0
 11 16  1  0  0  0  0
 12 13  1  6  0  0  0
 12 17  1  0  0  0  0
 14 15  1  1  0  0  0
 14 18  1  0  0  0  0
 15 31  1  0  0  0  0
 16 20  1  0  0  0  0
 17  2  1  6  0  0  0
 17 22  1  0  0  0  0
 18 19  1  1  0  0  0
 18 24  1  0  0  0  0
 18 30  1  0  0  0  0
 20 21  1  0  0  0  0
 20 26  1  6  0  0  0
 22 23  1  1  0  0  0
 22 28  1  0  0  0  0
 24 25  1  0  0  0  0
 26 27  1  0  0  0  0
 28 29  1  1  0  0  0
M  END
>  <CHROM.1>
170.76683402,-132.64993116,53.67673276,54.68162048,79.92645138,70.49388531
3.47692841,-1.82812881,37.55323169,-2.64731795,-0.80722148,0.35784830

>  <Name>
2et3_lig

>  <RI>
0

>  <Rbt.Current_Directory>
/home/itssahil/PROJECTS/Mol_Feturizer/New_Systems/rnas/2et3

>  <Rbt.Executable>
rbdock ($Id: //depot/dev/client3/rdock/2013.1/src/exe/rbdock.cxx#4 $)

>  <Rbt.Library>
libRbt.so (2013.1, Build901 2013/11/27)

>  <Rbt.Parameter_File>
/export/apps/rDock/src/rDock_2013.1_src/data/scripts/dock_solv.prm

>  <Rbt.Receptor>
prm/blind_docking_60.prm

>  <SCORE>
-9.04704

>  <SCORE.INTER>
-9.1726

>  <SCORE.INTER.CONST>
1

>  <SCORE.INTER.POLAR>
-1.18134

>  <SCORE.INTER.ROT>
6

>  <SCORE.INTER.SOLV>
20.1692

>  <SCORE.INTER.VDW>
-16.5003

>  <SCORE.INTER.norm>
-0.29589

>  <SCORE.INTRA>
-2.65855

>  <SCORE.INTRA.DIHEDRAL>
-13.2427

>  <SCORE.INTRA.DIHEDRAL.0>
22.2484

>  <SCORE.INTRA.POLAR>
0

>  <SCORE.INTRA.POLAR.0>
0

>  <SCORE.INTRA.REPUL>
0

>  <SCORE.INTRA.REPUL.0>
0

>  <SCORE.INTRA.SOLV>
0.24034

>  <SCORE.INTRA.SOLV.lig_0>
-75.7198

>  <SCORE.INTRA.VDW>
3.84265

>  <SCORE.INTRA.VDW.0>
-3.34171

>  <SCORE.INTRA.norm>
-0.0857597

>  <SCORE.RESTR>
2.78411

>  <SCORE.RESTR.CAVITY>
2.78411

>  <SCORE.RESTR.norm>
0.08981

>  <SCORE.SYSTEM>
0

>  <SCORE.SYSTEM.CONST>
0

>  <SCORE.SYSTEM.DIHEDRAL>
0

>  <SCORE.SYSTEM.SOLV>
0

>  <SCORE.SYSTEM.norm>
0

>  <SCORE.heavy>
31

>  <SCORE.norm>
-0.29184

>  <RMSD>
11.604

$$$$
2et3_lig
 OpenBabel11021811423D
libRbt.so/2013.1/901 2013/11/27
 31 33  0  0  0  0  0  0  0  0999 V2000
    1.4862   -2.8437   34.2622 C   0  0  2  0  0  0  0  0  0  0  0  0
    0.5722   -2.3453   35.2733 O   0  0  0  0  0  0  0  0  0  0  0  0
    3.0273    0.6819   37.0382 C   0  0  2  0  0  0  0  0  0  0  0  0
    3.4121    1.7803   37.8695 N   0  0  0  0  0  0  0  0  0  0  0  0
    4.1245   -0.0980   39.9003 C   0  0  2  0  0  0  0  0  0  0  0  0
    0.9341   -4.1392   33.6578 C   0  0  2  0  0  0  0  0  0  0  0  0
   -0.3742   -3.8800   33.1408 N   0  0  0  0  0  0  0  0  0  0  0  0
    1.8728    1.1286   36.0843 C   0  0  0  0  0  0  0  0  0  0  0  0
    5.6632   -0.0463   39.7758 C   0  0  2  0  0  0  0  0  0  0  0  0
    6.0022    0.5466   38.5421 O   0  0  0  0  0  0  0  0  0  0  0  0
    0.9220   -5.2813   34.7306 C   0  0  0  0  0  0  0  0  0  0  0  0
    1.4370   -0.0759   35.1720 C   0  0  2  0  0  0  0  0  0  0  0  0
    0.3494    0.3396   34.2720 N   0  0  0  0  0  0  0  0  0  0  0  0
    6.2120   -1.5272   39.8881 C   0  0  1  0  0  0  0  0  0  0  0  0
    7.7025   -1.5734   39.7297 N   0  0  0  0  0  0  0  0  0  0  0  0
    2.3901   -5.5090   35.2099 C   0  0  0  0  0  0  0  0  0  0  0  0
    0.9798   -1.2841   36.0763 C   0  0  2  0  0  0  0  0  0  0  0  0
    5.7860   -2.1760   41.3098 C   0  0  1  0  0  0  0  0  0  0  0  0
    6.3508   -1.4624   42.3902 O   0  0  0  0  0  0  0  0  0  0  0  0
    2.9472   -4.1415   35.8051 C   0  0  2  0  0  0  0  0  0  0  0  0
    2.8389   -3.0376   34.8528 O   0  0  0  0  0  0  0  0  0  0  0  0
    2.1638   -1.7095   37.0276 C   0  0  2  0  0  0  0  0  0  0  0  0
    1.7729   -2.8031   37.8515 O   0  0  0  0  0  0  0  0  0  0  0  0
    4.2344   -2.1078   41.4570 C   0  0  0  0  0  0  0  0  0  0  0  0
    3.7401   -0.7135   41.2034 O   0  0  0  0  0  0  0  0  0  0  0  0
    4.3629   -4.2253   36.3255 C   0  0  0  0  0  0  0  0  0  0  0  0
    5.3301   -4.1136   35.2654 N   0  0  0  0  0  0  0  0  0  0  0  0
    2.5856   -0.4954   37.9278 C   0  0  1  0  0  0  0  0  0  0  0  0
    3.6577   -0.8966   38.7721 O   0  0  0  0  0  0  0  0  0  0  0  0
    6.2300   -3.6216   41.5721 C   0  0  0  0  0  0  0  0  0  0  0  0
    8.4969   -0.6823   40.5917 C   0  0  0  0  0  0  0  0  0  0  0  0
  1  2  1  1  0  0  0
  1  6  1  0  0  0  0
  1 21  1  0  0  0  0
  3  4  1  1  0  0  0
  3  8  1  0  0  0  0
  3 28  1  0  0  0  0
  5  9  1  0  0  0  0
  5 25  1  0  0  0  0
  5 29  1  6  0  0  0
  6  7  1  1  0  0  0
  6 11  1  0  0  0  0
  8 12  1  0  0  0  0
  9 10  1  6  0  0  0
  9 14  1  0  0  0  0
 11 16  1  0  0  0  0
 12 13  1  6  0  0  0
 12 17  1  0  0  0  0
 14 15  1  1  0  0  0
 14 18  1  0  0  0  0
 15 31  1  0  0  0  0
 16 20  1  0  0  0  0
 17  2  1  6  0  0  0
 17 22  1  0  0  0  0
 18 19  1  1  0  0  0
 18 24  1  0  0  0  0
 18 30  1  0  0  0  0
 20 21  1  0  0  0  0
 20 26  1  6  0  0  0
 22 23  1  1  0  0  0
 22 28  1  0  0  0  0
 24 25  1  0  0  0  0
 26 27  1  0  0  0  0
 28 29  1  1  0  0  0
M  END
>  <CHROM.1>
170.90197873,-132.43707668,52.50960146,54.35966975,81.47407682,71.46442830
3.48392324,-1.81738082,37.55705744,-2.65623260,-0.81187791,0.34044999

>  <Name>
2et3_lig

>  <RI>
0

>  <Rbt.Current_Directory>
/home/itssahil/PROJECTS/Mol_Feturizer/New_Systems/rnas/2et3

>  <Rbt.Executable>
rbdock ($Id: //depot/dev/client3/rdock/2013.1/src/exe/rbdock.cxx#4 $)

>  <Rbt.Library>
libRbt.so (2013.1, Build901 2013/11/27)

>  <Rbt.Parameter_File>
/export/apps/rDock/src/rDock_2013.1_src/data/scripts/dock_solv.prm

>  <Rbt.Receptor>
prm/blind_docking_60.prm

>  <SCORE>
-8.97212

>  <SCORE.INTER>
-9.10676

>  <SCORE.INTER.CONST>
1

>  <SCORE.INTER.POLAR>
-1.20772

>  <SCORE.INTER.ROT>
6

>  <SCORE.INTER.SOLV>
20.1197

>  <SCORE.INTER.VDW>
-16.352

>  <SCORE.INTER.norm>
-0.293766

>  <SCORE.INTRA>
-2.62463

>  <SCORE.INTRA.DIHEDRAL>
-12.9182

>  <SCORE.INTRA.DIHEDRAL.0>
22.2484

>  <SCORE.INTRA.POLAR>
0

>  <SCORE.INTRA.POLAR.0>
0

>  <SCORE.INTRA.REPUL>
0

>  <SCORE.INTRA.REPUL.0>
0

>  <SCORE.INTRA.SOLV>
0.249469

>  <SCORE.INTRA.SOLV.lig_0>
-75.7198

>  <SCORE.INTRA.VDW>
3.70972

>  <SCORE.INTRA.VDW.0>
-3.34171

>  <SCORE.INTRA.norm>
-0.0846654

>  <SCORE.RESTR>
2.75927

>  <SCORE.RESTR.CAVITY>
2.75927

>  <SCORE.RESTR.norm>
0.0890087

>  <SCORE.SYSTEM>
0

>  <SCORE.SYSTEM.CONST>
0

>  <SCORE.SYSTEM.DIHEDRAL>
0

>  <SCORE.SYSTEM.SOLV>
0

>  <SCORE.SYSTEM.norm>
0

>  <SCORE.heavy>
31

>  <SCORE.norm>
-0.289423

>  <RMSD>
11.617

$$$$
2et3_lig
 OpenBabel11021811423D
libRbt.so/2013.1/901 2013/11/27
 31 33  0  0  0  0  0  0  0  0999 V2000
    6.4343   -0.9618   38.3213 C   0  0  2  0  0  0  0  0  0  0  0  0
    5.7874   -1.9685   39.1426 O   0  0  0  0  0  0  0  0  0  0  0  0
    1.9525   -2.5933   37.3513 C   0  0  2  0  0  0  0  0  0  0  0  0
    0.8072   -3.2809   36.8403 N   0  0  0  0  0  0  0  0  0  0  0  0
    0.7823   -1.1374   40.0800 C   0  0  2  0  0  0  0  0  0  0  0  0
    7.7147   -0.4763   39.0091 C   0  0  2  0  0  0  0  0  0  0  0  0
    8.5539   -1.6070   39.2611 N   0  0  0  0  0  0  0  0  0  0  0  0
    3.2225   -3.0280   36.5511 C   0  0  0  0  0  0  0  0  0  0  0  0
   -0.6128   -1.1059   40.7422 C   0  0  2  0  0  0  0  0  0  0  0  0
   -0.6518   -2.0686   41.7718 O   0  0  0  0  0  0  0  0  0  0  0  0
    7.3677    0.2982   40.3264 C   0  0  0  0  0  0  0  0  0  0  0  0
    4.4887   -2.2830   37.1122 C   0  0  2  0  0  0  0  0  0  0  0  0
    5.6878   -2.6895   36.3621 N   0  0  0  0  0  0  0  0  0  0  0  0
   -1.6919   -1.3984   39.6211 C   0  0  1  0  0  0  0  0  0  0  0  0
   -3.0789   -1.4329   40.1904 N   0  0  0  0  0  0  0  0  0  0  0  0
    6.4786    1.5235   39.9460 C   0  0  0  0  0  0  0  0  0  0  0  0
    4.6554   -2.6081   38.6462 C   0  0  2  0  0  0  0  0  0  0  0  0
   -1.6011   -0.2815   38.4514 C   0  0  1  0  0  0  0  0  0  0  0  0
   -1.8885    1.0087   38.9495 O   0  0  0  0  0  0  0  0  0  0  0  0
    5.1717    0.9923   39.2082 C   0  0  2  0  0  0  0  0  0  0  0  0
    5.4892    0.1563   38.0517 O   0  0  0  0  0  0  0  0  0  0  0  0
    3.3587   -2.1604   39.4247 C   0  0  2  0  0  0  0  0  0  0  0  0
    3.4898   -2.4420   40.8145 O   0  0  0  0  0  0  0  0  0  0  0  0
   -0.1489   -0.2563   37.8821 C   0  0  0  0  0  0  0  0  0  0  0  0
    0.8520   -0.1194   38.9921 O   0  0  0  0  0  0  0  0  0  0  0  0
    4.2081    2.0808   38.7978 C   0  0  0  0  0  0  0  0  0  0  0  0
    3.2162    1.5970   37.8738 N   0  0  0  0  0  0  0  0  0  0  0  0
    2.1070   -2.9122   38.8503 C   0  0  1  0  0  0  0  0  0  0  0  0
    0.9485   -2.4901   39.5597 O   0  0  0  0  0  0  0  0  0  0  0  0
   -2.5756   -0.4301   37.2751 C   0  0  0  0  0  0  0  0  0  0  0  0
   -4.1108   -2.1270   39.4020 C   0  0  0  0  0  0  0  0  0  0  0  0
  1  2  1  1  0  0  0
  1  6  1  0  0  0  0
  1 21  1  0  0  0  0
  3  4  1  6  0  0  0
  3  8  1  0  0  0  0
  3 28  1  0  0  0  0
  5  9  1  0  0  0  0
  5 25  1  0  0  0  0
  5 29  1  6  0  0  0
  6  7  1  1  0  0  0
  6 11  1  0  0  0  0
  8 12  1  0  0  0  0
  9 10  1  1  0  0  0
  9 14  1  0  0  0  0
 11 16  1  0  0  0  0
 12 13  1  6  0  0  0
 12 17  1  0  0  0  0
 14 15  1  1  0  0  0
 14 18  1  0  0  0  0
 15 31  1  0  0  0  0
 16 20  1  0  0  0  0
 17  2  1  1  0  0  0
 17 22  1  0  0  0  0
 18 19  1  1  0  0  0
 18 24  1  0  0  0  0
 18 30  1  0  0  0  0
 20 21  1  0  0  0  0
 20 26  1  6  0  0  0
 22 23  1  1  0  0  0
 22 28  1  0  0  0  0
 24 25  1  0  0  0  0
 26 27  1  0  0  0  0
 28 29  1  1  0  0  0
M  END
>  <CHROM.1>
-175.37939094,178.75085195,-159.72741433,11.75607312,166.38521944,-86.86354910
2.42554463,-1.09831192,38.88604951,-0.03328433,-0.06954089,-2.75111800

>  <Name>
2et3_lig

>  <RI>
1.07224e+07

>  <Rbt.Current_Directory>
/home/itssahil/PROJECTS/Mol_Feturizer/New_Systems/rnas/2et3

>  <Rbt.Executable>
rbdock ($Id: //depot/dev/client3/rdock/2013.1/src/exe/rbdock.cxx#4 $)

>  <Rbt.Library>
libRbt.so (2013.1, Build901 2013/11/27)

>  <Rbt.Parameter_File>
/export/apps/rDock/src/rDock_2013.1_src/data/scripts/dock_solv.prm

>  <Rbt.Receptor>
prm/blind_docking_80.prm

>  <SCORE>
1.5585

>  <SCORE.INTER>
-0.278981

>  <SCORE.INTER.CONST>
1

>  <SCORE.INTER.POLAR>
0

>  <SCORE.INTER.ROT>
6

>  <SCORE.INTER.SOLV>
12.0809

>  <SCORE.INTER.VDW>
-11.813

>  <SCORE.INTER.norm>
-0.00899937

>  <SCORE.INTRA>
-0.461359

>  <SCORE.INTRA.DIHEDRAL>
-11.5371

>  <SCORE.INTRA.DIHEDRAL.0>
22.2484

>  <SCORE.INTRA.POLAR>
0

>  <SCORE.INTRA.POLAR.0>
0

>  <SCORE.INTRA.REPUL>
0

>  <SCORE.INTRA.REPUL.0>
0

>  <SCORE.INTRA.SOLV>
2.32874

>  <SCORE.INTRA.SOLV.lig_0>
-75.7198

>  <SCORE.INTRA.VDW>
4.14284

>  <SCORE.INTRA.VDW.0>
-3.34171

>  <SCORE.INTRA.norm>
-0.0148826

>  <SCORE.RESTR>
2.29884

>  <SCORE.RESTR.CAVITY>
2.29884

>  <SCORE.RESTR.norm>
0.0741561

>  <SCORE.SYSTEM>
0

>  <SCORE.SYSTEM.CONST>
0

>  <SCORE.SYSTEM.DIHEDRAL>
0

>  <SCORE.SYSTEM.SOLV>
0

>  <SCORE.SYSTEM.norm>
0

>  <SCORE.heavy>
31

>  <SCORE.norm>
0.0502742

>  <RMSD>
11.688

$$$$
2et3_lig
 OpenBabel11021811423D
libRbt.so/2013.1/901 2013/11/27
 31 33  0  0  0  0  0  0  0  0999 V2000
    0.1376   -1.6477   40.0093 C   0  0  2  0  0  0  0  0  0  0  0  0
    0.0118   -2.9095   39.3035 O   0  0  0  0  0  0  0  0  0  0  0  0
    2.6963   -4.4847   36.3677 C   0  0  2  0  0  0  0  0  0  0  0  0
    3.3818   -4.6360   35.1216 N   0  0  0  0  0  0  0  0  0  0  0  0
    5.2809   -2.2614   36.2176 C   0  0  2  0  0  0  0  0  0  0  0  0
   -1.0889   -1.4284   40.9015 C   0  0  2  0  0  0  0  0  0  0  0  0
   -1.2157   -2.5460   41.7853 N   0  0  0  0  0  0  0  0  0  0  0  0
    1.1614   -4.6774   36.1459 C   0  0  0  0  0  0  0  0  0  0  0  0
    5.4504   -0.8261   36.7625 C   0  0  2  0  0  0  0  0  0  0  0  0
    6.0152   -0.8908   38.0529 O   0  0  0  0  0  0  0  0  0  0  0  0
   -2.3730   -1.2281   40.0260 C   0  0  0  0  0  0  0  0  0  0  0  0
    0.3983   -4.5039   37.5100 C   0  0  2  0  0  0  0  0  0  0  0  0
   -1.0480   -4.6841   37.3063 N   0  0  0  0  0  0  0  0  0  0  0  0
    4.0244   -0.1382   36.7774 C   0  0  1  0  0  0  0  0  0  0  0  0
    4.0911    1.2504   37.3398 N   0  0  0  0  0  0  0  0  0  0  0  0
   -2.1502    0.0247   39.1218 C   0  0  0  0  0  0  0  0  0  0  0  0
    0.7025   -3.0764   38.1067 C   0  0  2  0  0  0  0  0  0  0  0  0
    3.4051   -0.1005   35.2812 C   0  0  1  0  0  0  0  0  0  0  0  0
    4.2074    0.6721   34.4123 O   0  0  0  0  0  0  0  0  0  0  0  0
   -0.8549   -0.2182   38.2286 C   0  0  2  0  0  0  0  0  0  0  0  0
    0.3222   -0.5378   39.0346 O   0  0  0  0  0  0  0  0  0  0  0  0
    2.2571   -2.9121   38.3166 C   0  0  2  0  0  0  0  0  0  0  0  0
    2.5539   -1.6293   38.8591 O   0  0  0  0  0  0  0  0  0  0  0  0
    3.3551   -1.5525   34.7132 C   0  0  0  0  0  0  0  0  0  0  0  0
    4.6931   -2.2192   34.8474 O   0  0  0  0  0  0  0  0  0  0  0  0
   -0.5316    0.9178   37.2869 C   0  0  0  0  0  0  0  0  0  0  0  0
   -0.1077    2.0964   37.9961 N   0  0  0  0  0  0  0  0  0  0  0  0
    3.0007   -3.0900   36.9464 C   0  0  1  0  0  0  0  0  0  0  0  0
    4.4000   -2.9456   37.1578 O   0  0  0  0  0  0  0  0  0  0  0  0
    2.0124    0.5249   35.1239 C   0  0  0  0  0  0  0  0  0  0  0  0
    3.5862    1.4448   38.7092 C   0  0  0  0  0  0  0  0  0  0  0  0
  1  2  1  6  0  0  0
  1  6  1  0  0  0  0
  1 21  1  0  0  0  0
  3  4  1  6  0  0  0
  3  8  1  0  0  0  0
  3 28  1  0  0  0  0
  5  9  1  0  0  0  0
  5 25  1  0  0  0  0
  5 29  1  1  0  0  0
  6  7  1  1  0  0  0
  6 11  1  0  0  0  0
  8 12  1  0  0  0  0
  9 10  1  1  0  0  0
  9 14  1  0  0  0  0
 11 16  1  0  0  0  0
 12 13  1  6  0  0  0
 12 17  1  0  0  0  0
 14 15  1  6  0  0  0
 14 18  1  0  0  0  0
 15 31  1  0  0  0  0
 16 20  1  0  0  0  0
 17  2  1  1  0  0  0
 17 22  1  0  0  0  0
 18 19  1  6  0  0  0
 18 24  1  0  0  0  0
 18 30  1  0  0  0  0
 20 21  1  0  0  0  0
 20 26  1  1  0  0  0
 22 23  1  6  0  0  0
 22 28  1  0  0  0  0
 24 25  1  0  0  0  0
 26 27  1  0  0  0  0
 28 29  1  1  0  0  0
M  END
>  <CHROM.1>
155.71098688,97.46836871,-104.56031635,-179.01151019,68.25477835,98.40517893
1.89894147,-1.53105207,37.53599085,-3.09765776,-0.58192678,-3.00196538

>  <Name>
2et3_lig

>  <RI>
0

>  <Rbt.Current_Directory>
/home/itssahil/PROJECTS/Mol_Feturizer/New_Systems/rnas/2et3

>  <Rbt.Executable>
rbdock ($Id: //depot/dev/client3/rdock/2013.1/src/exe/rbdock.cxx#4 $)

>  <Rbt.Library>
libRbt.so (2013.1, Build901 2013/11/27)

>  <Rbt.Parameter_File>
/export/apps/rDock/src/rDock_2013.1_src/data/scripts/dock_solv.prm

>  <Rbt.Receptor>
prm/blind_docking_60.prm

>  <SCORE>
-16.6306

>  <SCORE.INTER>
-17.9504

>  <SCORE.INTER.CONST>
1

>  <SCORE.INTER.POLAR>
-1.4386

>  <SCORE.INTER.ROT>
6

>  <SCORE.INTER.SOLV>
20.2321

>  <SCORE.INTER.VDW>
-21.5156

>  <SCORE.INTER.norm>
-0.579044

>  <SCORE.INTRA>
-1.10534

>  <SCORE.INTRA.DIHEDRAL>
-8.20082

>  <SCORE.INTRA.DIHEDRAL.0>
22.2484

>  <SCORE.INTRA.POLAR>
0

>  <SCORE.INTRA.POLAR.0>
0

>  <SCORE.INTRA.REPUL>
0

>  <SCORE.INTRA.REPUL.0>
0

>  <SCORE.INTRA.SOLV>
1.46284

>  <SCORE.INTRA.SOLV.lig_0>
-75.7198

>  <SCORE.INTRA.VDW>
2.26365

>  <SCORE.INTRA.VDW.0>
-3.34171

>  <SCORE.INTRA.norm>
-0.035656

>  <SCORE.RESTR>
2.42508

>  <SCORE.RESTR.CAVITY>
2.42508

>  <SCORE.RESTR.norm>
0.0782282

>  <SCORE.SYSTEM>
0

>  <SCORE.SYSTEM.CONST>
0

>  <SCORE.SYSTEM.DIHEDRAL>
0

>  <SCORE.SYSTEM.SOLV>
0

>  <SCORE.SYSTEM.norm>
0

>  <SCORE.heavy>
31

>  <SCORE.norm>
-0.536472

>  <RMSD>
11.772

$$$$
2et3_lig
 OpenBabel11021811423D
libRbt.so/2013.1/901 2013/11/27
 31 33  0  0  0  0  0  0  0  0999 V2000
    6.1100   -0.3117   39.8489 C   0  0  2  0  0  0  0  0  0  0  0  0
    6.4892   -0.6881   38.4995 O   0  0  0  0  0  0  0  0  0  0  0  0
    2.8395   -0.8087   36.2698 C   0  0  2  0  0  0  0  0  0  0  0  0
    1.9140   -0.5963   35.2002 N   0  0  0  0  0  0  0  0  0  0  0  0
    3.6800   -4.1378   36.0399 C   0  0  2  0  0  0  0  0  0  0  0  0
    7.2730    0.4180   40.5296 C   0  0  2  0  0  0  0  0  0  0  0  0
    7.6398    1.5421   39.7246 N   0  0  0  0  0  0  0  0  0  0  0  0
    3.3233    0.5705   36.8230 C   0  0  0  0  0  0  0  0  0  0  0  0
    2.6790   -5.1270   35.4035 C   0  0  2  0  0  0  0  0  0  0  0  0
    3.0238   -5.3184   34.0496 O   0  0  0  0  0  0  0  0  0  0  0  0
    8.4775   -0.5597   40.7504 C   0  0  0  0  0  0  0  0  0  0  0  0
    4.3485    0.3466   37.9943 C   0  0  2  0  0  0  0  0  0  0  0  0
    4.8076    1.6428   38.5186 N   0  0  0  0  0  0  0  0  0  0  0  0
    1.2254   -4.5195   35.5610 C   0  0  1  0  0  0  0  0  0  0  0  0
    0.1912   -5.3995   34.9246 N   0  0  0  0  0  0  0  0  0  0  0  0
    7.9883   -1.7310   41.6590 C   0  0  0  0  0  0  0  0  0  0  0  0
    5.5681   -0.5057   37.4721 C   0  0  2  0  0  0  0  0  0  0  0  0
    0.8772   -4.2995   37.1275 C   0  0  1  0  0  0  0  0  0  0  0  0
    0.8713   -5.5252   37.8297 O   0  0  0  0  0  0  0  0  0  0  0  0
    6.7629   -2.4514   40.9419 C   0  0  2  0  0  0  0  0  0  0  0  0
    5.6872   -1.5181   40.6118 O   0  0  0  0  0  0  0  0  0  0  0  0
    5.0479   -1.8882   36.9192 C   0  0  2  0  0  0  0  0  0  0  0  0
    6.1352   -2.6763   36.4453 O   0  0  0  0  0  0  0  0  0  0  0  0
    1.9704   -3.3911   37.7703 C   0  0  0  0  0  0  0  0  0  0  0  0
    3.3418   -3.9260   37.4771 O   0  0  0  0  0  0  0  0  0  0  0  0
    6.1994   -3.6235   41.7103 C   0  0  0  0  0  0  0  0  0  0  0  0
    5.7761   -3.2429   43.0324 N   0  0  0  0  0  0  0  0  0  0  0  0
    4.0259   -1.6447   35.7538 C   0  0  1  0  0  0  0  0  0  0  0  0
    3.5636   -2.9015   35.2742 O   0  0  0  0  0  0  0  0  0  0  0  0
   -0.4977   -3.7003   37.4536 C   0  0  0  0  0  0  0  0  0  0  0  0
    0.0792   -5.3504   33.4572 C   0  0  0  0  0  0  0  0  0  0  0  0
  1  2  1  6  0  0  0
  1  6  1  0  0  0  0
  1 21  1  0  0  0  0
  3  4  1  6  0  0  0
  3  8  1  0  0  0  0
  3 28  1  0  0  0  0
  5  9  1  0  0  0  0
  5 25  1  0  0  0  0
  5 29  1  6  0  0  0
  6  7  1  6  0  0  0
  6 11  1  0  0  0  0
  8 12  1  0  0  0  0
  9 10  1  6  0  0  0
  9 14  1  0  0  0  0
 11 16  1  0  0  0  0
 12 13  1  6  0  0  0
 12 17  1  0  0  0  0
 14 15  1  1  0  0  0
 14 18  1  0  0  0  0
 15 31  1  0  0  0  0
 16 20  1  0  0  0  0
 17  2  1  1  0  0  0
 17 22  1  0  0  0  0
 18 19  1  1  0  0  0
 18 24  1  0  0  0  0
 18 30  1  0  0  0  0
 20 21  1  0  0  0  0
 20 26  1  1  0  0  0
 22 23  1  6  0  0  0
 22 28  1  0  0  0  0
 24 25  1  0  0  0  0
 26 27  1  0  0  0  0
 28 29  1  1  0  0  0
M  END
>  <CHROM.1>
-137.16085081,161.83488557,-77.22208850,10.39670584,57.17960477,-101.63397131
4.09679705,-2.34187970,37.75604087,-0.04928579,-0.84213763,-0.70931982

>  <Name>
2et3_lig

>  <RI>
0

>  <Rbt.Current_Directory>
/home/itssahil/PROJECTS/Mol_Feturizer/New_Systems/rnas/2et3

>  <Rbt.Executable>
rbdock ($Id: //depot/dev/client3/rdock/2013.1/src/exe/rbdock.cxx#4 $)

>  <Rbt.Library>
libRbt.so (2013.1, Build901 2013/11/27)

>  <Rbt.Parameter_File>
/export/apps/rDock/src/rDock_2013.1_src/data/scripts/dock_solv.prm

>  <Rbt.Receptor>
prm/blind_docking_60.prm

>  <SCORE>
-3.86043

>  <SCORE.INTER>
-12.9115

>  <SCORE.INTER.CONST>
1

>  <SCORE.INTER.POLAR>
-1.7485

>  <SCORE.INTER.ROT>
6

>  <SCORE.INTER.SOLV>
13.571

>  <SCORE.INTER.VDW>
-14.903

>  <SCORE.INTER.norm>
-0.416501

>  <SCORE.INTRA>
5.08366

>  <SCORE.INTRA.DIHEDRAL>
-2.22045

>  <SCORE.INTRA.DIHEDRAL.0>
22.2484

>  <SCORE.INTRA.POLAR>
0

>  <SCORE.INTRA.POLAR.0>
0

>  <SCORE.INTRA.REPUL>
0

>  <SCORE.INTRA.REPUL.0>
0

>  <SCORE.INTRA.SOLV>
1.87018

>  <SCORE.INTRA.SOLV.lig_0>
-75.7198

>  <SCORE.INTRA.VDW>
5.25879

>  <SCORE.INTRA.VDW.0>
-3.34171

>  <SCORE.INTRA.norm>
0.163989

>  <SCORE.RESTR>
3.96745

>  <SCORE.RESTR.CAVITY>
3.96745

>  <SCORE.RESTR.norm>
0.127982

>  <SCORE.SYSTEM>
0

>  <SCORE.SYSTEM.CONST>
0

>  <SCORE.SYSTEM.DIHEDRAL>
0

>  <SCORE.SYSTEM.SOLV>
0

>  <SCORE.SYSTEM.norm>
0

>  <SCORE.heavy>
31

>  <SCORE.norm>
-0.12453

>  <RMSD>
11.917

$$$$
2et3_lig
 OpenBabel11021811423D
libRbt.so/2013.1/901 2013/11/27
 31 33  0  0  0  0  0  0  0  0999 V2000
    4.2828   -1.6076   37.1671 C   0  0  2  0  0  0  0  0  0  0  0  0
    5.2407   -0.8562   37.9571 O   0  0  0  0  0  0  0  0  0  0  0  0
    4.6363   -2.5471   41.8406 C   0  0  2  0  0  0  0  0  0  0  0  0
    4.6419   -2.6691   43.2657 N   0  0  0  0  0  0  0  0  0  0  0  0
    1.4640   -0.4343   41.9697 C   0  0  2  0  0  0  0  0  0  0  0  0
    4.8415   -1.8407   35.7594 C   0  0  2  0  0  0  0  0  0  0  0  0
    6.1043   -2.5029   35.8737 N   0  0  0  0  0  0  0  0  0  0  0  0
    6.1024   -2.3833   41.3250 C   0  0  0  0  0  0  0  0  0  0  0  0
    0.3156   -0.9501   42.8646 C   0  0  2  0  0  0  0  0  0  0  0  0
    0.8342   -1.2644   44.1377 O   0  0  0  0  0  0  0  0  0  0  0  0
    4.9624   -0.4825   34.9874 C   0  0  0  0  0  0  0  0  0  0  0  0
    6.1053   -2.2397   39.7590 C   0  0  2  0  0  0  0  0  0  0  0  0
    7.4840   -2.0846   39.2683 N   0  0  0  0  0  0  0  0  0  0  0  0
   -0.3218   -2.2162   42.1592 C   0  0  1  0  0  0  0  0  0  0  0  0
   -1.4204   -2.8112   42.9887 N   0  0  0  0  0  0  0  0  0  0  0  0
    3.5368    0.1458   34.8895 C   0  0  0  0  0  0  0  0  0  0  0  0
    5.2236   -1.0008   39.3413 C   0  0  2  0  0  0  0  0  0  0  0  0
   -0.8881   -1.8159   40.6954 C   0  0  1  0  0  0  0  0  0  0  0  0
   -1.9190   -0.8546   40.7885 O   0  0  0  0  0  0  0  0  0  0  0  0
    2.9699    0.3493   36.3632 C   0  0  2  0  0  0  0  0  0  0  0  0
    2.9781   -0.8914   37.1364 O   0  0  0  0  0  0  0  0  0  0  0  0
    3.7529   -1.1947   39.8773 C   0  0  2  0  0  0  0  0  0  0  0  0
    2.9377   -0.0872   39.5074 O   0  0  0  0  0  0  0  0  0  0  0  0
    0.2677   -1.1903   39.8550 C   0  0  0  0  0  0  0  0  0  0  0  0
    0.9383   -0.0855   40.6181 O   0  0  0  0  0  0  0  0  0  0  0  0
    1.5940    0.9705   36.4158 C   0  0  0  0  0  0  0  0  0  0  0  0
    0.5947    0.1068   35.8438 N   0  0  0  0  0  0  0  0  0  0  0  0
    3.7706   -1.3378   41.4398 C   0  0  1  0  0  0  0  0  0  0  0  0
    2.4377   -1.5187   41.9024 O   0  0  0  0  0  0  0  0  0  0  0  0
   -1.5284   -2.9400   39.8695 C   0  0  0  0  0  0  0  0  0  0  0  0
   -1.0219   -3.7088   44.0858 C   0  0  0  0  0  0  0  0  0  0  0  0
  1  2  1  1  0  0  0
  1  6  1  0  0  0  0
  1 21  1  0  0  0  0
  3  4  1  1  0  0  0
  3  8  1  0  0  0  0
  3 28  1  0  0  0  0
  5  9  1  0  0  0  0
  5 25  1  0  0  0  0
  5 29  1  6  0  0  0
  6  7  1  1  0  0  0
  6 11  1  0  0  0  0
  8 12  1  0  0  0  0
  9 10  1  1  0  0  0
  9 14  1  0  0  0  0
 11 16  1  0  0  0  0
 12 13  1  1  0  0  0
 12 17  1  0  0  0  0
 14 15  1  1  0  0  0
 14 18  1  0  0  0  0
 15 31  1  0  0  0  0
 16 20  1  0  0  0  0
 17  2  1  6  0  0  0
 17 22  1  0  0  0  0
 18 19  1  1  0  0  0
 18 24  1  0  0  0  0
 18 30  1  0  0  0  0
 20 21  1  0  0  0  0
 20 26  1  6  0  0  0
 22 23  1  1  0  0  0
 22 28  1  0  0  0  0
 24 25  1  0  0  0  0
 26 27  1  0  0  0  0
 28 29  1  6  0  0  0
M  END
>  <CHROM.1>
-153.66209549,-164.85003994,-81.66215337,86.12868732,65.63740698,164.83000534
2.56733104,-1.34185005,39.69646333,0.86541827,0.12765600,-1.29333143

>  <Name>
2et3_lig

>  <RI>
1.07224e+07

>  <Rbt.Current_Directory>
/home/itssahil/PROJECTS/Mol_Feturizer/New_Systems/rnas/2et3

>  <Rbt.Executable>
rbdock ($Id: //depot/dev/client3/rdock/2013.1/src/exe/rbdock.cxx#4 $)

>  <Rbt.Library>
libRbt.so (2013.1, Build901 2013/11/27)

>  <Rbt.Parameter_File>
/export/apps/rDock/src/rDock_2013.1_src/data/scripts/dock_solv.prm

>  <Rbt.Receptor>
prm/blind_docking_80.prm

>  <SCORE>
10.4611

>  <SCORE.INTER>
11.7011

>  <SCORE.INTER.CONST>
1

>  <SCORE.INTER.POLAR>
0

>  <SCORE.INTER.ROT>
6

>  <SCORE.INTER.SOLV>
16.1063

>  <SCORE.INTER.VDW>
-5.16803

>  <SCORE.INTER.norm>
0.377455

>  <SCORE.INTRA>
-3.40497

>  <SCORE.INTRA.DIHEDRAL>
-13.7112

>  <SCORE.INTRA.DIHEDRAL.0>
22.2484

>  <SCORE.INTRA.POLAR>
0

>  <SCORE.INTRA.POLAR.0>
0

>  <SCORE.INTRA.REPUL>
0

>  <SCORE.INTRA.REPUL.0>
0

>  <SCORE.INTRA.SOLV>
-0.624346

>  <SCORE.INTRA.SOLV.lig_0>
-75.7198

>  <SCORE.INTRA.VDW>
3.76282

>  <SCORE.INTRA.VDW.0>
-3.34171

>  <SCORE.INTRA.norm>
-0.109838

>  <SCORE.RESTR>
2.16497

>  <SCORE.RESTR.CAVITY>
2.16497

>  <SCORE.RESTR.norm>
0.0698378

>  <SCORE.SYSTEM>
0

>  <SCORE.SYSTEM.CONST>
0

>  <SCORE.SYSTEM.DIHEDRAL>
0

>  <SCORE.SYSTEM.SOLV>
0

>  <SCORE.SYSTEM.norm>
0

>  <SCORE.heavy>
31

>  <SCORE.norm>
0.337455

>  <RMSD>
11.927

$$$$
2et3_lig
 OpenBabel11021811423D
libRbt.so/2013.1/901 2013/11/27
 31 33  0  0  0  0  0  0  0  0999 V2000
    2.2901   -1.9928   34.7372 C   0  0  2  0  0  0  0  0  0  0  0  0
    1.5910   -1.4828   35.9023 O   0  0  0  0  0  0  0  0  0  0  0  0
    4.5894    1.0199   37.6494 C   0  0  2  0  0  0  0  0  0  0  0  0
    5.1749    2.0709   38.4228 N   0  0  0  0  0  0  0  0  0  0  0  0
    5.7434   -1.4075   39.2278 C   0  0  2  0  0  0  0  0  0  0  0  0
    1.3529   -2.8904   33.9222 C   0  0  2  0  0  0  0  0  0  0  0  0
    0.1845   -2.1391   33.5808 N   0  0  0  0  0  0  0  0  0  0  0  0
    3.6600    1.6338   36.5533 C   0  0  0  0  0  0  0  0  0  0  0  0
    5.5593   -2.6202   40.1665 C   0  0  2  0  0  0  0  0  0  0  0  0
    4.2891   -3.1876   39.9363 O   0  0  0  0  0  0  0  0  0  0  0  0
    0.9987   -4.1862   34.7288 C   0  0  0  0  0  0  0  0  0  0  0  0
    3.0048    0.4844   35.7032 C   0  0  2  0  0  0  0  0  0  0  0  0
    2.1279    1.0575   34.6696 N   0  0  0  0  0  0  0  0  0  0  0  0
    5.7156   -2.1113   41.6576 C   0  0  1  0  0  0  0  0  0  0  0  0
    5.5037   -3.2229   42.6417 N   0  0  0  0  0  0  0  0  0  0  0  0
    2.3282   -4.9480   35.0268 C   0  0  0  0  0  0  0  0  0  0  0  0
    2.1911   -0.4760   36.6529 C   0  0  2  0  0  0  0  0  0  0  0  0
    7.1793   -1.4520   41.8738 C   0  0  1  0  0  0  0  0  0  0  0  0
    8.2055   -2.4012   41.6706 O   0  0  0  0  0  0  0  0  0  0  0  0
    3.2925   -3.9831   35.8477 C   0  0  2  0  0  0  0  0  0  0  0  0
    3.5221   -2.7134   35.1604 O   0  0  0  0  0  0  0  0  0  0  0  0
    3.1547   -1.0768   37.7476 C   0  0  2  0  0  0  0  0  0  0  0  0
    2.4399   -1.9512   38.6149 O   0  0  0  0  0  0  0  0  0  0  0  0
    7.3814   -0.3067   40.8340 C   0  0  0  0  0  0  0  0  0  0  0  0
    7.0857   -0.7947   39.4458 O   0  0  0  0  0  0  0  0  0  0  0  0
    4.6178   -4.6050   36.2203 C   0  0  0  0  0  0  0  0  0  0  0  0
    5.6163   -4.3836   35.2075 N   0  0  0  0  0  0  0  0  0  0  0  0
    3.7997    0.0839   38.5836 C   0  0  1  0  0  0  0  0  0  0  0  0
    4.6695   -0.4773   39.5592 O   0  0  0  0  0  0  0  0  0  0  0  0
    7.4877   -0.8932   43.2696 C   0  0  0  0  0  0  0  0  0  0  0  0
    4.4768   -3.0163   43.6765 C   0  0  0  0  0  0  0  0  0  0  0  0
  1  2  1  1  0  0  0
  1  6  1  0  0  0  0
  1 21  1  0  0  0  0
  3  4  1  1  0  0  0
  3  8  1  0  0  0  0
  3 28  1  0  0  0  0
  5  9  1  0  0  0  0
  5 25  1  0  0  0  0
  5 29  1  1  0  0  0
  6  7  1  1  0  0  0
  6 11  1  0  0  0  0
  8 12  1  0  0  0  0
  9 10  1  1  0  0  0
  9 14  1  0  0  0  0
 11 16  1  0  0  0  0
 12 13  1  6  0  0  0
 12 17  1  0  0  0  0
 14 15  1  1  0  0  0
 14 18  1  0  0  0  0
 15 31  1  0  0  0  0
 16 20  1  0  0  0  0
 17  2  1  6  0  0  0
 17 22  1  0  0  0  0
 18 19  1  6  0  0  0
 18 24  1  0  0  0  0
 18 30  1  0  0  0  0
 20 21  1  0  0  0  0
 20 26  1  6  0  0  0
 22 23  1  1  0  0  0
 22 28  1  0  0  0  0
 24 25  1  0  0  0  0
 26 27  1  0  0  0  0
 28 29  1  1  0  0  0
M  END
>  <CHROM.1>
-169.51774794,-128.70032076,-124.68140793,34.54600471,89.90076397,-66.44812626
4.18713305,-1.70537598,38.06958478,3.12780596,0.99942181,3.06758658

>  <Name>
2et3_lig

>  <RI>
1.07224e+07

>  <Rbt.Current_Directory>
/home/itssahil/PROJECTS/Mol_Feturizer/New_Systems/rnas/2et3

>  <Rbt.Executable>
rbdock ($Id: //depot/dev/client3/rdock/2013.1/src/exe/rbdock.cxx#4 $)

>  <Rbt.Library>
libRbt.so (2013.1, Build901 2013/11/27)

>  <Rbt.Parameter_File>
/export/apps/rDock/src/rDock_2013.1_src/data/scripts/dock_solv.prm

>  <Rbt.Receptor>
prm/blind_docking_80.prm

>  <SCORE>
-8.40544

>  <SCORE.INTER>
-9.01949

>  <SCORE.INTER.CONST>
1

>  <SCORE.INTER.POLAR>
-0.793741

>  <SCORE.INTER.ROT>
6

>  <SCORE.INTER.SOLV>
24.4722

>  <SCORE.INTER.VDW>
-19.1246

>  <SCORE.INTER.norm>
-0.290951

>  <SCORE.INTRA>
-3.20886

>  <SCORE.INTRA.DIHEDRAL>
-8.04776

>  <SCORE.INTRA.DIHEDRAL.0>
22.2484

>  <SCORE.INTRA.POLAR>
0

>  <SCORE.INTRA.POLAR.0>
0

>  <SCORE.INTRA.REPUL>
0

>  <SCORE.INTRA.REPUL.0>
0

>  <SCORE.INTRA.SOLV>
0.11133

>  <SCORE.INTRA.SOLV.lig_0>
-75.7198

>  <SCORE.INTRA.VDW>
0.759358

>  <SCORE.INTRA.VDW.0>
-3.34171

>  <SCORE.INTRA.norm>
-0.103512

>  <SCORE.RESTR>
3.82291

>  <SCORE.RESTR.CAVITY>
3.82291

>  <SCORE.RESTR.norm>
0.12332

>  <SCORE.SYSTEM>
0

>  <SCORE.SYSTEM.CONST>
0

>  <SCORE.SYSTEM.DIHEDRAL>
0

>  <SCORE.SYSTEM.SOLV>
0

>  <SCORE.SYSTEM.norm>
0

>  <SCORE.heavy>
31

>  <SCORE.norm>
-0.271143

>  <RMSD>
12.020

$$$$
2et3_lig
 OpenBabel11021811423D
libRbt.so/2013.1/901 2013/11/27
 31 33  0  0  0  0  0  0  0  0999 V2000
    2.1437   -1.9970   34.5728 C   0  0  2  0  0  0  0  0  0  0  0  0
    1.4096   -1.5163   35.7287 O   0  0  0  0  0  0  0  0  0  0  0  0
    4.4024    0.8288   37.6909 C   0  0  2  0  0  0  0  0  0  0  0  0
    4.9847    1.8246   38.5364 N   0  0  0  0  0  0  0  0  0  0  0  0
    5.2239   -1.9393   39.2200 C   0  0  2  0  0  0  0  0  0  0  0  0
    1.3402   -3.0957   33.8688 C   0  0  2  0  0  0  0  0  0  0  0  0
    0.0533   -2.5725   33.5279 N   0  0  0  0  0  0  0  0  0  0  0  0
    3.5152    1.5193   36.6054 C   0  0  0  0  0  0  0  0  0  0  0  0
    5.4515   -2.6528   40.5709 C   0  0  2  0  0  0  0  0  0  0  0  0
    4.2014   -3.0193   41.1106 O   0  0  0  0  0  0  0  0  0  0  0  0
    1.2313   -4.3640   34.7825 C   0  0  0  0  0  0  0  0  0  0  0  0
    2.8636    0.4309   35.6761 C   0  0  2  0  0  0  0  0  0  0  0  0
    2.0265    1.0763   34.6521 N   0  0  0  0  0  0  0  0  0  0  0  0
    6.2351   -1.6586   41.5220 C   0  0  1  0  0  0  0  0  0  0  0  0
    6.4578   -2.2582   42.8784 N   0  0  0  0  0  0  0  0  0  0  0  0
    2.6773   -4.8750   35.0736 C   0  0  0  0  0  0  0  0  0  0  0  0
    2.0064   -0.5637   36.5494 C   0  0  2  0  0  0  0  0  0  0  0  0
    7.6546   -1.2499   40.8575 C   0  0  1  0  0  0  0  0  0  0  0  0
    8.4884   -2.3781   40.6921 O   0  0  0  0  0  0  0  0  0  0  0  0
    3.4966   -3.7053   35.7772 C   0  0  2  0  0  0  0  0  0  0  0  0
    3.4909   -2.4734   34.9899 O   0  0  0  0  0  0  0  0  0  0  0  0
    2.9279   -1.2418   37.6351 C   0  0  2  0  0  0  0  0  0  0  0  0
    2.1735   -2.1479   38.4335 O   0  0  0  0  0  0  0  0  0  0  0  0
    7.3994   -0.6389   39.4449 C   0  0  0  0  0  0  0  0  0  0  0  0
    6.5342   -1.5496   38.6234 O   0  0  0  0  0  0  0  0  0  0  0  0
    4.9179   -4.0734   36.1326 C   0  0  0  0  0  0  0  0  0  0  0  0
    5.7937   -2.9321   36.0866 N   0  0  0  0  0  0  0  0  0  0  0  0
    3.5700   -0.1411   38.5507 C   0  0  1  0  0  0  0  0  0  0  0  0
    4.4018   -0.7713   39.5172 O   0  0  0  0  0  0  0  0  0  0  0  0
    8.5351   -0.2745   41.6505 C   0  0  0  0  0  0  0  0  0  0  0  0
    6.7063   -1.3265   43.9913 C   0  0  0  0  0  0  0  0  0  0  0  0
  1  2  1  1  0  0  0
  1  6  1  0  0  0  0
  1 21  1  0  0  0  0
  3  4  1  1  0  0  0
  3  8  1  0  0  0  0
  3 28  1  0  0  0  0
  5  9  1  0  0  0  0
  5 25  1  0  0  0  0
  5 29  1  1  0  0  0
  6  7  1  1  0  0  0
  6 11  1  0  0  0  0
  8 12  1  0  0  0  0
  9 10  1  1  0  0  0
  9 14  1  0  0  0  0
 11 16  1  0  0  0  0
 12 13  1  6  0  0  0
 12 17  1  0  0  0  0
 14 15  1  1  0  0  0
 14 18  1  0  0  0  0
 15 31  1  0  0  0  0
 16 20  1  0  0  0  0
 17  2  1  6  0  0  0
 17 22  1  0  0  0  0
 18 19  1  6  0  0  0
 18 24  1  0  0  0  0
 18 30  1  0  0  0  0
 20 21  1  0  0  0  0
 20 26  1  6  0  0  0
 22 23  1  1  0  0  0
 22 28  1  0  0  0  0
 24 25  1  0  0  0  0
 26 27  1  0  0  0  0
 28 29  1  1  0  0  0
M  END
>  <CHROM.1>
176.45806103,-155.85521179,-157.99796141,35.85533924,149.45169420,-82.63420555
4.28864507,-1.61872117,37.94004304,-2.96830002,-0.91271821,0.09313206

>  <Name>
2et3_lig

>  <RI>
1.07224e+07

>  <Rbt.Current_Directory>
/home/itssahil/PROJECTS/Mol_Feturizer/New_Systems/rnas/2et3

>  <Rbt.Executable>
rbdock ($Id: //depot/dev/client3/rdock/2013.1/src/exe/rbdock.cxx#4 $)

>  <Rbt.Library>
libRbt.so (2013.1, Build901 2013/11/27)

>  <Rbt.Parameter_File>
/export/apps/rDock/src/rDock_2013.1_src/data/scripts/dock_solv.prm

>  <Rbt.Receptor>
prm/blind_docking_80.prm

>  <SCORE>
-6.68534

>  <SCORE.INTER>
-6.91788

>  <SCORE.INTER.CONST>
1

>  <SCORE.INTER.POLAR>
-0.491114

>  <SCORE.INTER.ROT>
6

>  <SCORE.INTER.SOLV>
19.034

>  <SCORE.INTER.VDW>
-16.9195

>  <SCORE.INTER.norm>
-0.223157

>  <SCORE.INTRA>
-3.32895

>  <SCORE.INTRA.DIHEDRAL>
-11.8438

>  <SCORE.INTRA.DIHEDRAL.0>
22.2484

>  <SCORE.INTRA.POLAR>
0

>  <SCORE.INTRA.POLAR.0>
0

>  <SCORE.INTRA.REPUL>
0

>  <SCORE.INTRA.REPUL.0>
0

>  <SCORE.INTRA.SOLV>
2.20491

>  <SCORE.INTRA.SOLV.lig_0>
-75.7198

>  <SCORE.INTRA.VDW>
1.49052

>  <SCORE.INTRA.VDW.0>
-3.34171

>  <SCORE.INTRA.norm>
-0.107385

>  <SCORE.RESTR>
3.56148

>  <SCORE.RESTR.CAVITY>
3.56148

>  <SCORE.RESTR.norm>
0.114887

>  <SCORE.SYSTEM>
0

>  <SCORE.SYSTEM.CONST>
0

>  <SCORE.SYSTEM.DIHEDRAL>
0

>  <SCORE.SYSTEM.SOLV>
0

>  <SCORE.SYSTEM.norm>
0

>  <SCORE.heavy>
31

>  <SCORE.norm>
-0.215656

>  <RMSD>
12.121

$$$$
2et3_lig
 OpenBabel11021811423D
libRbt.so/2013.1/901 2013/11/27
 31 33  0  0  0  0  0  0  0  0999 V2000
    2.1303   -2.1871   34.6891 C   0  0  2  0  0  0  0  0  0  0  0  0
    1.4080   -1.6884   35.8449 O   0  0  0  0  0  0  0  0  0  0  0  0
    4.4180    0.7279   37.6910 C   0  0  2  0  0  0  0  0  0  0  0  0
    5.0090    1.7349   38.5170 N   0  0  0  0  0  0  0  0  0  0  0  0
    5.4323   -1.9788   39.1455 C   0  0  2  0  0  0  0  0  0  0  0  0
    1.2397   -3.1507   33.8976 C   0  0  2  0  0  0  0  0  0  0  0  0
    0.0327   -2.4697   33.5435 N   0  0  0  0  0  0  0  0  0  0  0  0
    3.4659    1.3996   36.6496 C   0  0  0  0  0  0  0  0  0  0  0  0
    5.9309   -2.5750   40.4802 C   0  0  2  0  0  0  0  0  0  0  0  0
    4.8203   -3.0277   41.2219 O   0  0  0  0  0  0  0  0  0  0  0  0
    0.9558   -4.4449   34.7342 C   0  0  0  0  0  0  0  0  0  0  0  0
    2.8044    0.2986   35.7422 C   0  0  2  0  0  0  0  0  0  0  0  0
    1.9062    0.9261   34.7598 N   0  0  0  0  0  0  0  0  0  0  0  0
    6.7326   -1.4469   41.2494 C   0  0  1  0  0  0  0  0  0  0  0  0
    7.2149   -1.9301   42.5846 N   0  0  0  0  0  0  0  0  0  0  0  0
    2.3241   -5.1290   35.0447 C   0  0  0  0  0  0  0  0  0  0  0  0
    2.0136   -0.7241   36.6452 C   0  0  2  0  0  0  0  0  0  0  0  0
    7.9870   -0.9437   40.3566 C   0  0  1  0  0  0  0  0  0  0  0  0
    8.9051   -1.9917   40.1235 O   0  0  0  0  0  0  0  0  0  0  0  0
    3.2383   -4.0966   35.8404 C   0  0  2  0  0  0  0  0  0  0  0  0
    3.3994   -2.8324   35.1241 O   0  0  0  0  0  0  0  0  0  0  0  0
    2.9998   -1.3823   37.6854 C   0  0  2  0  0  0  0  0  0  0  0  0
    2.3059   -2.3133   38.5098 O   0  0  0  0  0  0  0  0  0  0  0  0
    7.4633   -0.4561   38.9704 C   0  0  0  0  0  0  0  0  0  0  0  0
    6.5912   -1.5008   38.3374 O   0  0  0  0  0  0  0  0  0  0  0  0
    4.5952   -4.6396   36.2223 C   0  0  0  0  0  0  0  0  0  0  0  0
    5.6527   -3.7237   35.8836 N   0  0  0  0  0  0  0  0  0  0  0  0
    3.6506   -0.2692   38.5796 C   0  0  1  0  0  0  0  0  0  0  0  0
    4.5407   -0.8814   39.5050 O   0  0  0  0  0  0  0  0  0  0  0  0
    8.8629    0.1650   40.9560 C   0  0  0  0  0  0  0  0  0  0  0  0
    7.9872   -3.1836   42.6058 C   0  0  0  0  0  0  0  0  0  0  0  0
  1  2  1  1  0  0  0
  1  6  1  0  0  0  0
  1 21  1  0  0  0  0
  3  4  1  1  0  0  0
  3  8  1  0  0  0  0
  3 28  1  0  0  0  0
  5  9  1  0  0  0  0
  5 25  1  0  0  0  0
  5 29  1  1  0  0  0
  6  7  1  1  0  0  0
  6 11  1  0  0  0  0
  8 12  1  0  0  0  0
  9 10  1  1  0  0  0
  9 14  1  0  0  0  0
 11 16  1  0  0  0  0
 12 13  1  6  0  0  0
 12 17  1  0  0  0  0
 14 15  1  1  0  0  0
 14 18  1  0  0  0  0
 15 31  1  0  0  0  0
 16 20  1  0  0  0  0
 17  2  1  6  0  0  0
 17 22  1  0  0  0  0
 18 19  1  6  0  0  0
 18 24  1  0  0  0  0
 18 30  1  0  0  0  0
 20 21  1  0  0  0  0
 20 26  1  6  0  0  0
 22 23  1  1  0  0  0
 22 28  1  0  0  0  0
 24 25  1  0  0  0  0
 26 27  1  0  0  0  0
 28 29  1  1  0  0  0
M  END
>  <CHROM.1>
-175.60458519,-165.61278397,52.81699061,38.65149509,131.81207925,-79.27974760
4.41314814,-1.75022478,37.81348165,-2.96980130,-0.80894487,0.07260441

>  <Name>
2et3_lig

>  <RI>
0

>  <Rbt.Current_Directory>
/home/itssahil/PROJECTS/Mol_Feturizer/New_Systems/rnas/2et3

>  <Rbt.Executable>
rbdock ($Id: //depot/dev/client3/rdock/2013.1/src/exe/rbdock.cxx#4 $)

>  <Rbt.Library>
libRbt.so (2013.1, Build901 2013/11/27)

>  <Rbt.Parameter_File>
/export/apps/rDock/src/rDock_2013.1_src/data/scripts/dock_solv.prm

>  <Rbt.Receptor>
prm/blind_docking_60.prm

>  <SCORE>
-12.752

>  <SCORE.INTER>
-10.4282

>  <SCORE.INTER.CONST>
1

>  <SCORE.INTER.POLAR>
-0.702318

>  <SCORE.INTER.ROT>
6

>  <SCORE.INTER.SOLV>
19.1186

>  <SCORE.INTER.VDW>
-18.5839

>  <SCORE.INTER.norm>
-0.336393

>  <SCORE.INTRA>
-3.65032

>  <SCORE.INTRA.DIHEDRAL>
-12.7117

>  <SCORE.INTRA.DIHEDRAL.0>
22.2484

>  <SCORE.INTRA.POLAR>
0

>  <SCORE.INTRA.POLAR.0>
0

>  <SCORE.INTRA.REPUL>
0

>  <SCORE.INTRA.REPUL.0>
0

>  <SCORE.INTRA.SOLV>
1.52179

>  <SCORE.INTRA.SOLV.lig_0>
-75.7198

>  <SCORE.INTRA.VDW>
1.94465

>  <SCORE.INTRA.VDW.0>
-3.34171

>  <SCORE.INTRA.norm>
-0.117752

>  <SCORE.RESTR>
1.32653

>  <SCORE.RESTR.CAVITY>
1.32653

>  <SCORE.RESTR.norm>
0.0427911

>  <SCORE.SYSTEM>
0

>  <SCORE.SYSTEM.CONST>
0

>  <SCORE.SYSTEM.DIHEDRAL>
0

>  <SCORE.SYSTEM.SOLV>
0

>  <SCORE.SYSTEM.norm>
0

>  <SCORE.heavy>
31

>  <SCORE.norm>
-0.411354

>  <RMSD>
12.149

$$$$
2et3_lig
 OpenBabel11021811423D
libRbt.so/2013.1/901 2013/11/27
 31 33  0  0  0  0  0  0  0  0999 V2000
    5.2792    1.0669   39.6730 C   0  0  2  0  0  0  0  0  0  0  0  0
    5.1037    1.5186   38.3050 O   0  0  0  0  0  0  0  0  0  0  0  0
    1.0232    0.4517   37.5857 C   0  0  2  0  0  0  0  0  0  0  0  0
   -0.2848    0.4669   37.0073 N   0  0  0  0  0  0  0  0  0  0  0  0
    2.4398   -1.6530   34.7264 C   0  0  2  0  0  0  0  0  0  0  0  0
    6.7668    0.8285   39.9532 C   0  0  2  0  0  0  0  0  0  0  0  0
    7.4827    2.0348   39.6732 N   0  0  0  0  0  0  0  0  0  0  0  0
    1.3208    1.8393   38.2401 C   0  0  0  0  0  0  0  0  0  0  0  0
    1.6363   -2.8963   34.2856 C   0  0  2  0  0  0  0  0  0  0  0  0
    0.3057   -2.5108   34.0225 O   0  0  0  0  0  0  0  0  0  0  0  0
    7.2972   -0.3759   39.1025 C   0  0  0  0  0  0  0  0  0  0  0  0
    2.7611    1.8346   38.8713 C   0  0  2  0  0  0  0  0  0  0  0  0
    3.0465    3.1397   39.4886 N   0  0  0  0  0  0  0  0  0  0  0  0
    1.7201   -3.9687   35.4475 C   0  0  1  0  0  0  0  0  0  0  0  0
    0.9233   -5.1961   35.1196 N   0  0  0  0  0  0  0  0  0  0  0  0
    6.4781   -1.6444   39.4984 C   0  0  0  0  0  0  0  0  0  0  0  0
    3.8249    1.5024   37.7558 C   0  0  2  0  0  0  0  0  0  0  0  0
    3.2640   -4.3697   35.7292 C   0  0  1  0  0  0  0  0  0  0  0  0
    3.8543   -4.9695   34.5946 O   0  0  0  0  0  0  0  0  0  0  0  0
    4.9361   -1.3582   39.2248 C   0  0  2  0  0  0  0  0  0  0  0  0
    4.4651   -0.1564   39.9113 O   0  0  0  0  0  0  0  0  0  0  0  0
    3.4966    0.0994   37.1141 C   0  0  2  0  0  0  0  0  0  0  0  0
    4.4487   -0.2222   36.1053 O   0  0  0  0  0  0  0  0  0  0  0  0
    4.0747   -3.0780   36.0573 C   0  0  0  0  0  0  0  0  0  0  0  0
    3.8555   -2.0337   35.0018 O   0  0  0  0  0  0  0  0  0  0  0  0
    4.0250   -2.5182   39.5504 C   0  0  0  0  0  0  0  0  0  0  0  0
    3.9338   -2.7453   40.9688 N   0  0  0  0  0  0  0  0  0  0  0  0
    2.0564    0.1229   36.4917 C   0  0  1  0  0  0  0  0  0  0  0  0
    1.7768   -1.1516   35.9253 O   0  0  0  0  0  0  0  0  0  0  0  0
    3.5212   -5.3939   36.8429 C   0  0  0  0  0  0  0  0  0  0  0  0
   -0.2395   -5.4894   35.9741 C   0  0  0  0  0  0  0  0  0  0  0  0
  1  2  1  6  0  0  0
  1  6  1  0  0  0  0
  1 21  1  0  0  0  0
  3  4  1  6  0  0  0
  3  8  1  0  0  0  0
  3 28  1  0  0  0  0
  5  9  1  0  0  0  0
  5 25  1  0  0  0  0
  5 29  1  1  0  0  0
  6  7  1  6  0  0  0
  6 11  1  0  0  0  0
  8 12  1  0  0  0  0
  9 10  1  1  0  0  0
  9 14  1  0  0  0  0
 11 16  1  0  0  0  0
 12 13  1  6  0  0  0
 12 17  1  0  0  0  0
 14 15  1  6  0  0  0
 14 18  1  0  0  0  0
 15 31  1  0  0  0  0
 16 20  1  0  0  0  0
 17  2  1  1  0  0  0
 17 22  1  0  0  0  0
 18 19  1  6  0  0  0
 18 24  1  0  0  0  0
 18 30  1  0  0  0  0
 20 21  1  0  0  0  0
 20 26  1  1  0  0  0
 22 23  1  6  0  0  0
 22 28  1  0  0  0  0
 24 25  1  0  0  0  0
 26 27  1  0  0  0  0
 28 29  1  1  0  0  0
M  END
>  <CHROM.1>
165.65280245,-167.69818910,-115.16496482,34.34953600,70.09193330,169.90659801
3.37014903,-1.21944968,37.33075608,-0.97924602,0.54815698,-2.77603919

>  <Name>
2et3_lig

>  <RI>
0

>  <Rbt.Current_Directory>
/home/itssahil/PROJECTS/Mol_Feturizer/New_Systems/rnas/2et3

>  <Rbt.Executable>
rbdock ($Id: //depot/dev/client3/rdock/2013.1/src/exe/rbdock.cxx#4 $)

>  <Rbt.Library>
libRbt.so (2013.1, Build901 2013/11/27)

>  <Rbt.Parameter_File>
/export/apps/rDock/src/rDock_2013.1_src/data/scripts/dock_solv.prm

>  <Rbt.Receptor>
prm/blind_docking_60.prm

>  <SCORE>
-1.8665

>  <SCORE.INTER>
-0.466398

>  <SCORE.INTER.CONST>
1

>  <SCORE.INTER.POLAR>
-0.187363

>  <SCORE.INTER.ROT>
6

>  <SCORE.INTER.SOLV>
24.9917

>  <SCORE.INTER.VDW>
-15.617

>  <SCORE.INTER.norm>
-0.0150451

>  <SCORE.INTRA>
-3.4888

>  <SCORE.INTRA.DIHEDRAL>
-15.5873

>  <SCORE.INTRA.DIHEDRAL.0>
22.2484

>  <SCORE.INTRA.POLAR>
0

>  <SCORE.INTRA.POLAR.0>
0

>  <SCORE.INTRA.REPUL>
0

>  <SCORE.INTRA.REPUL.0>
0

>  <SCORE.INTRA.SOLV>
-1.53096

>  <SCORE.INTRA.SOLV.lig_0>
-75.7198

>  <SCORE.INTRA.VDW>
5.07035

>  <SCORE.INTRA.VDW.0>
-3.34171

>  <SCORE.INTRA.norm>
-0.112542

>  <SCORE.RESTR>
2.08869

>  <SCORE.RESTR.CAVITY>
2.08869

>  <SCORE.RESTR.norm>
0.0673772

>  <SCORE.SYSTEM>
0

>  <SCORE.SYSTEM.CONST>
0

>  <SCORE.SYSTEM.DIHEDRAL>
0

>  <SCORE.SYSTEM.SOLV>
0

>  <SCORE.SYSTEM.norm>
0

>  <SCORE.heavy>
31

>  <SCORE.norm>
-0.0602098

>  <RMSD>
12.183

$$$$
2et3_lig
 OpenBabel11021811423D
libRbt.so/2013.1/901 2013/11/27
 31 33  0  0  0  0  0  0  0  0999 V2000
    6.2471   -0.3391   40.0343 C   0  0  2  0  0  0  0  0  0  0  0  0
    6.2699   -0.9181   38.7037 O   0  0  0  0  0  0  0  0  0  0  0  0
    2.8350   -2.8567   37.0455 C   0  0  2  0  0  0  0  0  0  0  0  0
    1.9018   -3.8942   36.7316 N   0  0  0  0  0  0  0  0  0  0  0  0
    1.3381   -1.0599   39.7680 C   0  0  2  0  0  0  0  0  0  0  0  0
    7.4378    0.6101   40.2068 C   0  0  2  0  0  0  0  0  0  0  0  0
    7.3872    1.5977   39.1732 N   0  0  0  0  0  0  0  0  0  0  0  0
    4.2419   -3.2305   36.4771 C   0  0  0  0  0  0  0  0  0  0  0  0
   -0.1974   -0.9666   39.9068 C   0  0  2  0  0  0  0  0  0  0  0  0
   -0.6591   -2.0819   40.6359 O   0  0  0  0  0  0  0  0  0  0  0  0
    8.7840   -0.1915   40.1828 C   0  0  0  0  0  0  0  0  0  0  0  0
    5.2769   -2.0989   36.8254 C   0  0  2  0  0  0  0  0  0  0  0  0
    6.6039   -2.4465   36.2926 N   0  0  0  0  0  0  0  0  0  0  0  0
   -0.8170   -0.9174   38.4506 C   0  0  1  0  0  0  0  0  0  0  0  0
   -2.3154   -0.8731   38.4932 N   0  0  0  0  0  0  0  0  0  0  0  0
    8.7557   -1.2179   41.3586 C   0  0  0  0  0  0  0  0  0  0  0  0
    5.3389   -1.9037   38.3889 C   0  0  2  0  0  0  0  0  0  0  0  0
   -0.2479    0.3663   37.6430 C   0  0  1  0  0  0  0  0  0  0  0  0
   -0.6200    1.5752   38.2718 O   0  0  0  0  0  0  0  0  0  0  0  0
    7.4942   -2.1707   41.1698 C   0  0  2  0  0  0  0  0  0  0  0  0
    6.2446   -1.4202   41.0577 O   0  0  0  0  0  0  0  0  0  0  0  0
    3.9059   -1.5301   38.9317 C   0  0  2  0  0  0  0  0  0  0  0  0
    3.9401   -1.3455   40.3432 O   0  0  0  0  0  0  0  0  0  0  0  0
    1.3107    0.3047   37.6206 C   0  0  0  0  0  0  0  0  0  0  0  0
    1.8524    0.1156   39.0075 O   0  0  0  0  0  0  0  0  0  0  0  0
    7.3551   -3.2306   42.2371 C   0  0  0  0  0  0  0  0  0  0  0  0
    6.1662   -4.0212   42.0544 N   0  0  0  0  0  0  0  0  0  0  0  0
    2.8876   -2.6690   38.5735 C   0  0  1  0  0  0  0  0  0  0  0  0
    1.6016   -2.3105   39.0645 O   0  0  0  0  0  0  0  0  0  0  0  0
   -0.7419    0.5523   36.2019 C   0  0  0  0  0  0  0  0  0  0  0  0
   -3.0360   -2.0578   37.9977 C   0  0  0  0  0  0  0  0  0  0  0  0
  1  2  1  6  0  0  0
  1  6  1  0  0  0  0
  1 21  1  0  0  0  0
  3  4  1  1  0  0  0
  3  8  1  0  0  0  0
  3 28  1  0  0  0  0
  5  9  1  0  0  0  0
  5 25  1  0  0  0  0
  5 29  1  6  0  0  0
  6  7  1  6  0  0  0
  6 11  1  0  0  0  0
  8 12  1  0  0  0  0
  9 10  1  6  0  0  0
  9 14  1  0  0  0  0
 11 16  1  0  0  0  0
 12 13  1  1  0  0  0
 12 17  1  0  0  0  0
 14 15  1  1  0  0  0
 14 18  1  0  0  0  0
 15 31  1  0  0  0  0
 16 20  1  0  0  0  0
 17  2  1  6  0  0  0
 17 22  1  0  0  0  0
 18 19  1  1  0  0  0
 18 24  1  0  0  0  0
 18 30  1  0  0  0  0
 20 21  1  0  0  0  0
 20 26  1  1  0  0  0
 22 23  1  1  0  0  0
 22 28  1  0  0  0  0
 24 25  1  0  0  0  0
 26 27  1  0  0  0  0
 28 29  1  6  0  0  0
M  END
>  <CHROM.1>
174.19293927,170.69069279,-111.91859090,164.46022190,177.23190263,-119.68549923
3.39558640,-1.29965258,39.01049676,0.25366814,-0.03265370,1.70115727

>  <Name>
2et3_lig

>  <RI>
1.07224e+07

>  <Rbt.Current_Directory>
/home/itssahil/PROJECTS/Mol_Feturizer/New_Systems/rnas/2et3

>  <Rbt.Executable>
rbdock ($Id: //depot/dev/client3/rdock/2013.1/src/exe/rbdock.cxx#4 $)

>  <Rbt.Library>
libRbt.so (2013.1, Build901 2013/11/27)

>  <Rbt.Parameter_File>
/export/apps/rDock/src/rDock_2013.1_src/data/scripts/dock_solv.prm

>  <Rbt.Receptor>
prm/blind_docking_80.prm

>  <SCORE>
-3.74961

>  <SCORE.INTER>
-5.7414

>  <SCORE.INTER.CONST>
1

>  <SCORE.INTER.POLAR>
0

>  <SCORE.INTER.ROT>
6

>  <SCORE.INTER.SOLV>
14.6057

>  <SCORE.INTER.VDW>
-16.2962

>  <SCORE.INTER.norm>
-0.185206

>  <SCORE.INTRA>
-1.58613

>  <SCORE.INTRA.DIHEDRAL>
-12.0118

>  <SCORE.INTRA.DIHEDRAL.0>
22.2484

>  <SCORE.INTRA.POLAR>
0

>  <SCORE.INTRA.POLAR.0>
0

>  <SCORE.INTRA.REPUL>
0

>  <SCORE.INTRA.REPUL.0>
0

>  <SCORE.INTRA.SOLV>
-2.90567

>  <SCORE.INTRA.SOLV.lig_0>
-75.7198

>  <SCORE.INTRA.VDW>
5.87259

>  <SCORE.INTRA.VDW.0>
-3.34171

>  <SCORE.INTRA.norm>
-0.0511654

>  <SCORE.RESTR>
3.57792

>  <SCORE.RESTR.CAVITY>
3.57792

>  <SCORE.RESTR.norm>
0.115417

>  <SCORE.SYSTEM>
0

>  <SCORE.SYSTEM.CONST>
0

>  <SCORE.SYSTEM.DIHEDRAL>
0

>  <SCORE.SYSTEM.SOLV>
0

>  <SCORE.SYSTEM.norm>
0

>  <SCORE.heavy>
31

>  <SCORE.norm>
-0.120955

>  <RMSD>
12.197

$$$$
2et3_lig
 OpenBabel11021811423D
libRbt.so/2013.1/901 2013/11/27
 31 33  0  0  0  0  0  0  0  0999 V2000
    6.1631   -0.5198   39.3953 C   0  0  2  0  0  0  0  0  0  0  0  0
    6.3541   -1.6415   38.4945 O   0  0  0  0  0  0  0  0  0  0  0  0
    2.6382   -1.7147   36.3748 C   0  0  2  0  0  0  0  0  0  0  0  0
    1.5342   -2.2235   35.6211 N   0  0  0  0  0  0  0  0  0  0  0  0
    1.3111   -1.1270   39.3712 C   0  0  2  0  0  0  0  0  0  0  0  0
    7.4686    0.2728   39.5200 C   0  0  2  0  0  0  0  0  0  0  0  0
    7.8826    0.6784   38.2122 N   0  0  0  0  0  0  0  0  0  0  0  0
    3.9583   -1.9055   35.5605 C   0  0  0  0  0  0  0  0  0  0  0  0
   -0.2147   -0.8974   39.4402 C   0  0  2  0  0  0  0  0  0  0  0  0
   -0.8328   -2.0725   39.9150 O   0  0  0  0  0  0  0  0  0  0  0  0
    8.5639   -0.5872   40.2385 C   0  0  0  0  0  0  0  0  0  0  0  0
    5.1793   -1.3565   36.3857 C   0  0  2  0  0  0  0  0  0  0  0  0
    6.4254   -1.5344   35.6232 N   0  0  0  0  0  0  0  0  0  0  0  0
   -0.7166   -0.5132   37.9884 C   0  0  1  0  0  0  0  0  0  0  0  0
   -2.2030   -0.3177   37.9557 N   0  0  0  0  0  0  0  0  0  0  0  0
    8.0340   -0.9538   41.6603 C   0  0  0  0  0  0  0  0  0  0  0  0
    5.2618   -2.1085   37.7693 C   0  0  2  0  0  0  0  0  0  0  0  0
    0.0299    0.8294   37.4749 C   0  0  1  0  0  0  0  0  0  0  0  0
   -0.2721    1.9338   38.3024 O   0  0  0  0  0  0  0  0  0  0  0  0
    6.6643   -1.7497   41.5014 C   0  0  2  0  0  0  0  0  0  0  0  0
    5.6797   -1.0071   40.7163 O   0  0  0  0  0  0  0  0  0  0  0  0
    3.9161   -1.8991   38.5650 C   0  0  2  0  0  0  0  0  0  0  0  0
    3.9707   -2.5678   39.8210 O   0  0  0  0  0  0  0  0  0  0  0  0
    1.5731    0.6068   37.5274 C   0  0  0  0  0  0  0  0  0  0  0  0
    1.9895    0.1072   38.8800 O   0  0  0  0  0  0  0  0  0  0  0  0
    6.0466   -2.1839   42.8097 C   0  0  0  0  0  0  0  0  0  0  0  0
    7.0045   -2.8364   43.6633 N   0  0  0  0  0  0  0  0  0  0  0  0
    2.7104   -2.4507   37.7260 C   0  0  1  0  0  0  0  0  0  0  0  0
    1.5071   -2.2464   38.4564 O   0  0  0  0  0  0  0  0  0  0  0  0
   -0.3354    1.3310   36.0711 C   0  0  0  0  0  0  0  0  0  0  0  0
   -2.9325   -0.9069   36.8204 C   0  0  0  0  0  0  0  0  0  0  0  0
  1  2  1  6  0  0  0
  1  6  1  0  0  0  0
  1 21  1  0  0  0  0
  3  4  1  6  0  0  0
  3  8  1  0  0  0  0
  3 28  1  0  0  0  0
  5  9  1  0  0  0  0
  5 25  1  0  0  0  0
  5 29  1  6  0  0  0
  6  7  1  6  0  0  0
  6 11  1  0  0  0  0
  8 12  1  0  0  0  0
  9 10  1  6  0  0  0
  9 14  1  0  0  0  0
 11 16  1  0  0  0  0
 12 13  1  6  0  0  0
 12 17  1  0  0  0  0
 14 15  1  1  0  0  0
 14 18  1  0  0  0  0
 15 31  1  0  0  0  0
 16 20  1  0  0  0  0
 17  2  1  1  0  0  0
 17 22  1  0  0  0  0
 18 19  1  1  0  0  0
 18 24  1  0  0  0  0
 18 30  1  0  0  0  0
 20 21  1  0  0  0  0
 20 26  1  1  0  0  0
 22 23  1  1  0  0  0
 22 28  1  0  0  0  0
 24 25  1  0  0  0  0
 26 27  1  0  0  0  0
 28 29  1  1  0  0  0
M  END
>  <CHROM.1>
-151.01492766,154.97573424,-136.42320808,90.48800821,-48.86634554,-89.29452774
3.32755863,-1.01597579,38.65686546,-0.35924456,0.06348993,-1.43089105

>  <Name>
2et3_lig

>  <RI>
1.07224e+07

>  <Rbt.Current_Directory>
/home/itssahil/PROJECTS/Mol_Feturizer/New_Systems/rnas/2et3

>  <Rbt.Executable>
rbdock ($Id: //depot/dev/client3/rdock/2013.1/src/exe/rbdock.cxx#4 $)

>  <Rbt.Library>
libRbt.so (2013.1, Build901 2013/11/27)

>  <Rbt.Parameter_File>
/export/apps/rDock/src/rDock_2013.1_src/data/scripts/dock_solv.prm

>  <Rbt.Receptor>
prm/blind_docking_80.prm

>  <SCORE>
-0.0842936

>  <SCORE.INTER>
-5.67123

>  <SCORE.INTER.CONST>
1

>  <SCORE.INTER.POLAR>
0

>  <SCORE.INTER.ROT>
6

>  <SCORE.INTER.SOLV>
6.41907

>  <SCORE.INTER.VDW>
-13.5205

>  <SCORE.INTER.norm>
-0.182943

>  <SCORE.INTRA>
0.788776

>  <SCORE.INTRA.DIHEDRAL>
-7.45923

>  <SCORE.INTRA.DIHEDRAL.0>
22.2484

>  <SCORE.INTRA.POLAR>
0

>  <SCORE.INTRA.POLAR.0>
0

>  <SCORE.INTRA.REPUL>
0.0378074

>  <SCORE.INTRA.REPUL.0>
0

>  <SCORE.INTRA.SOLV>
0.628089

>  <SCORE.INTRA.SOLV.lig_0>
-75.7198

>  <SCORE.INTRA.VDW>
4.01531

>  <SCORE.INTRA.VDW.0>
-3.34171

>  <SCORE.INTRA.norm>
0.0254444

>  <SCORE.RESTR>
4.79816

>  <SCORE.RESTR.CAVITY>
4.79816

>  <SCORE.RESTR.norm>
0.154779

>  <SCORE.SYSTEM>
0

>  <SCORE.SYSTEM.CONST>
0

>  <SCORE.SYSTEM.DIHEDRAL>
0

>  <SCORE.SYSTEM.SOLV>
0

>  <SCORE.SYSTEM.norm>
0

>  <SCORE.heavy>
31

>  <SCORE.norm>
-0.00271915

>  <RMSD>
12.262

$$$$
2et3_lig
 OpenBabel11021811423D
libRbt.so/2013.1/901 2013/11/27
 31 33  0  0  0  0  0  0  0  0999 V2000
    2.0354   -3.3939   35.2935 C   0  0  2  0  0  0  0  0  0  0  0  0
    1.4287   -2.9600   36.5384 O   0  0  0  0  0  0  0  0  0  0  0  0
    3.9632    0.3152   37.6133 C   0  0  2  0  0  0  0  0  0  0  0  0
    4.3883    1.5389   38.2194 N   0  0  0  0  0  0  0  0  0  0  0  0
    5.8258   -1.7733   39.1491 C   0  0  2  0  0  0  0  0  0  0  0  0
    2.1674   -4.9206   35.2857 C   0  0  2  0  0  0  0  0  0  0  0  0
    0.8731   -5.4914   35.4984 N   0  0  0  0  0  0  0  0  0  0  0  0
    2.7550    0.5957   36.6627 C   0  0  0  0  0  0  0  0  0  0  0  0
    6.3450   -2.4454   40.4392 C   0  0  2  0  0  0  0  0  0  0  0  0
    5.3071   -3.2160   41.0026 O   0  0  0  0  0  0  0  0  0  0  0  0
    3.1962   -5.3859   36.3722 C   0  0  0  0  0  0  0  0  0  0  0  0
    2.2750   -0.7464   35.9982 C   0  0  2  0  0  0  0  0  0  0  0  0
    1.1367   -0.4876   35.1021 N   0  0  0  0  0  0  0  0  0  0  0  0
    6.8314   -1.3037   41.4225 C   0  0  1  0  0  0  0  0  0  0  0  0
    7.3104   -1.8697   42.7260 N   0  0  0  0  0  0  0  0  0  0  0  0
    4.5765   -4.7375   36.0392 C   0  0  0  0  0  0  0  0  0  0  0  0
    1.8751   -1.7779   37.1218 C   0  0  2  0  0  0  0  0  0  0  0  0
    8.0092   -0.4331   40.7307 C   0  0  1  0  0  0  0  0  0  0  0  0
    9.1438   -1.2291   40.4574 O   0  0  0  0  0  0  0  0  0  0  0  0
    4.4033   -3.1549   36.0251 C   0  0  2  0  0  0  0  0  0  0  0  0
    3.3502   -2.7208   35.1086 O   0  0  0  0  0  0  0  0  0  0  0  0
    3.1126   -2.0379   38.0645 C   0  0  2  0  0  0  0  0  0  0  0  0
    2.7739   -2.9708   39.0857 O   0  0  0  0  0  0  0  0  0  0  0  0
    7.4925    0.1362   39.3733 C   0  0  0  0  0  0  0  0  0  0  0  0
    6.9101   -0.9588   38.5281 O   0  0  0  0  0  0  0  0  0  0  0  0
    5.6761   -2.3965   35.7308 C   0  0  0  0  0  0  0  0  0  0  0  0
    6.8406   -3.1068   36.1905 N   0  0  0  0  0  0  0  0  0  0  0  0
    3.5779   -0.6885   38.7163 C   0  0  1  0  0  0  0  0  0  0  0  0
    4.6976   -0.9427   39.5559 O   0  0  0  0  0  0  0  0  0  0  0  0
    8.5841    0.7295   41.5513 C   0  0  0  0  0  0  0  0  0  0  0  0
    6.7880   -1.2540   43.9573 C   0  0  0  0  0  0  0  0  0  0  0  0
  1  2  1  1  0  0  0
  1  6  1  0  0  0  0
  1 21  1  0  0  0  0
  3  4  1  1  0  0  0
  3  8  1  0  0  0  0
  3 28  1  0  0  0  0
  5  9  1  0  0  0  0
  5 25  1  0  0  0  0
  5 29  1  1  0  0  0
  6  7  1  1  0  0  0
  6 11  1  0  0  0  0
  8 12  1  0  0  0  0
  9 10  1  1  0  0  0
  9 14  1  0  0  0  0
 11 16  1  0  0  0  0
 12 13  1  6  0  0  0
 12 17  1  0  0  0  0
 14 15  1  1  0  0  0
 14 18  1  0  0  0  0
 15 31  1  0  0  0  0
 16 20  1  0  0  0  0
 17  2  1  6  0  0  0
 17 22  1  0  0  0  0
 18 19  1  6  0  0  0
 18 24  1  0  0  0  0
 18 30  1  0  0  0  0
 20 21  1  0  0  0  0
 20 26  1  6  0  0  0
 22 23  1  1  0  0  0
 22 28  1  0  0  0  0
 24 25  1  0  0  0  0
 26 27  1  0  0  0  0
 28 29  1  1  0  0  0
M  END
>  <CHROM.1>
142.88235122,-148.29519753,-131.14838817,34.09504137,-30.02656157,-74.61242709
4.65752006,-1.91051989,38.21361478,-2.76705432,-0.79615598,0.10750676

>  <Name>
2et3_lig

>  <RI>
0

>  <Rbt.Current_Directory>
/home/itssahil/PROJECTS/Mol_Feturizer/New_Systems/rnas/2et3

>  <Rbt.Executable>
rbdock ($Id: //depot/dev/client3/rdock/2013.1/src/exe/rbdock.cxx#4 $)

>  <Rbt.Library>
libRbt.so (2013.1, Build901 2013/11/27)

>  <Rbt.Parameter_File>
/export/apps/rDock/src/rDock_2013.1_src/data/scripts/dock_solv.prm

>  <Rbt.Receptor>
prm/blind_docking_100.prm

>  <SCORE>
-5.87137

>  <SCORE.INTER>
-11.655

>  <SCORE.INTER.CONST>
1

>  <SCORE.INTER.POLAR>
-0.688714

>  <SCORE.INTER.ROT>
6

>  <SCORE.INTER.SOLV>
16.1925

>  <SCORE.INTER.VDW>
-18.4718

>  <SCORE.INTER.norm>
-0.375969

>  <SCORE.INTRA>
4.80874

>  <SCORE.INTRA.DIHEDRAL>
-5.81607

>  <SCORE.INTRA.DIHEDRAL.0>
22.2484

>  <SCORE.INTRA.POLAR>
0

>  <SCORE.INTRA.POLAR.0>
0

>  <SCORE.INTRA.REPUL>
0

>  <SCORE.INTRA.REPUL.0>
0

>  <SCORE.INTRA.SOLV>
2.1126

>  <SCORE.INTRA.SOLV.lig_0>
-75.7198

>  <SCORE.INTRA.VDW>
6.66047

>  <SCORE.INTRA.VDW.0>
-3.34171

>  <SCORE.INTRA.norm>
0.155121

>  <SCORE.RESTR>
0.97494

>  <SCORE.RESTR.CAVITY>
0.97494

>  <SCORE.RESTR.norm>
0.0314497

>  <SCORE.SYSTEM>
0

>  <SCORE.SYSTEM.CONST>
0

>  <SCORE.SYSTEM.DIHEDRAL>
0

>  <SCORE.SYSTEM.SOLV>
0

>  <SCORE.SYSTEM.norm>
0

>  <SCORE.heavy>
31

>  <SCORE.norm>
-0.189399

>  <RMSD>
12.297

$$$$
2et3_lig
 OpenBabel11021811423D
libRbt.so/2013.1/901 2013/11/27
 31 33  0  0  0  0  0  0  0  0999 V2000
    2.3903   -4.6675   35.9923 C   0  0  2  0  0  0  0  0  0  0  0  0
    3.3460   -3.7797   35.3562 O   0  0  0  0  0  0  0  0  0  0  0  0
    4.9791    0.0671   36.2735 C   0  0  2  0  0  0  0  0  0  0  0  0
    5.0526    1.4137   36.7498 N   0  0  0  0  0  0  0  0  0  0  0  0
    5.4456   -0.0587   39.7083 C   0  0  2  0  0  0  0  0  0  0  0  0
    1.1503   -4.8161   35.1043 C   0  0  2  0  0  0  0  0  0  0  0  0
    1.5646   -5.2811   33.8165 N   0  0  0  0  0  0  0  0  0  0  0  0
    3.9022   -0.0295   35.1453 C   0  0  0  0  0  0  0  0  0  0  0  0
    6.8479    0.0693   40.3430 C   0  0  2  0  0  0  0  0  0  0  0  0
    7.6863    0.7799   39.4596 O   0  0  0  0  0  0  0  0  0  0  0  0
    0.3772   -3.4562   35.0128 C   0  0  0  0  0  0  0  0  0  0  0  0
    3.8083   -1.5093   34.6213 C   0  0  2  0  0  0  0  0  0  0  0  0
    2.7948   -1.6057   33.5587 N   0  0  0  0  0  0  0  0  0  0  0  0
    7.3913   -1.3910   40.6244 C   0  0  1  0  0  0  0  0  0  0  0  0
    8.7754   -1.3596   41.2009 N   0  0  0  0  0  0  0  0  0  0  0  0
   -0.0560   -3.0491   36.4562 C   0  0  0  0  0  0  0  0  0  0  0  0
    3.4518   -2.4713   35.8189 C   0  0  2  0  0  0  0  0  0  0  0  0
    6.3914   -2.1771   41.6274 C   0  0  1  0  0  0  0  0  0  0  0  0
    6.3145   -1.5353   42.8835 O   0  0  0  0  0  0  0  0  0  0  0  0
    1.2475   -2.9308   37.3626 C   0  0  2  0  0  0  0  0  0  0  0  0
    2.0463   -4.1552   37.3471 O   0  0  0  0  0  0  0  0  0  0  0  0
    4.5543   -2.3494   36.9402 C   0  0  2  0  0  0  0  0  0  0  0  0
    4.2534   -3.2139   38.0310 O   0  0  0  0  0  0  0  0  0  0  0  0
    4.9576   -2.1881   41.0129 C   0  0  0  0  0  0  0  0  0  0  0  0
    4.5360   -0.7996   40.6294 O   0  0  0  0  0  0  0  0  0  0  0  0
    0.9723   -2.5230   38.7908 C   0  0  0  0  0  0  0  0  0  0  0  0
    0.4119   -1.1996   38.8708 N   0  0  0  0  0  0  0  0  0  0  0  0
    4.6345   -0.8671   37.4487 C   0  0  1  0  0  0  0  0  0  0  0  0
    5.6378   -0.7766   38.4529 O   0  0  0  0  0  0  0  0  0  0  0  0
    6.7689   -3.6195   41.9915 C   0  0  0  0  0  0  0  0  0  0  0  0
    9.8939   -1.2196   40.2536 C   0  0  0  0  0  0  0  0  0  0  0  0
  1  2  1  6  0  0  0
  1  6  1  0  0  0  0
  1 21  1  0  0  0  0
  3  4  1  1  0  0  0
  3  8  1  0  0  0  0
  3 28  1  0  0  0  0
  5  9  1  0  0  0  0
  5 25  1  0  0  0  0
  5 29  1  6  0  0  0
  6  7  1  6  0  0  0
  6 11  1  0  0  0  0
  8 12  1  0  0  0  0
  9 10  1  6  0  0  0
  9 14  1  0  0  0  0
 11 16  1  0  0  0  0
 12 13  1  6  0  0  0
 12 17  1  0  0  0  0
 14 15  1  1  0  0  0
 14 18  1  0  0  0  0
 15 31  1  0  0  0  0
 16 20  1  0  0  0  0
 17  2  1  6  0  0  0
 17 22  1  0  0  0  0
 18 19  1  1  0  0  0
 18 24  1  0  0  0  0
 18 30  1  0  0  0  0
 20 21  1  0  0  0  0
 20 26  1  1  0  0  0
 22 23  1  1  0  0  0
 22 28  1  0  0  0  0
 24 25  1  0  0  0  0
 26 27  1  0  0  0  0
 28 29  1  1  0  0  0
M  END
>  <CHROM.1>
102.81634411,-167.26585145,-82.50989960,-147.01758895,-64.03201977,104.77302384
4.27225899,-1.95963703,38.00784431,2.59896136,-0.63532736,-1.18710060

>  <Name>
2et3_lig

>  <RI>
0

>  <Rbt.Current_Directory>
/home/itssahil/PROJECTS/Mol_Feturizer/New_Systems/rnas/2et3

>  <Rbt.Executable>
rbdock ($Id: //depot/dev/client3/rdock/2013.1/src/exe/rbdock.cxx#4 $)

>  <Rbt.Library>
libRbt.so (2013.1, Build901 2013/11/27)

>  <Rbt.Parameter_File>
/export/apps/rDock/src/rDock_2013.1_src/data/scripts/dock_solv.prm

>  <Rbt.Receptor>
prm/blind_docking_60.prm

>  <SCORE>
-8.74349

>  <SCORE.INTER>
-9.93658

>  <SCORE.INTER.CONST>
1

>  <SCORE.INTER.POLAR>
-2.06232

>  <SCORE.INTER.ROT>
6

>  <SCORE.INTER.SOLV>
18.137

>  <SCORE.INTER.VDW>
-13.3957

>  <SCORE.INTER.norm>
-0.320535

>  <SCORE.INTRA>
-1.19391

>  <SCORE.INTRA.DIHEDRAL>
-4.85386

>  <SCORE.INTRA.DIHEDRAL.0>
22.2484

>  <SCORE.INTRA.POLAR>
0

>  <SCORE.INTRA.POLAR.0>
0

>  <SCORE.INTRA.REPUL>
0

>  <SCORE.INTRA.REPUL.0>
0

>  <SCORE.INTRA.SOLV>
0.0259168

>  <SCORE.INTRA.SOLV.lig_0>
-75.7198

>  <SCORE.INTRA.VDW>
1.22007

>  <SCORE.INTRA.VDW.0>
-3.34171

>  <SCORE.INTRA.norm>
-0.0385131

>  <SCORE.RESTR>
2.38699

>  <SCORE.RESTR.CAVITY>
2.38699

>  <SCORE.RESTR.norm>
0.0769997

>  <SCORE.SYSTEM>
0

>  <SCORE.SYSTEM.CONST>
0

>  <SCORE.SYSTEM.DIHEDRAL>
0

>  <SCORE.SYSTEM.SOLV>
0

>  <SCORE.SYSTEM.norm>
0

>  <SCORE.heavy>
31

>  <SCORE.norm>
-0.282048

>  <RMSD>
12.357

$$$$
2et3_lig
 OpenBabel11021811423D
libRbt.so/2013.1/901 2013/11/27
 31 33  0  0  0  0  0  0  0  0999 V2000
    2.9989   -4.4948   36.2957 C   0  0  2  0  0  0  0  0  0  0  0  0
    3.5737   -3.4789   35.4333 O   0  0  0  0  0  0  0  0  0  0  0  0
    4.8610    0.5333   36.1762 C   0  0  2  0  0  0  0  0  0  0  0  0
    4.8284    1.8900   36.6275 N   0  0  0  0  0  0  0  0  0  0  0  0
    5.5524    0.3878   39.6354 C   0  0  2  0  0  0  0  0  0  0  0  0
    1.8803   -5.2330   35.5527 C   0  0  2  0  0  0  0  0  0  0  0  0
    2.4167   -5.7744   34.3422 N   0  0  0  0  0  0  0  0  0  0  0  0
    3.7219    0.3032   35.1313 C   0  0  0  0  0  0  0  0  0  0  0  0
    6.8863    0.2023   40.3917 C   0  0  2  0  0  0  0  0  0  0  0  0
    7.9091    0.8669   39.6842 O   0  0  0  0  0  0  0  0  0  0  0  0
    0.6771   -4.2676   35.2774 C   0  0  0  0  0  0  0  0  0  0  0  0
    3.7446   -1.1891   34.6357 C   0  0  2  0  0  0  0  0  0  0  0  0
    2.6732   -1.4111   33.6516 N   0  0  0  0  0  0  0  0  0  0  0  0
    7.1671   -1.3513   40.5122 C   0  0  1  0  0  0  0  0  0  0  0  0
    8.4740   -1.6211   41.1964 N   0  0  0  0  0  0  0  0  0  0  0  0
    0.1452   -3.7548   36.6525 C   0  0  0  0  0  0  0  0  0  0  0  0
    3.5762   -2.1571   35.8691 C   0  0  2  0  0  0  0  0  0  0  0  0
    5.9619   -2.0776   41.3145 C   0  0  1  0  0  0  0  0  0  0  0  0
    5.8582   -1.5911   42.6367 O   0  0  0  0  0  0  0  0  0  0  0  0
    1.3342   -3.0191   37.4139 C   0  0  2  0  0  0  0  0  0  0  0  0
    2.5124   -3.8726   37.5575 O   0  0  0  0  0  0  0  0  0  0  0  0
    4.7375   -1.8994   36.9049 C   0  0  2  0  0  0  0  0  0  0  0  0
    4.6065   -2.7670   38.0265 O   0  0  0  0  0  0  0  0  0  0  0  0
    4.6130   -1.7749   40.5918 C   0  0  0  0  0  0  0  0  0  0  0  0
    4.4512   -0.2993   40.3703 O   0  0  0  0  0  0  0  0  0  0  0  0
    0.9496   -2.4546   38.7612 C   0  0  0  0  0  0  0  0  0  0  0  0
    1.9723   -1.5917   39.2915 N   0  0  0  0  0  0  0  0  0  0  0  0
    4.6998   -0.4064   37.3860 C   0  0  1  0  0  0  0  0  0  0  0  0
    5.7576   -0.1925   38.3127 O   0  0  0  0  0  0  0  0  0  0  0  0
    6.0739   -3.5963   41.5059 C   0  0  0  0  0  0  0  0  0  0  0  0
    8.5075   -1.4747   42.6612 C   0  0  0  0  0  0  0  0  0  0  0  0
  1  2  1  6  0  0  0
  1  6  1  0  0  0  0
  1 21  1  0  0  0  0
  3  4  1  1  0  0  0
  3  8  1  0  0  0  0
  3 28  1  0  0  0  0
  5  9  1  0  0  0  0
  5 25  1  0  0  0  0
  5 29  1  6  0  0  0
  6  7  1  6  0  0  0
  6 11  1  0  0  0  0
  8 12  1  0  0  0  0
  9 10  1  6  0  0  0
  9 14  1  0  0  0  0
 11 16  1  0  0  0  0
 12 13  1  6  0  0  0
 12 17  1  0  0  0  0
 14 15  1  1  0  0  0
 14 18  1  0  0  0  0
 15 31  1  0  0  0  0
 16 20  1  0  0  0  0
 17  2  1  6  0  0  0
 17 22  1  0  0  0  0
 18 19  1  1  0  0  0
 18 24  1  0  0  0  0
 18 30  1  0  0  0  0
 20 21  1  0  0  0  0
 20 26  1  1  0  0  0
 22 23  1  1  0  0  0
 22 28  1  0  0  0  0
 24 25  1  0  0  0  0
 26 27  1  0  0  0  0
 28 29  1  1  0  0  0
M  END
>  <CHROM.1>
122.89398641,169.91215819,77.13099381,-159.71265671,-169.09617218,112.19820129
4.32074868,-1.85578643,38.10528336,2.76497360,-0.83388908,-0.92401938

>  <Name>
2et3_lig

>  <RI>
0

>  <Rbt.Current_Directory>
/home/itssahil/PROJECTS/Mol_Feturizer/New_Systems/rnas/2et3

>  <Rbt.Executable>
rbdock ($Id: //depot/dev/client3/rdock/2013.1/src/exe/rbdock.cxx#4 $)

>  <Rbt.Library>
libRbt.so (2013.1, Build901 2013/11/27)

>  <Rbt.Parameter_File>
/export/apps/rDock/src/rDock_2013.1_src/data/scripts/dock_solv.prm

>  <Rbt.Receptor>
prm/blind_docking_100.prm

>  <SCORE>
0.963197

>  <SCORE.INTER>
-5.17607

>  <SCORE.INTER.CONST>
1

>  <SCORE.INTER.POLAR>
-2.10831

>  <SCORE.INTER.ROT>
6

>  <SCORE.INTER.SOLV>
22.7113

>  <SCORE.INTER.VDW>
-11.5934

>  <SCORE.INTER.norm>
-0.16697

>  <SCORE.INTRA>
3.50856

>  <SCORE.INTRA.DIHEDRAL>
-5.11723

>  <SCORE.INTRA.DIHEDRAL.0>
22.2484

>  <SCORE.INTRA.POLAR>
0

>  <SCORE.INTRA.POLAR.0>
0

>  <SCORE.INTRA.REPUL>
0

>  <SCORE.INTRA.REPUL.0>
0

>  <SCORE.INTRA.SOLV>
2.88628

>  <SCORE.INTRA.SOLV.lig_0>
-75.7198

>  <SCORE.INTRA.VDW>
4.62403

>  <SCORE.INTRA.VDW.0>
-3.34171

>  <SCORE.INTRA.norm>
0.113179

>  <SCORE.RESTR>
2.63071

>  <SCORE.RESTR.CAVITY>
2.63071

>  <SCORE.RESTR.norm>
0.0848617

>  <SCORE.SYSTEM>
0

>  <SCORE.SYSTEM.CONST>
0

>  <SCORE.SYSTEM.DIHEDRAL>
0

>  <SCORE.SYSTEM.SOLV>
0

>  <SCORE.SYSTEM.norm>
0

>  <SCORE.heavy>
31

>  <SCORE.norm>
0.0310709

>  <RMSD>
12.422

$$$$
2et3_lig
 OpenBabel11021811423D
libRbt.so/2013.1/901 2013/11/27
 31 33  0  0  0  0  0  0  0  0999 V2000
    5.0130   -1.4534   39.8369 C   0  0  2  0  0  0  0  0  0  0  0  0
    4.6971   -2.6125   39.0228 O   0  0  0  0  0  0  0  0  0  0  0  0
    2.6581   -2.6846   35.2620 C   0  0  2  0  0  0  0  0  0  0  0  0
    1.5964   -2.5741   34.3100 N   0  0  0  0  0  0  0  0  0  0  0  0
    2.3713    0.7972   34.6341 C   0  0  2  0  0  0  0  0  0  0  0  0
    5.9660   -1.8578   40.9668 C   0  0  2  0  0  0  0  0  0  0  0  0
    7.1275   -2.4612   40.3898 N   0  0  0  0  0  0  0  0  0  0  0  0
    2.2997   -3.7785   36.3189 C   0  0  0  0  0  0  0  0  0  0  0  0
    2.4854    1.7643   35.8331 C   0  0  2  0  0  0  0  0  0  0  0  0
    3.8340    2.1474   35.9845 O   0  0  0  0  0  0  0  0  0  0  0  0
    5.2456   -2.8211   41.9710 C   0  0  0  0  0  0  0  0  0  0  0  0
    3.4582   -3.9008   37.3753 C   0  0  2  0  0  0  0  0  0  0  0  0
    3.1253   -4.9296   38.3735 N   0  0  0  0  0  0  0  0  0  0  0  0
    1.9377    1.0168   37.1169 C   0  0  1  0  0  0  0  0  0  0  0  0
    2.0562    1.8729   38.3424 N   0  0  0  0  0  0  0  0  0  0  0  0
    4.0155   -2.0663   42.5660 C   0  0  0  0  0  0  0  0  0  0  0  0
    3.6873   -2.5043   38.0710 C   0  0  2  0  0  0  0  0  0  0  0  0
    0.3941    0.5794   36.8942 C   0  0  1  0  0  0  0  0  0  0  0  0
   -0.4376    1.7060   36.7081 O   0  0  0  0  0  0  0  0  0  0  0  0
    3.0589   -1.6330   41.3694 C   0  0  2  0  0  0  0  0  0  0  0  0
    3.7593   -0.8430   40.3581 O   0  0  0  0  0  0  0  0  0  0  0  0
    4.0444   -1.4229   36.9797 C   0  0  2  0  0  0  0  0  0  0  0  0
    4.2592   -0.1533   37.5878 O   0  0  0  0  0  0  0  0  0  0  0  0
    0.2934   -0.3004   35.6100 C   0  0  0  0  0  0  0  0  0  0  0  0
    0.9502    0.3845   34.4471 O   0  0  0  0  0  0  0  0  0  0  0  0
    1.8114   -0.9032   41.8087 C   0  0  0  0  0  0  0  0  0  0  0  0
    0.6762   -1.2447   40.9923 N   0  0  0  0  0  0  0  0  0  0  0  0
    2.8788   -1.3166   35.9347 C   0  0  1  0  0  0  0  0  0  0  0  0
    3.2225   -0.3429   34.9564 O   0  0  0  0  0  0  0  0  0  0  0  0
   -0.2854   -0.1733   38.0464 C   0  0  0  0  0  0  0  0  0  0  0  0
    3.4053    2.0612   38.9015 C   0  0  0  0  0  0  0  0  0  0  0  0
  1  2  1  1  0  0  0
  1  6  1  0  0  0  0
  1 21  1  0  0  0  0
  3  4  1  6  0  0  0
  3  8  1  0  0  0  0
  3 28  1  0  0  0  0
  5  9  1  0  0  0  0
  5 25  1  0  0  0  0
  5 29  1  1  0  0  0
  6  7  1  6  0  0  0
  6 11  1  0  0  0  0
  8 12  1  0  0  0  0
  9 10  1  1  0  0  0
  9 14  1  0  0  0  0
 11 16  1  0  0  0  0
 12 13  1  1  0  0  0
 12 17  1  0  0  0  0
 14 15  1  1  0  0  0
 14 18  1  0  0  0  0
 15 31  1  0  0  0  0
 16 20  1  0  0  0  0
 17  2  1  1  0  0  0
 17 22  1  0  0  0  0
 18 19  1  6  0  0  0
 18 24  1  0  0  0  0
 18 30  1  0  0  0  0
 20 21  1  0  0  0  0
 20 26  1  1  0  0  0
 22 23  1  1  0  0  0
 22 28  1  0  0  0  0
 24 25  1  0  0  0  0
 26 27  1  0  0  0  0
 28 29  1  6  0  0  0
M  END
>  <CHROM.1>
170.16042276,72.86311934,-73.43811472,-176.44969085,-143.79767117,114.55828968
2.88280549,-0.91684426,37.95348800,0.55686190,-1.00249169,1.09314685

>  <Name>
2et3_lig

>  <RI>
0

>  <Rbt.Current_Directory>
/home/itssahil/PROJECTS/Mol_Feturizer/New_Systems/rnas/2et3

>  <Rbt.Executable>
rbdock ($Id: //depot/dev/client3/rdock/2013.1/src/exe/rbdock.cxx#4 $)

>  <Rbt.Library>
libRbt.so (2013.1, Build901 2013/11/27)

>  <Rbt.Parameter_File>
/export/apps/rDock/src/rDock_2013.1_src/data/scripts/dock_solv.prm

>  <Rbt.Receptor>
prm/blind_docking_60.prm

>  <SCORE>
-9.03289

>  <SCORE.INTER>
-9.29709

>  <SCORE.INTER.CONST>
1

>  <SCORE.INTER.POLAR>
0

>  <SCORE.INTER.ROT>
6

>  <SCORE.INTER.SOLV>
23.1179

>  <SCORE.INTER.VDW>
-21.504

>  <SCORE.INTER.norm>
-0.299906

>  <SCORE.INTRA>
-0.0193216

>  <SCORE.INTRA.DIHEDRAL>
-10.2051

>  <SCORE.INTRA.DIHEDRAL.0>
22.2484

>  <SCORE.INTRA.POLAR>
0

>  <SCORE.INTRA.POLAR.0>
0

>  <SCORE.INTRA.REPUL>
0

>  <SCORE.INTRA.REPUL.0>
0

>  <SCORE.INTRA.SOLV>
1.43363

>  <SCORE.INTRA.SOLV.lig_0>
-75.7198

>  <SCORE.INTRA.VDW>
4.36641

>  <SCORE.INTRA.VDW.0>
-3.34171

>  <SCORE.INTRA.norm>
-0.000623277

>  <SCORE.RESTR>
0.283521

>  <SCORE.RESTR.CAVITY>
0.283521

>  <SCORE.RESTR.norm>
0.00914583

>  <SCORE.SYSTEM>
0

>  <SCORE.SYSTEM.CONST>
0

>  <SCORE.SYSTEM.DIHEDRAL>
0

>  <SCORE.SYSTEM.SOLV>
0

>  <SCORE.SYSTEM.norm>
0

>  <SCORE.heavy>
31

>  <SCORE.norm>
-0.291384

>  <RMSD>
12.425

$$$$
2et3_lig
 OpenBabel11021811423D
libRbt.so/2013.1/901 2013/11/27
 31 33  0  0  0  0  0  0  0  0999 V2000
    2.6638   -1.3248   34.7677 C   0  0  2  0  0  0  0  0  0  0  0  0
    2.7098   -0.4464   35.9220 O   0  0  0  0  0  0  0  0  0  0  0  0
    2.3840   -0.8101   40.1726 C   0  0  2  0  0  0  0  0  0  0  0  0
    2.1197   -1.3917   41.4523 N   0  0  0  0  0  0  0  0  0  0  0  0
    5.8461   -2.4181   39.9029 C   0  0  2  0  0  0  0  0  0  0  0  0
    1.2223   -1.7836   34.5228 C   0  0  2  0  0  0  0  0  0  0  0  0
    0.3950   -0.6266   34.3704 N   0  0  0  0  0  0  0  0  0  0  0  0
    1.0686   -0.7841   39.3293 C   0  0  0  0  0  0  0  0  0  0  0  0
    6.5824   -2.6717   41.2368 C   0  0  2  0  0  0  0  0  0  0  0  0
    5.7175   -3.3594   42.1127 O   0  0  0  0  0  0  0  0  0  0  0  0
    0.7335   -2.7002   35.6960 C   0  0  0  0  0  0  0  0  0  0  0  0
    1.3518   -0.1539   37.9166 C   0  0  2  0  0  0  0  0  0  0  0  0
    0.1159   -0.1275   37.1182 N   0  0  0  0  0  0  0  0  0  0  0  0
    7.0236   -1.2695   41.8250 C   0  0  1  0  0  0  0  0  0  0  0  0
    7.7084   -1.4216   43.1505 N   0  0  0  0  0  0  0  0  0  0  0  0
    1.6762   -3.9426   35.7629 C   0  0  0  0  0  0  0  0  0  0  0  0
    2.4709   -0.9872   37.1820 C   0  0  2  0  0  0  0  0  0  0  0  0
    8.0000   -0.5067   40.7817 C   0  0  1  0  0  0  0  0  0  0  0  0
    9.1901   -1.2361   40.5644 O   0  0  0  0  0  0  0  0  0  0  0  0
    3.1685   -3.4355   35.9881 C   0  0  2  0  0  0  0  0  0  0  0  0
    3.5872   -2.4750   34.9687 O   0  0  0  0  0  0  0  0  0  0  0  0
    3.7828   -0.9965   38.0577 C   0  0  2  0  0  0  0  0  0  0  0  0
    4.8090   -1.7416   37.4100 O   0  0  0  0  0  0  0  0  0  0  0  0
    7.2718   -0.3692   39.4090 C   0  0  0  0  0  0  0  0  0  0  0  0
    6.7450   -1.6991   38.9544 O   0  0  0  0  0  0  0  0  0  0  0  0
    4.1892   -4.5443   36.0899 C   0  0  0  0  0  0  0  0  0  0  0  0
    3.8807   -5.4593   37.1573 N   0  0  0  0  0  0  0  0  0  0  0  0
    3.4803   -1.6266   39.4625 C   0  0  1  0  0  0  0  0  0  0  0  0
    4.6723   -1.6193   40.2387 O   0  0  0  0  0  0  0  0  0  0  0  0
    8.5082    0.8808   41.1968 C   0  0  0  0  0  0  0  0  0  0  0  0
    8.6239   -2.5644   43.3056 C   0  0  0  0  0  0  0  0  0  0  0  0
  1  2  1  1  0  0  0
  1  6  1  0  0  0  0
  1 21  1  0  0  0  0
  3  4  1  1  0  0  0
  3  8  1  0  0  0  0
  3 28  1  0  0  0  0
  5  9  1  0  0  0  0
  5 25  1  0  0  0  0
  5 29  1  1  0  0  0
  6  7  1  1  0  0  0
  6 11  1  0  0  0  0
  8 12  1  0  0  0  0
  9 10  1  1  0  0  0
  9 14  1  0  0  0  0
 11 16  1  0  0  0  0
 12 13  1  6  0  0  0
 12 17  1  0  0  0  0
 14 15  1  1  0  0  0
 14 18  1  0  0  0  0
 15 31  1  0  0  0  0
 16 20  1  0  0  0  0
 17  2  1  6  0  0  0
 17 22  1  0  0  0  0
 18 19  1  6  0  0  0
 18 24  1  0  0  0  0
 18 30  1  0  0  0  0
 20 21  1  0  0  0  0
 20 26  1  6  0  0  0
 22 23  1  6  0  0  0
 22 28  1  0  0  0  0
 24 25  1  0  0  0  0
 26 27  1  0  0  0  0
 28 29  1  1  0  0  0
M  END
>  <CHROM.1>
69.05257404,-153.32643965,39.23835648,-127.75963416,-57.86549659,173.41548932
4.30152940,-1.73662933,38.59641995,-2.44753768,-0.38672636,1.07579597

>  <Name>
2et3_lig

>  <RI>
0

>  <Rbt.Current_Directory>
/home/itssahil/PROJECTS/Mol_Feturizer/New_Systems/rnas/2et3

>  <Rbt.Executable>
rbdock ($Id: //depot/dev/client3/rdock/2013.1/src/exe/rbdock.cxx#4 $)

>  <Rbt.Library>
libRbt.so (2013.1, Build901 2013/11/27)

>  <Rbt.Parameter_File>
/export/apps/rDock/src/rDock_2013.1_src/data/scripts/dock_solv.prm

>  <Rbt.Receptor>
prm/blind_docking_60.prm

>  <SCORE>
-10.2762

>  <SCORE.INTER>
-11.4046

>  <SCORE.INTER.CONST>
1

>  <SCORE.INTER.POLAR>
-0.916515

>  <SCORE.INTER.ROT>
6

>  <SCORE.INTER.SOLV>
19.7456

>  <SCORE.INTER.VDW>
-18.7299

>  <SCORE.INTER.norm>
-0.367892

>  <SCORE.INTRA>
-0.193706

>  <SCORE.INTRA.DIHEDRAL>
-11.2653

>  <SCORE.INTRA.DIHEDRAL.0>
22.2484

>  <SCORE.INTRA.POLAR>
0

>  <SCORE.INTRA.POLAR.0>
0

>  <SCORE.INTRA.REPUL>
0

>  <SCORE.INTRA.REPUL.0>
0

>  <SCORE.INTRA.SOLV>
2.32642

>  <SCORE.INTRA.SOLV.lig_0>
-75.7198

>  <SCORE.INTRA.VDW>
4.27572

>  <SCORE.INTRA.VDW.0>
-3.34171

>  <SCORE.INTRA.norm>
-0.00624858

>  <SCORE.RESTR>
1.32218

>  <SCORE.RESTR.CAVITY>
1.32218

>  <SCORE.RESTR.norm>
0.042651

>  <SCORE.SYSTEM>
0

>  <SCORE.SYSTEM.CONST>
0

>  <SCORE.SYSTEM.DIHEDRAL>
0

>  <SCORE.SYSTEM.SOLV>
0

>  <SCORE.SYSTEM.norm>
0

>  <SCORE.heavy>
31

>  <SCORE.norm>
-0.331489

>  <RMSD>
12.463

$$$$
2et3_lig
 OpenBabel11021811423D
libRbt.so/2013.1/901 2013/11/27
 31 33  0  0  0  0  0  0  0  0999 V2000
    3.0569   -4.5331   36.3139 C   0  0  2  0  0  0  0  0  0  0  0  0
    3.6355   -3.5220   35.4485 O   0  0  0  0  0  0  0  0  0  0  0  0
    4.8128    0.5346   36.1303 C   0  0  2  0  0  0  0  0  0  0  0  0
    4.7405    1.8985   36.5548 N   0  0  0  0  0  0  0  0  0  0  0  0
    5.4595    0.4610   39.6052 C   0  0  2  0  0  0  0  0  0  0  0  0
    1.9329   -5.2667   35.5744 C   0  0  2  0  0  0  0  0  0  0  0  0
    2.4642   -5.8133   34.3640 N   0  0  0  0  0  0  0  0  0  0  0  0
    3.6939    0.2562   35.0754 C   0  0  0  0  0  0  0  0  0  0  0  0
    6.8368    0.5166   40.3021 C   0  0  2  0  0  0  0  0  0  0  0  0
    7.7095    1.3081   39.5273 O   0  0  0  0  0  0  0  0  0  0  0  0
    0.7345   -4.2954   35.2996 C   0  0  0  0  0  0  0  0  0  0  0  0
    3.7603   -1.2442   34.6091 C   0  0  2  0  0  0  0  0  0  0  0  0
    2.7080   -1.5116   33.6157 N   0  0  0  0  0  0  0  0  0  0  0  0
    7.3668   -0.9676   40.4549 C   0  0  1  0  0  0  0  0  0  0  0  0
    8.7279   -1.0021   41.0835 N   0  0  0  0  0  0  0  0  0  0  0  0
    0.2079   -3.7771   36.6746 C   0  0  0  0  0  0  0  0  0  0  0  0
    3.5994   -2.1925   35.8587 C   0  0  2  0  0  0  0  0  0  0  0  0
    6.3281   -1.8453   41.3349 C   0  0  1  0  0  0  0  0  0  0  0  0
    6.2043   -1.3331   42.6455 O   0  0  0  0  0  0  0  0  0  0  0  0
    1.4022   -3.0464   37.4324 C   0  0  2  0  0  0  0  0  0  0  0  0
    2.5761   -3.9059   37.5755 O   0  0  0  0  0  0  0  0  0  0  0  0
    4.7399   -1.8861   36.9043 C   0  0  2  0  0  0  0  0  0  0  0  0
    4.6154   -2.7352   38.0406 O   0  0  0  0  0  0  0  0  0  0  0  0
    4.9187   -1.7864   40.6687 C   0  0  0  0  0  0  0  0  0  0  0  0
    4.5143   -0.3641   40.4118 O   0  0  0  0  0  0  0  0  0  0  0  0
    1.0232   -2.4772   38.7793 C   0  0  0  0  0  0  0  0  0  0  0  0
    2.1090   -1.7437   39.3750 N   0  0  0  0  0  0  0  0  0  0  0  0
    4.6588   -0.3856   37.3559 C   0  0  1  0  0  0  0  0  0  0  0  0
    5.6984   -0.1277   38.2919 O   0  0  0  0  0  0  0  0  0  0  0  0
    6.6890   -3.3191   41.5654 C   0  0  0  0  0  0  0  0  0  0  0  0
    9.7105   -1.9341   40.5057 C   0  0  0  0  0  0  0  0  0  0  0  0
  1  2  1  6  0  0  0
  1  6  1  0  0  0  0
  1 21  1  0  0  0  0
  3  4  1  1  0  0  0
  3  8  1  0  0  0  0
  3 28  1  0  0  0  0
  5  9  1  0  0  0  0
  5 25  1  0  0  0  0
  5 29  1  6  0  0  0
  6  7  1  6  0  0  0
  6 11  1  0  0  0  0
  8 12  1  0  0  0  0
  9 10  1  6  0  0  0
  9 14  1  0  0  0  0
 11 16  1  0  0  0  0
 12 13  1  6  0  0  0
 12 17  1  0  0  0  0
 14 15  1  1  0  0  0
 14 18  1  0  0  0  0
 15 31  1  0  0  0  0
 16 20  1  0  0  0  0
 17  2  1  6  0  0  0
 17 22  1  0  0  0  0
 18 19  1  1  0  0  0
 18 24  1  0  0  0  0
 18 30  1  0  0  0  0
 20 21  1  0  0  0  0
 20 26  1  1  0  0  0
 22 23  1  1  0  0  0
 22 28  1  0  0  0  0
 24 25  1  0  0  0  0
 26 27  1  0  0  0  0
 28 29  1  1  0  0  0
M  END
>  <CHROM.1>
120.43393173,178.03304876,-137.63722503,-158.81613476,-175.69270932,112.77599644
4.43674003,-1.80681826,38.02292122,2.86336344,-0.81597148,-0.87635390

>  <Name>
2et3_lig

>  <RI>
0

>  <Rbt.Current_Directory>
/home/itssahil/PROJECTS/Mol_Feturizer/New_Systems/rnas/2et3

>  <Rbt.Executable>
rbdock ($Id: //depot/dev/client3/rdock/2013.1/src/exe/rbdock.cxx#4 $)

>  <Rbt.Library>
libRbt.so (2013.1, Build901 2013/11/27)

>  <Rbt.Parameter_File>
/export/apps/rDock/src/rDock_2013.1_src/data/scripts/dock_solv.prm

>  <Rbt.Receptor>
prm/blind_docking_100.prm

>  <SCORE>
-3.36071

>  <SCORE.INTER>
-6.12107

>  <SCORE.INTER.CONST>
1

>  <SCORE.INTER.POLAR>
-2.08026

>  <SCORE.INTER.ROT>
6

>  <SCORE.INTER.SOLV>
23.0854

>  <SCORE.INTER.VDW>
-12.4416

>  <SCORE.INTER.norm>
-0.197454

>  <SCORE.INTRA>
0.144333

>  <SCORE.INTRA.DIHEDRAL>
-4.97581

>  <SCORE.INTRA.DIHEDRAL.0>
22.2484

>  <SCORE.INTRA.POLAR>
0

>  <SCORE.INTRA.POLAR.0>
0

>  <SCORE.INTRA.REPUL>
0

>  <SCORE.INTRA.REPUL.0>
0

>  <SCORE.INTRA.SOLV>
2.97123

>  <SCORE.INTRA.SOLV.lig_0>
-75.7198

>  <SCORE.INTRA.VDW>
1.14663

>  <SCORE.INTRA.VDW.0>
-3.34171

>  <SCORE.INTRA.norm>
0.00465591

>  <SCORE.RESTR>
2.61603

>  <SCORE.RESTR.CAVITY>
2.61603

>  <SCORE.RESTR.norm>
0.0843881

>  <SCORE.SYSTEM>
0

>  <SCORE.SYSTEM.CONST>
0

>  <SCORE.SYSTEM.DIHEDRAL>
0

>  <SCORE.SYSTEM.SOLV>
0

>  <SCORE.SYSTEM.norm>
0

>  <SCORE.heavy>
31

>  <SCORE.norm>
-0.10841

>  <RMSD>
12.511

$$$$
2et3_lig
 OpenBabel11021811423D
libRbt.so/2013.1/901 2013/11/27
 31 33  0  0  0  0  0  0  0  0999 V2000
    1.5143   -1.4940   40.3552 C   0  0  2  0  0  0  0  0  0  0  0  0
    1.8159   -0.1387   39.9330 O   0  0  0  0  0  0  0  0  0  0  0  0
    3.4678    1.3297   36.2694 C   0  0  2  0  0  0  0  0  0  0  0  0
    4.3896    1.5078   35.1905 N   0  0  0  0  0  0  0  0  0  0  0  0
    2.9880   -1.4344   34.1393 C   0  0  2  0  0  0  0  0  0  0  0  0
    0.2915   -1.4890   41.2788 C   0  0  2  0  0  0  0  0  0  0  0  0
   -0.7981   -0.8692   40.5898 N   0  0  0  0  0  0  0  0  0  0  0  0
    4.1451    1.7588   37.6109 C   0  0  0  0  0  0  0  0  0  0  0  0
    2.0241   -2.6389   34.0641 C   0  0  2  0  0  0  0  0  0  0  0  0
    0.7590   -2.1860   33.6366 O   0  0  0  0  0  0  0  0  0  0  0  0
    0.6248   -0.7559   42.6231 C   0  0  0  0  0  0  0  0  0  0  0  0
    3.1412    1.5580   38.8046 C   0  0  2  0  0  0  0  0  0  0  0  0
    3.7746    1.9603   40.0705 N   0  0  0  0  0  0  0  0  0  0  0  0
    1.9580   -3.3015   35.5006 C   0  0  1  0  0  0  0  0  0  0  0  0
    1.0026   -4.4570   35.5283 N   0  0  0  0  0  0  0  0  0  0  0  0
    1.7998   -1.5194   43.3109 C   0  0  0  0  0  0  0  0  0  0  0  0
    2.6878    0.0489   38.8644 C   0  0  2  0  0  0  0  0  0  0  0  0
    3.4322   -3.7908   35.9600 C   0  0  1  0  0  0  0  0  0  0  0  0
    3.9387   -4.7822   35.0906 O   0  0  0  0  0  0  0  0  0  0  0  0
    3.0447   -1.5344   42.3187 C   0  0  2  0  0  0  0  0  0  0  0  0
    2.7058   -2.0973   41.0127 O   0  0  0  0  0  0  0  0  0  0  0  0
    2.0112   -0.3537   37.4977 C   0  0  2  0  0  0  0  0  0  0  0  0
    1.5903   -1.7137   37.5315 O   0  0  0  0  0  0  0  0  0  0  0  0
    4.4102   -2.5762   35.9136 C   0  0  0  0  0  0  0  0  0  0  0  0
    4.3380   -1.8899   34.5807 O   0  0  0  0  0  0  0  0  0  0  0  0
    4.2660   -2.2318   42.8700 C   0  0  0  0  0  0  0  0  0  0  0  0
    5.3532   -2.2325   41.9267 N   0  0  0  0  0  0  0  0  0  0  0  0
    3.0264   -0.1452   36.3196 C   0  0  1  0  0  0  0  0  0  0  0  0
    2.3960   -0.5064   35.0967 O   0  0  0  0  0  0  0  0  0  0  0  0
    3.5446   -4.4451   37.3438 C   0  0  0  0  0  0  0  0  0  0  0  0
    0.5038   -4.8839   36.8463 C   0  0  0  0  0  0  0  0  0  0  0  0
  1  2  1  1  0  0  0
  1  6  1  0  0  0  0
  1 21  1  0  0  0  0
  3  4  1  6  0  0  0
  3  8  1  0  0  0  0
  3 28  1  0  0  0  0
  5  9  1  0  0  0  0
  5 25  1  0  0  0  0
  5 29  1  1  0  0  0
  6  7  1  6  0  0  0
  6 11  1  0  0  0  0
  8 12  1  0  0  0  0
  9 10  1  1  0  0  0
  9 14  1  0  0  0  0
 11 16  1  0  0  0  0
 12 13  1  1  0  0  0
 12 17  1  0  0  0  0
 14 15  1  6  0  0  0
 14 18  1  0  0  0  0
 15 31  1  0  0  0  0
 16 20  1  0  0  0  0
 17  2  1  1  0  0  0
 17 22  1  0  0  0  0
 18 19  1  6  0  0  0
 18 24  1  0  0  0  0
 18 30  1  0  0  0  0
 20 21  1  0  0  0  0
 20 26  1  1  0  0  0
 22 23  1  1  0  0  0
 22 28  1  0  0  0  0
 24 25  1  0  0  0  0
 26 27  1  0  0  0  0
 28 29  1  6  0  0  0
M  END
>  <CHROM.1>
-165.62606705,117.05973926,-160.48570167,-166.31178014,179.18389428,111.19412432
2.58163726,-1.49474169,37.97244385,1.74068496,1.22975901,1.20989756

>  <Name>
2et3_lig

>  <RI>
1.07224e+07

>  <Rbt.Current_Directory>
/home/itssahil/PROJECTS/Mol_Feturizer/New_Systems/rnas/2et3

>  <Rbt.Executable>
rbdock ($Id: //depot/dev/client3/rdock/2013.1/src/exe/rbdock.cxx#4 $)

>  <Rbt.Library>
libRbt.so (2013.1, Build901 2013/11/27)

>  <Rbt.Parameter_File>
/export/apps/rDock/src/rDock_2013.1_src/data/scripts/dock_solv.prm

>  <Rbt.Receptor>
prm/blind_docking_80.prm

>  <SCORE>
4.17082

>  <SCORE.INTER>
1.36826

>  <SCORE.INTER.CONST>
1

>  <SCORE.INTER.POLAR>
-0.31715

>  <SCORE.INTER.ROT>
6

>  <SCORE.INTER.SOLV>
21.3159

>  <SCORE.INTER.VDW>
-12.736

>  <SCORE.INTER.norm>
0.0441375

>  <SCORE.INTRA>
-0.895062

>  <SCORE.INTRA.DIHEDRAL>
-5.96802

>  <SCORE.INTRA.DIHEDRAL.0>
22.2484

>  <SCORE.INTRA.POLAR>
0

>  <SCORE.INTRA.POLAR.0>
0

>  <SCORE.INTRA.REPUL>
0

>  <SCORE.INTRA.REPUL.0>
0

>  <SCORE.INTRA.SOLV>
-1.28487

>  <SCORE.INTRA.SOLV.lig_0>
-75.7198

>  <SCORE.INTRA.VDW>
2.73138

>  <SCORE.INTRA.VDW.0>
-3.34171

>  <SCORE.INTRA.norm>
-0.028873

>  <SCORE.RESTR>
3.69762

>  <SCORE.RESTR.CAVITY>
3.69762

>  <SCORE.RESTR.norm>
0.119278

>  <SCORE.SYSTEM>
0

>  <SCORE.SYSTEM.CONST>
0

>  <SCORE.SYSTEM.DIHEDRAL>
0

>  <SCORE.SYSTEM.SOLV>
0

>  <SCORE.SYSTEM.norm>
0

>  <SCORE.heavy>
31

>  <SCORE.norm>
0.134543

>  <RMSD>
12.515

$$$$
2et3_lig
 OpenBabel11021811423D
libRbt.so/2013.1/901 2013/11/27
 31 33  0  0  0  0  0  0  0  0999 V2000
    1.4153   -2.2034   35.7301 C   0  0  2  0  0  0  0  0  0  0  0  0
    0.8752   -2.1520   37.0762 O   0  0  0  0  0  0  0  0  0  0  0  0
    3.4581    0.7297   38.9012 C   0  0  2  0  0  0  0  0  0  0  0  0
    3.9159    1.7344   39.8104 N   0  0  0  0  0  0  0  0  0  0  0  0
    5.3348   -1.8445   39.6886 C   0  0  2  0  0  0  0  0  0  0  0  0
    0.9541   -3.4890   35.0354 C   0  0  2  0  0  0  0  0  0  0  0  0
   -0.4754   -3.5329   35.0594 N   0  0  0  0  0  0  0  0  0  0  0  0
    2.1885    1.2451   38.1497 C   0  0  0  0  0  0  0  0  0  0  0  0
    6.1857   -2.4556   40.8235 C   0  0  2  0  0  0  0  0  0  0  0  0
    5.3490   -3.2233   41.6595 O   0  0  0  0  0  0  0  0  0  0  0  0
    1.5883   -4.7429   35.7289 C   0  0  0  0  0  0  0  0  0  0  0  0
    1.6728    0.1428   37.1537 C   0  0  2  0  0  0  0  0  0  0  0  0
    0.4766    0.6232   36.4436 N   0  0  0  0  0  0  0  0  0  0  0  0
    6.8748   -1.2673   41.6109 C   0  0  1  0  0  0  0  0  0  0  0  0
    7.6873   -1.7727   42.7656 N   0  0  0  0  0  0  0  0  0  0  0  0
    3.1409   -4.6180   35.6259 C   0  0  0  0  0  0  0  0  0  0  0  0
    1.3529   -1.1800   37.9503 C   0  0  2  0  0  0  0  0  0  0  0  0
    7.8111   -0.4020   40.6118 C   0  0  1  0  0  0  0  0  0  0  0  0
    8.8602   -1.1862   40.0827 O   0  0  0  0  0  0  0  0  0  0  0  0
    3.5882   -3.2613   36.3289 C   0  0  2  0  0  0  0  0  0  0  0  0
    2.8995   -2.0968   35.7750 O   0  0  0  0  0  0  0  0  0  0  0  0
    2.6511   -1.6728   38.6984 C   0  0  2  0  0  0  0  0  0  0  0  0
    2.3850   -2.8700   39.4221 O   0  0  0  0  0  0  0  0  0  0  0  0
    6.9483    0.1039   39.4146 C   0  0  0  0  0  0  0  0  0  0  0  0
    6.2004   -1.0342   38.7836 O   0  0  0  0  0  0  0  0  0  0  0  0
    5.0796   -3.0216   36.3168 C   0  0  0  0  0  0  0  0  0  0  0  0
    5.5971   -2.9371   34.9763 N   0  0  0  0  0  0  0  0  0  0  0  0
    3.1513   -0.5602   39.6853 C   0  0  1  0  0  0  0  0  0  0  0  0
    4.3251   -1.0203   40.3440 O   0  0  0  0  0  0  0  0  0  0  0  0
    8.5434    0.8025   41.2187 C   0  0  0  0  0  0  0  0  0  0  0  0
    8.5636   -2.9291   42.5144 C   0  0  0  0  0  0  0  0  0  0  0  0
  1  2  1  1  0  0  0
  1  6  1  0  0  0  0
  1 21  1  0  0  0  0
  3  4  1  1  0  0  0
  3  8  1  0  0  0  0
  3 28  1  0  0  0  0
  5  9  1  0  0  0  0
  5 25  1  0  0  0  0
  5 29  1  1  0  0  0
  6  7  1  1  0  0  0
  6 11  1  0  0  0  0
  8 12  1  0  0  0  0
  9 10  1  1  0  0  0
  9 14  1  0  0  0  0
 11 16  1  0  0  0  0
 12 13  1  1  0  0  0
 12 17  1  0  0  0  0
 14 15  1  1  0  0  0
 14 18  1  0  0  0  0
 15 31  1  0  0  0  0
 16 20  1  0  0  0  0
 17  2  1  6  0  0  0
 17 22  1  0  0  0  0
 18 19  1  6  0  0  0
 18 24  1  0  0  0  0
 18 30  1  0  0  0  0
 20 21  1  0  0  0  0
 20 26  1  6  0  0  0
 22 23  1  1  0  0  0
 22 28  1  0  0  0  0
 24 25  1  0  0  0  0
 26 27  1  0  0  0  0
 28 29  1  6  0  0  0
M  END
>  <CHROM.1>
169.42402873,-163.60554538,45.37492200,34.99963943,60.88367908,-84.15245125
4.18102107,-1.63090166,38.52306175,-2.63491742,-0.54862969,0.56233137

>  <Name>
2et3_lig

>  <RI>
0

>  <Rbt.Current_Directory>
/home/itssahil/PROJECTS/Mol_Feturizer/New_Systems/rnas/2et3

>  <Rbt.Executable>
rbdock ($Id: //depot/dev/client3/rdock/2013.1/src/exe/rbdock.cxx#4 $)

>  <Rbt.Library>
libRbt.so (2013.1, Build901 2013/11/27)

>  <Rbt.Parameter_File>
/export/apps/rDock/src/rDock_2013.1_src/data/scripts/dock_solv.prm

>  <Rbt.Receptor>
prm/blind_docking_60.prm

>  <SCORE>
-18.4798

>  <SCORE.INTER>
-14.6764

>  <SCORE.INTER.CONST>
1

>  <SCORE.INTER.POLAR>
-0.665728

>  <SCORE.INTER.ROT>
6

>  <SCORE.INTER.SOLV>
14.4666

>  <SCORE.INTER.VDW>
-19.9874

>  <SCORE.INTER.norm>
-0.473433

>  <SCORE.INTRA>
-5.19862

>  <SCORE.INTRA.DIHEDRAL>
-14.9511

>  <SCORE.INTRA.DIHEDRAL.0>
22.2484

>  <SCORE.INTRA.POLAR>
0

>  <SCORE.INTRA.POLAR.0>
0

>  <SCORE.INTRA.REPUL>
0

>  <SCORE.INTRA.REPUL.0>
0

>  <SCORE.INTRA.SOLV>
-0.234164

>  <SCORE.INTRA.SOLV.lig_0>
-75.7198

>  <SCORE.INTRA.VDW>
2.39402

>  <SCORE.INTRA.VDW.0>
-3.34171

>  <SCORE.INTRA.norm>
-0.167697

>  <SCORE.RESTR>
1.39526

>  <SCORE.RESTR.CAVITY>
1.39526

>  <SCORE.RESTR.norm>
0.0450085

>  <SCORE.SYSTEM>
0

>  <SCORE.SYSTEM.CONST>
0

>  <SCORE.SYSTEM.DIHEDRAL>
0

>  <SCORE.SYSTEM.SOLV>
0

>  <SCORE.SYSTEM.norm>
0

>  <SCORE.heavy>
31

>  <SCORE.norm>
-0.596122

>  <RMSD>
12.520

$$$$
2et3_lig
 OpenBabel11021811423D
libRbt.so/2013.1/901 2013/11/27
 31 33  0  0  0  0  0  0  0  0999 V2000
    3.8076   -1.5601   35.6828 C   0  0  2  0  0  0  0  0  0  0  0  0
    2.9573   -0.7239   36.5098 O   0  0  0  0  0  0  0  0  0  0  0  0
    1.9737   -0.9585   40.6672 C   0  0  2  0  0  0  0  0  0  0  0  0
    1.5024   -1.4977   41.9052 N   0  0  0  0  0  0  0  0  0  0  0  0
    5.2129   -2.8608   41.1837 C   0  0  2  0  0  0  0  0  0  0  0  0
    3.3165   -1.5238   34.2317 C   0  0  2  0  0  0  0  0  0  0  0  0
    3.2867   -0.1622   33.7942 N   0  0  0  0  0  0  0  0  0  0  0  0
    0.8045   -0.9318   39.6306 C   0  0  0  0  0  0  0  0  0  0  0  0
    5.7951   -2.7865   42.6124 C   0  0  2  0  0  0  0  0  0  0  0  0
    4.7544   -2.9924   43.5413 O   0  0  0  0  0  0  0  0  0  0  0  0
    1.9109   -2.2059   34.1129 C   0  0  0  0  0  0  0  0  0  0  0  0
    1.3160   -0.3482   38.2629 C   0  0  2  0  0  0  0  0  0  0  0  0
    0.2184   -0.3214   37.2829 N   0  0  0  0  0  0  0  0  0  0  0  0
    6.4711   -1.3658   42.7905 C   0  0  1  0  0  0  0  0  0  0  0  0
    7.0239   -1.1910   44.1735 N   0  0  0  0  0  0  0  0  0  0  0  0
    2.0521   -3.6878   34.5828 C   0  0  0  0  0  0  0  0  0  0  0  0
    2.5151   -1.2234   37.7313 C   0  0  2  0  0  0  0  0  0  0  0  0
    7.6467   -1.1636   41.6947 C   0  0  1  0  0  0  0  0  0  0  0  0
    8.6767   -2.1154   41.8645 O   0  0  0  0  0  0  0  0  0  0  0  0
    2.5909   -3.6957   36.0809 C   0  0  2  0  0  0  0  0  0  0  0  0
    3.8377   -2.9461   36.2255 O   0  0  0  0  0  0  0  0  0  0  0  0
    3.6762   -1.2324   38.7988 C   0  0  2  0  0  0  0  0  0  0  0  0
    4.7721   -2.0153   38.3366 O   0  0  0  0  0  0  0  0  0  0  0  0
    7.0516   -1.3602   40.2662 C   0  0  0  0  0  0  0  0  0  0  0  0
    6.2978   -2.6553   40.1809 O   0  0  0  0  0  0  0  0  0  0  0  0
    2.7581   -5.0765   36.6703 C   0  0  0  0  0  0  0  0  0  0  0  0
    3.2552   -5.0255   38.0201 N   0  0  0  0  0  0  0  0  0  0  0  0
    3.1468   -1.8157   40.1559 C   0  0  1  0  0  0  0  0  0  0  0  0
    4.2052   -1.8087   41.1062 O   0  0  0  0  0  0  0  0  0  0  0  0
    8.3964    0.1753   41.7226 C   0  0  0  0  0  0  0  0  0  0  0  0
    7.5933   -2.3828   44.8243 C   0  0  0  0  0  0  0  0  0  0  0  0
  1  2  1  1  0  0  0
  1  6  1  0  0  0  0
  1 21  1  0  0  0  0
  3  4  1  1  0  0  0
  3  8  1  0  0  0  0
  3 28  1  0  0  0  0
  5  9  1  0  0  0  0
  5 25  1  0  0  0  0
  5 29  1  1  0  0  0
  6  7  1  1  0  0  0
  6 11  1  0  0  0  0
  8 12  1  0  0  0  0
  9 10  1  1  0  0  0
  9 14  1  0  0  0  0
 11 16  1  0  0  0  0
 12 13  1  6  0  0  0
 12 17  1  0  0  0  0
 14 15  1  1  0  0  0
 14 18  1  0  0  0  0
 15 31  1  0  0  0  0
 16 20  1  0  0  0  0
 17  2  1  6  0  0  0
 17 22  1  0  0  0  0
 18 19  1  1  0  0  0
 18 24  1  0  0  0  0
 18 30  1  0  0  0  0
 20 21  1  0  0  0  0
 20 26  1  6  0  0  0
 22 23  1  6  0  0  0
 22 28  1  0  0  0  0
 24 25  1  0  0  0  0
 26 27  1  0  0  0  0
 28 29  1  1  0  0  0
M  END
>  <CHROM.1>
134.18980121,-158.33160644,35.05621527,-164.36718254,179.60736365,156.68835193
4.19993120,-1.93006279,39.21155811,-2.12963640,-0.09665168,1.47471650

>  <Name>
2et3_lig

>  <RI>
1.07224e+07

>  <Rbt.Current_Directory>
/home/itssahil/PROJECTS/Mol_Feturizer/New_Systems/rnas/2et3

>  <Rbt.Executable>
rbdock ($Id: //depot/dev/client3/rdock/2013.1/src/exe/rbdock.cxx#4 $)

>  <Rbt.Library>
libRbt.so (2013.1, Build901 2013/11/27)

>  <Rbt.Parameter_File>
/export/apps/rDock/src/rDock_2013.1_src/data/scripts/dock_solv.prm

>  <Rbt.Receptor>
prm/blind_docking_80.prm

>  <SCORE>
-5.0845

>  <SCORE.INTER>
-4.17115

>  <SCORE.INTER.CONST>
1

>  <SCORE.INTER.POLAR>
-0.0990729

>  <SCORE.INTER.ROT>
6

>  <SCORE.INTER.SOLV>
23.9004

>  <SCORE.INTER.VDW>
-18.0173

>  <SCORE.INTER.norm>
-0.134553

>  <SCORE.INTRA>
-1.7616

>  <SCORE.INTRA.DIHEDRAL>
-9.87788

>  <SCORE.INTRA.DIHEDRAL.0>
22.2484

>  <SCORE.INTRA.POLAR>
0

>  <SCORE.INTRA.POLAR.0>
0

>  <SCORE.INTRA.REPUL>
0.00257048

>  <SCORE.INTRA.REPUL.0>
0

>  <SCORE.INTRA.SOLV>
-0.142482

>  <SCORE.INTRA.SOLV.lig_0>
-75.7198

>  <SCORE.INTRA.VDW>
3.23573

>  <SCORE.INTRA.VDW.0>
-3.34171

>  <SCORE.INTRA.norm>
-0.0568258

>  <SCORE.RESTR>
0.848249

>  <SCORE.RESTR.CAVITY>
0.848249

>  <SCORE.RESTR.norm>
0.0273629

>  <SCORE.SYSTEM>
0

>  <SCORE.SYSTEM.CONST>
0

>  <SCORE.SYSTEM.DIHEDRAL>
0

>  <SCORE.SYSTEM.SOLV>
0

>  <SCORE.SYSTEM.norm>
0

>  <SCORE.heavy>
31

>  <SCORE.norm>
-0.164016

>  <RMSD>
12.520

$$$$
2et3_lig
 OpenBabel11021811423D
libRbt.so/2013.1/901 2013/11/27
 31 33  0  0  0  0  0  0  0  0999 V2000
    1.4114   -2.1733   35.7017 C   0  0  2  0  0  0  0  0  0  0  0  0
    0.8698   -2.0962   37.0459 O   0  0  0  0  0  0  0  0  0  0  0  0
    3.5069    0.7527   38.8448 C   0  0  2  0  0  0  0  0  0  0  0  0
    3.9833    1.7578   39.7439 N   0  0  0  0  0  0  0  0  0  0  0  0
    5.3533   -1.8119   39.6502 C   0  0  2  0  0  0  0  0  0  0  0  0
    0.9574   -3.4757   35.0339 C   0  0  2  0  0  0  0  0  0  0  0  0
   -0.4720   -3.5262   35.0577 N   0  0  0  0  0  0  0  0  0  0  0  0
    2.2492    1.2853   38.0853 C   0  0  0  0  0  0  0  0  0  0  0  0
    6.1824   -2.4535   40.7846 C   0  0  2  0  0  0  0  0  0  0  0  0
    5.3284   -3.2368   41.5880 O   0  0  0  0  0  0  0  0  0  0  0  0
    1.5972   -4.7114   35.7544 C   0  0  0  0  0  0  0  0  0  0  0  0
    1.7131    0.1829   37.1002 C   0  0  2  0  0  0  0  0  0  0  0  0
    0.5281    0.6795   36.3828 N   0  0  0  0  0  0  0  0  0  0  0  0
    6.8631   -1.2873   41.6113 C   0  0  1  0  0  0  0  0  0  0  0  0
    7.6539   -1.8235   42.7672 N   0  0  0  0  0  0  0  0  0  0  0  0
    3.1492   -4.5808   35.6502 C   0  0  0  0  0  0  0  0  0  0  0  0
    1.3655   -1.1245   37.9104 C   0  0  2  0  0  0  0  0  0  0  0  0
    7.8198   -0.4031   40.6486 C   0  0  1  0  0  0  0  0  0  0  0  0
    8.8743   -1.1795   40.1188 O   0  0  0  0  0  0  0  0  0  0  0  0
    3.5891   -3.2073   36.3246 C   0  0  2  0  0  0  0  0  0  0  0  0
    2.8950   -2.0583   35.7456 O   0  0  0  0  0  0  0  0  0  0  0  0
    2.6522   -1.6352   38.6662 C   0  0  2  0  0  0  0  0  0  0  0  0
    2.3610   -2.8189   39.4023 O   0  0  0  0  0  0  0  0  0  0  0  0
    6.9795    0.1349   39.4495 C   0  0  0  0  0  0  0  0  0  0  0  0
    6.2376   -0.9846   38.7793 O   0  0  0  0  0  0  0  0  0  0  0  0
    5.0793   -2.9604   36.3088 C   0  0  0  0  0  0  0  0  0  0  0  0
    5.5985   -2.9071   34.9674 N   0  0  0  0  0  0  0  0  0  0  0  0
    3.1730   -0.5222   39.6421 C   0  0  1  0  0  0  0  0  0  0  0  0
    4.3362   -0.9986   40.3079 O   0  0  0  0  0  0  0  0  0  0  0  0
    8.5469    0.7834   41.2960 C   0  0  0  0  0  0  0  0  0  0  0  0
    8.5917   -2.9233   42.4860 C   0  0  0  0  0  0  0  0  0  0  0  0
  1  2  1  1  0  0  0
  1  6  1  0  0  0  0
  1 21  1  0  0  0  0
  3  4  1  1  0  0  0
  3  8  1  0  0  0  0
  3 28  1  0  0  0  0
  5  9  1  0  0  0  0
  5 25  1  0  0  0  0
  5 29  1  1  0  0  0
  6  7  1  1  0  0  0
  6 11  1  0  0  0  0
  8 12  1  0  0  0  0
  9 10  1  1  0  0  0
  9 14  1  0  0  0  0
 11 16  1  0  0  0  0
 12 13  1  1  0  0  0
 12 17  1  0  0  0  0
 14 15  1  1  0  0  0
 14 18  1  0  0  0  0
 15 31  1  0  0  0  0
 16 20  1  0  0  0  0
 17  2  1  6  0  0  0
 17 22  1  0  0  0  0
 18 19  1  6  0  0  0
 18 24  1  0  0  0  0
 18 30  1  0  0  0  0
 20 21  1  0  0  0  0
 20 26  1  6  0  0  0
 22 23  1  1  0  0  0
 22 28  1  0  0  0  0
 24 25  1  0  0  0  0
 26 27  1  0  0  0  0
 28 29  1  6  0  0  0
M  END
>  <CHROM.1>
167.85319330,-163.34438777,49.07358885,35.02823742,60.64882595,-81.97770129
4.19282561,-1.60602935,38.50609455,-2.65452605,-0.56507299,0.53387891

>  <Name>
2et3_lig

>  <RI>
0

>  <Rbt.Current_Directory>
/home/itssahil/PROJECTS/Mol_Feturizer/New_Systems/rnas/2et3

>  <Rbt.Executable>
rbdock ($Id: //depot/dev/client3/rdock/2013.1/src/exe/rbdock.cxx#4 $)

>  <Rbt.Library>
libRbt.so (2013.1, Build901 2013/11/27)

>  <Rbt.Parameter_File>
/export/apps/rDock/src/rDock_2013.1_src/data/scripts/dock_solv.prm

>  <Rbt.Receptor>
prm/blind_docking_60.prm

>  <SCORE>
-18.5875

>  <SCORE.INTER>
-14.7049

>  <SCORE.INTER.CONST>
1

>  <SCORE.INTER.POLAR>
-0.662276

>  <SCORE.INTER.ROT>
6

>  <SCORE.INTER.SOLV>
14.3305

>  <SCORE.INTER.VDW>
-19.9725

>  <SCORE.INTER.norm>
-0.474352

>  <SCORE.INTRA>
-5.28575

>  <SCORE.INTRA.DIHEDRAL>
-15.2111

>  <SCORE.INTRA.DIHEDRAL.0>
22.2484

>  <SCORE.INTRA.POLAR>
0

>  <SCORE.INTRA.POLAR.0>
0

>  <SCORE.INTRA.REPUL>
0

>  <SCORE.INTRA.REPUL.0>
0

>  <SCORE.INTRA.SOLV>
-0.139977

>  <SCORE.INTRA.SOLV.lig_0>
-75.7198

>  <SCORE.INTRA.VDW>
2.38979

>  <SCORE.INTRA.VDW.0>
-3.34171

>  <SCORE.INTRA.norm>
-0.170508

>  <SCORE.RESTR>
1.40318

>  <SCORE.RESTR.CAVITY>
1.40318

>  <SCORE.RESTR.norm>
0.045264

>  <SCORE.SYSTEM>
0

>  <SCORE.SYSTEM.CONST>
0

>  <SCORE.SYSTEM.DIHEDRAL>
0

>  <SCORE.SYSTEM.SOLV>
0

>  <SCORE.SYSTEM.norm>
0

>  <SCORE.heavy>
31

>  <SCORE.norm>
-0.599596

>  <RMSD>
12.528

$$$$
2et3_lig
 OpenBabel11021811423D
libRbt.so/2013.1/901 2013/11/27
 31 33  0  0  0  0  0  0  0  0999 V2000
    3.0701   -4.4685   36.2999 C   0  0  2  0  0  0  0  0  0  0  0  0
    3.6931   -3.4571   35.4662 O   0  0  0  0  0  0  0  0  0  0  0  0
    4.9496    0.5604   36.2325 C   0  0  2  0  0  0  0  0  0  0  0  0
    4.9023    1.9177   36.6811 N   0  0  0  0  0  0  0  0  0  0  0  0
    5.5593    0.3995   39.7158 C   0  0  2  0  0  0  0  0  0  0  0  0
    1.9352   -5.1496   35.5275 C   0  0  2  0  0  0  0  0  0  0  0  0
    2.4676   -5.6855   34.3128 N   0  0  0  0  0  0  0  0  0  0  0  0
    3.8354    0.3251   35.1624 C   0  0  0  0  0  0  0  0  0  0  0  0
    6.9121    0.3294   40.4578 C   0  0  2  0  0  0  0  0  0  0  0  0
    7.8660    1.0808   39.7410 O   0  0  0  0  0  0  0  0  0  0  0  0
    0.7719   -4.1351   35.2574 C   0  0  0  0  0  0  0  0  0  0  0  0
    3.8743   -1.1677   34.6696 C   0  0  2  0  0  0  0  0  0  0  0  0
    2.8263   -1.3947   33.6617 N   0  0  0  0  0  0  0  0  0  0  0  0
    7.3276   -1.1942   40.5724 C   0  0  1  0  0  0  0  0  0  0  0  0
    8.6602   -1.3505   41.2423 N   0  0  0  0  0  0  0  0  0  0  0  0
    0.2408   -3.6313   36.6361 C   0  0  0  0  0  0  0  0  0  0  0  0
    3.6813   -2.1347   35.9002 C   0  0  2  0  0  0  0  0  0  0  0  0
    6.1984   -2.0230   41.3857 C   0  0  1  0  0  0  0  0  0  0  0  0
    6.0669   -1.5487   42.7098 O   0  0  0  0  0  0  0  0  0  0  0  0
    1.4456   -2.9557   37.4277 C   0  0  2  0  0  0  0  0  0  0  0  0
    2.5898   -3.8547   37.5682 O   0  0  0  0  0  0  0  0  0  0  0  0
    4.8179   -1.8717   36.9617 C   0  0  2  0  0  0  0  0  0  0  0  0
    4.6643   -2.7382   38.0812 O   0  0  0  0  0  0  0  0  0  0  0  0
    4.8208   -1.8375   40.6777 C   0  0  0  0  0  0  0  0  0  0  0  0
    4.5295   -0.3812   40.4608 O   0  0  0  0  0  0  0  0  0  0  0  0
    1.0640   -2.4050   38.7815 C   0  0  0  0  0  0  0  0  0  0  0  0
    2.0890   -1.5495   39.3195 N   0  0  0  0  0  0  0  0  0  0  0  0
    4.7642   -0.3781   37.4398 C   0  0  1  0  0  0  0  0  0  0  0  0
    5.8000   -0.1595   38.3899 O   0  0  0  0  0  0  0  0  0  0  0  0
    6.4435   -3.5264   41.5729 C   0  0  0  0  0  0  0  0  0  0  0  0
    9.8541   -1.2967   40.3822 C   0  0  0  0  0  0  0  0  0  0  0  0
  1  2  1  6  0  0  0
  1  6  1  0  0  0  0
  1 21  1  0  0  0  0
  3  4  1  1  0  0  0
  3  8  1  0  0  0  0
  3 28  1  0  0  0  0
  5  9  1  0  0  0  0
  5 25  1  0  0  0  0
  5 29  1  6  0  0  0
  6  7  1  6  0  0  0
  6 11  1  0  0  0  0
  8 12  1  0  0  0  0
  9 10  1  6  0  0  0
  9 14  1  0  0  0  0
 11 16  1  0  0  0  0
 12 13  1  6  0  0  0
 12 17  1  0  0  0  0
 14 15  1  1  0  0  0
 14 18  1  0  0  0  0
 15 31  1  0  0  0  0
 16 20  1  0  0  0  0
 17  2  1  6  0  0  0
 17 22  1  0  0  0  0
 18 19  1  1  0  0  0
 18 24  1  0  0  0  0
 18 30  1  0  0  0  0
 20 21  1  0  0  0  0
 20 26  1  1  0  0  0
 22 23  1  1  0  0  0
 22 28  1  0  0  0  0
 24 25  1  0  0  0  0
 26 27  1  0  0  0  0
 28 29  1  1  0  0  0
M  END
>  <CHROM.1>
119.84563753,174.34000266,-87.83281309,-158.05846319,-166.84093724,113.34141693
4.47143189,-1.79516312,38.06523469,2.78643734,-0.79210460,-0.95648201

>  <Name>
2et3_lig

>  <RI>
0

>  <Rbt.Current_Directory>
/home/itssahil/PROJECTS/Mol_Feturizer/New_Systems/rnas/2et3

>  <Rbt.Executable>
rbdock ($Id: //depot/dev/client3/rdock/2013.1/src/exe/rbdock.cxx#4 $)

>  <Rbt.Library>
libRbt.so (2013.1, Build901 2013/11/27)

>  <Rbt.Parameter_File>
/export/apps/rDock/src/rDock_2013.1_src/data/scripts/dock_solv.prm

>  <Rbt.Receptor>
prm/blind_docking_100.prm

>  <SCORE>
-3.07257

>  <SCORE.INTER>
-5.91794

>  <SCORE.INTER.CONST>
1

>  <SCORE.INTER.POLAR>
-2.1031

>  <SCORE.INTER.ROT>
6

>  <SCORE.INTER.SOLV>
22.3741

>  <SCORE.INTER.VDW>
-11.993

>  <SCORE.INTER.norm>
-0.190901

>  <SCORE.INTRA>
0.44804

>  <SCORE.INTRA.DIHEDRAL>
-4.56845

>  <SCORE.INTRA.DIHEDRAL.0>
22.2484

>  <SCORE.INTRA.POLAR>
0

>  <SCORE.INTRA.POLAR.0>
0

>  <SCORE.INTRA.REPUL>
0

>  <SCORE.INTRA.REPUL.0>
0

>  <SCORE.INTRA.SOLV>
3.06946

>  <SCORE.INTRA.SOLV.lig_0>
-75.7198

>  <SCORE.INTRA.VDW>
1.19753

>  <SCORE.INTRA.VDW.0>
-3.34171

>  <SCORE.INTRA.norm>
0.0144529

>  <SCORE.RESTR>
2.39733

>  <SCORE.RESTR.CAVITY>
2.39733

>  <SCORE.RESTR.norm>
0.0773332

>  <SCORE.SYSTEM>
0

>  <SCORE.SYSTEM.CONST>
0

>  <SCORE.SYSTEM.DIHEDRAL>
0

>  <SCORE.SYSTEM.SOLV>
0

>  <SCORE.SYSTEM.norm>
0

>  <SCORE.heavy>
31

>  <SCORE.norm>
-0.0991151

>  <RMSD>
12.534

$$$$
2et3_lig
 OpenBabel11021811423D
libRbt.so/2013.1/901 2013/11/27
 31 33  0  0  0  0  0  0  0  0999 V2000
   -2.4671   -0.6966   41.2110 C   0  0  2  0  0  0  0  0  0  0  0  0
   -1.8419   -2.0013   41.3254 O   0  0  0  0  0  0  0  0  0  0  0  0
    2.2869   -0.9247   41.0079 C   0  0  2  0  0  0  0  0  0  0  0  0
    3.7101   -1.0240   41.1090 N   0  0  0  0  0  0  0  0  0  0  0  0
    3.7226   -2.2887   38.5060 C   0  0  2  0  0  0  0  0  0  0  0  0
   -3.9624   -0.8623   40.9191 C   0  0  2  0  0  0  0  0  0  0  0  0
   -4.5424   -1.6646   41.9516 N   0  0  0  0  0  0  0  0  0  0  0  0
    1.6543   -1.0187   42.4338 C   0  0  0  0  0  0  0  0  0  0  0  0
    3.9672   -1.8680   37.0401 C   0  0  2  0  0  0  0  0  0  0  0  0
    3.7498   -0.4799   36.9206 O   0  0  0  0  0  0  0  0  0  0  0  0
   -4.1759   -1.4927   39.5005 C   0  0  0  0  0  0  0  0  0  0  0  0
    0.0882   -0.9192   42.3314 C   0  0  2  0  0  0  0  0  0  0  0  0
   -0.5124   -1.0077   43.6720 N   0  0  0  0  0  0  0  0  0  0  0  0
    2.9808   -2.6999   36.1225 C   0  0  1  0  0  0  0  0  0  0  0  0
    3.1201   -2.3172   34.6793 N   0  0  0  0  0  0  0  0  0  0  0  0
   -3.5377   -0.5354   38.4457 C   0  0  0  0  0  0  0  0  0  0  0  0
   -0.4539   -2.0717   41.4017 C   0  0  2  0  0  0  0  0  0  0  0  0
    3.2519   -4.2866   36.3033 C   0  0  1  0  0  0  0  0  0  0  0  0
    4.5589   -4.6343   35.8953 O   0  0  0  0  0  0  0  0  0  0  0  0
   -1.9934   -0.3584   38.7901 C   0  0  2  0  0  0  0  0  0  0  0  0
   -1.7806    0.1042   40.1605 O   0  0  0  0  0  0  0  0  0  0  0  0
    0.2036   -1.9510   39.9731 C   0  0  2  0  0  0  0  0  0  0  0  0
   -0.2758   -2.9816   39.1153 O   0  0  0  0  0  0  0  0  0  0  0  0
    3.1121   -4.6593   37.8116 C   0  0  0  0  0  0  0  0  0  0  0  0
    3.9560   -3.7538   38.6605 O   0  0  0  0  0  0  0  0  0  0  0  0
   -1.2448    0.5366   37.8307 C   0  0  0  0  0  0  0  0  0  0  0  0
    0.1206    0.7364   38.2400 N   0  0  0  0  0  0  0  0  0  0  0  0
    1.7647   -2.0507   40.0957 C   0  0  1  0  0  0  0  0  0  0  0  0
    2.3386   -1.9327   38.7996 O   0  0  0  0  0  0  0  0  0  0  0  0
    2.3641   -5.2378   35.4893 C   0  0  0  0  0  0  0  0  0  0  0  0
    1.9119   -2.4047   33.8422 C   0  0  0  0  0  0  0  0  0  0  0  0
  1  2  1  6  0  0  0
  1  6  1  0  0  0  0
  1 21  1  0  0  0  0
  3  4  1  1  0  0  0
  3  8  1  0  0  0  0
  3 28  1  0  0  0  0
  5  9  1  0  0  0  0
  5 25  1  0  0  0  0
  5 29  1  6  0  0  0
  6  7  1  1  0  0  0
  6 11  1  0  0  0  0
  8 12  1  0  0  0  0
  9 10  1  1  0  0  0
  9 14  1  0  0  0  0
 11 16  1  0  0  0  0
 12 13  1  1  0  0  0
 12 17  1  0  0  0  0
 14 15  1  6  0  0  0
 14 18  1  0  0  0  0
 15 31  1  0  0  0  0
 16 20  1  0  0  0  0
 17  2  1  6  0  0  0
 17 22  1  0  0  0  0
 18 19  1  6  0  0  0
 18 24  1  0  0  0  0
 18 30  1  0  0  0  0
 20 21  1  0  0  0  0
 20 26  1  6  0  0  0
 22 23  1  6  0  0  0
 22 28  1  0  0  0  0
 24 25  1  0  0  0  0
 26 27  1  0  0  0  0
 28 29  1  6  0  0  0
M  END
>  <CHROM.1>
171.06245815,-174.08329986,-148.34194705,40.86245224,175.96198667,74.46764414
0.73671140,-1.84941302,38.98206488,2.45137476,-0.23977119,1.39237719

>  <Name>
2et3_lig

>  <RI>
1.07224e+07

>  <Rbt.Current_Directory>
/home/itssahil/PROJECTS/Mol_Feturizer/New_Systems/rnas/2et3

>  <Rbt.Executable>
rbdock ($Id: //depot/dev/client3/rdock/2013.1/src/exe/rbdock.cxx#4 $)

>  <Rbt.Library>
libRbt.so (2013.1, Build901 2013/11/27)

>  <Rbt.Parameter_File>
/export/apps/rDock/src/rDock_2013.1_src/data/scripts/dock_solv.prm

>  <Rbt.Receptor>
prm/blind_docking_80.prm

>  <SCORE>
-18.8242

>  <SCORE.INTER>
-12.9322

>  <SCORE.INTER.CONST>
1

>  <SCORE.INTER.POLAR>
-0.640347

>  <SCORE.INTER.ROT>
6

>  <SCORE.INTER.SOLV>
15.6261

>  <SCORE.INTER.VDW>
-19.2957

>  <SCORE.INTER.norm>
-0.417169

>  <SCORE.INTRA>
-7.07052

>  <SCORE.INTRA.DIHEDRAL>
-18.1872

>  <SCORE.INTRA.DIHEDRAL.0>
22.2484

>  <SCORE.INTRA.POLAR>
0

>  <SCORE.INTRA.POLAR.0>
0

>  <SCORE.INTRA.REPUL>
0.0532949

>  <SCORE.INTRA.REPUL.0>
0

>  <SCORE.INTRA.SOLV>
1.75277

>  <SCORE.INTRA.SOLV.lig_0>
-75.7198

>  <SCORE.INTRA.VDW>
0.880227

>  <SCORE.INTRA.VDW.0>
-3.34171

>  <SCORE.INTRA.norm>
-0.228081

>  <SCORE.RESTR>
1.17852

>  <SCORE.RESTR.CAVITY>
1.17852

>  <SCORE.RESTR.norm>
0.0380167

>  <SCORE.SYSTEM>
0

>  <SCORE.SYSTEM.CONST>
0

>  <SCORE.SYSTEM.DIHEDRAL>
0

>  <SCORE.SYSTEM.SOLV>
0

>  <SCORE.SYSTEM.norm>
0

>  <SCORE.heavy>
31

>  <SCORE.norm>
-0.607233

>  <RMSD>
12.544

$$$$
2et3_lig
 OpenBabel11021811423D
libRbt.so/2013.1/901 2013/11/27
 31 33  0  0  0  0  0  0  0  0999 V2000
    4.1996   -1.2730   35.4196 C   0  0  2  0  0  0  0  0  0  0  0  0
    3.6291   -0.3968   36.4259 O   0  0  0  0  0  0  0  0  0  0  0  0
    2.0621   -0.8928   40.3763 C   0  0  2  0  0  0  0  0  0  0  0  0
    1.4102   -1.5034   41.4933 N   0  0  0  0  0  0  0  0  0  0  0  0
    5.2110   -2.8756   41.1605 C   0  0  2  0  0  0  0  0  0  0  0  0
    3.2513   -1.3709   34.2198 C   0  0  2  0  0  0  0  0  0  0  0  0
    3.0018   -0.0515   33.7268 N   0  0  0  0  0  0  0  0  0  0  0  0
    1.0523   -0.7600   39.1910 C   0  0  0  0  0  0  0  0  0  0  0  0
    5.7310   -2.8209   42.6139 C   0  0  2  0  0  0  0  0  0  0  0  0
    4.6549   -3.0586   43.4936 O   0  0  0  0  0  0  0  0  0  0  0  0
    1.9266   -2.1015   34.6283 C   0  0  0  0  0  0  0  0  0  0  0  0
    1.7633   -0.0972   37.9548 C   0  0  2  0  0  0  0  0  0  0  0  0
    0.8164    0.0296   36.8355 N   0  0  0  0  0  0  0  0  0  0  0  0
    6.3787   -1.3951   42.8472 C   0  0  1  0  0  0  0  0  0  0  0  0
    6.8698   -1.2395   44.2555 N   0  0  0  0  0  0  0  0  0  0  0  0
    2.2983   -3.5348   35.1225 C   0  0  0  0  0  0  0  0  0  0  0  0
    3.0090   -0.9675   37.5336 C   0  0  2  0  0  0  0  0  0  0  0  0
    7.5966   -1.1561   41.8064 C   0  0  1  0  0  0  0  0  0  0  0  0
    8.6319   -2.0971   42.0022 O   0  0  0  0  0  0  0  0  0  0  0  0
    3.3057   -3.4033   36.3483 C   0  0  2  0  0  0  0  0  0  0  0  0
    4.4857   -2.6080   36.0130 O   0  0  0  0  0  0  0  0  0  0  0  0
    4.0068   -1.0845   38.7496 C   0  0  2  0  0  0  0  0  0  0  0  0
    5.1423   -1.8645   38.3892 O   0  0  0  0  0  0  0  0  0  0  0  0
    7.0654   -1.3330   40.3504 C   0  0  0  0  0  0  0  0  0  0  0  0
    6.3344   -2.6362   40.2090 O   0  0  0  0  0  0  0  0  0  0  0  0
    3.7362   -4.7252   36.9390 C   0  0  0  0  0  0  0  0  0  0  0  0
    2.7482   -5.2549   37.8419 N   0  0  0  0  0  0  0  0  0  0  0  0
    3.2796   -1.7458   39.9728 C   0  0  1  0  0  0  0  0  0  0  0  0
    4.1927   -1.8357   41.0598 O   0  0  0  0  0  0  0  0  0  0  0  0
    8.3254    0.1919   41.8912 C   0  0  0  0  0  0  0  0  0  0  0  0
    7.5490   -2.3972   44.8611 C   0  0  0  0  0  0  0  0  0  0  0  0
  1  2  1  1  0  0  0
  1  6  1  0  0  0  0
  1 21  1  0  0  0  0
  3  4  1  1  0  0  0
  3  8  1  0  0  0  0
  3 28  1  0  0  0  0
  5  9  1  0  0  0  0
  5 25  1  0  0  0  0
  5 29  1  1  0  0  0
  6  7  1  1  0  0  0
  6 11  1  0  0  0  0
  8 12  1  0  0  0  0
  9 10  1  1  0  0  0
  9 14  1  0  0  0  0
 11 16  1  0  0  0  0
 12 13  1  6  0  0  0
 12 17  1  0  0  0  0
 14 15  1  1  0  0  0
 14 18  1  0  0  0  0
 15 31  1  0  0  0  0
 16 20  1  0  0  0  0
 17  2  1  6  0  0  0
 17 22  1  0  0  0  0
 18 19  1  1  0  0  0
 18 24  1  0  0  0  0
 18 30  1  0  0  0  0
 20 21  1  0  0  0  0
 20 26  1  6  0  0  0
 22 23  1  6  0  0  0
 22 28  1  0  0  0  0
 24 25  1  0  0  0  0
 26 27  1  0  0  0  0
 28 29  1  1  0  0  0
M  END
>  <CHROM.1>
101.10109483,-166.38031333,40.97362346,-143.84830516,-80.90950038,160.36941649
4.35678268,-1.82739099,39.18386786,-2.09765667,-0.08258455,1.53568074

>  <Name>
2et3_lig

>  <RI>
1.07224e+07

>  <Rbt.Current_Directory>
/home/itssahil/PROJECTS/Mol_Feturizer/New_Systems/rnas/2et3

>  <Rbt.Executable>
rbdock ($Id: //depot/dev/client3/rdock/2013.1/src/exe/rbdock.cxx#4 $)

>  <Rbt.Library>
libRbt.so (2013.1, Build901 2013/11/27)

>  <Rbt.Parameter_File>
/export/apps/rDock/src/rDock_2013.1_src/data/scripts/dock_solv.prm

>  <Rbt.Receptor>
prm/blind_docking_80.prm

>  <SCORE>
-3.50198

>  <SCORE.INTER>
-5.53594

>  <SCORE.INTER.CONST>
1

>  <SCORE.INTER.POLAR>
-0.13774

>  <SCORE.INTER.ROT>
6

>  <SCORE.INTER.SOLV>
23.794

>  <SCORE.INTER.VDW>
-18.7628

>  <SCORE.INTER.norm>
-0.178579

>  <SCORE.INTRA>
1.4228

>  <SCORE.INTRA.DIHEDRAL>
-7.61697

>  <SCORE.INTRA.DIHEDRAL.0>
22.2484

>  <SCORE.INTRA.POLAR>
0

>  <SCORE.INTRA.POLAR.0>
0

>  <SCORE.INTRA.REPUL>
0

>  <SCORE.INTRA.REPUL.0>
0

>  <SCORE.INTRA.SOLV>
0.317489

>  <SCORE.INTRA.SOLV.lig_0>
-75.7198

>  <SCORE.INTRA.VDW>
5.07255

>  <SCORE.INTRA.VDW.0>
-3.34171

>  <SCORE.INTRA.norm>
0.0458969

>  <SCORE.RESTR>
0.611154

>  <SCORE.RESTR.CAVITY>
0.611154

>  <SCORE.RESTR.norm>
0.0197146

>  <SCORE.SYSTEM>
0

>  <SCORE.SYSTEM.CONST>
0

>  <SCORE.SYSTEM.DIHEDRAL>
0

>  <SCORE.SYSTEM.SOLV>
0

>  <SCORE.SYSTEM.norm>
0

>  <SCORE.heavy>
31

>  <SCORE.norm>
-0.112967

>  <RMSD>
12.566

$$$$
2et3_lig
 OpenBabel11021811423D
libRbt.so/2013.1/901 2013/11/27
 31 33  0  0  0  0  0  0  0  0999 V2000
    2.1737   -2.3169   35.2854 C   0  0  2  0  0  0  0  0  0  0  0  0
    1.4558   -2.0627   36.5209 O   0  0  0  0  0  0  0  0  0  0  0  0
    4.0736    0.7163   38.4524 C   0  0  2  0  0  0  0  0  0  0  0  0
    4.5116    1.7626   39.3237 N   0  0  0  0  0  0  0  0  0  0  0  0
    5.5199   -1.8970   39.7533 C   0  0  2  0  0  0  0  0  0  0  0  0
    1.9100   -3.7525   34.8188 C   0  0  2  0  0  0  0  0  0  0  0  0
    0.4977   -3.9367   34.6855 N   0  0  0  0  0  0  0  0  0  0  0  0
    3.0006    1.2754   37.4634 C   0  0  0  0  0  0  0  0  0  0  0  0
    6.2287   -2.3572   41.0461 C   0  0  2  0  0  0  0  0  0  0  0  0
    5.2786   -2.9530   41.9010 O   0  0  0  0  0  0  0  0  0  0  0  0
    2.5402   -4.7780   35.8222 C   0  0  0  0  0  0  0  0  0  0  0  0
    2.5066    0.1291   36.5068 C   0  0  2  0  0  0  0  0  0  0  0  0
    1.4953    0.6506   35.5735 N   0  0  0  0  0  0  0  0  0  0  0  0
    6.9049   -1.0887   41.7100 C   0  0  1  0  0  0  0  0  0  0  0  0
    7.5793   -1.4400   43.0026 N   0  0  0  0  0  0  0  0  0  0  0  0
    4.0783   -4.5173   35.8765 C   0  0  0  0  0  0  0  0  0  0  0  0
    1.9146   -1.0547   37.3639 C   0  0  2  0  0  0  0  0  0  0  0  0
    7.9742   -0.4258   40.6899 C   0  0  1  0  0  0  0  0  0  0  0  0
    9.0241   -1.3226   40.3917 O   0  0  0  0  0  0  0  0  0  0  0  0
    4.3218   -3.0122   36.3349 C   0  0  2  0  0  0  0  0  0  0  0  0
    3.6258   -2.0527   35.4793 O   0  0  0  0  0  0  0  0  0  0  0  0
    3.0190   -1.5950   38.3520 C   0  0  2  0  0  0  0  0  0  0  0  0
    2.5057   -2.6686   39.1341 O   0  0  0  0  0  0  0  0  0  0  0  0
    7.2537   -0.0786   39.3505 C   0  0  0  0  0  0  0  0  0  0  0  0
    6.5074   -1.2710   38.8271 O   0  0  0  0  0  0  0  0  0  0  0  0
    5.7785   -2.6283   36.4471 C   0  0  0  0  0  0  0  0  0  0  0  0
    6.4981   -2.8980   35.2300 N   0  0  0  0  0  0  0  0  0  0  0  0
    3.5002   -0.4379   39.2962 C   0  0  1  0  0  0  0  0  0  0  0  0
    4.4997   -0.9426   40.1735 O   0  0  0  0  0  0  0  0  0  0  0  0
    8.7109    0.8290   41.1781 C   0  0  0  0  0  0  0  0  0  0  0  0
    8.6012   -2.4993   42.9601 C   0  0  0  0  0  0  0  0  0  0  0  0
  1  2  1  1  0  0  0
  1  6  1  0  0  0  0
  1 21  1  0  0  0  0
  3  4  1  1  0  0  0
  3  8  1  0  0  0  0
  3 28  1  0  0  0  0
  5  9  1  0  0  0  0
  5 25  1  0  0  0  0
  5 29  1  1  0  0  0
  6  7  1  1  0  0  0
  6 11  1  0  0  0  0
  8 12  1  0  0  0  0
  9 10  1  1  0  0  0
  9 14  1  0  0  0  0
 11 16  1  0  0  0  0
 12 13  1  6  0  0  0
 12 17  1  0  0  0  0
 14 15  1  1  0  0  0
 14 18  1  0  0  0  0
 15 31  1  0  0  0  0
 16 20  1  0  0  0  0
 17  2  1  6  0  0  0
 17 22  1  0  0  0  0
 18 19  1  6  0  0  0
 18 24  1  0  0  0  0
 18 30  1  0  0  0  0
 20 21  1  0  0  0  0
 20 26  1  6  0  0  0
 22 23  1  1  0  0  0
 22 28  1  0  0  0  0
 24 25  1  0  0  0  0
 26 27  1  0  0  0  0
 28 29  1  1  0  0  0
M  END
>  <CHROM.1>
156.52130188,-170.44286170,56.37004092,34.68708278,54.14387595,-81.61864045
4.65456766,-1.58220134,38.38445084,-2.64710682,-0.70028152,0.45601382

>  <Name>
2et3_lig

>  <RI>
0

>  <Rbt.Current_Directory>
/home/itssahil/PROJECTS/Mol_Feturizer/New_Systems/rnas/2et3

>  <Rbt.Executable>
rbdock ($Id: //depot/dev/client3/rdock/2013.1/src/exe/rbdock.cxx#4 $)

>  <Rbt.Library>
libRbt.so (2013.1, Build901 2013/11/27)

>  <Rbt.Parameter_File>
/export/apps/rDock/src/rDock_2013.1_src/data/scripts/dock_solv.prm

>  <Rbt.Receptor>
prm/blind_docking_100.prm

>  <SCORE>
-11.5295

>  <SCORE.INTER>
-10.7286

>  <SCORE.INTER.CONST>
1

>  <SCORE.INTER.POLAR>
0

>  <SCORE.INTER.ROT>
6

>  <SCORE.INTER.SOLV>
14.5268

>  <SCORE.INTER.VDW>
-19.5947

>  <SCORE.INTER.norm>
-0.346083

>  <SCORE.INTRA>
-2.51204

>  <SCORE.INTRA.DIHEDRAL>
-14.3644

>  <SCORE.INTRA.DIHEDRAL.0>
22.2484

>  <SCORE.INTRA.POLAR>
0

>  <SCORE.INTRA.POLAR.0>
0

>  <SCORE.INTRA.REPUL>
0

>  <SCORE.INTRA.REPUL.0>
0

>  <SCORE.INTRA.SOLV>
0.70996

>  <SCORE.INTRA.SOLV.lig_0>
-75.7198

>  <SCORE.INTRA.VDW>
4.31518

>  <SCORE.INTRA.VDW.0>
-3.34171

>  <SCORE.INTRA.norm>
-0.0810334

>  <SCORE.RESTR>
1.71116

>  <SCORE.RESTR.CAVITY>
1.71116

>  <SCORE.RESTR.norm>
0.0551987

>  <SCORE.SYSTEM>
0

>  <SCORE.SYSTEM.CONST>
0

>  <SCORE.SYSTEM.DIHEDRAL>
0

>  <SCORE.SYSTEM.SOLV>
0

>  <SCORE.SYSTEM.norm>
0

>  <SCORE.heavy>
31

>  <SCORE.norm>
-0.371918

>  <RMSD>
12.578

$$$$
2et3_lig
 OpenBabel11021811423D
libRbt.so/2013.1/901 2013/11/27
 31 33  0  0  0  0  0  0  0  0999 V2000
    1.7600   -1.4917   35.6600 C   0  0  2  0  0  0  0  0  0  0  0  0
    0.9103   -1.3810   36.8313 O   0  0  0  0  0  0  0  0  0  0  0  0
    3.3315    1.2021   39.2338 C   0  0  2  0  0  0  0  0  0  0  0  0
    3.7318    2.0268   40.3316 N   0  0  0  0  0  0  0  0  0  0  0  0
    5.1297   -1.7241   39.6333 C   0  0  2  0  0  0  0  0  0  0  0  0
    0.9465   -2.0314   34.4788 C   0  0  2  0  0  0  0  0  0  0  0  0
   -0.1767   -1.1712   34.2676 N   0  0  0  0  0  0  0  0  0  0  0  0
    2.0421    1.7943   38.5790 C   0  0  0  0  0  0  0  0  0  0  0  0
    5.8782   -2.4884   40.7475 C   0  0  2  0  0  0  0  0  0  0  0  0
    4.9335   -3.1215   41.5814 O   0  0  0  0  0  0  0  0  0  0  0  0
    0.5062   -3.5108   34.7488 C   0  0  0  0  0  0  0  0  0  0  0  0
    1.5894    0.8886   37.3757 C   0  0  2  0  0  0  0  0  0  0  0  0
    0.3749    1.4419   36.7557 N   0  0  0  0  0  0  0  0  0  0  0  0
    6.7628   -1.4454   41.5453 C   0  0  1  0  0  0  0  0  0  0  0  0
    7.4911   -2.0994   42.6813 N   0  0  0  0  0  0  0  0  0  0  0  0
    1.7949   -4.3716   34.9362 C   0  0  0  0  0  0  0  0  0  0  0  0
    1.3324   -0.5802   37.8886 C   0  0  2  0  0  0  0  0  0  0  0  0
    7.8202   -0.7298   40.5485 C   0  0  1  0  0  0  0  0  0  0  0  0
    8.7191   -1.6677   39.9937 O   0  0  0  0  0  0  0  0  0  0  0  0
    2.6337   -3.7714   36.1490 C   0  0  2  0  0  0  0  0  0  0  0  0
    2.9353   -2.3526   35.9658 O   0  0  0  0  0  0  0  0  0  0  0  0
    2.6493   -1.1483   38.5451 C   0  0  2  0  0  0  0  0  0  0  0  0
    2.4400   -2.4771   39.0123 O   0  0  0  0  0  0  0  0  0  0  0  0
    7.0419   -0.0661   39.3706 C   0  0  0  0  0  0  0  0  0  0  0  0
    6.1092   -1.0527   38.7308 O   0  0  0  0  0  0  0  0  0  0  0  0
    3.9069   -4.5254   36.4528 C   0  0  0  0  0  0  0  0  0  0  0  0
    4.8888   -4.3580   35.4137 N   0  0  0  0  0  0  0  0  0  0  0  0
    3.0859   -0.2314   39.7412 C   0  0  1  0  0  0  0  0  0  0  0  0
    4.2775   -0.7557   40.3145 O   0  0  0  0  0  0  0  0  0  0  0  0
    8.7484    0.3253   41.1656 C   0  0  0  0  0  0  0  0  0  0  0  0
    7.3815   -1.4622   44.0043 C   0  0  0  0  0  0  0  0  0  0  0  0
  1  2  1  1  0  0  0
  1  6  1  0  0  0  0
  1 21  1  0  0  0  0
  3  4  1  1  0  0  0
  3  8  1  0  0  0  0
  3 28  1  0  0  0  0
  5  9  1  0  0  0  0
  5 25  1  0  0  0  0
  5 29  1  1  0  0  0
  6  7  1  1  0  0  0
  6 11  1  0  0  0  0
  8 12  1  0  0  0  0
  9 10  1  1  0  0  0
  9 14  1  0  0  0  0
 11 16  1  0  0  0  0
 12 13  1  1  0  0  0
 12 17  1  0  0  0  0
 14 15  1  1  0  0  0
 14 18  1  0  0  0  0
 15 31  1  0  0  0  0
 16 20  1  0  0  0  0
 17  2  1  6  0  0  0
 17 22  1  0  0  0  0
 18 19  1  6  0  0  0
 18 24  1  0  0  0  0
 18 30  1  0  0  0  0
 20 21  1  0  0  0  0
 20 26  1  6  0  0  0
 22 23  1  1  0  0  0
 22 28  1  0  0  0  0
 24 25  1  0  0  0  0
 26 27  1  0  0  0  0
 28 29  1  6  0  0  0
M  END
>  <CHROM.1>
-162.35503394,-154.81303961,-129.72565883,57.06327755,69.35062816,-103.52284464
3.93534297,-1.38478217,38.50233023,-2.63526366,-0.62744390,0.61032130

>  <Name>
2et3_lig

>  <RI>
0

>  <Rbt.Current_Directory>
/home/itssahil/PROJECTS/Mol_Feturizer/New_Systems/rnas/2et3

>  <Rbt.Executable>
rbdock ($Id: //depot/dev/client3/rdock/2013.1/src/exe/rbdock.cxx#4 $)

>  <Rbt.Library>
libRbt.so (2013.1, Build901 2013/11/27)

>  <Rbt.Parameter_File>
/export/apps/rDock/src/rDock_2013.1_src/data/scripts/dock_solv.prm

>  <Rbt.Receptor>
prm/blind_docking_60.prm

>  <SCORE>
-18.4363

>  <SCORE.INTER>
-15.7697

>  <SCORE.INTER.CONST>
1

>  <SCORE.INTER.POLAR>
-0.793622

>  <SCORE.INTER.ROT>
6

>  <SCORE.INTER.SOLV>
23.1622

>  <SCORE.INTER.VDW>
-23.1884

>  <SCORE.INTER.norm>
-0.508699

>  <SCORE.INTRA>
-4.54288

>  <SCORE.INTRA.DIHEDRAL>
-10.5464

>  <SCORE.INTRA.DIHEDRAL.0>
22.2484

>  <SCORE.INTRA.POLAR>
0

>  <SCORE.INTRA.POLAR.0>
0

>  <SCORE.INTRA.REPUL>
0

>  <SCORE.INTRA.REPUL.0>
0

>  <SCORE.INTRA.SOLV>
-0.616538

>  <SCORE.INTRA.SOLV.lig_0>
-75.7198

>  <SCORE.INTRA.VDW>
1.03859

>  <SCORE.INTRA.VDW.0>
-3.34171

>  <SCORE.INTRA.norm>
-0.146545

>  <SCORE.RESTR>
1.87622

>  <SCORE.RESTR.CAVITY>
1.87622

>  <SCORE.RESTR.norm>
0.0605232

>  <SCORE.SYSTEM>
0

>  <SCORE.SYSTEM.CONST>
0

>  <SCORE.SYSTEM.DIHEDRAL>
0

>  <SCORE.SYSTEM.SOLV>
0

>  <SCORE.SYSTEM.norm>
0

>  <SCORE.heavy>
31

>  <SCORE.norm>
-0.594721

>  <RMSD>
12.578

$$$$
2et3_lig
 OpenBabel11021811423D
libRbt.so/2013.1/901 2013/11/27
 31 33  0  0  0  0  0  0  0  0999 V2000
   -1.4665   -1.0934   39.0166 C   0  0  2  0  0  0  0  0  0  0  0  0
   -0.4057   -0.5668   39.8554 O   0  0  0  0  0  0  0  0  0  0  0  0
    3.8599   -0.8781   39.7381 C   0  0  2  0  0  0  0  0  0  0  0  0
    5.1587   -1.4648   39.6175 N   0  0  0  0  0  0  0  0  0  0  0  0
    4.7297   -1.1853   36.4964 C   0  0  2  0  0  0  0  0  0  0  0  0
   -2.1109    0.0459   38.2197 C   0  0  2  0  0  0  0  0  0  0  0  0
   -1.0911    0.7111   37.4689 N   0  0  0  0  0  0  0  0  0  0  0  0
    3.1035   -1.5275   40.9416 C   0  0  0  0  0  0  0  0  0  0  0  0
    4.0443   -1.3209   35.1188 C   0  0  2  0  0  0  0  0  0  0  0  0
    3.7660   -0.0324   34.6181 O   0  0  0  0  0  0  0  0  0  0  0  0
   -2.8628    1.0285   39.1812 C   0  0  0  0  0  0  0  0  0  0  0  0
    1.6703   -0.8943   41.0765 C   0  0  2  0  0  0  0  0  0  0  0  0
    0.9535   -1.5030   42.2085 N   0  0  0  0  0  0  0  0  0  0  0  0
    2.7255   -2.1755   35.3119 C   0  0  1  0  0  0  0  0  0  0  0  0
    1.9699   -2.3166   34.0242 N   0  0  0  0  0  0  0  0  0  0  0  0
   -3.9685    0.2199   39.9298 C   0  0  0  0  0  0  0  0  0  0  0  0
    0.8715   -1.1062   39.7336 C   0  0  2  0  0  0  0  0  0  0  0  0
    3.0881   -3.6388   35.9042 C   0  0  1  0  0  0  0  0  0  0  0  0
    3.9037   -4.3674   35.0101 O   0  0  0  0  0  0  0  0  0  0  0  0
   -3.2746   -0.9728   40.7240 C   0  0  2  0  0  0  0  0  0  0  0  0
   -2.4611   -1.8194   39.8530 O   0  0  0  0  0  0  0  0  0  0  0  0
    1.6602   -0.4428   38.5397 C   0  0  2  0  0  0  0  0  0  0  0  0
    0.9535   -0.6195   37.3161 O   0  0  0  0  0  0  0  0  0  0  0  0
    3.8818   -3.4675   37.2363 C   0  0  0  0  0  0  0  0  0  0  0  0
    5.0436   -2.5369   37.0436 O   0  0  0  0  0  0  0  0  0  0  0  0
   -4.2352   -1.8313   41.5127 C   0  0  0  0  0  0  0  0  0  0  0  0
   -4.9194   -1.0746   42.5280 N   0  0  0  0  0  0  0  0  0  0  0  0
    3.0869   -1.0855   38.4220 C   0  0  1  0  0  0  0  0  0  0  0  0
    3.7840   -0.4696   37.3459 O   0  0  0  0  0  0  0  0  0  0  0  0
    1.9129   -4.5910   36.1646 C   0  0  0  0  0  0  0  0  0  0  0  0
    0.5006   -2.2545   34.0981 C   0  0  0  0  0  0  0  0  0  0  0  0
  1  2  1  1  0  0  0
  1  6  1  0  0  0  0
  1 21  1  0  0  0  0
  3  4  1  6  0  0  0
  3  8  1  0  0  0  0
  3 28  1  0  0  0  0
  5  9  1  0  0  0  0
  5 25  1  0  0  0  0
  5 29  1  1  0  0  0
  6  7  1  1  0  0  0
  6 11  1  0  0  0  0
  8 12  1  0  0  0  0
  9 10  1  1  0  0  0
  9 14  1  0  0  0  0
 11 16  1  0  0  0  0
 12 13  1  1  0  0  0
 12 17  1  0  0  0  0
 14 15  1  6  0  0  0
 14 18  1  0  0  0  0
 15 31  1  0  0  0  0
 16 20  1  0  0  0  0
 17  2  1  1  0  0  0
 17 22  1  0  0  0  0
 18 19  1  6  0  0  0
 18 24  1  0  0  0  0
 18 30  1  0  0  0  0
 20 21  1  0  0  0  0
 20 26  1  6  0  0  0
 22 23  1  6  0  0  0
 22 28  1  0  0  0  0
 24 25  1  0  0  0  0
 26 27  1  0  0  0  0
 28 29  1  6  0  0  0
M  END
>  <CHROM.1>
-124.38553317,109.52943256,-141.44536401,-155.11057041,-61.72928882,93.74691923
1.10670874,-1.40630503,38.16424802,2.53012611,-0.12869910,1.42471782

>  <Name>
2et3_lig

>  <RI>
1.07224e+07

>  <Rbt.Current_Directory>
/home/itssahil/PROJECTS/Mol_Feturizer/New_Systems/rnas/2et3

>  <Rbt.Executable>
rbdock ($Id: //depot/dev/client3/rdock/2013.1/src/exe/rbdock.cxx#4 $)

>  <Rbt.Library>
libRbt.so (2013.1, Build901 2013/11/27)

>  <Rbt.Parameter_File>
/export/apps/rDock/src/rDock_2013.1_src/data/scripts/dock_solv.prm

>  <Rbt.Receptor>
prm/blind_docking_80.prm

>  <SCORE>
-1.45042

>  <SCORE.INTER>
-6.08568

>  <SCORE.INTER.CONST>
1

>  <SCORE.INTER.POLAR>
-0.748908

>  <SCORE.INTER.ROT>
6

>  <SCORE.INTER.SOLV>
14.4983

>  <SCORE.INTER.VDW>
-13.9935

>  <SCORE.INTER.norm>
-0.196312

>  <SCORE.INTRA>
1.97853

>  <SCORE.INTRA.DIHEDRAL>
-0.577387

>  <SCORE.INTRA.DIHEDRAL.0>
22.2484

>  <SCORE.INTRA.POLAR>
0

>  <SCORE.INTRA.POLAR.0>
0

>  <SCORE.INTRA.REPUL>
0

>  <SCORE.INTRA.REPUL.0>
0

>  <SCORE.INTRA.SOLV>
0.978439

>  <SCORE.INTRA.SOLV.lig_0>
-75.7198

>  <SCORE.INTRA.VDW>
1.77801

>  <SCORE.INTRA.VDW.0>
-3.34171

>  <SCORE.INTRA.norm>
0.0638237

>  <SCORE.RESTR>
2.65672

>  <SCORE.RESTR.CAVITY>
2.65672

>  <SCORE.RESTR.norm>
0.0857007

>  <SCORE.SYSTEM>
0

>  <SCORE.SYSTEM.CONST>
0

>  <SCORE.SYSTEM.DIHEDRAL>
0

>  <SCORE.SYSTEM.SOLV>
0

>  <SCORE.SYSTEM.norm>
0

>  <SCORE.heavy>
31

>  <SCORE.norm>
-0.0467878

>  <RMSD>
12.580

$$$$
2et3_lig
 OpenBabel11021811423D
libRbt.so/2013.1/901 2013/11/27
 31 33  0  0  0  0  0  0  0  0999 V2000
    6.3166    0.4507   39.9692 C   0  0  2  0  0  0  0  0  0  0  0  0
    5.9763    0.3288   38.5636 O   0  0  0  0  0  0  0  0  0  0  0  0
    1.8124   -0.5962   38.8996 C   0  0  2  0  0  0  0  0  0  0  0  0
    0.4572   -0.8387   38.5120 N   0  0  0  0  0  0  0  0  0  0  0  0
    1.7007   -3.8913   37.7105 C   0  0  2  0  0  0  0  0  0  0  0  0
    7.8081    0.7708   40.1153 C   0  0  2  0  0  0  0  0  0  0  0  0
    8.0945    1.9590   39.3721 N   0  0  0  0  0  0  0  0  0  0  0  0
    2.2170    0.8595   38.5005 C   0  0  0  0  0  0  0  0  0  0  0  0
    2.8297   -4.5149   36.8608 C   0  0  2  0  0  0  0  0  0  0  0  0
    3.7452   -5.1585   37.7188 O   0  0  0  0  0  0  0  0  0  0  0  0
    8.6771   -0.4415   39.6353 C   0  0  0  0  0  0  0  0  0  0  0  0
    3.7092    1.1322   38.9152 C   0  0  2  0  0  0  0  0  0  0  0  0
    4.0954    2.5020   38.5410 N   0  0  0  0  0  0  0  0  0  0  0  0
    3.5157   -3.3529   36.0324 C   0  0  1  0  0  0  0  0  0  0  0  0
    4.6601   -3.8669   35.2107 N   0  0  0  0  0  0  0  0  0  0  0  0
    8.3154   -1.6753   40.5206 C   0  0  0  0  0  0  0  0  0  0  0  0
    4.6518    0.0782   38.2171 C   0  0  2  0  0  0  0  0  0  0  0  0
    2.4274   -2.6299   35.0751 C   0  0  1  0  0  0  0  0  0  0  0  0
    1.8980   -3.5324   34.1260 O   0  0  0  0  0  0  0  0  0  0  0  0
    6.7572   -1.9665   40.3723 C   0  0  2  0  0  0  0  0  0  0  0  0
    5.9418   -0.7959   40.6915 O   0  0  0  0  0  0  0  0  0  0  0  0
    4.2172   -1.3787   38.6372 C   0  0  2  0  0  0  0  0  0  0  0  0
    5.0589   -2.3473   38.0200 O   0  0  0  0  0  0  0  0  0  0  0  0
    1.2429   -2.1132   35.9489 C   0  0  0  0  0  0  0  0  0  0  0  0
    0.7127   -3.2116   36.8236 O   0  0  0  0  0  0  0  0  0  0  0  0
    6.2721   -3.1549   41.1688 C   0  0  0  0  0  0  0  0  0  0  0  0
    6.5019   -2.9835   42.5793 N   0  0  0  0  0  0  0  0  0  0  0  0
    2.7266   -1.6313   38.2173 C   0  0  1  0  0  0  0  0  0  0  0  0
    2.3520   -2.9459   38.6107 O   0  0  0  0  0  0  0  0  0  0  0  0
    2.9305   -1.4654   34.2112 C   0  0  0  0  0  0  0  0  0  0  0  0
    6.0083   -3.3956   35.5690 C   0  0  0  0  0  0  0  0  0  0  0  0
  1  2  1  6  0  0  0
  1  6  1  0  0  0  0
  1 21  1  0  0  0  0
  3  4  1  6  0  0  0
  3  8  1  0  0  0  0
  3 28  1  0  0  0  0
  5  9  1  0  0  0  0
  5 25  1  0  0  0  0
  5 29  1  1  0  0  0
  6  7  1  6  0  0  0
  6 11  1  0  0  0  0
  8 12  1  0  0  0  0
  9 10  1  1  0  0  0
  9 14  1  0  0  0  0
 11 16  1  0  0  0  0
 12 13  1  6  0  0  0
 12 17  1  0  0  0  0
 14 15  1  6  0  0  0
 14 18  1  0  0  0  0
 15 31  1  0  0  0  0
 16 20  1  0  0  0  0
 17  2  1  1  0  0  0
 17 22  1  0  0  0  0
 18 19  1  6  0  0  0
 18 24  1  0  0  0  0
 18 30  1  0  0  0  0
 20 21  1  0  0  0  0
 20 26  1  1  0  0  0
 22 23  1  6  0  0  0
 22 28  1  0  0  0  0
 24 25  1  0  0  0  0
 26 27  1  0  0  0  0
 28 29  1  1  0  0  0
M  END
>  <CHROM.1>
-178.09777638,81.32476762,-114.04791902,52.13915112,60.17314382,109.05430555
4.30286352,-1.64129948,38.15013537,0.59240996,-0.56190304,0.31463735

>  <Name>
2et3_lig

>  <RI>
0

>  <Rbt.Current_Directory>
/home/itssahil/PROJECTS/Mol_Feturizer/New_Systems/rnas/2et3

>  <Rbt.Executable>
rbdock ($Id: //depot/dev/client3/rdock/2013.1/src/exe/rbdock.cxx#4 $)

>  <Rbt.Library>
libRbt.so (2013.1, Build901 2013/11/27)

>  <Rbt.Parameter_File>
/export/apps/rDock/src/rDock_2013.1_src/data/scripts/dock_solv.prm

>  <Rbt.Receptor>
prm/blind_docking_60.prm

>  <SCORE>
-9.36089

>  <SCORE.INTER>
-8.32941

>  <SCORE.INTER.CONST>
1

>  <SCORE.INTER.POLAR>
-0.916515

>  <SCORE.INTER.ROT>
6

>  <SCORE.INTER.SOLV>
17.1412

>  <SCORE.INTER.VDW>
-15.8116

>  <SCORE.INTER.norm>
-0.268691

>  <SCORE.INTRA>
-1.90527

>  <SCORE.INTRA.DIHEDRAL>
-11.9523

>  <SCORE.INTRA.DIHEDRAL.0>
22.2484

>  <SCORE.INTRA.POLAR>
0

>  <SCORE.INTRA.POLAR.0>
0

>  <SCORE.INTRA.REPUL>
0

>  <SCORE.INTRA.REPUL.0>
0

>  <SCORE.INTRA.SOLV>
1.82709

>  <SCORE.INTRA.SOLV.lig_0>
-75.7198

>  <SCORE.INTRA.VDW>
3.15731

>  <SCORE.INTRA.VDW.0>
-3.34171

>  <SCORE.INTRA.norm>
-0.0614604

>  <SCORE.RESTR>
0.873788

>  <SCORE.RESTR.CAVITY>
0.873788

>  <SCORE.RESTR.norm>
0.0281867

>  <SCORE.SYSTEM>
0

>  <SCORE.SYSTEM.CONST>
0

>  <SCORE.SYSTEM.DIHEDRAL>
0

>  <SCORE.SYSTEM.SOLV>
0

>  <SCORE.SYSTEM.norm>
0

>  <SCORE.heavy>
31

>  <SCORE.norm>
-0.301964

>  <RMSD>
12.605

$$$$
2et3_lig
 OpenBabel11021811423D
libRbt.so/2013.1/901 2013/11/27
 31 33  0  0  0  0  0  0  0  0999 V2000
   -0.4521   -0.9447   41.4214 C   0  0  2  0  0  0  0  0  0  0  0  0
    0.2713   -2.0826   40.8846 O   0  0  0  0  0  0  0  0  0  0  0  0
    3.4668   -0.0617   38.8819 C   0  0  2  0  0  0  0  0  0  0  0  0
    4.7109    0.1398   38.2057 N   0  0  0  0  0  0  0  0  0  0  0  0
    3.1320   -0.8035   35.5884 C   0  0  2  0  0  0  0  0  0  0  0  0
   -1.1822   -1.3535   42.7052 C   0  0  2  0  0  0  0  0  0  0  0  0
   -0.2241   -1.8837   43.6257 N   0  0  0  0  0  0  0  0  0  0  0  0
    3.7358   -0.6394   40.3088 C   0  0  0  0  0  0  0  0  0  0  0  0
    2.3139   -1.8659   34.8217 C   0  0  2  0  0  0  0  0  0  0  0  0
    1.0640   -1.3152   34.4714 O   0  0  0  0  0  0  0  0  0  0  0  0
   -2.3164   -2.3859   42.3841 C   0  0  0  0  0  0  0  0  0  0  0  0
    2.3723   -0.8725   41.0568 C   0  0  2  0  0  0  0  0  0  0  0  0
    2.6202   -1.4171   42.4013 N   0  0  0  0  0  0  0  0  0  0  0  0
    2.1577   -3.1319   35.7597 C   0  0  1  0  0  0  0  0  0  0  0  0
    1.3314   -4.1997   35.1069 N   0  0  0  0  0  0  0  0  0  0  0  0
   -3.3219   -1.7083   41.4010 C   0  0  0  0  0  0  0  0  0  0  0  0
    1.4707   -1.8557   40.2160 C   0  0  2  0  0  0  0  0  0  0  0  0
    3.6145   -3.7215   36.1519 C   0  0  1  0  0  0  0  0  0  0  0  0
    4.3158   -4.1618   35.0075 O   0  0  0  0  0  0  0  0  0  0  0  0
   -2.5317   -1.2682   40.0908 C   0  0  2  0  0  0  0  0  0  0  0  0
   -1.3885   -0.4093   40.3953 O   0  0  0  0  0  0  0  0  0  0  0  0
    1.2195   -1.2467   38.7829 C   0  0  2  0  0  0  0  0  0  0  0  0
    0.4032   -2.1182   38.0072 O   0  0  0  0  0  0  0  0  0  0  0  0
    4.4589   -2.5921   36.8190 C   0  0  0  0  0  0  0  0  0  0  0  0
    4.4644   -1.3598   35.9622 O   0  0  0  0  0  0  0  0  0  0  0  0
   -3.3949   -0.6100   39.0403 C   0  0  0  0  0  0  0  0  0  0  0  0
   -4.0398    0.5746   39.5431 N   0  0  0  0  0  0  0  0  0  0  0  0
    2.5901   -1.0197   38.0535 C   0  0  1  0  0  0  0  0  0  0  0  0
    2.3429   -0.4641   36.7676 O   0  0  0  0  0  0  0  0  0  0  0  0
    3.6396   -4.9482   37.0740 C   0  0  0  0  0  0  0  0  0  0  0  0
    0.4604   -5.0028   35.9813 C   0  0  0  0  0  0  0  0  0  0  0  0
  1  2  1  6  0  0  0
  1  6  1  0  0  0  0
  1 21  1  0  0  0  0
  3  4  1  6  0  0  0
  3  8  1  0  0  0  0
  3 28  1  0  0  0  0
  5  9  1  0  0  0  0
  5 25  1  0  0  0  0
  5 29  1  1  0  0  0
  6  7  1  1  0  0  0
  6 11  1  0  0  0  0
  8 12  1  0  0  0  0
  9 10  1  1  0  0  0
  9 14  1  0  0  0  0
 11 16  1  0  0  0  0
 12 13  1  1  0  0  0
 12 17  1  0  0  0  0
 14 15  1  6  0  0  0
 14 18  1  0  0  0  0
 15 31  1  0  0  0  0
 16 20  1  0  0  0  0
 17  2  1  1  0  0  0
 17 22  1  0  0  0  0
 18 19  1  6  0  0  0
 18 24  1  0  0  0  0
 18 30  1  0  0  0  0
 20 21  1  0  0  0  0
 20 26  1  6  0  0  0
 22 23  1  6  0  0  0
 22 28  1  0  0  0  0
 24 25  1  0  0  0  0
 26 27  1  0  0  0  0
 28 29  1  6  0  0  0
M  END
>  <CHROM.1>
-147.21788053,98.71685831,-145.11507770,46.99816337,59.14912890,96.18074796
1.20696030,-1.78082990,38.56597919,-2.28247368,-0.03983311,-1.86011058

>  <Name>
2et3_lig

>  <RI>
0

>  <Rbt.Current_Directory>
/home/itssahil/PROJECTS/Mol_Feturizer/New_Systems/rnas/2et3

>  <Rbt.Executable>
rbdock ($Id: //depot/dev/client3/rdock/2013.1/src/exe/rbdock.cxx#4 $)

>  <Rbt.Library>
libRbt.so (2013.1, Build901 2013/11/27)

>  <Rbt.Parameter_File>
/export/apps/rDock/src/rDock_2013.1_src/data/scripts/dock_solv.prm

>  <Rbt.Receptor>
prm/blind_docking_60.prm

>  <SCORE>
-8.11805

>  <SCORE.INTER>
-9.35074

>  <SCORE.INTER.CONST>
1

>  <SCORE.INTER.POLAR>
-0.895973

>  <SCORE.INTER.ROT>
6

>  <SCORE.INTER.SOLV>
13.0662

>  <SCORE.INTER.VDW>
-15.2026

>  <SCORE.INTER.norm>
-0.301637

>  <SCORE.INTRA>
0.455359

>  <SCORE.INTRA.DIHEDRAL>
-6.52428

>  <SCORE.INTRA.DIHEDRAL.0>
22.2484

>  <SCORE.INTRA.POLAR>
0

>  <SCORE.INTRA.POLAR.0>
0

>  <SCORE.INTRA.REPUL>
0

>  <SCORE.INTRA.REPUL.0>
0

>  <SCORE.INTRA.SOLV>
2.96

>  <SCORE.INTRA.SOLV.lig_0>
-75.7198

>  <SCORE.INTRA.VDW>
2.2375

>  <SCORE.INTRA.VDW.0>
-3.34171

>  <SCORE.INTRA.norm>
0.014689

>  <SCORE.RESTR>
0.777335

>  <SCORE.RESTR.CAVITY>
0.777335

>  <SCORE.RESTR.norm>
0.0250753

>  <SCORE.SYSTEM>
0

>  <SCORE.SYSTEM.CONST>
0

>  <SCORE.SYSTEM.DIHEDRAL>
0

>  <SCORE.SYSTEM.SOLV>
0

>  <SCORE.SYSTEM.norm>
0

>  <SCORE.heavy>
31

>  <SCORE.norm>
-0.261873

>  <RMSD>
12.608

$$$$
2et3_lig
 OpenBabel11021811423D
libRbt.so/2013.1/901 2013/11/27
 31 33  0  0  0  0  0  0  0  0999 V2000
    3.8186   -1.5419   35.6664 C   0  0  2  0  0  0  0  0  0  0  0  0
    2.9723   -0.7227   36.5143 O   0  0  0  0  0  0  0  0  0  0  0  0
    2.1656   -0.9470   40.7102 C   0  0  2  0  0  0  0  0  0  0  0  0
    1.7547   -1.4859   41.9697 N   0  0  0  0  0  0  0  0  0  0  0  0
    5.4764   -2.7727   41.0732 C   0  0  2  0  0  0  0  0  0  0  0  0
    3.2952   -1.5104   34.2265 C   0  0  2  0  0  0  0  0  0  0  0  0
    3.2320   -0.1484   33.7938 N   0  0  0  0  0  0  0  0  0  0  0  0
    0.9542   -0.9449   39.7230 C   0  0  0  0  0  0  0  0  0  0  0  0
    6.1012   -2.7192   42.4847 C   0  0  2  0  0  0  0  0  0  0  0  0
    5.0998   -2.9950   43.4385 O   0  0  0  0  0  0  0  0  0  0  0  0
    1.8994   -2.2167   34.1367 C   0  0  0  0  0  0  0  0  0  0  0  0
    1.3993   -0.3618   38.3320 C   0  0  2  0  0  0  0  0  0  0  0  0
    0.2618   -0.3581   37.3983 N   0  0  0  0  0  0  0  0  0  0  0  0
    6.7269   -1.2789   42.6872 C   0  0  1  0  0  0  0  0  0  0  0  0
    7.3169   -1.1248   44.0572 N   0  0  0  0  0  0  0  0  0  0  0  0
    2.0767   -3.6971   34.5990 C   0  0  0  0  0  0  0  0  0  0  0  0
    2.5890   -1.2216   37.7559 C   0  0  2  0  0  0  0  0  0  0  0  0
    7.8577   -0.9964   41.5624 C   0  0  1  0  0  0  0  0  0  0  0  0
    8.9288   -1.9111   41.6695 O   0  0  0  0  0  0  0  0  0  0  0  0
    2.6484   -3.6994   36.0849 C   0  0  2  0  0  0  0  0  0  0  0  0
    3.8848   -2.9284   36.2043 O   0  0  0  0  0  0  0  0  0  0  0  0
    3.7934   -1.2059   38.7743 C   0  0  2  0  0  0  0  0  0  0  0  0
    4.8814   -1.9745   38.2712 O   0  0  0  0  0  0  0  0  0  0  0  0
    7.2247   -1.1724   40.1475 C   0  0  0  0  0  0  0  0  0  0  0  0
    6.5196   -2.4933   40.0443 O   0  0  0  0  0  0  0  0  0  0  0  0
    2.8526   -5.0785   36.6664 C   0  0  0  0  0  0  0  0  0  0  0  0
    3.3641   -5.0220   38.0106 N   0  0  0  0  0  0  0  0  0  0  0  0
    3.3300   -1.7891   40.1553 C   0  0  1  0  0  0  0  0  0  0  0  0
    4.4266   -1.7597   41.0608 O   0  0  0  0  0  0  0  0  0  0  0  0
    8.5553    0.3699   41.6097 C   0  0  0  0  0  0  0  0  0  0  0  0
    7.6086   -2.3592   44.8050 C   0  0  0  0  0  0  0  0  0  0  0  0
  1  2  1  1  0  0  0
  1  6  1  0  0  0  0
  1 21  1  0  0  0  0
  3  4  1  1  0  0  0
  3  8  1  0  0  0  0
  3 28  1  0  0  0  0
  5  9  1  0  0  0  0
  5 25  1  0  0  0  0
  5 29  1  1  0  0  0
  6  7  1  1  0  0  0
  6 11  1  0  0  0  0
  8 12  1  0  0  0  0
  9 10  1  1  0  0  0
  9 14  1  0  0  0  0
 11 16  1  0  0  0  0
 12 13  1  6  0  0  0
 12 17  1  0  0  0  0
 14 15  1  1  0  0  0
 14 18  1  0  0  0  0
 15 31  1  0  0  0  0
 16 20  1  0  0  0  0
 17  2  1  6  0  0  0
 17 22  1  0  0  0  0
 18 19  1  1  0  0  0
 18 24  1  0  0  0  0
 18 30  1  0  0  0  0
 20 21  1  0  0  0  0
 20 26  1  6  0  0  0
 22 23  1  6  0  0  0
 22 28  1  0  0  0  0
 24 25  1  0  0  0  0
 26 27  1  0  0  0  0
 28 29  1  1  0  0  0
M  END
>  <CHROM.1>
135.53016444,-157.50351533,18.39276254,-165.35657805,-179.74455695,158.73180733
4.33573033,-1.88431026,39.17749361,-2.15380733,-0.05668496,1.47953606

>  <Name>
2et3_lig

>  <RI>
1.07224e+07

>  <Rbt.Current_Directory>
/home/itssahil/PROJECTS/Mol_Feturizer/New_Systems/rnas/2et3

>  <Rbt.Executable>
rbdock ($Id: //depot/dev/client3/rdock/2013.1/src/exe/rbdock.cxx#4 $)

>  <Rbt.Library>
libRbt.so (2013.1, Build901 2013/11/27)

>  <Rbt.Parameter_File>
/export/apps/rDock/src/rDock_2013.1_src/data/scripts/dock_solv.prm

>  <Rbt.Receptor>
prm/blind_docking_80.prm

>  <SCORE>
-4.64483

>  <SCORE.INTER>
-5.07719

>  <SCORE.INTER.CONST>
1

>  <SCORE.INTER.POLAR>
-0.105985

>  <SCORE.INTER.ROT>
6

>  <SCORE.INTER.SOLV>
24.1689

>  <SCORE.INTER.VDW>
-18.6878

>  <SCORE.INTER.norm>
-0.16378

>  <SCORE.INTRA>
-0.374824

>  <SCORE.INTRA.DIHEDRAL>
-9.89915

>  <SCORE.INTRA.DIHEDRAL.0>
22.2484

>  <SCORE.INTRA.POLAR>
0

>  <SCORE.INTRA.POLAR.0>
0

>  <SCORE.INTRA.REPUL>
0

>  <SCORE.INTRA.REPUL.0>
0

>  <SCORE.INTRA.SOLV>
-0.321137

>  <SCORE.INTRA.SOLV.lig_0>
-75.7198

>  <SCORE.INTRA.VDW>
4.73532

>  <SCORE.INTRA.VDW.0>
-3.34171

>  <SCORE.INTRA.norm>
-0.0120911

>  <SCORE.RESTR>
0.80718

>  <SCORE.RESTR.CAVITY>
0.80718

>  <SCORE.RESTR.norm>
0.0260381

>  <SCORE.SYSTEM>
0

>  <SCORE.SYSTEM.CONST>
0

>  <SCORE.SYSTEM.DIHEDRAL>
0

>  <SCORE.SYSTEM.SOLV>
0

>  <SCORE.SYSTEM.norm>
0

>  <SCORE.heavy>
31

>  <SCORE.norm>
-0.149833

>  <RMSD>
12.608

$$$$
2et3_lig
 OpenBabel11021811423D
libRbt.so/2013.1/901 2013/11/27
 31 33  0  0  0  0  0  0  0  0999 V2000
    1.9620   -1.7533   35.7701 C   0  0  2  0  0  0  0  0  0  0  0  0
    1.0530   -1.4959   36.8717 O   0  0  0  0  0  0  0  0  0  0  0  0
    3.5214    1.0589   39.2562 C   0  0  2  0  0  0  0  0  0  0  0  0
    3.9237    1.9131   40.3305 N   0  0  0  0  0  0  0  0  0  0  0  0
    5.2458   -1.7790   39.8007 C   0  0  2  0  0  0  0  0  0  0  0  0
    1.1628   -2.0212   34.4903 C   0  0  2  0  0  0  0  0  0  0  0  0
    0.3025   -0.9044   34.2477 N   0  0  0  0  0  0  0  0  0  0  0  0
    2.2995    1.6918   38.5155 C   0  0  0  0  0  0  0  0  0  0  0  0
    6.0916   -2.4234   40.9210 C   0  0  2  0  0  0  0  0  0  0  0  0
    5.2364   -3.1352   41.7873 O   0  0  0  0  0  0  0  0  0  0  0  0
    0.3590   -3.3602   34.6179 C   0  0  0  0  0  0  0  0  0  0  0  0
    1.8446    0.7546   37.3375 C   0  0  2  0  0  0  0  0  0  0  0  0
    0.6936    1.3460   36.6369 N   0  0  0  0  0  0  0  0  0  0  0  0
    6.8644   -1.2660   41.6761 C   0  0  1  0  0  0  0  0  0  0  0  0
    7.6780   -1.8024   42.8159 N   0  0  0  0  0  0  0  0  0  0  0  0
    1.3813   -4.5167   34.8506 C   0  0  0  0  0  0  0  0  0  0  0  0
    1.4772   -0.6690   37.9077 C   0  0  2  0  0  0  0  0  0  0  0  0
    7.8199   -0.4639   40.6430 C   0  0  1  0  0  0  0  0  0  0  0  0
    8.8108   -1.3099   40.0971 O   0  0  0  0  0  0  0  0  0  0  0  0
    2.2164   -4.1980   36.1681 C   0  0  2  0  0  0  0  0  0  0  0  0
    2.8632   -2.8881   36.1110 O   0  0  0  0  0  0  0  0  0  0  0  0
    2.7279   -1.2793   38.6501 C   0  0  2  0  0  0  0  0  0  0  0  0
    2.4186   -2.5683   39.1703 O   0  0  0  0  0  0  0  0  0  0  0  0
    6.9550    0.0753   39.4620 C   0  0  0  0  0  0  0  0  0  0  0  0
    6.1303   -1.0271   38.8642 O   0  0  0  0  0  0  0  0  0  0  0  0
    3.2378   -5.2529   36.5227 C   0  0  0  0  0  0  0  0  0  0  0  0
    3.7307   -5.0906   37.8652 N   0  0  0  0  0  0  0  0  0  0  0  0
    3.1678   -0.3304   39.8197 C   0  0  1  0  0  0  0  0  0  0  0  0
    4.2997   -0.8939   40.4713 O   0  0  0  0  0  0  0  0  0  0  0  0
    8.6321    0.7054   41.2163 C   0  0  0  0  0  0  0  0  0  0  0  0
    8.5768   -2.9320   42.5256 C   0  0  0  0  0  0  0  0  0  0  0  0
  1  2  1  1  0  0  0
  1  6  1  0  0  0  0
  1 21  1  0  0  0  0
  3  4  1  1  0  0  0
  3  8  1  0  0  0  0
  3 28  1  0  0  0  0
  5  9  1  0  0  0  0
  5 25  1  0  0  0  0
  5 29  1  1  0  0  0
  6  7  1  1  0  0  0
  6 11  1  0  0  0  0
  8 12  1  0  0  0  0
  9 10  1  1  0  0  0
  9 14  1  0  0  0  0
 11 16  1  0  0  0  0
 12 13  1  1  0  0  0
 12 17  1  0  0  0  0
 14 15  1  1  0  0  0
 14 18  1  0  0  0  0
 15 31  1  0  0  0  0
 16 20  1  0  0  0  0
 17  2  1  6  0  0  0
 17 22  1  0  0  0  0
 18 19  1  6  0  0  0
 18 24  1  0  0  0  0
 18 30  1  0  0  0  0
 20 21  1  0  0  0  0
 20 26  1  6  0  0  0
 22 23  1  1  0  0  0
 22 28  1  0  0  0  0
 24 25  1  0  0  0  0
 26 27  1  0  0  0  0
 28 29  1  6  0  0  0
M  END
>  <CHROM.1>
-151.00034035,-166.47156742,50.79933956,59.23280982,-166.01292840,-93.15644196
3.99203337,-1.49988779,38.58865007,-2.82221468,-0.69092287,0.29790117

>  <Name>
2et3_lig

>  <RI>
0

>  <Rbt.Current_Directory>
/home/itssahil/PROJECTS/Mol_Feturizer/New_Systems/rnas/2et3

>  <Rbt.Executable>
rbdock ($Id: //depot/dev/client3/rdock/2013.1/src/exe/rbdock.cxx#4 $)

>  <Rbt.Library>
libRbt.so (2013.1, Build901 2013/11/27)

>  <Rbt.Parameter_File>
/export/apps/rDock/src/rDock_2013.1_src/data/scripts/dock_solv.prm

>  <Rbt.Receptor>
prm/blind_docking_60.prm

>  <SCORE>
-13.6743

>  <SCORE.INTER>
-10.6102

>  <SCORE.INTER.CONST>
1

>  <SCORE.INTER.POLAR>
0

>  <SCORE.INTER.ROT>
6

>  <SCORE.INTER.SOLV>
23.1419

>  <SCORE.INTER.VDW>
-22.3874

>  <SCORE.INTER.norm>
-0.342265

>  <SCORE.INTRA>
-4.04138

>  <SCORE.INTRA.DIHEDRAL>
-12.9025

>  <SCORE.INTRA.DIHEDRAL.0>
22.2484

>  <SCORE.INTRA.POLAR>
0

>  <SCORE.INTRA.POLAR.0>
0

>  <SCORE.INTRA.REPUL>
0

>  <SCORE.INTRA.REPUL.0>
0

>  <SCORE.INTRA.SOLV>
1.42398

>  <SCORE.INTRA.SOLV.lig_0>
-75.7198

>  <SCORE.INTRA.VDW>
1.69789

>  <SCORE.INTRA.VDW.0>
-3.34171

>  <SCORE.INTRA.norm>
-0.130367

>  <SCORE.RESTR>
0.977286

>  <SCORE.RESTR.CAVITY>
0.977286

>  <SCORE.RESTR.norm>
0.0315253

>  <SCORE.SYSTEM>
0

>  <SCORE.SYSTEM.CONST>
0

>  <SCORE.SYSTEM.DIHEDRAL>
0

>  <SCORE.SYSTEM.SOLV>
0

>  <SCORE.SYSTEM.norm>
0

>  <SCORE.heavy>
31

>  <SCORE.norm>
-0.441106

>  <RMSD>
12.650

$$$$
2et3_lig
 OpenBabel11021811423D
libRbt.so/2013.1/901 2013/11/27
 31 33  0  0  0  0  0  0  0  0999 V2000
    5.0376   -2.1655   40.5007 C   0  0  2  0  0  0  0  0  0  0  0  0
    4.4356   -0.8469   40.5714 O   0  0  0  0  0  0  0  0  0  0  0  0
    1.4904    0.8684   37.9849 C   0  0  2  0  0  0  0  0  0  0  0  0
    0.8951    1.4038   36.7997 N   0  0  0  0  0  0  0  0  0  0  0  0
    0.4577   -1.7250   35.9925 C   0  0  2  0  0  0  0  0  0  0  0  0
    5.3327   -2.6770   41.9148 C   0  0  2  0  0  0  0  0  0  0  0  0
    4.1164   -2.6643   42.6675 N   0  0  0  0  0  0  0  0  0  0  0  0
    2.7156    1.7470   38.3963 C   0  0  0  0  0  0  0  0  0  0  0  0
    1.2963   -2.9805   35.6667 C   0  0  2  0  0  0  0  0  0  0  0  0
    0.9466   -4.0095   36.5652 O   0  0  0  0  0  0  0  0  0  0  0  0
    6.4462   -1.8055   42.5901 C   0  0  0  0  0  0  0  0  0  0  0  0
    3.3820    1.1604   39.6943 C   0  0  2  0  0  0  0  0  0  0  0  0
    4.5370    1.9841   40.0857 N   0  0  0  0  0  0  0  0  0  0  0  0
    2.8261   -2.5899   35.7850 C   0  0  1  0  0  0  0  0  0  0  0  0
    3.7150   -3.7702   35.5288 N   0  0  0  0  0  0  0  0  0  0  0  0
    7.7351   -1.9063   41.7152 C   0  0  0  0  0  0  0  0  0  0  0  0
    3.8252   -0.3301   39.4323 C   0  0  2  0  0  0  0  0  0  0  0  0
    3.1805   -1.3949   34.7505 C   0  0  1  0  0  0  0  0  0  0  0  0
    2.9779   -1.7973   33.4117 O   0  0  0  0  0  0  0  0  0  0  0  0
    7.3922   -1.3970   40.2463 C   0  0  2  0  0  0  0  0  0  0  0  0
    6.2644   -2.1183   39.6588 O   0  0  0  0  0  0  0  0  0  0  0  0
    2.5691   -1.1893   39.0176 C   0  0  2  0  0  0  0  0  0  0  0  0
    2.9469   -2.5415   38.7795 O   0  0  0  0  0  0  0  0  0  0  0  0
    2.2378   -0.1835   35.0284 C   0  0  0  0  0  0  0  0  0  0  0  0
    0.8030   -0.6235   35.0478 O   0  0  0  0  0  0  0  0  0  0  0  0
    8.5639   -1.4248   39.2933 C   0  0  0  0  0  0  0  0  0  0  0  0
    8.2470   -0.7973   38.0373 N   0  0  0  0  0  0  0  0  0  0  0  0
    1.9172   -0.5882   37.7230 C   0  0  1  0  0  0  0  0  0  0  0  0
    0.7837   -1.3716   37.3699 O   0  0  0  0  0  0  0  0  0  0  0  0
    4.6286   -0.8863   34.7501 C   0  0  0  0  0  0  0  0  0  0  0  0
    3.7791   -4.8021   36.5772 C   0  0  0  0  0  0  0  0  0  0  0  0
  1  2  1  1  0  0  0
  1  6  1  0  0  0  0
  1 21  1  0  0  0  0
  3  4  1  6  0  0  0
  3  8  1  0  0  0  0
  3 28  1  0  0  0  0
  5  9  1  0  0  0  0
  5 25  1  0  0  0  0
  5 29  1  1  0  0  0
  6  7  1  1  0  0  0
  6 11  1  0  0  0  0
  8 12  1  0  0  0  0
  9 10  1  1  0  0  0
  9 14  1  0  0  0  0
 11 16  1  0  0  0  0
 12 13  1  6  0  0  0
 12 17  1  0  0  0  0
 14 15  1  6  0  0  0
 14 18  1  0  0  0  0
 15 31  1  0  0  0  0
 16 20  1  0  0  0  0
 17  2  1  1  0  0  0
 17 22  1  0  0  0  0
 18 19  1  6  0  0  0
 18 24  1  0  0  0  0
 18 30  1  0  0  0  0
 20 21  1  0  0  0  0
 20 26  1  6  0  0  0
 22 23  1  6  0  0  0
 22 28  1  0  0  0  0
 24 25  1  0  0  0  0
 26 27  1  0  0  0  0
 28 29  1  1  0  0  0
M  END
>  <CHROM.1>
-166.03512520,84.11738670,-72.84358738,-173.99358637,-172.53669908,100.30851461
3.71115696,-1.36335981,38.08447799,-0.66011512,0.61557213,-2.21514419

>  <Name>
2et3_lig

>  <RI>
0

>  <Rbt.Current_Directory>
/home/itssahil/PROJECTS/Mol_Feturizer/New_Systems/rnas/2et3

>  <Rbt.Executable>
rbdock ($Id: //depot/dev/client3/rdock/2013.1/src/exe/rbdock.cxx#4 $)

>  <Rbt.Library>
libRbt.so (2013.1, Build901 2013/11/27)

>  <Rbt.Parameter_File>
/export/apps/rDock/src/rDock_2013.1_src/data/scripts/dock_solv.prm

>  <Rbt.Receptor>
prm/blind_docking_60.prm

>  <SCORE>
-16.2368

>  <SCORE.INTER>
-15.7949

>  <SCORE.INTER.CONST>
1

>  <SCORE.INTER.POLAR>
-1.00415

>  <SCORE.INTER.ROT>
6

>  <SCORE.INTER.SOLV>
18.935

>  <SCORE.INTER.VDW>
-21.0944

>  <SCORE.INTER.norm>
-0.509512

>  <SCORE.INTRA>
-2.56108

>  <SCORE.INTRA.DIHEDRAL>
-12.6988

>  <SCORE.INTRA.DIHEDRAL.0>
22.2484

>  <SCORE.INTRA.POLAR>
0

>  <SCORE.INTRA.POLAR.0>
0

>  <SCORE.INTRA.REPUL>
0

>  <SCORE.INTRA.REPUL.0>
0

>  <SCORE.INTRA.SOLV>
0.212506

>  <SCORE.INTRA.SOLV.lig_0>
-75.7198

>  <SCORE.INTRA.VDW>
3.68205

>  <SCORE.INTRA.VDW.0>
-3.34171

>  <SCORE.INTRA.norm>
-0.0826155

>  <SCORE.RESTR>
2.11916

>  <SCORE.RESTR.CAVITY>
2.11916

>  <SCORE.RESTR.norm>
0.06836

>  <SCORE.SYSTEM>
0

>  <SCORE.SYSTEM.CONST>
0

>  <SCORE.SYSTEM.DIHEDRAL>
0

>  <SCORE.SYSTEM.SOLV>
0

>  <SCORE.SYSTEM.norm>
0

>  <SCORE.heavy>
31

>  <SCORE.norm>
-0.523767

>  <RMSD>
12.657

$$$$
2et3_lig
 OpenBabel11021811423D
libRbt.so/2013.1/901 2013/11/27
 31 33  0  0  0  0  0  0  0  0999 V2000
    1.8388   -2.7956   35.8959 C   0  0  2  0  0  0  0  0  0  0  0  0
    1.3046   -2.7155   37.2429 O   0  0  0  0  0  0  0  0  0  0  0  0
    3.5818    0.5289   38.8537 C   0  0  2  0  0  0  0  0  0  0  0  0
    3.9362    1.6324   39.6917 N   0  0  0  0  0  0  0  0  0  0  0  0
    5.6589   -1.8949   39.8416 C   0  0  2  0  0  0  0  0  0  0  0  0
    1.7547   -4.2397   35.3901 C   0  0  2  0  0  0  0  0  0  0  0  0
    0.3939   -4.6729   35.4717 N   0  0  0  0  0  0  0  0  0  0  0  0
    2.2639    0.8612   38.0824 C   0  0  0  0  0  0  0  0  0  0  0  0
    6.5055   -2.3719   41.0422 C   0  0  2  0  0  0  0  0  0  0  0  0
    5.6708   -3.0639   41.9438 O   0  0  0  0  0  0  0  0  0  0  0  0
    2.7124   -5.1650   36.2159 C   0  0  0  0  0  0  0  0  0  0  0  0
    1.8617   -0.3508   37.1646 C   0  0  2  0  0  0  0  0  0  0  0  0
    0.6206   -0.0429   36.4363 N   0  0  0  0  0  0  0  0  0  0  0  0
    7.1661   -1.0977   41.7105 C   0  0  1  0  0  0  0  0  0  0  0  0
    7.9724   -1.4681   42.9195 N   0  0  0  0  0  0  0  0  0  0  0  0
    4.1688   -4.6311   36.0411 C   0  0  0  0  0  0  0  0  0  0  0  0
    1.6821   -1.6446   38.0479 C   0  0  2  0  0  0  0  0  0  0  0  0
    8.1008   -0.3236   40.6376 C   0  0  1  0  0  0  0  0  0  0  0  0
    9.1685   -1.1401   40.2030 O   0  0  0  0  0  0  0  0  0  0  0  0
    4.2200   -3.1222   36.5464 C   0  0  2  0  0  0  0  0  0  0  0  0
    3.2346   -2.2783   35.8725 O   0  0  0  0  0  0  0  0  0  0  0  0
    3.0261   -1.9518   38.8140 C   0  0  2  0  0  0  0  0  0  0  0  0
    2.8868   -3.1202   39.6160 O   0  0  0  0  0  0  0  0  0  0  0  0
    7.2447    0.0422   39.3859 C   0  0  0  0  0  0  0  0  0  0  0  0
    6.5227   -1.1672   38.8673 O   0  0  0  0  0  0  0  0  0  0  0  0
    5.5856   -2.4838   36.4491 C   0  0  0  0  0  0  0  0  0  0  0  0
    6.2075   -2.7422   35.1770 N   0  0  0  0  0  0  0  0  0  0  0  0
    3.4117   -0.7318   39.7222 C   0  0  1  0  0  0  0  0  0  0  0  0
    4.6285   -1.0250   40.3982 O   0  0  0  0  0  0  0  0  0  0  0  0
    8.8066    0.9490   41.1253 C   0  0  0  0  0  0  0  0  0  0  0  0
    7.2603   -1.5337   44.2067 C   0  0  0  0  0  0  0  0  0  0  0  0
  1  2  1  1  0  0  0
  1  6  1  0  0  0  0
  1 21  1  0  0  0  0
  3  4  1  1  0  0  0
  3  8  1  0  0  0  0
  3 28  1  0  0  0  0
  5  9  1  0  0  0  0
  5 25  1  0  0  0  0
  5 29  1  1  0  0  0
  6  7  1  1  0  0  0
  6 11  1  0  0  0  0
  8 12  1  0  0  0  0
  9 10  1  1  0  0  0
  9 14  1  0  0  0  0
 11 16  1  0  0  0  0
 12 13  1  1  0  0  0
 12 17  1  0  0  0  0
 14 15  1  1  0  0  0
 14 18  1  0  0  0  0
 15 31  1  0  0  0  0
 16 20  1  0  0  0  0
 17  2  1  6  0  0  0
 17 22  1  0  0  0  0
 18 19  1  6  0  0  0
 18 24  1  0  0  0  0
 18 30  1  0  0  0  0
 20 21  1  0  0  0  0
 20 26  1  6  0  0  0
 22 23  1  1  0  0  0
 22 28  1  0  0  0  0
 24 25  1  0  0  0  0
 26 27  1  0  0  0  0
 28 29  1  6  0  0  0
M  END
>  <CHROM.1>
158.55921656,-158.95431669,-87.55715648,34.73083001,45.96700173,-90.58614343
4.52545951,-1.74345902,38.70827095,-2.45996209,-0.46379796,0.69358979

>  <Name>
2et3_lig

>  <RI>
0

>  <Rbt.Current_Directory>
/home/itssahil/PROJECTS/Mol_Feturizer/New_Systems/rnas/2et3

>  <Rbt.Executable>
rbdock ($Id: //depot/dev/client3/rdock/2013.1/src/exe/rbdock.cxx#4 $)

>  <Rbt.Library>
libRbt.so (2013.1, Build901 2013/11/27)

>  <Rbt.Parameter_File>
/export/apps/rDock/src/rDock_2013.1_src/data/scripts/dock_solv.prm

>  <Rbt.Receptor>
prm/blind_docking_100.prm

>  <SCORE>
-12.9836

>  <SCORE.INTER>
-11.8532

>  <SCORE.INTER.CONST>
1

>  <SCORE.INTER.POLAR>
0

>  <SCORE.INTER.ROT>
6

>  <SCORE.INTER.SOLV>
14.6952

>  <SCORE.INTER.VDW>
-20.4006

>  <SCORE.INTER.norm>
-0.382363

>  <SCORE.INTRA>
-2.50977

>  <SCORE.INTRA.DIHEDRAL>
-10.524

>  <SCORE.INTRA.DIHEDRAL.0>
22.2484

>  <SCORE.INTRA.POLAR>
0

>  <SCORE.INTRA.POLAR.0>
0

>  <SCORE.INTRA.REPUL>
0

>  <SCORE.INTRA.REPUL.0>
0

>  <SCORE.INTRA.SOLV>
-0.181359

>  <SCORE.INTRA.SOLV.lig_0>
-75.7198

>  <SCORE.INTRA.VDW>
2.84289

>  <SCORE.INTRA.VDW.0>
-3.34171

>  <SCORE.INTRA.norm>
-0.0809603

>  <SCORE.RESTR>
1.37939

>  <SCORE.RESTR.CAVITY>
1.37939

>  <SCORE.RESTR.norm>
0.0444965

>  <SCORE.SYSTEM>
0

>  <SCORE.SYSTEM.CONST>
0

>  <SCORE.SYSTEM.DIHEDRAL>
0

>  <SCORE.SYSTEM.SOLV>
0

>  <SCORE.SYSTEM.norm>
0

>  <SCORE.heavy>
31

>  <SCORE.norm>
-0.418827

>  <RMSD>
12.659

$$$$
2et3_lig
 OpenBabel11021811423D
libRbt.so/2013.1/901 2013/11/27
 31 33  0  0  0  0  0  0  0  0999 V2000
    6.4939    0.3699   40.0820 C   0  0  2  0  0  0  0  0  0  0  0  0
    6.9491   -0.0213   38.7606 O   0  0  0  0  0  0  0  0  0  0  0  0
    5.1557   -2.3646   35.6624 C   0  0  2  0  0  0  0  0  0  0  0  0
    4.4893   -3.4561   35.0220 N   0  0  0  0  0  0  0  0  0  0  0  0
    1.8083   -2.1043   36.0823 C   0  0  2  0  0  0  0  0  0  0  0  0
    7.4620    1.3957   40.6810 C   0  0  2  0  0  0  0  0  0  0  0  0
    7.5664    2.5034   39.7819 N   0  0  0  0  0  0  0  0  0  0  0  0
    6.4977   -2.8661   36.2866 C   0  0  0  0  0  0  0  0  0  0  0  0
    0.6472   -1.1372   36.4023 C   0  0  2  0  0  0  0  0  0  0  0  0
    0.6405   -0.0995   35.4475 O   0  0  0  0  0  0  0  0  0  0  0  0
    8.8557    0.7354   40.9580 C   0  0  0  0  0  0  0  0  0  0  0  0
    7.2335   -1.6738   37.0009 C   0  0  2  0  0  0  0  0  0  0  0  0
    8.4980   -2.1412   37.5910 N   0  0  0  0  0  0  0  0  0  0  0  0
    0.8622   -0.5854   37.8706 C   0  0  1  0  0  0  0  0  0  0  0  0
   -0.2015    0.4025   38.2466 N   0  0  0  0  0  0  0  0  0  0  0  0
    8.6426   -0.4371   41.9663 C   0  0  0  0  0  0  0  0  0  0  0  0
    6.2941   -1.0631   38.1104 C   0  0  2  0  0  0  0  0  0  0  0  0
    0.8813   -1.8091   38.9316 C   0  0  1  0  0  0  0  0  0  0  0  0
   -0.3524   -2.4971   38.9448 O   0  0  0  0  0  0  0  0  0  0  0  0
    7.6118   -1.4710   41.3314 C   0  0  2  0  0  0  0  0  0  0  0  0
    6.3535   -0.8337   40.9467 O   0  0  0  0  0  0  0  0  0  0  0  0
    4.9494   -0.5689   37.4505 C   0  0  2  0  0  0  0  0  0  0  0  0
    4.0868   -0.0096   38.4358 O   0  0  0  0  0  0  0  0  0  0  0  0
    1.9868   -2.8280   38.5152 C   0  0  0  0  0  0  0  0  0  0  0  0
    1.8308   -3.2180   37.0743 O   0  0  0  0  0  0  0  0  0  0  0  0
    7.3265   -2.6725   42.2014 C   0  0  0  0  0  0  0  0  0  0  0  0
    8.4570   -3.5604   42.2747 N   0  0  0  0  0  0  0  0  0  0  0  0
    4.2313   -1.7707   36.7419 C   0  0  1  0  0  0  0  0  0  0  0  0
    3.0262   -1.3038   36.1477 O   0  0  0  0  0  0  0  0  0  0  0  0
    1.0964   -1.4434   40.4066 C   0  0  0  0  0  0  0  0  0  0  0  0
   -0.1160    1.7430   37.6433 C   0  0  0  0  0  0  0  0  0  0  0  0
  1  2  1  6  0  0  0
  1  6  1  0  0  0  0
  1 21  1  0  0  0  0
  3  4  1  1  0  0  0
  3  8  1  0  0  0  0
  3 28  1  0  0  0  0
  5  9  1  0  0  0  0
  5 25  1  0  0  0  0
  5 29  1  1  0  0  0
  6  7  1  6  0  0  0
  6 11  1  0  0  0  0
  8 12  1  0  0  0  0
  9 10  1  6  0  0  0
  9 14  1  0  0  0  0
 11 16  1  0  0  0  0
 12 13  1  1  0  0  0
 12 17  1  0  0  0  0
 14 15  1  1  0  0  0
 14 18  1  0  0  0  0
 15 31  1  0  0  0  0
 16 20  1  0  0  0  0
 17  2  1  6  0  0  0
 17 22  1  0  0  0  0
 18 19  1  6  0  0  0
 18 24  1  0  0  0  0
 18 30  1  0  0  0  0
 20 21  1  0  0  0  0
 20 26  1  1  0  0  0
 22 23  1  1  0  0  0
 22 28  1  0  0  0  0
 24 25  1  0  0  0  0
 26 27  1  0  0  0  0
 28 29  1  6  0  0  0
M  END
>  <CHROM.1>
172.52748216,138.76739326,-74.49231255,-158.75460970,-70.67754471,95.19212662
4.44242756,-1.11680302,38.48146145,0.41576278,-0.16019455,1.09411524

>  <Name>
2et3_lig

>  <RI>
0

>  <Rbt.Current_Directory>
/home/itssahil/PROJECTS/Mol_Feturizer/New_Systems/rnas/2et3

>  <Rbt.Executable>
rbdock ($Id: //depot/dev/client3/rdock/2013.1/src/exe/rbdock.cxx#4 $)

>  <Rbt.Library>
libRbt.so (2013.1, Build901 2013/11/27)

>  <Rbt.Parameter_File>
/export/apps/rDock/src/rDock_2013.1_src/data/scripts/dock_solv.prm

>  <Rbt.Receptor>
prm/blind_docking_100.prm

>  <SCORE>
-5.92966

>  <SCORE.INTER>
-4.87464

>  <SCORE.INTER.CONST>
1

>  <SCORE.INTER.POLAR>
-0.778315

>  <SCORE.INTER.ROT>
6

>  <SCORE.INTER.SOLV>
19.8374

>  <SCORE.INTER.VDW>
-14.8678

>  <SCORE.INTER.norm>
-0.157247

>  <SCORE.INTRA>
-5.42444

>  <SCORE.INTRA.DIHEDRAL>
-9.11871

>  <SCORE.INTRA.DIHEDRAL.0>
22.2484

>  <SCORE.INTRA.POLAR>
0

>  <SCORE.INTRA.POLAR.0>
0

>  <SCORE.INTRA.REPUL>
0

>  <SCORE.INTRA.REPUL.0>
0

>  <SCORE.INTRA.SOLV>
-2.15018

>  <SCORE.INTRA.SOLV.lig_0>
-75.7198

>  <SCORE.INTRA.VDW>
0.210011

>  <SCORE.INTRA.VDW.0>
-3.34171

>  <SCORE.INTRA.norm>
-0.174982

>  <SCORE.RESTR>
4.36941

>  <SCORE.RESTR.CAVITY>
4.36941

>  <SCORE.RESTR.norm>
0.140949

>  <SCORE.SYSTEM>
0

>  <SCORE.SYSTEM.CONST>
0

>  <SCORE.SYSTEM.DIHEDRAL>
0

>  <SCORE.SYSTEM.SOLV>
0

>  <SCORE.SYSTEM.norm>
0

>  <SCORE.heavy>
31

>  <SCORE.norm>
-0.191279

>  <RMSD>
12.672

$$$$
2et3_lig
 OpenBabel11021811423D
libRbt.so/2013.1/901 2013/11/27
 31 33  0  0  0  0  0  0  0  0999 V2000
    6.8849    0.0712   40.0930 C   0  0  2  0  0  0  0  0  0  0  0  0
    7.5261   -0.5216   38.9338 O   0  0  0  0  0  0  0  0  0  0  0  0
    5.6185   -2.5514   35.6862 C   0  0  2  0  0  0  0  0  0  0  0  0
    4.9151   -3.5697   34.9693 N   0  0  0  0  0  0  0  0  0  0  0  0
    2.2917   -2.2653   36.1846 C   0  0  2  0  0  0  0  0  0  0  0  0
    7.9463    0.6643   41.0257 C   0  0  2  0  0  0  0  0  0  0  0  0
    8.7295    1.6050   40.2856 N   0  0  0  0  0  0  0  0  0  0  0  0
    6.9614   -3.1323   36.2351 C   0  0  0  0  0  0  0  0  0  0  0  0
    1.1378   -1.2585   36.3858 C   0  0  2  0  0  0  0  0  0  0  0  0
    1.2267   -0.2577   35.3963 O   0  0  0  0  0  0  0  0  0  0  0  0
    8.8297   -0.4737   41.6421 C   0  0  0  0  0  0  0  0  0  0  0  0
    7.7378   -2.0214   37.0327 C   0  0  2  0  0  0  0  0  0  0  0  0
    9.0033   -2.5637   37.5523 N   0  0  0  0  0  0  0  0  0  0  0  0
    1.2639   -0.6570   37.8450 C   0  0  1  0  0  0  0  0  0  0  0  0
    0.2036    0.3704   38.1083 N   0  0  0  0  0  0  0  0  0  0  0  0
    7.8942   -1.4273   42.4498 C   0  0  0  0  0  0  0  0  0  0  0  0
    6.8350   -1.4898   38.2112 C   0  0  2  0  0  0  0  0  0  0  0  0
    1.1747   -1.8399   38.9479 C   0  0  1  0  0  0  0  0  0  0  0  0
   -0.0752   -2.4961   38.8977 O   0  0  0  0  0  0  0  0  0  0  0  0
    6.7855   -2.0048   41.4639 C   0  0  2  0  0  0  0  0  0  0  0  0
    6.0438   -0.9453   40.7823 O   0  0  0  0  0  0  0  0  0  0  0  0
    5.4886   -0.9131   37.6261 C   0  0  2  0  0  0  0  0  0  0  0  0
    4.6588   -0.4235   38.6747 O   0  0  0  0  0  0  0  0  0  0  0  0
    2.2785   -2.9007   38.6484 C   0  0  0  0  0  0  0  0  0  0  0  0
    2.2138   -3.3409   37.2150 O   0  0  0  0  0  0  0  0  0  0  0  0
    5.8169   -2.9629   42.1165 C   0  0  0  0  0  0  0  0  0  0  0  0
    4.5583   -3.0086   41.4197 N   0  0  0  0  0  0  0  0  0  0  0  0
    4.7296   -2.0343   36.8330 C   0  0  1  0  0  0  0  0  0  0  0  0
    3.5234   -1.4933   36.3079 O   0  0  0  0  0  0  0  0  0  0  0  0
    1.2952   -1.4241   40.4204 C   0  0  0  0  0  0  0  0  0  0  0  0
    0.2964    1.6368   37.3627 C   0  0  0  0  0  0  0  0  0  0  0  0
  1  2  1  6  0  0  0
  1  6  1  0  0  0  0
  1 21  1  0  0  0  0
  3  4  1  1  0  0  0
  3  8  1  0  0  0  0
  3 28  1  0  0  0  0
  5  9  1  0  0  0  0
  5 25  1  0  0  0  0
  5 29  1  1  0  0  0
  6  7  1  6  0  0  0
  6 11  1  0  0  0  0
  8 12  1  0  0  0  0
  9 10  1  6  0  0  0
  9 14  1  0  0  0  0
 11 16  1  0  0  0  0
 12 13  1  1  0  0  0
 12 17  1  0  0  0  0
 14 15  1  1  0  0  0
 14 18  1  0  0  0  0
 15 31  1  0  0  0  0
 16 20  1  0  0  0  0
 17  2  1  6  0  0  0
 17 22  1  0  0  0  0
 18 19  1  6  0  0  0
 18 24  1  0  0  0  0
 18 30  1  0  0  0  0
 20 21  1  0  0  0  0
 20 26  1  1  0  0  0
 22 23  1  1  0  0  0
 22 28  1  0  0  0  0
 24 25  1  0  0  0  0
 26 27  1  0  0  0  0
 28 29  1  6  0  0  0
M  END
>  <CHROM.1>
158.23851201,148.02030002,-68.64887266,-178.16704095,155.06913517,94.35366830
4.59027830,-1.39908815,38.53686273,0.42824093,-0.07476100,1.30954864

>  <Name>
2et3_lig

>  <RI>
0

>  <Rbt.Current_Directory>
/home/itssahil/PROJECTS/Mol_Feturizer/New_Systems/rnas/2et3

>  <Rbt.Executable>
rbdock ($Id: //depot/dev/client3/rdock/2013.1/src/exe/rbdock.cxx#4 $)

>  <Rbt.Library>
libRbt.so (2013.1, Build901 2013/11/27)

>  <Rbt.Parameter_File>
/export/apps/rDock/src/rDock_2013.1_src/data/scripts/dock_solv.prm

>  <Rbt.Receptor>
prm/blind_docking_100.prm

>  <SCORE>
-8.43243

>  <SCORE.INTER>
-8.73933

>  <SCORE.INTER.CONST>
1

>  <SCORE.INTER.POLAR>
-0.904052

>  <SCORE.INTER.ROT>
6

>  <SCORE.INTER.SOLV>
20.9046

>  <SCORE.INTER.VDW>
-17.3809

>  <SCORE.INTER.norm>
-0.281914

>  <SCORE.INTRA>
-3.57672

>  <SCORE.INTRA.DIHEDRAL>
-9.72643

>  <SCORE.INTRA.DIHEDRAL.0>
22.2484

>  <SCORE.INTRA.POLAR>
0

>  <SCORE.INTRA.POLAR.0>
0

>  <SCORE.INTRA.REPUL>
0

>  <SCORE.INTRA.REPUL.0>
0

>  <SCORE.INTRA.SOLV>
-0.036827

>  <SCORE.INTRA.SOLV.lig_0>
-75.7198

>  <SCORE.INTRA.VDW>
1.30491

>  <SCORE.INTRA.VDW.0>
-3.34171

>  <SCORE.INTRA.norm>
-0.115378

>  <SCORE.RESTR>
3.88362

>  <SCORE.RESTR.CAVITY>
3.88362

>  <SCORE.RESTR.norm>
0.125278

>  <SCORE.SYSTEM>
0

>  <SCORE.SYSTEM.CONST>
0

>  <SCORE.SYSTEM.DIHEDRAL>
0

>  <SCORE.SYSTEM.SOLV>
0

>  <SCORE.SYSTEM.norm>
0

>  <SCORE.heavy>
31

>  <SCORE.norm>
-0.272014

>  <RMSD>
12.683

$$$$
2et3_lig
 OpenBabel11021811423D
libRbt.so/2013.1/901 2013/11/27
 31 33  0  0  0  0  0  0  0  0999 V2000
   -0.4949   -2.2182   39.5308 C   0  0  2  0  0  0  0  0  0  0  0  0
   -0.9460   -1.0121   38.8613 O   0  0  0  0  0  0  0  0  0  0  0  0
    1.3079    1.2093   35.9818 C   0  0  2  0  0  0  0  0  0  0  0  0
    2.2912    2.0984   35.4450 N   0  0  0  0  0  0  0  0  0  0  0  0
    4.2941   -0.7782   35.9823 C   0  0  2  0  0  0  0  0  0  0  0  0
   -1.6877   -2.9265   40.1818 C   0  0  2  0  0  0  0  0  0  0  0  0
   -2.6687   -3.1877   39.1740 N   0  0  0  0  0  0  0  0  0  0  0  0
    0.3670    1.9952   36.9509 C   0  0  0  0  0  0  0  0  0  0  0  0
    4.5835   -2.2916   36.0899 C   0  0  2  0  0  0  0  0  0  0  0  0
    4.1463   -2.9256   34.9086 O   0  0  0  0  0  0  0  0  0  0  0  0
   -2.2680   -2.0584   41.3501 C   0  0  0  0  0  0  0  0  0  0  0  0
   -0.7127    1.0231   37.5529 C   0  0  2  0  0  0  0  0  0  0  0  0
   -1.6012    1.7585   38.4670 N   0  0  0  0  0  0  0  0  0  0  0  0
    3.8293   -2.8431   37.3682 C   0  0  1  0  0  0  0  0  0  0  0  0
    4.0198   -4.3226   37.5217 N   0  0  0  0  0  0  0  0  0  0  0  0
   -1.1376   -1.8538   42.4070 C   0  0  0  0  0  0  0  0  0  0  0  0
    0.0056   -0.1605   38.3078 C   0  0  2  0  0  0  0  0  0  0  0  0
    4.3476   -2.0772   38.6980 C   0  0  1  0  0  0  0  0  0  0  0  0
    5.7233   -2.3080   38.9207 O   0  0  0  0  0  0  0  0  0  0  0  0
    0.0980   -1.1437   41.6972 C   0  0  2  0  0  0  0  0  0  0  0  0
    0.5621   -1.8818   40.5236 O   0  0  0  0  0  0  0  0  0  0  0  0
    0.9480   -0.9315   37.3052 C   0  0  2  0  0  0  0  0  0  0  0  0
    1.6046   -2.0083   37.9665 O   0  0  0  0  0  0  0  0  0  0  0  0
    4.1496   -0.5411   38.5116 C   0  0  0  0  0  0  0  0  0  0  0  0
    4.7571   -0.0828   37.2179 O   0  0  0  0  0  0  0  0  0  0  0  0
    1.2643   -0.8682   42.6168 C   0  0  0  0  0  0  0  0  0  0  0  0
    0.8729   -0.0803   43.7560 N   0  0  0  0  0  0  0  0  0  0  0  0
    2.0163    0.0542   36.7142 C   0  0  1  0  0  0  0  0  0  0  0  0
    2.8507   -0.6575   35.8083 O   0  0  0  0  0  0  0  0  0  0  0  0
    3.7019   -2.4866   40.0288 C   0  0  0  0  0  0  0  0  0  0  0  0
    3.2487   -5.1956   36.6209 C   0  0  0  0  0  0  0  0  0  0  0  0
  1  2  1  1  0  0  0
  1  6  1  0  0  0  0
  1 21  1  0  0  0  0
  3  4  1  1  0  0  0
  3  8  1  0  0  0  0
  3 28  1  0  0  0  0
  5  9  1  0  0  0  0
  5 25  1  0  0  0  0
  5 29  1  1  0  0  0
  6  7  1  6  0  0  0
  6 11  1  0  0  0  0
  8 12  1  0  0  0  0
  9 10  1  6  0  0  0
  9 14  1  0  0  0  0
 11 16  1  0  0  0  0
 12 13  1  1  0  0  0
 12 17  1  0  0  0  0
 14 15  1  1  0  0  0
 14 18  1  0  0  0  0
 15 31  1  0  0  0  0
 16 20  1  0  0  0  0
 17  2  1  6  0  0  0
 17 22  1  0  0  0  0
 18 19  1  1  0  0  0
 18 24  1  0  0  0  0
 18 30  1  0  0  0  0
 20 21  1  0  0  0  0
 20 26  1  1  0  0  0
 22 23  1  1  0  0  0
 22 28  1  0  0  0  0
 24 25  1  0  0  0  0
 26 27  1  0  0  0  0
 28 29  1  6  0  0  0
M  END
>  <CHROM.1>
174.32041540,120.24731959,-75.69286138,176.14647785,-56.15032705,119.44197695
1.63382628,-1.27261493,38.45684351,-2.66006786,0.55179772,-0.89753045

>  <Name>
2et3_lig

>  <RI>
0

>  <Rbt.Current_Directory>
/home/itssahil/PROJECTS/Mol_Feturizer/New_Systems/rnas/2et3

>  <Rbt.Executable>
rbdock ($Id: //depot/dev/client3/rdock/2013.1/src/exe/rbdock.cxx#4 $)

>  <Rbt.Library>
libRbt.so (2013.1, Build901 2013/11/27)

>  <Rbt.Parameter_File>
/export/apps/rDock/src/rDock_2013.1_src/data/scripts/dock_solv.prm

>  <Rbt.Receptor>
prm/blind_docking_60.prm

>  <SCORE>
0.427296

>  <SCORE.INTER>
-0.706779

>  <SCORE.INTER.CONST>
1

>  <SCORE.INTER.POLAR>
-0.891405

>  <SCORE.INTER.ROT>
6

>  <SCORE.INTER.SOLV>
28.9114

>  <SCORE.INTER.VDW>
-14.737

>  <SCORE.INTER.norm>
-0.0227993

>  <SCORE.INTRA>
0.260219

>  <SCORE.INTRA.DIHEDRAL>
-7.20337

>  <SCORE.INTRA.DIHEDRAL.0>
22.2484

>  <SCORE.INTRA.POLAR>
0

>  <SCORE.INTRA.POLAR.0>
0

>  <SCORE.INTRA.REPUL>
0

>  <SCORE.INTRA.REPUL.0>
0

>  <SCORE.INTRA.SOLV>
-2.0803

>  <SCORE.INTRA.SOLV.lig_0>
-75.7198

>  <SCORE.INTRA.VDW>
4.90206

>  <SCORE.INTRA.VDW.0>
-3.34171

>  <SCORE.INTRA.norm>
0.00839415

>  <SCORE.RESTR>
0.873857

>  <SCORE.RESTR.CAVITY>
0.873857

>  <SCORE.RESTR.norm>
0.0281889

>  <SCORE.SYSTEM>
0

>  <SCORE.SYSTEM.CONST>
0

>  <SCORE.SYSTEM.DIHEDRAL>
0

>  <SCORE.SYSTEM.SOLV>
0

>  <SCORE.SYSTEM.norm>
0

>  <SCORE.heavy>
31

>  <SCORE.norm>
0.0137837

>  <RMSD>
12.707

$$$$
2et3_lig
 OpenBabel11021811423D
libRbt.so/2013.1/901 2013/11/27
 31 33  0  0  0  0  0  0  0  0999 V2000
    3.9288   -2.3969   41.7295 C   0  0  2  0  0  0  0  0  0  0  0  0
    3.3281   -1.0905   41.9259 O   0  0  0  0  0  0  0  0  0  0  0  0
    0.1321   -1.3199   39.0905 C   0  0  2  0  0  0  0  0  0  0  0  0
   -0.9765   -0.9128   38.2838 N   0  0  0  0  0  0  0  0  0  0  0  0
    3.0500   -0.5922   36.8284 C   0  0  2  0  0  0  0  0  0  0  0  0
    4.7545   -2.7784   42.9627 C   0  0  2  0  0  0  0  0  0  0  0  0
    3.9061   -2.7274   44.1133 N   0  0  0  0  0  0  0  0  0  0  0  0
   -0.2298   -1.1470   40.6008 C   0  0  0  0  0  0  0  0  0  0  0  0
    2.9414   -0.8375   35.3073 C   0  0  2  0  0  0  0  0  0  0  0  0
    2.1159    0.1563   34.7419 O   0  0  0  0  0  0  0  0  0  0  0  0
    5.9920   -1.8281   43.1074 C   0  0  0  0  0  0  0  0  0  0  0  0
    0.9873   -1.5843   41.4956 C   0  0  2  0  0  0  0  0  0  0  0  0
    0.6516   -1.4229   42.9193 N   0  0  0  0  0  0  0  0  0  0  0  0
    2.3496   -2.2896   35.0881 C   0  0  1  0  0  0  0  0  0  0  0  0
    2.1663   -2.5931   33.6310 N   0  0  0  0  0  0  0  0  0  0  0  0
    6.8669   -1.9757   41.8231 C   0  0  0  0  0  0  0  0  0  0  0  0
    2.2536   -0.7223   41.1215 C   0  0  2  0  0  0  0  0  0  0  0  0
    3.3173   -3.3970   35.7669 C   0  0  1  0  0  0  0  0  0  0  0  0
    4.5969   -3.3973   35.1683 O   0  0  0  0  0  0  0  0  0  0  0  0
    5.9766   -1.6021   40.5572 C   0  0  2  0  0  0  0  0  0  0  0  0
    4.7506   -2.3956   40.4882 O   0  0  0  0  0  0  0  0  0  0  0  0
    2.5915   -0.9161   39.5931 C   0  0  2  0  0  0  0  0  0  0  0  0
    3.7358   -0.1482   39.2344 O   0  0  0  0  0  0  0  0  0  0  0  0
    3.5017   -3.0557   37.2778 C   0  0  0  0  0  0  0  0  0  0  0  0
    3.9274   -1.6266   37.4489 O   0  0  0  0  0  0  0  0  0  0  0  0
    6.7100   -1.6863   39.2393 C   0  0  0  0  0  0  0  0  0  0  0  0
    7.8118   -0.7620   39.1801 N   0  0  0  0  0  0  0  0  0  0  0  0
    1.3660   -0.4767   38.7172 C   0  0  1  0  0  0  0  0  0  0  0  0
    1.6875   -0.6656   37.3445 O   0  0  0  0  0  0  0  0  0  0  0  0
    2.8764   -4.8629   35.6561 C   0  0  0  0  0  0  0  0  0  0  0  0
    0.8932   -3.2147   33.2299 C   0  0  0  0  0  0  0  0  0  0  0  0
  1  2  1  1  0  0  0
  1  6  1  0  0  0  0
  1 21  1  0  0  0  0
  3  4  1  6  0  0  0
  3  8  1  0  0  0  0
  3 28  1  0  0  0  0
  5  9  1  0  0  0  0
  5 25  1  0  0  0  0
  5 29  1  1  0  0  0
  6  7  1  1  0  0  0
  6 11  1  0  0  0  0
  8 12  1  0  0  0  0
  9 10  1  1  0  0  0
  9 14  1  0  0  0  0
 11 16  1  0  0  0  0
 12 13  1  1  0  0  0
 12 17  1  0  0  0  0
 14 15  1  6  0  0  0
 14 18  1  0  0  0  0
 15 31  1  0  0  0  0
 16 20  1  0  0  0  0
 17  2  1  1  0  0  0
 17 22  1  0  0  0  0
 18 19  1  6  0  0  0
 18 24  1  0  0  0  0
 18 30  1  0  0  0  0
 20 21  1  0  0  0  0
 20 26  1  6  0  0  0
 22 23  1  6  0  0  0
 22 28  1  0  0  0  0
 24 25  1  0  0  0  0
 26 27  1  0  0  0  0
 28 29  1  6  0  0  0
M  END
>  <CHROM.1>
-161.86368357,-179.31634828,-134.56733039,69.46070574,-62.07081161,-148.96249540
3.17284744,-1.74829349,38.78489014,-1.27802357,0.16699025,-1.68027835

>  <Name>
2et3_lig

>  <RI>
1.07224e+07

>  <Rbt.Current_Directory>
/home/itssahil/PROJECTS/Mol_Feturizer/New_Systems/rnas/2et3

>  <Rbt.Executable>
rbdock ($Id: //depot/dev/client3/rdock/2013.1/src/exe/rbdock.cxx#4 $)

>  <Rbt.Library>
libRbt.so (2013.1, Build901 2013/11/27)

>  <Rbt.Parameter_File>
/export/apps/rDock/src/rDock_2013.1_src/data/scripts/dock_solv.prm

>  <Rbt.Receptor>
prm/blind_docking_80.prm

>  <SCORE>
-7.1744

>  <SCORE.INTER>
-6.8679

>  <SCORE.INTER.CONST>
1

>  <SCORE.INTER.POLAR>
-0.10072

>  <SCORE.INTER.ROT>
6

>  <SCORE.INTER.SOLV>
14.2958

>  <SCORE.INTER.VDW>
-16.6081

>  <SCORE.INTER.norm>
-0.221545

>  <SCORE.INTRA>
-2.68621

>  <SCORE.INTRA.DIHEDRAL>
-15.3242

>  <SCORE.INTRA.DIHEDRAL.0>
22.2484

>  <SCORE.INTRA.POLAR>
0

>  <SCORE.INTRA.POLAR.0>
0

>  <SCORE.INTRA.REPUL>
0.152485

>  <SCORE.INTRA.REPUL.0>
0

>  <SCORE.INTRA.SOLV>
-1.45453

>  <SCORE.INTRA.SOLV.lig_0>
-75.7198

>  <SCORE.INTRA.VDW>
4.94071

>  <SCORE.INTRA.VDW.0>
-3.34171

>  <SCORE.INTRA.norm>
-0.086652

>  <SCORE.RESTR>
2.37971

>  <SCORE.RESTR.CAVITY>
2.37971

>  <SCORE.RESTR.norm>
0.0767648

>  <SCORE.SYSTEM>
0

>  <SCORE.SYSTEM.CONST>
0

>  <SCORE.SYSTEM.DIHEDRAL>
0

>  <SCORE.SYSTEM.SOLV>
0

>  <SCORE.SYSTEM.norm>
0

>  <SCORE.heavy>
31

>  <SCORE.norm>
-0.231432

>  <RMSD>
12.761

$$$$
2et3_lig
 OpenBabel11021811423D
libRbt.so/2013.1/901 2013/11/27
 31 33  0  0  0  0  0  0  0  0999 V2000
    1.4524   -2.2098   36.0245 C   0  0  2  0  0  0  0  0  0  0  0  0
    1.0261   -2.1487   37.4104 O   0  0  0  0  0  0  0  0  0  0  0  0
    3.6796    0.7964   39.0201 C   0  0  2  0  0  0  0  0  0  0  0  0
    4.1689    1.8421   39.8644 N   0  0  0  0  0  0  0  0  0  0  0  0
    5.4640   -1.8854   39.9647 C   0  0  2  0  0  0  0  0  0  0  0  0
    1.0199   -3.5443   35.4076 C   0  0  2  0  0  0  0  0  0  0  0  0
   -0.3964   -3.6779   35.5567 N   0  0  0  0  0  0  0  0  0  0  0  0
    2.3969    1.2855   38.2734 C   0  0  0  0  0  0  0  0  0  0  0  0
    6.4503   -2.2575   41.0937 C   0  0  2  0  0  0  0  0  0  0  0  0
    5.7216   -2.7709   42.1863 O   0  0  0  0  0  0  0  0  0  0  0  0
    1.7920   -4.7319   36.0774 C   0  0  0  0  0  0  0  0  0  0  0  0
    1.8467    0.1385   37.3489 C   0  0  2  0  0  0  0  0  0  0  0  0
    0.6380    0.5940   36.6436 N   0  0  0  0  0  0  0  0  0  0  0  0
    7.2584   -0.9534   41.4852 C   0  0  1  0  0  0  0  0  0  0  0  0
    8.2110   -1.2164   42.6132 N   0  0  0  0  0  0  0  0  0  0  0  0
    3.3186   -4.5122   35.8369 C   0  0  0  0  0  0  0  0  0  0  0  0
    1.5341   -1.1377   38.2208 C   0  0  2  0  0  0  0  0  0  0  0  0
    8.0652   -0.3876   40.1996 C   0  0  1  0  0  0  0  0  0  0  0  0
    9.0205   -1.3215   39.7406 O   0  0  0  0  0  0  0  0  0  0  0  0
    3.7334   -3.1075   36.4611 C   0  0  2  0  0  0  0  0  0  0  0  0
    2.9247   -2.0079   35.9376 O   0  0  0  0  0  0  0  0  0  0  0  0
    2.8456   -1.6047   38.9623 C   0  0  2  0  0  0  0  0  0  0  0  0
    2.5862   -2.7598   39.7537 O   0  0  0  0  0  0  0  0  0  0  0  0
    7.0571   -0.1316   39.0370 C   0  0  0  0  0  0  0  0  0  0  0  0
    6.2126   -1.3479   38.7919 O   0  0  0  0  0  0  0  0  0  0  0  0
    5.1993   -2.7742   36.3133 C   0  0  0  0  0  0  0  0  0  0  0  0
    5.6412   -2.8982   34.9490 N   0  0  0  0  0  0  0  0  0  0  0  0
    3.3801   -0.4477   39.8775 C   0  0  1  0  0  0  0  0  0  0  0  0
    4.5654   -0.8853   40.5310 O   0  0  0  0  0  0  0  0  0  0  0  0
    8.8921    0.8885   40.4079 C   0  0  0  0  0  0  0  0  0  0  0  0
    9.2625   -2.2211   42.3831 C   0  0  0  0  0  0  0  0  0  0  0  0
  1  2  1  1  0  0  0
  1  6  1  0  0  0  0
  1 21  1  0  0  0  0
  3  4  1  1  0  0  0
  3  8  1  0  0  0  0
  3 28  1  0  0  0  0
  5  9  1  0  0  0  0
  5 25  1  0  0  0  0
  5 29  1  1  0  0  0
  6  7  1  1  0  0  0
  6 11  1  0  0  0  0
  8 12  1  0  0  0  0
  9 10  1  1  0  0  0
  9 14  1  0  0  0  0
 11 16  1  0  0  0  0
 12 13  1  1  0  0  0
 12 17  1  0  0  0  0
 14 15  1  1  0  0  0
 14 18  1  0  0  0  0
 15 31  1  0  0  0  0
 16 20  1  0  0  0  0
 17  2  1  6  0  0  0
 17 22  1  0  0  0  0
 18 19  1  6  0  0  0
 18 24  1  0  0  0  0
 18 30  1  0  0  0  0
 20 21  1  0  0  0  0
 20 26  1  6  0  0  0
 22 23  1  1  0  0  0
 22 28  1  0  0  0  0
 24 25  1  0  0  0  0
 26 27  1  0  0  0  0
 28 29  1  6  0  0  0
M  END
>  <CHROM.1>
168.01113779,-169.43299783,60.90585459,30.11744636,52.15270924,-92.26218435
4.38702686,-1.54314059,38.61880394,-2.60576399,-0.43784946,0.64652064

>  <Name>
2et3_lig

>  <RI>
0

>  <Rbt.Current_Directory>
/home/itssahil/PROJECTS/Mol_Feturizer/New_Systems/rnas/2et3

>  <Rbt.Executable>
rbdock ($Id: //depot/dev/client3/rdock/2013.1/src/exe/rbdock.cxx#4 $)

>  <Rbt.Library>
libRbt.so (2013.1, Build901 2013/11/27)

>  <Rbt.Parameter_File>
/export/apps/rDock/src/rDock_2013.1_src/data/scripts/dock_solv.prm

>  <Rbt.Receptor>
prm/blind_docking_100.prm

>  <SCORE>
-14.7572

>  <SCORE.INTER>
-14.451

>  <SCORE.INTER.CONST>
1

>  <SCORE.INTER.POLAR>
-0.693293

>  <SCORE.INTER.ROT>
6

>  <SCORE.INTER.SOLV>
14.5873

>  <SCORE.INTER.VDW>
-19.7855

>  <SCORE.INTER.norm>
-0.466161

>  <SCORE.INTRA>
-3.19353

>  <SCORE.INTRA.DIHEDRAL>
-13.0735

>  <SCORE.INTRA.DIHEDRAL.0>
22.2484

>  <SCORE.INTRA.POLAR>
0

>  <SCORE.INTRA.POLAR.0>
0

>  <SCORE.INTRA.REPUL>
0

>  <SCORE.INTRA.REPUL.0>
0

>  <SCORE.INTRA.SOLV>
-0.240309

>  <SCORE.INTRA.SOLV.lig_0>
-75.7198

>  <SCORE.INTRA.VDW>
3.46335

>  <SCORE.INTRA.VDW.0>
-3.34171

>  <SCORE.INTRA.norm>
-0.103017

>  <SCORE.RESTR>
2.8873

>  <SCORE.RESTR.CAVITY>
2.8873

>  <SCORE.RESTR.norm>
0.0931387

>  <SCORE.SYSTEM>
0

>  <SCORE.SYSTEM.CONST>
0

>  <SCORE.SYSTEM.DIHEDRAL>
0

>  <SCORE.SYSTEM.SOLV>
0

>  <SCORE.SYSTEM.norm>
0

>  <SCORE.heavy>
31

>  <SCORE.norm>
-0.47604

>  <RMSD>
12.766

$$$$
2et3_lig
 OpenBabel11021811423D
libRbt.so/2013.1/901 2013/11/27
 31 33  0  0  0  0  0  0  0  0999 V2000
    1.1881   -0.7543   36.1149 C   0  0  2  0  0  0  0  0  0  0  0  0
    2.2826    0.1921   36.0037 O   0  0  0  0  0  0  0  0  0  0  0  0
    5.6339   -2.4516   36.2969 C   0  0  2  0  0  0  0  0  0  0  0  0
    6.9783   -2.9287   36.1948 N   0  0  0  0  0  0  0  0  0  0  0  0
    6.2233   -0.6207   39.6080 C   0  0  2  0  0  0  0  0  0  0  0  0
   -0.1376   -0.0529   35.8004 C   0  0  2  0  0  0  0  0  0  0  0  0
   -0.0452    0.5350   34.4997 N   0  0  0  0  0  0  0  0  0  0  0  0
    5.0985   -2.0907   34.8738 C   0  0  0  0  0  0  0  0  0  0  0  0
    7.4992   -1.0382   40.3719 C   0  0  2  0  0  0  0  0  0  0  0  0
    8.5959   -0.9974   39.4865 O   0  0  0  0  0  0  0  0  0  0  0  0
   -0.4665    1.0132   36.9007 C   0  0  0  0  0  0  0  0  0  0  0  0
    3.6230   -1.5567   34.9774 C   0  0  2  0  0  0  0  0  0  0  0  0
    3.1142   -1.2149   33.6395 N   0  0  0  0  0  0  0  0  0  0  0  0
    7.2657   -2.4921   40.9538 C   0  0  1  0  0  0  0  0  0  0  0  0
    8.4804   -2.9960   41.6747 N   0  0  0  0  0  0  0  0  0  0  0  0
   -0.5753    0.2745   38.2716 C   0  0  0  0  0  0  0  0  0  0  0  0
    3.5831   -0.2977   35.9260 C   0  0  2  0  0  0  0  0  0  0  0  0
    5.9884   -2.4982   41.9499 C   0  0  1  0  0  0  0  0  0  0  0  0
    6.2016   -1.6562   43.0640 O   0  0  0  0  0  0  0  0  0  0  0  0
    0.8035   -0.4683   38.5582 C   0  0  2  0  0  0  0  0  0  0  0  0
    1.1846   -1.3683   37.4711 O   0  0  0  0  0  0  0  0  0  0  0  0
    4.1307   -0.6929   37.3514 C   0  0  2  0  0  0  0  0  0  0  0  0
    4.0999    0.4303   38.2261 O   0  0  0  0  0  0  0  0  0  0  0  0
    4.7408   -1.9612   41.1827 C   0  0  0  0  0  0  0  0  0  0  0  0
    5.0488   -0.6467   40.5270 O   0  0  0  0  0  0  0  0  0  0  0  0
    0.8423   -1.2141   39.8713 C   0  0  0  0  0  0  0  0  0  0  0  0
   -0.2583   -2.1332   39.9973 N   0  0  0  0  0  0  0  0  0  0  0  0
    5.6018   -1.2246   37.2276 C   0  0  1  0  0  0  0  0  0  0  0  0
    6.0744   -1.5820   38.5207 O   0  0  0  0  0  0  0  0  0  0  0  0
    5.6163   -3.8424   42.5905 C   0  0  0  0  0  0  0  0  0  0  0  0
    9.1756   -2.0484   42.5617 C   0  0  0  0  0  0  0  0  0  0  0  0
  1  2  1  1  0  0  0
  1  6  1  0  0  0  0
  1 21  1  0  0  0  0
  3  4  1  6  0  0  0
  3  8  1  0  0  0  0
  3 28  1  0  0  0  0
  5  9  1  0  0  0  0
  5 25  1  0  0  0  0
  5 29  1  6  0  0  0
  6  7  1  6  0  0  0
  6 11  1  0  0  0  0
  8 12  1  0  0  0  0
  9 10  1  6  0  0  0
  9 14  1  0  0  0  0
 11 16  1  0  0  0  0
 12 13  1  6  0  0  0
 12 17  1  0  0  0  0
 14 15  1  1  0  0  0
 14 18  1  0  0  0  0
 15 31  1  0  0  0  0
 16 20  1  0  0  0  0
 17  2  1  1  0  0  0
 17 22  1  0  0  0  0
 18 19  1  1  0  0  0
 18 24  1  0  0  0  0
 18 30  1  0  0  0  0
 20 21  1  0  0  0  0
 20 26  1  1  0  0  0
 22 23  1  1  0  0  0
 22 28  1  0  0  0  0
 24 25  1  0  0  0  0
 26 27  1  0  0  0  0
 28 29  1  1  0  0  0
M  END
>  <CHROM.1>
-164.48956054,-142.83975174,42.99989511,41.59146261,53.77718272,177.02932701
4.14323529,-1.23094927,38.45410136,-2.46383031,-0.20127721,1.66696264

>  <Name>
2et3_lig

>  <RI>
0

>  <Rbt.Current_Directory>
/home/itssahil/PROJECTS/Mol_Feturizer/New_Systems/rnas/2et3

>  <Rbt.Executable>
rbdock ($Id: //depot/dev/client3/rdock/2013.1/src/exe/rbdock.cxx#4 $)

>  <Rbt.Library>
libRbt.so (2013.1, Build901 2013/11/27)

>  <Rbt.Parameter_File>
/export/apps/rDock/src/rDock_2013.1_src/data/scripts/dock_solv.prm

>  <Rbt.Receptor>
prm/blind_docking_100.prm

>  <SCORE>
1.45329

>  <SCORE.INTER>
4.34134

>  <SCORE.INTER.CONST>
1

>  <SCORE.INTER.POLAR>
-0.168904

>  <SCORE.INTER.ROT>
6

>  <SCORE.INTER.SOLV>
21.2247

>  <SCORE.INTER.VDW>
-11.2177

>  <SCORE.INTER.norm>
0.140043

>  <SCORE.INTRA>
-5.07662

>  <SCORE.INTRA.DIHEDRAL>
-14.1233

>  <SCORE.INTRA.DIHEDRAL.0>
22.2484

>  <SCORE.INTRA.POLAR>
0

>  <SCORE.INTRA.POLAR.0>
0

>  <SCORE.INTRA.REPUL>
0

>  <SCORE.INTRA.REPUL.0>
0

>  <SCORE.INTRA.SOLV>
-0.934675

>  <SCORE.INTRA.SOLV.lig_0>
-75.7198

>  <SCORE.INTRA.VDW>
2.45237

>  <SCORE.INTRA.VDW.0>
-3.34171

>  <SCORE.INTRA.norm>
-0.163762

>  <SCORE.RESTR>
2.18856

>  <SCORE.RESTR.CAVITY>
2.18856

>  <SCORE.RESTR.norm>
0.0705987

>  <SCORE.SYSTEM>
0

>  <SCORE.SYSTEM.CONST>
0

>  <SCORE.SYSTEM.DIHEDRAL>
0

>  <SCORE.SYSTEM.SOLV>
0

>  <SCORE.SYSTEM.norm>
0

>  <SCORE.heavy>
31

>  <SCORE.norm>
0.0468803

>  <RMSD>
12.799

$$$$
2et3_lig
 OpenBabel11021811423D
libRbt.so/2013.1/901 2013/11/27
 31 33  0  0  0  0  0  0  0  0999 V2000
   -1.0275   -2.7727   41.1077 C   0  0  2  0  0  0  0  0  0  0  0  0
   -1.7850   -1.9677   40.1673 O   0  0  0  0  0  0  0  0  0  0  0  0
   -0.6660    0.7237   37.0351 C   0  0  2  0  0  0  0  0  0  0  0  0
    0.0215    1.7768   36.3540 N   0  0  0  0  0  0  0  0  0  0  0  0
    1.9685   -0.1275   35.5178 C   0  0  2  0  0  0  0  0  0  0  0  0
   -1.4842   -2.4659   42.5380 C   0  0  2  0  0  0  0  0  0  0  0  0
   -2.8937   -2.6936   42.6254 N   0  0  0  0  0  0  0  0  0  0  0  0
   -1.4102    1.3057   38.2800 C   0  0  0  0  0  0  0  0  0  0  0  0
    2.8926   -1.1755   34.8595 C   0  0  2  0  0  0  0  0  0  0  0  0
    2.1140   -2.0253   34.0471 O   0  0  0  0  0  0  0  0  0  0  0  0
   -1.1049   -0.9969   42.9298 C   0  0  0  0  0  0  0  0  0  0  0  0
   -2.1622    0.1527   39.0404 C   0  0  2  0  0  0  0  0  0  0  0  0
   -2.8644    0.6957   40.2142 N   0  0  0  0  0  0  0  0  0  0  0  0
    3.6257   -1.9734   36.0140 C   0  0  1  0  0  0  0  0  0  0  0  0
    4.5123   -3.0486   35.4602 N   0  0  0  0  0  0  0  0  0  0  0  0
    0.4467   -0.8565   42.8323 C   0  0  0  0  0  0  0  0  0  0  0  0
   -1.1276   -0.9553   39.4745 C   0  0  2  0  0  0  0  0  0  0  0  0
    4.4928   -0.9592   36.9324 C   0  0  1  0  0  0  0  0  0  0  0  0
    5.5091   -0.3276   36.1816 O   0  0  0  0  0  0  0  0  0  0  0  0
    0.8954   -1.2090   41.3460 C   0  0  2  0  0  0  0  0  0  0  0  0
    0.4297   -2.5292   40.9247 O   0  0  0  0  0  0  0  0  0  0  0  0
   -0.3926   -1.5204   38.1985 C   0  0  2  0  0  0  0  0  0  0  0  0
    0.5449   -2.5265   38.5681 O   0  0  0  0  0  0  0  0  0  0  0  0
    3.5532    0.1551   37.4884 C   0  0  0  0  0  0  0  0  0  0  0  0
    2.7713    0.7909   36.3762 O   0  0  0  0  0  0  0  0  0  0  0  0
    2.3825   -1.0955   41.1060 C   0  0  0  0  0  0  0  0  0  0  0  0
    2.7531   -1.5834   39.8036 N   0  0  0  0  0  0  0  0  0  0  0  0
    0.3497   -0.3564   37.4528 C   0  0  1  0  0  0  0  0  0  0  0  0
    0.9993   -0.8844   36.3027 O   0  0  0  0  0  0  0  0  0  0  0  0
    5.2574   -1.5753   38.1119 C   0  0  0  0  0  0  0  0  0  0  0  0
    4.3771   -4.3951   36.0406 C   0  0  0  0  0  0  0  0  0  0  0  0
  1  2  1  6  0  0  0
  1  6  1  0  0  0  0
  1 21  1  0  0  0  0
  3  4  1  1  0  0  0
  3  8  1  0  0  0  0
  3 28  1  0  0  0  0
  5  9  1  0  0  0  0
  5 25  1  0  0  0  0
  5 29  1  1  0  0  0
  6  7  1  6  0  0  0
  6 11  1  0  0  0  0
  8 12  1  0  0  0  0
  9 10  1  1  0  0  0
  9 14  1  0  0  0  0
 11 16  1  0  0  0  0
 12 13  1  1  0  0  0
 12 17  1  0  0  0  0
 14 15  1  6  0  0  0
 14 18  1  0  0  0  0
 15 31  1  0  0  0  0
 16 20  1  0  0  0  0
 17  2  1  6  0  0  0
 17 22  1  0  0  0  0
 18 19  1  6  0  0  0
 18 24  1  0  0  0  0
 18 30  1  0  0  0  0
 20 21  1  0  0  0  0
 20 26  1  1  0  0  0
 22 23  1  1  0  0  0
 22 28  1  0  0  0  0
 24 25  1  0  0  0  0
 26 27  1  0  0  0  0
 28 29  1  6  0  0  0
M  END
>  <CHROM.1>
111.12029635,153.29030467,-130.58898793,-154.99199160,172.73660253,70.83929303
1.09998336,-1.12859226,38.46599527,-2.42103238,0.43367258,-1.12796150

>  <Name>
2et3_lig

>  <RI>
0

>  <Rbt.Current_Directory>
/home/itssahil/PROJECTS/Mol_Feturizer/New_Systems/rnas/2et3

>  <Rbt.Executable>
rbdock ($Id: //depot/dev/client3/rdock/2013.1/src/exe/rbdock.cxx#4 $)

>  <Rbt.Library>
libRbt.so (2013.1, Build901 2013/11/27)

>  <Rbt.Parameter_File>
/export/apps/rDock/src/rDock_2013.1_src/data/scripts/dock_solv.prm

>  <Rbt.Receptor>
prm/blind_docking_60.prm

>  <SCORE>
-7.00759

>  <SCORE.INTER>
-9.54474

>  <SCORE.INTER.CONST>
1

>  <SCORE.INTER.POLAR>
-0.916515

>  <SCORE.INTER.ROT>
6

>  <SCORE.INTER.SOLV>
19.6574

>  <SCORE.INTER.VDW>
-17.4606

>  <SCORE.INTER.norm>
-0.307895

>  <SCORE.INTRA>
1.1072

>  <SCORE.INTRA.DIHEDRAL>
-7.8596

>  <SCORE.INTRA.DIHEDRAL.0>
22.2484

>  <SCORE.INTRA.POLAR>
0

>  <SCORE.INTRA.POLAR.0>
0

>  <SCORE.INTRA.REPUL>
0

>  <SCORE.INTRA.REPUL.0>
0

>  <SCORE.INTRA.SOLV>
6.0662

>  <SCORE.INTRA.SOLV.lig_0>
-75.7198

>  <SCORE.INTRA.VDW>
2.0039

>  <SCORE.INTRA.VDW.0>
-3.34171

>  <SCORE.INTRA.norm>
0.0357162

>  <SCORE.RESTR>
1.42995

>  <SCORE.RESTR.CAVITY>
1.42995

>  <SCORE.RESTR.norm>
0.0461274

>  <SCORE.SYSTEM>
0

>  <SCORE.SYSTEM.CONST>
0

>  <SCORE.SYSTEM.DIHEDRAL>
0

>  <SCORE.SYSTEM.SOLV>
0

>  <SCORE.SYSTEM.norm>
0

>  <SCORE.heavy>
31

>  <SCORE.norm>
-0.226051

>  <RMSD>
12.815

$$$$
2et3_lig
 OpenBabel11021811423D
libRbt.so/2013.1/901 2013/11/27
 31 33  0  0  0  0  0  0  0  0999 V2000
    6.7904   -1.5369   39.8551 C   0  0  2  0  0  0  0  0  0  0  0  0
    5.4733   -0.9429   39.9912 O   0  0  0  0  0  0  0  0  0  0  0  0
    3.3000   -3.3629   37.2115 C   0  0  2  0  0  0  0  0  0  0  0  0
    2.2103   -3.8496   36.4233 N   0  0  0  0  0  0  0  0  0  0  0  0
    3.1936   -1.0508   34.4653 C   0  0  2  0  0  0  0  0  0  0  0  0
    7.2553   -2.0825   41.2095 C   0  0  2  0  0  0  0  0  0  0  0  0
    6.2772   -3.0103   41.6876 N   0  0  0  0  0  0  0  0  0  0  0  0
    2.9363   -3.4696   38.7275 C   0  0  0  0  0  0  0  0  0  0  0  0
    3.1893    0.3979   35.0011 C   0  0  2  0  0  0  0  0  0  0  0  0
    4.5211    0.8472   35.1144 O   0  0  0  0  0  0  0  0  0  0  0  0
    7.4896   -0.9085   42.2205 C   0  0  0  0  0  0  0  0  0  0  0  0
    4.1260   -2.9282   39.6020 C   0  0  2  0  0  0  0  0  0  0  0  0
    3.7881   -3.0261   41.0309 N   0  0  0  0  0  0  0  0  0  0  0  0
    2.4462    0.3990   36.3992 C   0  0  1  0  0  0  0  0  0  0  0  0
    2.4381    1.7663   37.0150 N   0  0  0  0  0  0  0  0  0  0  0  0
    8.5878    0.0284   41.6265 C   0  0  0  0  0  0  0  0  0  0  0  0
    4.4353   -1.4339   39.2047 C   0  0  2  0  0  0  0  0  0  0  0  0
    0.9284   -0.1398   36.2271 C   0  0  1  0  0  0  0  0  0  0  0  0
    0.1766    0.7040   35.3795 O   0  0  0  0  0  0  0  0  0  0  0  0
    8.0915    0.5562   40.2088 C   0  0  2  0  0  0  0  0  0  0  0  0
    7.7433   -0.5360   39.3016 O   0  0  0  0  0  0  0  0  0  0  0  0
    4.7961   -1.3591   37.6710 C   0  0  2  0  0  0  0  0  0  0  0  0
    5.0829   -0.0170   37.2914 O   0  0  0  0  0  0  0  0  0  0  0  0
    0.9610   -1.5570   35.5761 C   0  0  0  0  0  0  0  0  0  0  0  0
    1.7935   -1.5462   34.3273 O   0  0  0  0  0  0  0  0  0  0  0  0
    9.0586    1.4942   39.5255 C   0  0  0  0  0  0  0  0  0  0  0  0
    8.4189    2.2593   38.4876 N   0  0  0  0  0  0  0  0  0  0  0  0
    3.5990   -1.9046   36.8156 C   0  0  1  0  0  0  0  0  0  0  0  0
    3.9462   -1.8356   35.4379 O   0  0  0  0  0  0  0  0  0  0  0  0
    0.0720   -0.2150   37.4985 C   0  0  0  0  0  0  0  0  0  0  0  0
    2.7599    1.8584   38.4489 C   0  0  0  0  0  0  0  0  0  0  0  0
  1  2  1  1  0  0  0
  1  6  1  0  0  0  0
  1 21  1  0  0  0  0
  3  4  1  6  0  0  0
  3  8  1  0  0  0  0
  3 28  1  0  0  0  0
  5  9  1  0  0  0  0
  5 25  1  0  0  0  0
  5 29  1  1  0  0  0
  6  7  1  1  0  0  0
  6 11  1  0  0  0  0
  8 12  1  0  0  0  0
  9 10  1  1  0  0  0
  9 14  1  0  0  0  0
 11 16  1  0  0  0  0
 12 13  1  1  0  0  0
 12 17  1  0  0  0  0
 14 15  1  6  0  0  0
 14 18  1  0  0  0  0
 15 31  1  0  0  0  0
 16 20  1  0  0  0  0
 17  2  1  1  0  0  0
 17 22  1  0  0  0  0
 18 19  1  6  0  0  0
 18 24  1  0  0  0  0
 18 30  1  0  0  0  0
 20 21  1  0  0  0  0
 20 26  1  6  0  0  0
 22 23  1  6  0  0  0
 22 28  1  0  0  0  0
 24 25  1  0  0  0  0
 26 27  1  0  0  0  0
 28 29  1  6  0  0  0
M  END
>  <CHROM.1>
-122.02939657,56.80336648,-135.48104584,65.04559631,-161.80920561,120.00105337
4.36989973,-0.82389117,37.99885136,0.39305283,0.60202045,2.48267403

>  <Name>
2et3_lig

>  <RI>
0

>  <Rbt.Current_Directory>
/home/itssahil/PROJECTS/Mol_Feturizer/New_Systems/rnas/2et3

>  <Rbt.Executable>
rbdock ($Id: //depot/dev/client3/rdock/2013.1/src/exe/rbdock.cxx#4 $)

>  <Rbt.Library>
libRbt.so (2013.1, Build901 2013/11/27)

>  <Rbt.Parameter_File>
/export/apps/rDock/src/rDock_2013.1_src/data/scripts/dock_solv.prm

>  <Rbt.Receptor>
prm/blind_docking_60.prm

>  <SCORE>
2.03484

>  <SCORE.INTER>
-5.19254

>  <SCORE.INTER.CONST>
1

>  <SCORE.INTER.POLAR>
0

>  <SCORE.INTER.ROT>
6

>  <SCORE.INTER.SOLV>
16.9664

>  <SCORE.INTER.VDW>
-16.7172

>  <SCORE.INTER.norm>
-0.167501

>  <SCORE.INTRA>
5.06288

>  <SCORE.INTRA.DIHEDRAL>
-5.50455

>  <SCORE.INTRA.DIHEDRAL.0>
22.2484

>  <SCORE.INTRA.POLAR>
0

>  <SCORE.INTRA.POLAR.0>
0

>  <SCORE.INTRA.REPUL>
0

>  <SCORE.INTRA.REPUL.0>
0

>  <SCORE.INTRA.SOLV>
5.2428

>  <SCORE.INTRA.SOLV.lig_0>
-75.7198

>  <SCORE.INTRA.VDW>
5.19375

>  <SCORE.INTRA.VDW.0>
-3.34171

>  <SCORE.INTRA.norm>
0.163319

>  <SCORE.RESTR>
2.1645

>  <SCORE.RESTR.CAVITY>
2.1645

>  <SCORE.RESTR.norm>
0.0698227

>  <SCORE.SYSTEM>
0

>  <SCORE.SYSTEM.CONST>
0

>  <SCORE.SYSTEM.DIHEDRAL>
0

>  <SCORE.SYSTEM.SOLV>
0

>  <SCORE.SYSTEM.norm>
0

>  <SCORE.heavy>
31

>  <SCORE.norm>
0.0656399

>  <RMSD>
12.834

$$$$
2et3_lig
 OpenBabel11021811423D
libRbt.so/2013.1/901 2013/11/27
 31 33  0  0  0  0  0  0  0  0999 V2000
    0.7938   -0.1818   35.9021 C   0  0  2  0  0  0  0  0  0  0  0  0
    1.9387    0.6207   36.2913 O   0  0  0  0  0  0  0  0  0  0  0  0
    5.0488   -2.3141   36.4338 C   0  0  2  0  0  0  0  0  0  0  0  0
    6.3607   -2.8812   36.3806 N   0  0  0  0  0  0  0  0  0  0  0  0
    5.1271   -1.2014   40.0907 C   0  0  2  0  0  0  0  0  0  0  0  0
   -0.4881    0.4316   36.4755 C   0  0  2  0  0  0  0  0  0  0  0  0
   -0.5851    1.7867   36.0279 N   0  0  0  0  0  0  0  0  0  0  0  0
    4.7020   -1.6701   35.0529 C   0  0  0  0  0  0  0  0  0  0  0  0
    6.2305   -0.1221   40.1477 C   0  0  2  0  0  0  0  0  0  0  0  0
    6.0603    0.7632   39.0633 O   0  0  0  0  0  0  0  0  0  0  0  0
   -0.4898    0.3319   38.0393 C   0  0  0  0  0  0  0  0  0  0  0  0
    3.2638   -1.0360   35.1049 C   0  0  2  0  0  0  0  0  0  0  0  0
    2.9326   -0.4276   33.8065 N   0  0  0  0  0  0  0  0  0  0  0  0
    7.6331   -0.8548   40.0953 C   0  0  1  0  0  0  0  0  0  0  0  0
    8.7659    0.1280   40.0988 N   0  0  0  0  0  0  0  0  0  0  0  0
   -0.4110   -1.1781   38.4269 C   0  0  0  0  0  0  0  0  0  0  0  0
    3.2034    0.0407   36.2554 C   0  0  2  0  0  0  0  0  0  0  0  0
    7.7799   -1.8733   41.3463 C   0  0  1  0  0  0  0  0  0  0  0  0
    7.7404   -1.1831   42.5782 O   0  0  0  0  0  0  0  0  0  0  0  0
    0.9132   -1.7956   37.7944 C   0  0  2  0  0  0  0  0  0  0  0  0
    0.9856   -1.5888   36.3490 O   0  0  0  0  0  0  0  0  0  0  0  0
    3.5597   -0.6385   37.6336 C   0  0  2  0  0  0  0  0  0  0  0  0
    3.5073    0.3168   38.6883 O   0  0  0  0  0  0  0  0  0  0  0  0
    6.5869   -2.8783   41.3284 C   0  0  0  0  0  0  0  0  0  0  0  0
    5.2801   -2.1461   41.2349 O   0  0  0  0  0  0  0  0  0  0  0  0
    1.1244   -3.2580   38.1087 C   0  0  0  0  0  0  0  0  0  0  0  0
    2.3832   -3.7378   37.6019 N   0  0  0  0  0  0  0  0  0  0  0  0
    4.9959   -1.2664   37.5617 C   0  0  1  0  0  0  0  0  0  0  0  0
    5.2953   -1.8794   38.8099 O   0  0  0  0  0  0  0  0  0  0  0  0
    9.0841   -2.6776   41.4349 C   0  0  0  0  0  0  0  0  0  0  0  0
    8.8188    1.0870   41.2149 C   0  0  0  0  0  0  0  0  0  0  0  0
  1  2  1  1  0  0  0
  1  6  1  0  0  0  0
  1 21  1  0  0  0  0
  3  4  1  6  0  0  0
  3  8  1  0  0  0  0
  3 28  1  0  0  0  0
  5  9  1  0  0  0  0
  5 25  1  0  0  0  0
  5 29  1  6  0  0  0
  6  7  1  1  0  0  0
  6 11  1  0  0  0  0
  8 12  1  0  0  0  0
  9 10  1  6  0  0  0
  9 14  1  0  0  0  0
 11 16  1  0  0  0  0
 12 13  1  6  0  0  0
 12 17  1  0  0  0  0
 14 15  1  1  0  0  0
 14 18  1  0  0  0  0
 15 31  1  0  0  0  0
 16 20  1  0  0  0  0
 17  2  1  1  0  0  0
 17 22  1  0  0  0  0
 18 19  1  1  0  0  0
 18 24  1  0  0  0  0
 18 30  1  0  0  0  0
 20 21  1  0  0  0  0
 20 26  1  6  0  0  0
 22 23  1  1  0  0  0
 22 28  1  0  0  0  0
 24 25  1  0  0  0  0
 26 27  1  0  0  0  0
 28 29  1  1  0  0  0
M  END
>  <CHROM.1>
159.67763245,-70.54052770,56.15919106,31.36438040,-175.51058614,-170.32661258
4.15942830,-1.00027761,38.27877398,-2.55825912,-0.09573826,1.57933914

>  <Name>
2et3_lig

>  <RI>
0

>  <Rbt.Current_Directory>
/home/itssahil/PROJECTS/Mol_Feturizer/New_Systems/rnas/2et3

>  <Rbt.Executable>
rbdock ($Id: //depot/dev/client3/rdock/2013.1/src/exe/rbdock.cxx#4 $)

>  <Rbt.Library>
libRbt.so (2013.1, Build901 2013/11/27)

>  <Rbt.Parameter_File>
/export/apps/rDock/src/rDock_2013.1_src/data/scripts/dock_solv.prm

>  <Rbt.Receptor>
prm/blind_docking_60.prm

>  <SCORE>
2.33664

>  <SCORE.INTER>
2.88423

>  <SCORE.INTER.CONST>
1

>  <SCORE.INTER.POLAR>
-0.421613

>  <SCORE.INTER.ROT>
6

>  <SCORE.INTER.SOLV>
19.3435

>  <SCORE.INTER.VDW>
-10.7196

>  <SCORE.INTER.norm>
0.0930396

>  <SCORE.INTRA>
-1.35431

>  <SCORE.INTRA.DIHEDRAL>
-15.8327

>  <SCORE.INTRA.DIHEDRAL.0>
22.2484

>  <SCORE.INTRA.POLAR>
0

>  <SCORE.INTRA.POLAR.0>
0

>  <SCORE.INTRA.REPUL>
0

>  <SCORE.INTRA.REPUL.0>
0

>  <SCORE.INTRA.SOLV>
2.68597

>  <SCORE.INTRA.SOLV.lig_0>
-75.7198

>  <SCORE.INTRA.VDW>
5.21905

>  <SCORE.INTRA.VDW.0>
-3.34171

>  <SCORE.INTRA.norm>
-0.0436874

>  <SCORE.RESTR>
0.806721

>  <SCORE.RESTR.CAVITY>
0.806721

>  <SCORE.RESTR.norm>
0.0260232

>  <SCORE.SYSTEM>
0

>  <SCORE.SYSTEM.CONST>
0

>  <SCORE.SYSTEM.DIHEDRAL>
0

>  <SCORE.SYSTEM.SOLV>
0

>  <SCORE.SYSTEM.norm>
0

>  <SCORE.heavy>
31

>  <SCORE.norm>
0.0753754

>  <RMSD>
12.857

$$$$
2et3_lig
 OpenBabel11021811423D
libRbt.so/2013.1/901 2013/11/27
 31 33  0  0  0  0  0  0  0  0999 V2000
    5.8947   -2.3326   40.3989 C   0  0  2  0  0  0  0  0  0  0  0  0
    4.6628   -1.9732   41.0767 O   0  0  0  0  0  0  0  0  0  0  0  0
    0.9083   -2.0874   39.0280 C   0  0  2  0  0  0  0  0  0  0  0  0
   -0.2057   -1.6501   38.2448 N   0  0  0  0  0  0  0  0  0  0  0  0
    1.3707   -2.4129   35.8160 C   0  0  2  0  0  0  0  0  0  0  0  0
    6.9020   -2.8850   41.4131 C   0  0  2  0  0  0  0  0  0  0  0  0
    6.3032   -3.9910   42.0946 N   0  0  0  0  0  0  0  0  0  0  0  0
    1.0249   -1.2015   40.3101 C   0  0  0  0  0  0  0  0  0  0  0  0
    2.4578   -2.2749   34.7276 C   0  0  2  0  0  0  0  0  0  0  0  0
    3.0964   -3.5207   34.5588 O   0  0  0  0  0  0  0  0  0  0  0  0
    7.3498   -1.7598   42.4074 C   0  0  0  0  0  0  0  0  0  0  0  0
    2.2530   -1.6698   41.1735 C   0  0  2  0  0  0  0  0  0  0  0  0
    2.3675   -0.8381   42.3822 N   0  0  0  0  0  0  0  0  0  0  0  0
    3.4723   -1.1509   35.1907 C   0  0  1  0  0  0  0  0  0  0  0  0
    4.5925   -0.9842   34.2077 N   0  0  0  0  0  0  0  0  0  0  0  0
    8.0138   -0.6174   41.5763 C   0  0  0  0  0  0  0  0  0  0  0  0
    3.5695   -1.5805   40.3101 C   0  0  2  0  0  0  0  0  0  0  0  0
    2.6960    0.2567   35.3896 C   0  0  1  0  0  0  0  0  0  0  0  0
    2.1327    0.7088   34.1755 O   0  0  0  0  0  0  0  0  0  0  0  0
    6.9562   -0.0832   40.5130 C   0  0  2  0  0  0  0  0  0  0  0  0
    6.4327   -1.1537   39.6661 O   0  0  0  0  0  0  0  0  0  0  0  0
    3.4200   -2.4819   39.0245 C   0  0  2  0  0  0  0  0  0  0  0  0
    4.6009   -2.4186   38.2313 O   0  0  0  0  0  0  0  0  0  0  0  0
    1.5302    0.0570   36.4067 C   0  0  0  0  0  0  0  0  0  0  0  0
    0.6731   -1.1083   36.0065 O   0  0  0  0  0  0  0  0  0  0  0  0
    7.4661    1.0449   39.6473 C   0  0  0  0  0  0  0  0  0  0  0  0
    6.4717    1.4883   38.7058 N   0  0  0  0  0  0  0  0  0  0  0  0
    2.1897   -2.0011   38.1776 C   0  0  1  0  0  0  0  0  0  0  0  0
    2.0676   -2.8299   37.0280 O   0  0  0  0  0  0  0  0  0  0  0  0
    3.5386    1.4526   35.8537 C   0  0  0  0  0  0  0  0  0  0  0  0
    5.8384   -0.3783   34.7065 C   0  0  0  0  0  0  0  0  0  0  0  0
  1  2  1  1  0  0  0
  1  6  1  0  0  0  0
  1 21  1  0  0  0  0
  3  4  1  6  0  0  0
  3  8  1  0  0  0  0
  3 28  1  0  0  0  0
  5  9  1  0  0  0  0
  5 25  1  0  0  0  0
  5 29  1  1  0  0  0
  6  7  1  1  0  0  0
  6 11  1  0  0  0  0
  8 12  1  0  0  0  0
  9 10  1  1  0  0  0
  9 14  1  0  0  0  0
 11 16  1  0  0  0  0
 12 13  1  1  0  0  0
 12 17  1  0  0  0  0
 14 15  1  6  0  0  0
 14 18  1  0  0  0  0
 15 31  1  0  0  0  0
 16 20  1  0  0  0  0
 17  2  1  1  0  0  0
 17 22  1  0  0  0  0
 18 19  1  6  0  0  0
 18 24  1  0  0  0  0
 18 30  1  0  0  0  0
 20 21  1  0  0  0  0
 20 26  1  6  0  0  0
 22 23  1  6  0  0  0
 22 28  1  0  0  0  0
 24 25  1  0  0  0  0
 26 27  1  0  0  0  0
 28 29  1  6  0  0  0
M  END
>  <CHROM.1>
-173.41021961,112.40844704,-157.72633727,162.63448508,179.99490315,82.00548799
3.87352452,-1.30025405,38.29265190,-0.94005475,-0.27884715,-1.30357048

>  <Name>
2et3_lig

>  <RI>
0

>  <Rbt.Current_Directory>
/home/itssahil/PROJECTS/Mol_Feturizer/New_Systems/rnas/2et3

>  <Rbt.Executable>
rbdock ($Id: //depot/dev/client3/rdock/2013.1/src/exe/rbdock.cxx#4 $)

>  <Rbt.Library>
libRbt.so (2013.1, Build901 2013/11/27)

>  <Rbt.Parameter_File>
/export/apps/rDock/src/rDock_2013.1_src/data/scripts/dock_solv.prm

>  <Rbt.Receptor>
prm/blind_docking_60.prm

>  <SCORE>
-6.21145

>  <SCORE.INTER>
-8.1455

>  <SCORE.INTER.CONST>
1

>  <SCORE.INTER.POLAR>
-1.02244

>  <SCORE.INTER.ROT>
6

>  <SCORE.INTER.SOLV>
18.9185

>  <SCORE.INTER.VDW>
-15.9284

>  <SCORE.INTER.norm>
-0.262758

>  <SCORE.INTRA>
-0.0953451

>  <SCORE.INTRA.DIHEDRAL>
-11.0668

>  <SCORE.INTRA.DIHEDRAL.0>
22.2484

>  <SCORE.INTRA.POLAR>
0

>  <SCORE.INTRA.POLAR.0>
0

>  <SCORE.INTRA.REPUL>
0

>  <SCORE.INTRA.REPUL.0>
0

>  <SCORE.INTRA.SOLV>
-0.324383

>  <SCORE.INTRA.SOLV.lig_0>
-75.7198

>  <SCORE.INTRA.VDW>
5.60025

>  <SCORE.INTRA.VDW.0>
-3.34171

>  <SCORE.INTRA.norm>
-0.00307565

>  <SCORE.RESTR>
2.0294

>  <SCORE.RESTR.CAVITY>
2.0294

>  <SCORE.RESTR.norm>
0.0654645

>  <SCORE.SYSTEM>
0

>  <SCORE.SYSTEM.CONST>
0

>  <SCORE.SYSTEM.DIHEDRAL>
0

>  <SCORE.SYSTEM.SOLV>
0

>  <SCORE.SYSTEM.norm>
0

>  <SCORE.heavy>
31

>  <SCORE.norm>
-0.200369

>  <RMSD>
12.863

$$$$
2et3_lig
 OpenBabel11021811423D
libRbt.so/2013.1/901 2013/11/27
 31 33  0  0  0  0  0  0  0  0999 V2000
   -2.4503   -0.7197   41.3770 C   0  0  2  0  0  0  0  0  0  0  0  0
   -1.8061   -2.0093   41.5443 O   0  0  0  0  0  0  0  0  0  0  0  0
    2.2754   -0.8905   40.9149 C   0  0  2  0  0  0  0  0  0  0  0  0
    3.7024   -0.9826   40.8902 N   0  0  0  0  0  0  0  0  0  0  0  0
    3.4573   -2.2584   38.2233 C   0  0  2  0  0  0  0  0  0  0  0  0
   -3.9525   -0.9167   41.1466 C   0  0  2  0  0  0  0  0  0  0  0  0
   -4.4878   -1.6640   42.2426 N   0  0  0  0  0  0  0  0  0  0  0  0
    1.7679   -1.0413   42.3853 C   0  0  0  0  0  0  0  0  0  0  0  0
    4.0024   -1.1231   37.3291 C   0  0  2  0  0  0  0  0  0  0  0  0
    4.0834    0.0603   38.0917 O   0  0  0  0  0  0  0  0  0  0  0  0
   -4.2063   -1.6299   39.7746 C   0  0  0  0  0  0  0  0  0  0  0  0
    0.1983   -0.9500   42.4209 C   0  0  2  0  0  0  0  0  0  0  0  0
   -0.2848   -1.0919   43.8037 N   0  0  0  0  0  0  0  0  0  0  0  0
    3.0247   -0.9622   36.0942 C   0  0  1  0  0  0  0  0  0  0  0  0
    3.4569    0.1569   35.1944 N   0  0  0  0  0  0  0  0  0  0  0  0
   -3.6154   -0.7285   38.6454 C   0  0  0  0  0  0  0  0  0  0  0  0
   -0.4164   -2.0719   41.4990 C   0  0  2  0  0  0  0  0  0  0  0  0
    2.9472   -2.3469   35.2573 C   0  0  1  0  0  0  0  0  0  0  0  0
    4.2070   -2.6946   34.7212 O   0  0  0  0  0  0  0  0  0  0  0  0
   -2.0626   -0.5168   38.9258 C   0  0  2  0  0  0  0  0  0  0  0  0
   -1.8092    0.0261   40.2594 O   0  0  0  0  0  0  0  0  0  0  0  0
    0.1156   -1.8942   40.0248 C   0  0  2  0  0  0  0  0  0  0  0  0
   -0.4309   -2.8965   39.1736 O   0  0  0  0  0  0  0  0  0  0  0  0
    2.5064   -3.4973   36.2144 C   0  0  0  0  0  0  0  0  0  0  0  0
    3.3712   -3.5253   37.4408 O   0  0  0  0  0  0  0  0  0  0  0  0
   -1.3576    0.3289   37.8917 C   0  0  0  0  0  0  0  0  0  0  0  0
   -0.0011    0.6215   38.2742 N   0  0  0  0  0  0  0  0  0  0  0  0
    1.6819   -1.9864   40.0097 C   0  0  1  0  0  0  0  0  0  0  0  0
    2.1421   -1.8169   38.6745 O   0  0  0  0  0  0  0  0  0  0  0  0
    2.0255   -2.3636   34.0302 C   0  0  0  0  0  0  0  0  0  0  0  0
    3.0859    1.5236   35.5978 C   0  0  0  0  0  0  0  0  0  0  0  0
  1  2  1  6  0  0  0
  1  6  1  0  0  0  0
  1 21  1  0  0  0  0
  3  4  1  1  0  0  0
  3  8  1  0  0  0  0
  3 28  1  0  0  0  0
  5  9  1  0  0  0  0
  5 25  1  0  0  0  0
  5 29  1  6  0  0  0
  6  7  1  1  0  0  0
  6 11  1  0  0  0  0
  8 12  1  0  0  0  0
  9 10  1  1  0  0  0
  9 14  1  0  0  0  0
 11 16  1  0  0  0  0
 12 13  1  1  0  0  0
 12 17  1  0  0  0  0
 14 15  1  6  0  0  0
 14 18  1  0  0  0  0
 15 31  1  0  0  0  0
 16 20  1  0  0  0  0
 17  2  1  6  0  0  0
 17 22  1  0  0  0  0
 18 19  1  6  0  0  0
 18 24  1  0  0  0  0
 18 30  1  0  0  0  0
 20 21  1  0  0  0  0
 20 26  1  6  0  0  0
 22 23  1  6  0  0  0
 22 28  1  0  0  0  0
 24 25  1  0  0  0  0
 26 27  1  0  0  0  0
 28 29  1  6  0  0  0
M  END
>  <CHROM.1>
167.37980444,-137.63258857,-80.93447130,47.87656626,173.06278289,79.97836014
0.70738273,-1.29416830,38.93335996,2.41204945,-0.07851290,1.58913998

>  <Name>
2et3_lig

>  <RI>
1.07224e+07

>  <Rbt.Current_Directory>
/home/itssahil/PROJECTS/Mol_Feturizer/New_Systems/rnas/2et3

>  <Rbt.Executable>
rbdock ($Id: //depot/dev/client3/rdock/2013.1/src/exe/rbdock.cxx#4 $)

>  <Rbt.Library>
libRbt.so (2013.1, Build901 2013/11/27)

>  <Rbt.Parameter_File>
/export/apps/rDock/src/rDock_2013.1_src/data/scripts/dock_solv.prm

>  <Rbt.Receptor>
prm/blind_docking_80.prm

>  <SCORE>
-15.3721

>  <SCORE.INTER>
-13.625

>  <SCORE.INTER.CONST>
1

>  <SCORE.INTER.POLAR>
-0.916515

>  <SCORE.INTER.ROT>
6

>  <SCORE.INTER.SOLV>
12.1952

>  <SCORE.INTER.VDW>
-17.6933

>  <SCORE.INTER.norm>
-0.439515

>  <SCORE.INTRA>
-3.16439

>  <SCORE.INTRA.DIHEDRAL>
-12.5894

>  <SCORE.INTRA.DIHEDRAL.0>
22.2484

>  <SCORE.INTRA.POLAR>
0

>  <SCORE.INTRA.POLAR.0>
0

>  <SCORE.INTRA.REPUL>
0

>  <SCORE.INTRA.REPUL.0>
0

>  <SCORE.INTRA.SOLV>
3.8399

>  <SCORE.INTRA.SOLV.lig_0>
-75.7198

>  <SCORE.INTRA.VDW>
1.21034

>  <SCORE.INTRA.VDW.0>
-3.34171

>  <SCORE.INTRA.norm>
-0.102077

>  <SCORE.RESTR>
1.41722

>  <SCORE.RESTR.CAVITY>
1.41722

>  <SCORE.RESTR.norm>
0.0457166

>  <SCORE.SYSTEM>
0

>  <SCORE.SYSTEM.CONST>
0

>  <SCORE.SYSTEM.DIHEDRAL>
0

>  <SCORE.SYSTEM.SOLV>
0

>  <SCORE.SYSTEM.norm>
0

>  <SCORE.heavy>
31

>  <SCORE.norm>
-0.495875

>  <RMSD>
12.864

$$$$
2et3_lig
 OpenBabel11021811423D
libRbt.so/2013.1/901 2013/11/27
 31 33  0  0  0  0  0  0  0  0999 V2000
   -0.1874    0.3414   37.1310 C   0  0  2  0  0  0  0  0  0  0  0  0
   -0.0513   -1.0827   37.3754 O   0  0  0  0  0  0  0  0  0  0  0  0
    1.2556   -1.0441   41.4493 C   0  0  2  0  0  0  0  0  0  0  0  0
    1.5502   -1.5145   42.7675 N   0  0  0  0  0  0  0  0  0  0  0  0
    4.4927   -2.6635   40.4161 C   0  0  2  0  0  0  0  0  0  0  0  0
   -0.1228    0.6172   35.6250 C   0  0  2  0  0  0  0  0  0  0  0  0
   -1.1375   -0.1544   34.9760 N   0  0  0  0  0  0  0  0  0  0  0  0
   -0.2715   -1.2133   41.1638 C   0  0  0  0  0  0  0  0  0  0  0  0
    5.7942   -2.1660   41.0826 C   0  0  2  0  0  0  0  0  0  0  0  0
    5.5725   -2.0226   42.4678 O   0  0  0  0  0  0  0  0  0  0  0  0
    1.3051    0.2886   35.0697 C   0  0  0  0  0  0  0  0  0  0  0  0
   -0.6032   -0.7065   39.7125 C   0  0  2  0  0  0  0  0  0  0  0  0
   -2.0405   -0.8642   39.4385 N   0  0  0  0  0  0  0  0  0  0  0  0
    6.1954   -0.7924   40.4049 C   0  0  1  0  0  0  0  0  0  0  0  0
    7.4299   -0.2129   41.0287 N   0  0  0  0  0  0  0  0  0  0  0  0
    2.3336    1.1963   35.8146 C   0  0  0  0  0  0  0  0  0  0  0  0
    0.2548   -1.5124   38.6633 C   0  0  2  0  0  0  0  0  0  0  0  0
    6.4230   -0.9981   38.8145 C   0  0  1  0  0  0  0  0  0  0  0  0
    7.4877   -1.8906   38.5589 O   0  0  0  0  0  0  0  0  0  0  0  0
    2.2241    0.9104   37.3770 C   0  0  2  0  0  0  0  0  0  0  0  0
    0.8623    1.0866   37.8786 O   0  0  0  0  0  0  0  0  0  0  0  0
    1.7886   -1.3237   38.9790 C   0  0  2  0  0  0  0  0  0  0  0  0
    2.5827   -2.0413   38.0398 O   0  0  0  0  0  0  0  0  0  0  0  0
    5.1316   -1.6107   38.1895 C   0  0  0  0  0  0  0  0  0  0  0  0
    4.7048   -2.8326   38.9494 O   0  0  0  0  0  0  0  0  0  0  0  0
    3.1838    1.7154   38.2213 C   0  0  0  0  0  0  0  0  0  0  0  0
    2.9542    1.5172   39.6284 N   0  0  0  0  0  0  0  0  0  0  0  0
    2.0996   -1.8328   40.4303 C   0  0  1  0  0  0  0  0  0  0  0  0
    3.4843   -1.6477   40.6982 O   0  0  0  0  0  0  0  0  0  0  0  0
    6.8049    0.2473   38.0029 C   0  0  0  0  0  0  0  0  0  0  0  0
    7.6683    1.2268   40.8326 C   0  0  0  0  0  0  0  0  0  0  0  0
  1  2  1  6  0  0  0
  1  6  1  0  0  0  0
  1 21  1  0  0  0  0
  3  4  1  1  0  0  0
  3  8  1  0  0  0  0
  3 28  1  0  0  0  0
  5  9  1  0  0  0  0
  5 25  1  0  0  0  0
  5 29  1  6  0  0  0
  6  7  1  6  0  0  0
  6 11  1  0  0  0  0
  8 12  1  0  0  0  0
  9 10  1  1  0  0  0
  9 14  1  0  0  0  0
 11 16  1  0  0  0  0
 12 13  1  6  0  0  0
 12 17  1  0  0  0  0
 14 15  1  1  0  0  0
 14 18  1  0  0  0  0
 15 31  1  0  0  0  0
 16 20  1  0  0  0  0
 17  2  1  6  0  0  0
 17 22  1  0  0  0  0
 18 19  1  6  0  0  0
 18 24  1  0  0  0  0
 18 30  1  0  0  0  0
 20 21  1  0  0  0  0
 20 26  1  1  0  0  0
 22 23  1  6  0  0  0
 22 28  1  0  0  0  0
 24 25  1  0  0  0  0
 26 27  1  0  0  0  0
 28 29  1  1  0  0  0
M  END
>  <CHROM.1>
163.92869184,-170.03250702,-160.22727780,43.13809231,174.30626745,149.21640784
2.92025143,-0.68826632,39.00778719,-2.70319221,0.04524902,1.97242637

>  <Name>
2et3_lig

>  <RI>
0

>  <Rbt.Current_Directory>
/home/itssahil/PROJECTS/Mol_Feturizer/New_Systems/rnas/2et3

>  <Rbt.Executable>
rbdock ($Id: //depot/dev/client3/rdock/2013.1/src/exe/rbdock.cxx#4 $)

>  <Rbt.Library>
libRbt.so (2013.1, Build901 2013/11/27)

>  <Rbt.Parameter_File>
/export/apps/rDock/src/rDock_2013.1_src/data/scripts/dock_solv.prm

>  <Rbt.Receptor>
prm/blind_docking_60.prm

>  <SCORE>
-5.83317

>  <SCORE.INTER>
-6.30237

>  <SCORE.INTER.CONST>
1

>  <SCORE.INTER.POLAR>
0

>  <SCORE.INTER.ROT>
6

>  <SCORE.INTER.SOLV>
15.5189

>  <SCORE.INTER.VDW>
-16.9745

>  <SCORE.INTER.norm>
-0.203302

>  <SCORE.INTRA>
-2.08165

>  <SCORE.INTRA.DIHEDRAL>
-14.9623

>  <SCORE.INTRA.DIHEDRAL.0>
22.2484

>  <SCORE.INTRA.POLAR>
0

>  <SCORE.INTRA.POLAR.0>
0

>  <SCORE.INTRA.REPUL>
0

>  <SCORE.INTRA.REPUL.0>
0

>  <SCORE.INTRA.SOLV>
2.70138

>  <SCORE.INTRA.SOLV.lig_0>
-75.7198

>  <SCORE.INTRA.VDW>
4.04882

>  <SCORE.INTRA.VDW.0>
-3.34171

>  <SCORE.INTRA.norm>
-0.0671499

>  <SCORE.RESTR>
2.55085

>  <SCORE.RESTR.CAVITY>
2.55085

>  <SCORE.RESTR.norm>
0.0822856

>  <SCORE.SYSTEM>
0

>  <SCORE.SYSTEM.CONST>
0

>  <SCORE.SYSTEM.DIHEDRAL>
0

>  <SCORE.SYSTEM.SOLV>
0

>  <SCORE.SYSTEM.norm>
0

>  <SCORE.heavy>
31

>  <SCORE.norm>
-0.188167

>  <RMSD>
12.911

$$$$
2et3_lig
 OpenBabel11021811423D
libRbt.so/2013.1/901 2013/11/27
 31 33  0  0  0  0  0  0  0  0999 V2000
    0.8841   -1.7733   36.0083 C   0  0  2  0  0  0  0  0  0  0  0  0
    2.2975   -1.6040   36.2909 O   0  0  0  0  0  0  0  0  0  0  0  0
    4.7266    0.8864   38.7816 C   0  0  2  0  0  0  0  0  0  0  0  0
    5.0821    1.8161   39.8087 N   0  0  0  0  0  0  0  0  0  0  0  0
    5.9246   -1.9988   39.9213 C   0  0  2  0  0  0  0  0  0  0  0  0
    0.1176   -1.9995   37.3159 C   0  0  2  0  0  0  0  0  0  0  0  0
    0.3781   -0.9003   38.1933 N   0  0  0  0  0  0  0  0  0  0  0  0
    3.7583    1.5750   37.7665 C   0  0  0  0  0  0  0  0  0  0  0  0
    6.6852   -2.4038   41.2032 C   0  0  2  0  0  0  0  0  0  0  0  0
    5.7600   -2.8929   42.1483 O   0  0  0  0  0  0  0  0  0  0  0  0
    0.5257   -3.3690   37.9589 C   0  0  0  0  0  0  0  0  0  0  0  0
    3.3550    0.5570   36.6378 C   0  0  2  0  0  0  0  0  0  0  0  0
    2.4426    1.2007   35.6792 N   0  0  0  0  0  0  0  0  0  0  0  0
    7.4545   -1.1274   41.7380 C   0  0  1  0  0  0  0  0  0  0  0  0
    8.1857   -1.4222   43.0137 N   0  0  0  0  0  0  0  0  0  0  0  0
    0.1778   -4.5021   36.9431 C   0  0  0  0  0  0  0  0  0  0  0  0
    2.6762   -0.7093   37.2876 C   0  0  2  0  0  0  0  0  0  0  0  0
    8.4920   -0.5884   40.6170 C   0  0  1  0  0  0  0  0  0  0  0  0
    9.4819   -1.5535   40.3266 O   0  0  0  0  0  0  0  0  0  0  0  0
    0.9637   -4.2259   35.5863 C   0  0  2  0  0  0  0  0  0  0  0  0
    0.6897   -2.8944   35.0483 O   0  0  0  0  0  0  0  0  0  0  0  0
    3.6758   -1.3796   38.3070 C   0  0  2  0  0  0  0  0  0  0  0  0
    3.0832   -2.5290   38.9034 O   0  0  0  0  0  0  0  0  0  0  0  0
    7.7120   -0.2987   39.2974 C   0  0  0  0  0  0  0  0  0  0  0  0
    6.8843   -1.4862   38.9009 O   0  0  0  0  0  0  0  0  0  0  0  0
    0.7297   -5.2640   34.5143 C   0  0  0  0  0  0  0  0  0  0  0  0
    1.6346   -5.1027   33.4066 N   0  0  0  0  0  0  0  0  0  0  0  0
    4.0677   -0.3491   39.4235 C   0  0  1  0  0  0  0  0  0  0  0  0
    4.9739   -0.9695   40.3276 O   0  0  0  0  0  0  0  0  0  0  0  0
    9.3110    0.6594   40.9745 C   0  0  0  0  0  0  0  0  0  0  0  0
    8.9764   -2.6633   43.0626 C   0  0  0  0  0  0  0  0  0  0  0  0
  1  2  1  1  0  0  0
  1  6  1  0  0  0  0
  1 21  1  0  0  0  0
  3  4  1  1  0  0  0
  3  8  1  0  0  0  0
  3 28  1  0  0  0  0
  5  9  1  0  0  0  0
  5 25  1  0  0  0  0
  5 29  1  1  0  0  0
  6  7  1  1  0  0  0
  6 11  1  0  0  0  0
  8 12  1  0  0  0  0
  9 10  1  1  0  0  0
  9 14  1  0  0  0  0
 11 16  1  0  0  0  0
 12 13  1  6  0  0  0
 12 17  1  0  0  0  0
 14 15  1  1  0  0  0
 14 18  1  0  0  0  0
 15 31  1  0  0  0  0
 16 20  1  0  0  0  0
 17  2  1  6  0  0  0
 17 22  1  0  0  0  0
 18 19  1  6  0  0  0
 18 24  1  0  0  0  0
 18 30  1  0  0  0  0
 20 21  1  0  0  0  0
 20 26  1  6  0  0  0
 22 23  1  1  0  0  0
 22 28  1  0  0  0  0
 24 25  1  0  0  0  0
 26 27  1  0  0  0  0
 28 29  1  1  0  0  0
M  END
>  <CHROM.1>
-48.96688431,-179.17174744,46.13497653,-109.12490310,-169.71744968,-88.86128865
4.26232020,-1.54811875,38.58124259,3.03265830,0.68107305,2.97808356

>  <Name>
2et3_lig

>  <RI>
0

>  <Rbt.Current_Directory>
/home/itssahil/PROJECTS/Mol_Feturizer/New_Systems/rnas/2et3

>  <Rbt.Executable>
rbdock ($Id: //depot/dev/client3/rdock/2013.1/src/exe/rbdock.cxx#4 $)

>  <Rbt.Library>
libRbt.so (2013.1, Build901 2013/11/27)

>  <Rbt.Parameter_File>
/export/apps/rDock/src/rDock_2013.1_src/data/scripts/dock_solv.prm

>  <Rbt.Receptor>
prm/blind_docking_60.prm

>  <SCORE>
-4.19719

>  <SCORE.INTER>
-6.8846

>  <SCORE.INTER.CONST>
1

>  <SCORE.INTER.POLAR>
-0.842401

>  <SCORE.INTER.ROT>
6

>  <SCORE.INTER.SOLV>
19.2723

>  <SCORE.INTER.VDW>
-15.8058

>  <SCORE.INTER.norm>
-0.222084

>  <SCORE.INTRA>
0.488459

>  <SCORE.INTRA.DIHEDRAL>
-10.964

>  <SCORE.INTRA.DIHEDRAL.0>
22.2484

>  <SCORE.INTRA.POLAR>
0

>  <SCORE.INTRA.POLAR.0>
0

>  <SCORE.INTRA.REPUL>
0

>  <SCORE.INTRA.REPUL.0>
0

>  <SCORE.INTRA.SOLV>
2.42288

>  <SCORE.INTRA.SOLV.lig_0>
-75.7198

>  <SCORE.INTRA.VDW>
4.759

>  <SCORE.INTRA.VDW.0>
-3.34171

>  <SCORE.INTRA.norm>
0.0157567

>  <SCORE.RESTR>
2.19895

>  <SCORE.RESTR.CAVITY>
2.19895

>  <SCORE.RESTR.norm>
0.070934

>  <SCORE.SYSTEM>
0

>  <SCORE.SYSTEM.CONST>
0

>  <SCORE.SYSTEM.DIHEDRAL>
0

>  <SCORE.SYSTEM.SOLV>
0

>  <SCORE.SYSTEM.norm>
0

>  <SCORE.heavy>
31

>  <SCORE.norm>
-0.135393

>  <RMSD>
12.948

$$$$
2et3_lig
 OpenBabel11021811423D
libRbt.so/2013.1/901 2013/11/27
 31 33  0  0  0  0  0  0  0  0999 V2000
    5.6662   -1.9994   40.2785 C   0  0  2  0  0  0  0  0  0  0  0  0
    5.2847   -0.6057   40.1428 O   0  0  0  0  0  0  0  0  0  0  0  0
    2.2524    1.4506   37.9331 C   0  0  2  0  0  0  0  0  0  0  0  0
    1.3888    1.8013   36.8483 N   0  0  0  0  0  0  0  0  0  0  0  0
   -0.1029   -1.4117   38.6937 C   0  0  2  0  0  0  0  0  0  0  0  0
    5.6059   -2.4120   41.7531 C   0  0  2  0  0  0  0  0  0  0  0  0
    4.2895   -2.1487   42.2469 N   0  0  0  0  0  0  0  0  0  0  0  0
    3.7412    1.6375   37.4965 C   0  0  0  0  0  0  0  0  0  0  0  0
   -1.5935   -1.0566   38.8878 C   0  0  2  0  0  0  0  0  0  0  0  0
   -1.9904   -0.1740   37.8622 O   0  0  0  0  0  0  0  0  0  0  0  0
    6.7013   -1.6540   42.5781 C   0  0  0  0  0  0  0  0  0  0  0  0
    4.6987    1.2457   38.6809 C   0  0  2  0  0  0  0  0  0  0  0  0
    6.1024    1.4195   38.2745 N   0  0  0  0  0  0  0  0  0  0  0  0
   -1.7574   -0.4054   40.3217 C   0  0  1  0  0  0  0  0  0  0  0  0
   -3.1746    0.0144   40.5748 N   0  0  0  0  0  0  0  0  0  0  0  0
    8.0964   -2.0264   41.9850 C   0  0  0  0  0  0  0  0  0  0  0  0
    4.4245   -0.2469   39.1092 C   0  0  2  0  0  0  0  0  0  0  0  0
   -1.2746   -1.4440   41.4670 C   0  0  1  0  0  0  0  0  0  0  0  0
   -2.0699   -2.6115   41.4701 O   0  0  0  0  0  0  0  0  0  0  0  0
    8.1202   -1.6141   40.4474 C   0  0  2  0  0  0  0  0  0  0  0  0
    7.0191   -2.2137   39.6956 O   0  0  0  0  0  0  0  0  0  0  0  0
    2.9157   -0.4035   39.5414 C   0  0  2  0  0  0  0  0  0  0  0  0
    2.6470   -1.7451   39.9361 O   0  0  0  0  0  0  0  0  0  0  0  0
    0.1967   -1.8744   41.1778 C   0  0  0  0  0  0  0  0  0  0  0  0
    0.3390   -2.3536   39.7625 O   0  0  0  0  0  0  0  0  0  0  0  0
    9.4282   -1.9048   39.7498 C   0  0  0  0  0  0  0  0  0  0  0  0
   10.5580   -1.4700   40.5284 N   0  0  0  0  0  0  0  0  0  0  0  0
    1.9765   -0.0068   38.3486 C   0  0  1  0  0  0  0  0  0  0  0  0
    0.6222   -0.1475   38.7601 O   0  0  0  0  0  0  0  0  0  0  0  0
   -1.3560   -0.9586   42.9207 C   0  0  0  0  0  0  0  0  0  0  0  0
   -3.6690    1.1882   39.8358 C   0  0  0  0  0  0  0  0  0  0  0  0
  1  2  1  1  0  0  0
  1  6  1  0  0  0  0
  1 21  1  0  0  0  0
  3  4  1  6  0  0  0
  3  8  1  0  0  0  0
  3 28  1  0  0  0  0
  5  9  1  0  0  0  0
  5 25  1  0  0  0  0
  5 29  1  1  0  0  0
  6  7  1  1  0  0  0
  6 11  1  0  0  0  0
  8 12  1  0  0  0  0
  9 10  1  6  0  0  0
  9 14  1  0  0  0  0
 11 16  1  0  0  0  0
 12 13  1  6  0  0  0
 12 17  1  0  0  0  0
 14 15  1  1  0  0  0
 14 18  1  0  0  0  0
 15 31  1  0  0  0  0
 16 20  1  0  0  0  0
 17  2  1  1  0  0  0
 17 22  1  0  0  0  0
 18 19  1  6  0  0  0
 18 24  1  0  0  0  0
 18 30  1  0  0  0  0
 20 21  1  0  0  0  0
 20 26  1  6  0  0  0
 22 23  1  6  0  0  0
 22 28  1  0  0  0  0
 24 25  1  0  0  0  0
 26 27  1  0  0  0  0
 28 29  1  1  0  0  0
M  END
>  <CHROM.1>
-136.35034998,-166.23190690,-71.81470105,-151.60314676,-46.37222192,154.36731799
2.70091483,-0.79518766,39.91650467,0.09918785,-0.03694153,2.24368136

>  <Name>
2et3_lig

>  <RI>
1.07224e+07

>  <Rbt.Current_Directory>
/home/itssahil/PROJECTS/Mol_Feturizer/New_Systems/rnas/2et3

>  <Rbt.Executable>
rbdock ($Id: //depot/dev/client3/rdock/2013.1/src/exe/rbdock.cxx#4 $)

>  <Rbt.Library>
libRbt.so (2013.1, Build901 2013/11/27)

>  <Rbt.Parameter_File>
/export/apps/rDock/src/rDock_2013.1_src/data/scripts/dock_solv.prm

>  <Rbt.Receptor>
prm/blind_docking_80.prm

>  <SCORE>
-10.4049

>  <SCORE.INTER>
-9.0292

>  <SCORE.INTER.CONST>
1

>  <SCORE.INTER.POLAR>
0

>  <SCORE.INTER.ROT>
6

>  <SCORE.INTER.SOLV>
16.7906

>  <SCORE.INTER.VDW>
-19.2163

>  <SCORE.INTER.norm>
-0.291264

>  <SCORE.INTRA>
-2.60463

>  <SCORE.INTRA.DIHEDRAL>
-8.46257

>  <SCORE.INTRA.DIHEDRAL.0>
22.2484

>  <SCORE.INTRA.POLAR>
0

>  <SCORE.INTRA.POLAR.0>
0

>  <SCORE.INTRA.REPUL>
0

>  <SCORE.INTRA.REPUL.0>
0

>  <SCORE.INTRA.SOLV>
-1.14227

>  <SCORE.INTRA.SOLV.lig_0>
-75.7198

>  <SCORE.INTRA.VDW>
2.19779

>  <SCORE.INTRA.VDW.0>
-3.34171

>  <SCORE.INTRA.norm>
-0.0840203

>  <SCORE.RESTR>
1.22895

>  <SCORE.RESTR.CAVITY>
1.22895

>  <SCORE.RESTR.norm>
0.0396437

>  <SCORE.SYSTEM>
0

>  <SCORE.SYSTEM.CONST>
0

>  <SCORE.SYSTEM.DIHEDRAL>
0

>  <SCORE.SYSTEM.SOLV>
0

>  <SCORE.SYSTEM.norm>
0

>  <SCORE.heavy>
31

>  <SCORE.norm>
-0.335641

>  <RMSD>
12.948

$$$$
2et3_lig
 OpenBabel11021811423D
libRbt.so/2013.1/901 2013/11/27
 31 33  0  0  0  0  0  0  0  0999 V2000
    0.9396   -1.6656   40.2076 C   0  0  2  0  0  0  0  0  0  0  0  0
    0.9923   -0.3152   39.6788 O   0  0  0  0  0  0  0  0  0  0  0  0
    3.2623    1.7425   36.6922 C   0  0  2  0  0  0  0  0  0  0  0  0
    4.3514    2.0708   35.8252 N   0  0  0  0  0  0  0  0  0  0  0  0
    2.9596   -0.6023   34.0159 C   0  0  2  0  0  0  0  0  0  0  0  0
   -0.1436   -1.7573   41.2877 C   0  0  2  0  0  0  0  0  0  0  0  0
   -1.3882   -1.3360   40.7224 N   0  0  0  0  0  0  0  0  0  0  0  0
    3.7292    1.8483   38.1798 C   0  0  0  0  0  0  0  0  0  0  0  0
    2.6956   -2.0536   34.4737 C   0  0  2  0  0  0  0  0  0  0  0  0
    1.3031   -2.2659   34.5395 O   0  0  0  0  0  0  0  0  0  0  0  0
    0.2530   -0.8946   42.5343 C   0  0  0  0  0  0  0  0  0  0  0  0
    2.5399    1.4804   39.1407 C   0  0  2  0  0  0  0  0  0  0  0  0
    2.9747    1.5780   40.5432 N   0  0  0  0  0  0  0  0  0  0  0  0
    3.3892   -2.2547   35.8827 C   0  0  1  0  0  0  0  0  0  0  0  0
    3.1410   -3.6307   36.4249 N   0  0  0  0  0  0  0  0  0  0  0  0
    1.6014   -1.4467   43.0943 C   0  0  0  0  0  0  0  0  0  0  0  0
    2.0308    0.0236   38.8162 C   0  0  2  0  0  0  0  0  0  0  0  0
    4.9821   -1.9844   35.7664 C   0  0  1  0  0  0  0  0  0  0  0  0
    5.5967   -2.9047   34.8885 O   0  0  0  0  0  0  0  0  0  0  0  0
    2.6991   -1.3668   41.9439 C   0  0  2  0  0  0  0  0  0  0  0  0
    2.2780   -2.0592   40.7271 O   0  0  0  0  0  0  0  0  0  0  0  0
    1.5696   -0.0512   37.3098 C   0  0  2  0  0  0  0  0  0  0  0  0
    1.1020   -1.3592   36.9962 O   0  0  0  0  0  0  0  0  0  0  0  0
    5.2158   -0.5533   35.1913 C   0  0  0  0  0  0  0  0  0  0  0  0
    4.4280   -0.3554   33.9291 O   0  0  0  0  0  0  0  0  0  0  0  0
    4.0662   -1.8570   42.3591 C   0  0  0  0  0  0  0  0  0  0  0  0
    4.9818   -1.8925   41.2490 N   0  0  0  0  0  0  0  0  0  0  0  0
    2.7678    0.3204   36.3673 C   0  0  1  0  0  0  0  0  0  0  0  0
    2.3304    0.2541   35.0154 O   0  0  0  0  0  0  0  0  0  0  0  0
    5.8040   -2.1242   37.0550 C   0  0  0  0  0  0  0  0  0  0  0  0
    3.0448   -3.7682   37.8878 C   0  0  0  0  0  0  0  0  0  0  0  0
  1  2  1  1  0  0  0
  1  6  1  0  0  0  0
  1 21  1  0  0  0  0
  3  4  1  6  0  0  0
  3  8  1  0  0  0  0
  3 28  1  0  0  0  0
  5  9  1  0  0  0  0
  5 25  1  0  0  0  0
  5 29  1  1  0  0  0
  6  7  1  6  0  0  0
  6 11  1  0  0  0  0
  8 12  1  0  0  0  0
  9 10  1  1  0  0  0
  9 14  1  0  0  0  0
 11 16  1  0  0  0  0
 12 13  1  1  0  0  0
 12 17  1  0  0  0  0
 14 15  1  6  0  0  0
 14 18  1  0  0  0  0
 15 31  1  0  0  0  0
 16 20  1  0  0  0  0
 17  2  1  1  0  0  0
 17 22  1  0  0  0  0
 18 19  1  6  0  0  0
 18 24  1  0  0  0  0
 18 30  1  0  0  0  0
 20 21  1  0  0  0  0
 20 26  1  1  0  0  0
 22 23  1  6  0  0  0
 22 28  1  0  0  0  0
 24 25  1  0  0  0  0
 26 27  1  0  0  0  0
 28 29  1  6  0  0  0
M  END
>  <CHROM.1>
171.41371146,65.40229013,-147.74820287,-140.17040985,174.03862270,117.31269503
2.76261565,-0.96632310,37.98970299,-2.32361606,1.05758841,-0.87392343

>  <Name>
2et3_lig

>  <RI>
0

>  <Rbt.Current_Directory>
/home/itssahil/PROJECTS/Mol_Feturizer/New_Systems/rnas/2et3

>  <Rbt.Executable>
rbdock ($Id: //depot/dev/client3/rdock/2013.1/src/exe/rbdock.cxx#4 $)

>  <Rbt.Library>
libRbt.so (2013.1, Build901 2013/11/27)

>  <Rbt.Parameter_File>
/export/apps/rDock/src/rDock_2013.1_src/data/scripts/dock_solv.prm

>  <Rbt.Receptor>
prm/blind_docking_60.prm

>  <SCORE>
5.83873

>  <SCORE.INTER>
4.28041

>  <SCORE.INTER.CONST>
1

>  <SCORE.INTER.POLAR>
-0.572396

>  <SCORE.INTER.ROT>
6

>  <SCORE.INTER.SOLV>
20.5423

>  <SCORE.INTER.VDW>
-9.68584

>  <SCORE.INTER.norm>
0.138078

>  <SCORE.INTRA>
0.0893265

>  <SCORE.INTRA.DIHEDRAL>
-8.28082

>  <SCORE.INTRA.DIHEDRAL.0>
22.2484

>  <SCORE.INTRA.POLAR>
0

>  <SCORE.INTRA.POLAR.0>
0

>  <SCORE.INTRA.REPUL>
0

>  <SCORE.INTRA.REPUL.0>
0

>  <SCORE.INTRA.SOLV>
3.92406

>  <SCORE.INTRA.SOLV.lig_0>
-75.7198

>  <SCORE.INTRA.VDW>
2.2677

>  <SCORE.INTRA.VDW.0>
-3.34171

>  <SCORE.INTRA.norm>
0.0028815

>  <SCORE.RESTR>
1.46899

>  <SCORE.RESTR.CAVITY>
1.46899

>  <SCORE.RESTR.norm>
0.0473868

>  <SCORE.SYSTEM>
0

>  <SCORE.SYSTEM.CONST>
0

>  <SCORE.SYSTEM.DIHEDRAL>
0

>  <SCORE.SYSTEM.SOLV>
0

>  <SCORE.SYSTEM.norm>
0

>  <SCORE.heavy>
31

>  <SCORE.norm>
0.188346

>  <RMSD>
12.954

$$$$
2et3_lig
 OpenBabel11021811423D
libRbt.so/2013.1/901 2013/11/27
 31 33  0  0  0  0  0  0  0  0999 V2000
    5.8929   -2.1775   40.6488 C   0  0  2  0  0  0  0  0  0  0  0  0
    5.3138   -0.8548   40.5035 O   0  0  0  0  0  0  0  0  0  0  0  0
    3.8661    1.2714   37.0844 C   0  0  2  0  0  0  0  0  0  0  0  0
    3.8424    1.8518   35.7775 N   0  0  0  0  0  0  0  0  0  0  0  0
    3.1596   -1.4383   34.9058 C   0  0  2  0  0  0  0  0  0  0  0  0
    5.8285   -2.6131   42.1166 C   0  0  2  0  0  0  0  0  0  0  0  0
    4.4666   -2.5553   42.5501 N   0  0  0  0  0  0  0  0  0  0  0  0
    5.0219    1.9116   37.9190 C   0  0  0  0  0  0  0  0  0  0  0  0
    1.9452   -2.3727   34.7116 C   0  0  2  0  0  0  0  0  0  0  0  0
    0.7641   -1.6041   34.7643 O   0  0  0  0  0  0  0  0  0  0  0  0
    6.7598   -1.7106   42.9961 C   0  0  0  0  0  0  0  0  0  0  0  0
    5.0611    1.2728   39.3555 C   0  0  2  0  0  0  0  0  0  0  0  0
    6.1485    1.8721   40.1455 N   0  0  0  0  0  0  0  0  0  0  0  0
    1.9857   -3.4693   35.8530 C   0  0  1  0  0  0  0  0  0  0  0  0
    0.8092   -4.3951   35.7662 N   0  0  0  0  0  0  0  0  0  0  0  0
    8.2203   -1.8633   42.4664 C   0  0  0  0  0  0  0  0  0  0  0  0
    5.2565   -0.2872   39.2339 C   0  0  2  0  0  0  0  0  0  0  0  0
    3.3640   -4.3159   35.7674 C   0  0  1  0  0  0  0  0  0  0  0  0
    3.4624   -5.0152   34.5439 O   0  0  0  0  0  0  0  0  0  0  0  0
    8.2516   -1.4326   40.9340 C   0  0  2  0  0  0  0  0  0  0  0  0
    7.2877   -2.1803   40.1283 O   0  0  0  0  0  0  0  0  0  0  0  0
    4.0775   -0.9025   38.3859 C   0  0  2  0  0  0  0  0  0  0  0  0
    4.2326   -2.3130   38.2667 O   0  0  0  0  0  0  0  0  0  0  0  0
    4.5724   -3.3327   35.8490 C   0  0  0  0  0  0  0  0  0  0  0  0
    4.4237   -2.2276   34.8443 O   0  0  0  0  0  0  0  0  0  0  0  0
    9.6185   -1.5161   40.2964 C   0  0  0  0  0  0  0  0  0  0  0  0
   10.5042   -0.4966   40.7941 N   0  0  0  0  0  0  0  0  0  0  0  0
    4.0534   -0.2523   36.9580 C   0  0  1  0  0  0  0  0  0  0  0  0
    2.9804   -0.8143   36.2123 O   0  0  0  0  0  0  0  0  0  0  0  0
    3.5676   -5.4153   36.8188 C   0  0  0  0  0  0  0  0  0  0  0  0
    0.6177   -5.1200   34.4989 C   0  0  0  0  0  0  0  0  0  0  0  0
  1  2  1  1  0  0  0
  1  6  1  0  0  0  0
  1 21  1  0  0  0  0
  3  4  1  6  0  0  0
  3  8  1  0  0  0  0
  3 28  1  0  0  0  0
  5  9  1  0  0  0  0
  5 25  1  0  0  0  0
  5 29  1  1  0  0  0
  6  7  1  1  0  0  0
  6 11  1  0  0  0  0
  8 12  1  0  0  0  0
  9 10  1  1  0  0  0
  9 14  1  0  0  0  0
 11 16  1  0  0  0  0
 12 13  1  1  0  0  0
 12 17  1  0  0  0  0
 14 15  1  6  0  0  0
 14 18  1  0  0  0  0
 15 31  1  0  0  0  0
 16 20  1  0  0  0  0
 17  2  1  1  0  0  0
 17 22  1  0  0  0  0
 18 19  1  6  0  0  0
 18 24  1  0  0  0  0
 18 30  1  0  0  0  0
 20 21  1  0  0  0  0
 20 26  1  6  0  0  0
 22 23  1  6  0  0  0
 22 28  1  0  0  0  0
 24 25  1  0  0  0  0
 26 27  1  0  0  0  0
 28 29  1  6  0  0  0
M  END
>  <CHROM.1>
-178.91518331,158.21020469,57.13832866,-161.08286000,-70.61451470,114.35786095
4.66834365,-1.72659515,38.06311516,-0.12937673,0.88393659,2.96861600

>  <Name>
2et3_lig

>  <RI>
0

>  <Rbt.Current_Directory>
/home/itssahil/PROJECTS/Mol_Feturizer/New_Systems/rnas/2et3

>  <Rbt.Executable>
rbdock ($Id: //depot/dev/client3/rdock/2013.1/src/exe/rbdock.cxx#4 $)

>  <Rbt.Library>
libRbt.so (2013.1, Build901 2013/11/27)

>  <Rbt.Parameter_File>
/export/apps/rDock/src/rDock_2013.1_src/data/scripts/dock_solv.prm

>  <Rbt.Receptor>
prm/blind_docking_60.prm

>  <SCORE>
-12.4352

>  <SCORE.INTER>
-9.18106

>  <SCORE.INTER.CONST>
1

>  <SCORE.INTER.POLAR>
-0.713931

>  <SCORE.INTER.ROT>
6

>  <SCORE.INTER.SOLV>
20.4419

>  <SCORE.INTER.VDW>
-18.1549

>  <SCORE.INTER.norm>
-0.296163

>  <SCORE.INTRA>
-4.57917

>  <SCORE.INTRA.DIHEDRAL>
-10.9432

>  <SCORE.INTRA.DIHEDRAL.0>
22.2484

>  <SCORE.INTRA.POLAR>
0

>  <SCORE.INTRA.POLAR.0>
0

>  <SCORE.INTRA.REPUL>
0

>  <SCORE.INTRA.REPUL.0>
0

>  <SCORE.INTRA.SOLV>
-2.89228

>  <SCORE.INTRA.SOLV.lig_0>
-75.7198

>  <SCORE.INTRA.VDW>
2.33859

>  <SCORE.INTRA.VDW.0>
-3.34171

>  <SCORE.INTRA.norm>
-0.147715

>  <SCORE.RESTR>
1.32505

>  <SCORE.RESTR.CAVITY>
1.32505

>  <SCORE.RESTR.norm>
0.0427435

>  <SCORE.SYSTEM>
0

>  <SCORE.SYSTEM.CONST>
0

>  <SCORE.SYSTEM.DIHEDRAL>
0

>  <SCORE.SYSTEM.SOLV>
0

>  <SCORE.SYSTEM.norm>
0

>  <SCORE.heavy>
31

>  <SCORE.norm>
-0.401135

>  <RMSD>
12.954

$$$$
2et3_lig
 OpenBabel11021811423D
libRbt.so/2013.1/901 2013/11/27
 31 33  0  0  0  0  0  0  0  0999 V2000
    6.8324   -2.1528   40.5058 C   0  0  2  0  0  0  0  0  0  0  0  0
    6.0277   -0.9626   40.7103 O   0  0  0  0  0  0  0  0  0  0  0  0
    3.0492    1.1579   38.4879 C   0  0  2  0  0  0  0  0  0  0  0  0
    2.3204    1.6641   37.3663 N   0  0  0  0  0  0  0  0  0  0  0  0
    0.8024   -0.9974   37.3711 C   0  0  2  0  0  0  0  0  0  0  0  0
    7.1884   -2.7766   41.8595 C   0  0  2  0  0  0  0  0  0  0  0  0
    5.9767   -3.0442   42.5712 N   0  0  0  0  0  0  0  0  0  0  0  0
    4.5234    1.6730   38.4281 C   0  0  0  0  0  0  0  0  0  0  0  0
    0.1922   -2.4113   37.4908 C   0  0  2  0  0  0  0  0  0  0  0  0
   -0.5512   -2.4885   38.6865 O   0  0  0  0  0  0  0  0  0  0  0  0
    8.1411   -1.8284   42.6649 C   0  0  0  0  0  0  0  0  0  0  0  0
    5.3351    1.1140   39.6536 C   0  0  2  0  0  0  0  0  0  0  0  0
    6.7246    1.5959   39.6015 N   0  0  0  0  0  0  0  0  0  0  0  0
    1.3793   -3.4588   37.4666 C   0  0  1  0  0  0  0  0  0  0  0  0
    0.8758   -4.8623   37.6260 N   0  0  0  0  0  0  0  0  0  0  0  0
    9.4399   -1.6214   41.8240 C   0  0  0  0  0  0  0  0  0  0  0  0
    5.2922   -0.4623   39.6398 C   0  0  2  0  0  0  0  0  0  0  0  0
    2.2166   -3.3244   36.0865 C   0  0  1  0  0  0  0  0  0  0  0  0
    1.4090   -3.6165   34.9650 O   0  0  0  0  0  0  0  0  0  0  0  0
    9.0377   -1.0006   40.4142 C   0  0  2  0  0  0  0  0  0  0  0  0
    8.0460   -1.8142   39.7129 O   0  0  0  0  0  0  0  0  0  0  0  0
    3.7935   -0.9503   39.6987 C   0  0  2  0  0  0  0  0  0  0  0  0
    3.7319   -2.3729   39.6911 O   0  0  0  0  0  0  0  0  0  0  0  0
    2.7210   -1.8558   35.9369 C   0  0  0  0  0  0  0  0  0  0  0  0
    1.5870   -0.8874   36.1074 O   0  0  0  0  0  0  0  0  0  0  0  0
   10.2102   -0.7310   39.5007 C   0  0  0  0  0  0  0  0  0  0  0  0
   10.9609    0.4232   39.9201 N   0  0  0  0  0  0  0  0  0  0  0  0
    3.0000   -0.3816   38.4703 C   0  0  1  0  0  0  0  0  0  0  0  0
    1.6510   -0.8263   38.5454 O   0  0  0  0  0  0  0  0  0  0  0  0
    3.4170   -4.2645   35.9106 C   0  0  0  0  0  0  0  0  0  0  0  0
   -0.1370   -5.3254   36.6627 C   0  0  0  0  0  0  0  0  0  0  0  0
  1  2  1  1  0  0  0
  1  6  1  0  0  0  0
  1 21  1  0  0  0  0
  3  4  1  6  0  0  0
  3  8  1  0  0  0  0
  3 28  1  0  0  0  0
  5  9  1  0  0  0  0
  5 25  1  0  0  0  0
  5 29  1  1  0  0  0
  6  7  1  1  0  0  0
  6 11  1  0  0  0  0
  8 12  1  0  0  0  0
  9 10  1  1  0  0  0
  9 14  1  0  0  0  0
 11 16  1  0  0  0  0
 12 13  1  6  0  0  0
 12 17  1  0  0  0  0
 14 15  1  6  0  0  0
 14 18  1  0  0  0  0
 15 31  1  0  0  0  0
 16 20  1  0  0  0  0
 17  2  1  1  0  0  0
 17 22  1  0  0  0  0
 18 19  1  6  0  0  0
 18 24  1  0  0  0  0
 18 30  1  0  0  0  0
 20 21  1  0  0  0  0
 20 26  1  6  0  0  0
 22 23  1  6  0  0  0
 22 28  1  0  0  0  0
 24 25  1  0  0  0  0
 26 27  1  0  0  0  0
 28 29  1  1  0  0  0
M  END
>  <CHROM.1>
-162.20409308,129.73240122,55.91127519,-141.22008425,-74.30368522,86.96019675
4.32408404,-1.53696397,38.80151767,-0.14961750,0.50713205,2.99468102

>  <Name>
2et3_lig

>  <RI>
0

>  <Rbt.Current_Directory>
/home/itssahil/PROJECTS/Mol_Feturizer/New_Systems/rnas/2et3

>  <Rbt.Executable>
rbdock ($Id: //depot/dev/client3/rdock/2013.1/src/exe/rbdock.cxx#4 $)

>  <Rbt.Library>
libRbt.so (2013.1, Build901 2013/11/27)

>  <Rbt.Parameter_File>
/export/apps/rDock/src/rDock_2013.1_src/data/scripts/dock_solv.prm

>  <Rbt.Receptor>
prm/blind_docking_60.prm

>  <SCORE>
-4.50182

>  <SCORE.INTER>
-6.40074

>  <SCORE.INTER.CONST>
1

>  <SCORE.INTER.POLAR>
0

>  <SCORE.INTER.ROT>
6

>  <SCORE.INTER.SOLV>
10.901

>  <SCORE.INTER.VDW>
-15.5008

>  <SCORE.INTER.norm>
-0.206475

>  <SCORE.INTRA>
-1.24557

>  <SCORE.INTRA.DIHEDRAL>
-5.02432

>  <SCORE.INTRA.DIHEDRAL.0>
22.2484

>  <SCORE.INTRA.POLAR>
0

>  <SCORE.INTRA.POLAR.0>
0

>  <SCORE.INTRA.REPUL>
0

>  <SCORE.INTRA.REPUL.0>
0

>  <SCORE.INTRA.SOLV>
-0.119413

>  <SCORE.INTRA.SOLV.lig_0>
-75.7198

>  <SCORE.INTRA.VDW>
1.32629

>  <SCORE.INTRA.VDW.0>
-3.34171

>  <SCORE.INTRA.norm>
-0.0401798

>  <SCORE.RESTR>
3.14449

>  <SCORE.RESTR.CAVITY>
3.14449

>  <SCORE.RESTR.norm>
0.101435

>  <SCORE.SYSTEM>
0

>  <SCORE.SYSTEM.CONST>
0

>  <SCORE.SYSTEM.DIHEDRAL>
0

>  <SCORE.SYSTEM.SOLV>
0

>  <SCORE.SYSTEM.norm>
0

>  <SCORE.heavy>
31

>  <SCORE.norm>
-0.14522

>  <RMSD>
12.961

$$$$
2et3_lig
 OpenBabel11021811423D
libRbt.so/2013.1/901 2013/11/27
 31 33  0  0  0  0  0  0  0  0999 V2000
    2.4417   -2.4906   35.0957 C   0  0  2  0  0  0  0  0  0  0  0  0
    1.9163   -1.8044   36.2615 O   0  0  0  0  0  0  0  0  0  0  0  0
    4.4889    1.6115   36.4026 C   0  0  2  0  0  0  0  0  0  0  0  0
    4.9618    2.9214   36.7283 N   0  0  0  0  0  0  0  0  0  0  0  0
    5.6278    0.1089   39.7333 C   0  0  2  0  0  0  0  0  0  0  0  0
    1.9468   -3.9409   35.0812 C   0  0  2  0  0  0  0  0  0  0  0  0
    0.5169   -3.9353   35.1217 N   0  0  0  0  0  0  0  0  0  0  0  0
    3.1537    1.7235   35.5982 C   0  0  0  0  0  0  0  0  0  0  0  0
    6.8888    0.7299   40.3736 C   0  0  2  0  0  0  0  0  0  0  0  0
    6.7251    2.1288   40.4418 O   0  0  0  0  0  0  0  0  0  0  0  0
    2.5616   -4.7403   36.2805 C   0  0  0  0  0  0  0  0  0  0  0  0
    2.6216    0.2870   35.2431 C   0  0  2  0  0  0  0  0  0  0  0  0
    1.3638    0.3870   34.4857 N   0  0  0  0  0  0  0  0  0  0  0  0
    8.1363    0.3253   39.4864 C   0  0  1  0  0  0  0  0  0  0  0  0
    9.4035    0.9292   40.0139 N   0  0  0  0  0  0  0  0  0  0  0  0
    4.1153   -4.7139   36.1325 C   0  0  0  0  0  0  0  0  0  0  0  0
    2.4082   -0.5392   36.5691 C   0  0  2  0  0  0  0  0  0  0  0  0
    8.2771   -1.2870   39.4201 C   0  0  1  0  0  0  0  0  0  0  0  0
    8.5086   -1.8357   40.7011 O   0  0  0  0  0  0  0  0  0  0  0  0
    4.5980   -3.1968   36.1210 C   0  0  2  0  0  0  0  0  0  0  0  0
    3.9281   -2.4099   35.0868 O   0  0  0  0  0  0  0  0  0  0  0  0
    3.7707   -0.6324   37.3582 C   0  0  2  0  0  0  0  0  0  0  0  0
    3.6011   -1.3787   38.5591 O   0  0  0  0  0  0  0  0  0  0  0  0
    6.9454   -1.8934   38.8792 C   0  0  0  0  0  0  0  0  0  0  0  0
    5.7728   -1.3737   39.6587 O   0  0  0  0  0  0  0  0  0  0  0  0
    6.0938   -3.0250   35.9996 C   0  0  0  0  0  0  0  0  0  0  0  0
    6.7348   -4.2282   35.5376 N   0  0  0  0  0  0  0  0  0  0  0  0
    4.2863    0.8092   37.7018 C   0  0  1  0  0  0  0  0  0  0  0  0
    5.5178    0.7040   38.4059 O   0  0  0  0  0  0  0  0  0  0  0  0
    9.4348   -1.8471   38.5826 C   0  0  0  0  0  0  0  0  0  0  0  0
   10.3002    1.5681   39.0361 C   0  0  0  0  0  0  0  0  0  0  0  0
  1  2  1  1  0  0  0
  1  6  1  0  0  0  0
  1 21  1  0  0  0  0
  3  4  1  1  0  0  0
  3  8  1  0  0  0  0
  3 28  1  0  0  0  0
  5  9  1  0  0  0  0
  5 25  1  0  0  0  0
  5 29  1  6  0  0  0
  6  7  1  1  0  0  0
  6 11  1  0  0  0  0
  8 12  1  0  0  0  0
  9 10  1  6  0  0  0
  9 14  1  0  0  0  0
 11 16  1  0  0  0  0
 12 13  1  1  0  0  0
 12 17  1  0  0  0  0
 14 15  1  1  0  0  0
 14 18  1  0  0  0  0
 15 31  1  0  0  0  0
 16 20  1  0  0  0  0
 17  2  1  6  0  0  0
 17 22  1  0  0  0  0
 18 19  1  1  0  0  0
 18 24  1  0  0  0  0
 18 30  1  0  0  0  0
 20 21  1  0  0  0  0
 20 26  1  6  0  0  0
 22 23  1  1  0  0  0
 22 28  1  0  0  0  0
 24 25  1  0  0  0  0
 26 27  1  0  0  0  0
 28 29  1  6  0  0  0
M  END
>  <CHROM.1>
170.40640355,-155.36439461,-133.88535391,39.31456727,16.72113275,174.16901190
5.09538228,-1.00073065,37.45790188,-2.66831093,-0.55248876,0.19293129

>  <Name>
2et3_lig

>  <RI>
1.07224e+07

>  <Rbt.Current_Directory>
/home/itssahil/PROJECTS/Mol_Feturizer/New_Systems/rnas/2et3

>  <Rbt.Executable>
rbdock ($Id: //depot/dev/client3/rdock/2013.1/src/exe/rbdock.cxx#4 $)

>  <Rbt.Library>
libRbt.so (2013.1, Build901 2013/11/27)

>  <Rbt.Parameter_File>
/export/apps/rDock/src/rDock_2013.1_src/data/scripts/dock_solv.prm

>  <Rbt.Receptor>
prm/blind_docking_80.prm

>  <SCORE>
-5.35291

>  <SCORE.INTER>
-6.50246

>  <SCORE.INTER.CONST>
1

>  <SCORE.INTER.POLAR>
-0.580123

>  <SCORE.INTER.ROT>
6

>  <SCORE.INTER.SOLV>
22.8929

>  <SCORE.INTER.VDW>
-17.6322

>  <SCORE.INTER.norm>
-0.209757

>  <SCORE.INTRA>
-3.99966

>  <SCORE.INTRA.DIHEDRAL>
-11.8135

>  <SCORE.INTRA.DIHEDRAL.0>
22.2484

>  <SCORE.INTRA.POLAR>
0

>  <SCORE.INTRA.POLAR.0>
0

>  <SCORE.INTRA.REPUL>
0

>  <SCORE.INTRA.REPUL.0>
0

>  <SCORE.INTRA.SOLV>
-1.37742

>  <SCORE.INTRA.SOLV.lig_0>
-75.7198

>  <SCORE.INTRA.VDW>
2.59581

>  <SCORE.INTRA.VDW.0>
-3.34171

>  <SCORE.INTRA.norm>
-0.129021

>  <SCORE.RESTR>
5.14921

>  <SCORE.RESTR.CAVITY>
5.14921

>  <SCORE.RESTR.norm>
0.166104

>  <SCORE.SYSTEM>
0

>  <SCORE.SYSTEM.CONST>
0

>  <SCORE.SYSTEM.DIHEDRAL>
0

>  <SCORE.SYSTEM.SOLV>
0

>  <SCORE.SYSTEM.norm>
0

>  <SCORE.heavy>
31

>  <SCORE.norm>
-0.172674

>  <RMSD>
12.971

$$$$
2et3_lig
 OpenBabel11021811423D
libRbt.so/2013.1/901 2013/11/27
 31 33  0  0  0  0  0  0  0  0999 V2000
    5.8598   -1.7608   40.3411 C   0  0  2  0  0  0  0  0  0  0  0  0
    4.7342   -0.8701   40.5548 O   0  0  0  0  0  0  0  0  0  0  0  0
    1.6605    0.8246   38.1079 C   0  0  2  0  0  0  0  0  0  0  0  0
    1.0069    1.3545   36.9514 N   0  0  0  0  0  0  0  0  0  0  0  0
    0.5551   -1.7879   36.1719 C   0  0  2  0  0  0  0  0  0  0  0  0
    6.0950   -2.6090   41.5955 C   0  0  2  0  0  0  0  0  0  0  0  0
    4.8869   -3.3095   41.9055 N   0  0  0  0  0  0  0  0  0  0  0  0
    2.8991    1.7104   38.4593 C   0  0  0  0  0  0  0  0  0  0  0  0
    1.4056   -3.0260   35.8119 C   0  0  2  0  0  0  0  0  0  0  0  0
    1.1220   -4.0580   36.7300 O   0  0  0  0  0  0  0  0  0  0  0  0
    6.5678   -1.7058   42.7855 C   0  0  0  0  0  0  0  0  0  0  0  0
    3.6295    1.1299   39.7253 C   0  0  2  0  0  0  0  0  0  0  0  0
    4.7972    1.9605   40.0601 N   0  0  0  0  0  0  0  0  0  0  0  0
    2.9300   -2.6006   35.8562 C   0  0  1  0  0  0  0  0  0  0  0  0
    3.8324   -3.7619   35.5630 N   0  0  0  0  0  0  0  0  0  0  0  0
    7.9003   -1.0105   42.3640 C   0  0  0  0  0  0  0  0  0  0  0  0
    4.0677   -0.3587   39.4451 C   0  0  2  0  0  0  0  0  0  0  0  0
    3.2082   -1.4032   34.8014 C   0  0  1  0  0  0  0  0  0  0  0  0
    2.9518   -1.8167   33.4753 O   0  0  0  0  0  0  0  0  0  0  0  0
    7.6339   -0.1613   41.0439 C   0  0  2  0  0  0  0  0  0  0  0  0
    7.0664   -0.9725   39.9682 O   0  0  0  0  0  0  0  0  0  0  0  0
    2.7981   -1.2253   39.0919 C   0  0  2  0  0  0  0  0  0  0  0  0
    3.1714   -2.5760   38.8385 O   0  0  0  0  0  0  0  0  0  0  0  0
    2.2525   -0.2117   35.1187 C   0  0  0  0  0  0  0  0  0  0  0  0
    0.8305   -0.6838   35.2076 O   0  0  0  0  0  0  0  0  0  0  0  0
    8.8449    0.5830   40.5329 C   0  0  0  0  0  0  0  0  0  0  0  0
    8.5040    1.4972   39.4747 N   0  0  0  0  0  0  0  0  0  0  0  0
    2.0823   -0.6303   37.8286 C   0  0  1  0  0  0  0  0  0  0  0  0
    0.9376   -1.4204   37.5309 O   0  0  0  0  0  0  0  0  0  0  0  0
    4.6428   -0.8622   34.7305 C   0  0  0  0  0  0  0  0  0  0  0  0
    3.8445   -4.8652   36.5381 C   0  0  0  0  0  0  0  0  0  0  0  0
  1  2  1  1  0  0  0
  1  6  1  0  0  0  0
  1 21  1  0  0  0  0
  3  4  1  6  0  0  0
  3  8  1  0  0  0  0
  3 28  1  0  0  0  0
  5  9  1  0  0  0  0
  5 25  1  0  0  0  0
  5 29  1  1  0  0  0
  6  7  1  1  0  0  0
  6 11  1  0  0  0  0
  8 12  1  0  0  0  0
  9 10  1  1  0  0  0
  9 14  1  0  0  0  0
 11 16  1  0  0  0  0
 12 13  1  6  0  0  0
 12 17  1  0  0  0  0
 14 15  1  6  0  0  0
 14 18  1  0  0  0  0
 15 31  1  0  0  0  0
 16 20  1  0  0  0  0
 17  2  1  1  0  0  0
 17 22  1  0  0  0  0
 18 19  1  6  0  0  0
 18 24  1  0  0  0  0
 18 30  1  0  0  0  0
 20 21  1  0  0  0  0
 20 26  1  6  0  0  0
 22 23  1  6  0  0  0
 22 28  1  0  0  0  0
 24 25  1  0  0  0  0
 26 27  1  0  0  0  0
 28 29  1  1  0  0  0
M  END
>  <CHROM.1>
-158.30683006,82.93305415,-65.64896006,-142.93221360,-170.68326526,100.85909825
3.94331665,-1.14473236,38.24689284,-0.22695439,0.81924884,-3.04681547

>  <Name>
2et3_lig

>  <RI>
0

>  <Rbt.Current_Directory>
/home/itssahil/PROJECTS/Mol_Feturizer/New_Systems/rnas/2et3

>  <Rbt.Executable>
rbdock ($Id: //depot/dev/client3/rdock/2013.1/src/exe/rbdock.cxx#4 $)

>  <Rbt.Library>
libRbt.so (2013.1, Build901 2013/11/27)

>  <Rbt.Parameter_File>
/export/apps/rDock/src/rDock_2013.1_src/data/scripts/dock_solv.prm

>  <Rbt.Receptor>
prm/blind_docking_60.prm

>  <SCORE>
-13.4936

>  <SCORE.INTER>
-15.4526

>  <SCORE.INTER.CONST>
1

>  <SCORE.INTER.POLAR>
-1.01547

>  <SCORE.INTER.ROT>
6

>  <SCORE.INTER.SOLV>
20.1403

>  <SCORE.INTER.VDW>
-21.2302

>  <SCORE.INTER.norm>
-0.498469

>  <SCORE.INTRA>
1.13609

>  <SCORE.INTRA.DIHEDRAL>
-6.9508

>  <SCORE.INTRA.DIHEDRAL.0>
22.2484

>  <SCORE.INTRA.POLAR>
0

>  <SCORE.INTRA.POLAR.0>
0

>  <SCORE.INTRA.REPUL>
0

>  <SCORE.INTRA.REPUL.0>
0

>  <SCORE.INTRA.SOLV>
2.6389

>  <SCORE.INTRA.SOLV.lig_0>
-75.7198

>  <SCORE.INTRA.VDW>
3.29204

>  <SCORE.INTRA.VDW.0>
-3.34171

>  <SCORE.INTRA.norm>
0.0366481

>  <SCORE.RESTR>
0.822902

>  <SCORE.RESTR.CAVITY>
0.822902

>  <SCORE.RESTR.norm>
0.0265452

>  <SCORE.SYSTEM>
0

>  <SCORE.SYSTEM.CONST>
0

>  <SCORE.SYSTEM.DIHEDRAL>
0

>  <SCORE.SYSTEM.SOLV>
0

>  <SCORE.SYSTEM.norm>
0

>  <SCORE.heavy>
31

>  <SCORE.norm>
-0.435276

>  <RMSD>
12.984

$$$$
2et3_lig
 OpenBabel11021811423D
libRbt.so/2013.1/901 2013/11/27
 31 33  0  0  0  0  0  0  0  0999 V2000
    6.4626   -2.2130   40.5058 C   0  0  2  0  0  0  0  0  0  0  0  0
    5.6407   -1.0190   40.4347 O   0  0  0  0  0  0  0  0  0  0  0  0
    3.8987    1.2545   37.2561 C   0  0  2  0  0  0  0  0  0  0  0  0
    3.7581    1.8888   35.9820 N   0  0  0  0  0  0  0  0  0  0  0  0
    2.9734   -1.3868   35.0568 C   0  0  2  0  0  0  0  0  0  0  0  0
    6.3664   -2.8257   41.9071 C   0  0  2  0  0  0  0  0  0  0  0  0
    4.9900   -3.0839   42.1985 N   0  0  0  0  0  0  0  0  0  0  0  0
    5.1330    1.8537   38.0042 C   0  0  0  0  0  0  0  0  0  0  0  0
    1.7502   -2.3250   34.9612 C   0  0  2  0  0  0  0  0  0  0  0  0
    0.5761   -1.5649   35.1411 O   0  0  0  0  0  0  0  0  0  0  0  0
    7.0185   -1.8727   42.9664 C   0  0  0  0  0  0  0  0  0  0  0  0
    5.3006    1.1557   39.4034 C   0  0  2  0  0  0  0  0  0  0  0  0
    6.4623    1.7162   40.1118 N   0  0  0  0  0  0  0  0  0  0  0  0
    1.9044   -3.4427   36.0719 C   0  0  1  0  0  0  0  0  0  0  0  0
    0.7290   -4.3741   36.0798 N   0  0  0  0  0  0  0  0  0  0  0  0
    8.5182   -1.6762   42.5806 C   0  0  0  0  0  0  0  0  0  0  0  0
    5.4700   -0.3989   39.2004 C   0  0  2  0  0  0  0  0  0  0  0  0
    3.2719   -4.2789   35.8389 C   0  0  1  0  0  0  0  0  0  0  0  0
    3.2562   -4.9542   34.5983 O   0  0  0  0  0  0  0  0  0  0  0  0
    8.5885   -1.0670   41.1114 C   0  0  2  0  0  0  0  0  0  0  0  0
    7.8670   -1.8844   40.1374 O   0  0  0  0  0  0  0  0  0  0  0  0
    4.2116   -0.9726   38.4421 C   0  0  2  0  0  0  0  0  0  0  0  0
    4.3424   -2.3777   38.2514 O   0  0  0  0  0  0  0  0  0  0  0  0
    4.4782   -3.2898   35.8241 C   0  0  0  0  0  0  0  0  0  0  0  0
    4.2294   -2.1669   34.8598 O   0  0  0  0  0  0  0  0  0  0  0  0
    9.9919   -0.8084   40.6161 C   0  0  0  0  0  0  0  0  0  0  0  0
   10.7596   -2.0226   40.5255 N   0  0  0  0  0  0  0  0  0  0  0  0
    4.0599   -0.2635   37.0506 C   0  0  1  0  0  0  0  0  0  0  0  0
    2.9170   -0.7888   36.3863 O   0  0  0  0  0  0  0  0  0  0  0  0
    3.5799   -5.3967   36.8445 C   0  0  0  0  0  0  0  0  0  0  0  0
    0.0970   -4.6460   37.3816 C   0  0  0  0  0  0  0  0  0  0  0  0
  1  2  1  1  0  0  0
  1  6  1  0  0  0  0
  1 21  1  0  0  0  0
  3  4  1  6  0  0  0
  3  8  1  0  0  0  0
  3 28  1  0  0  0  0
  5  9  1  0  0  0  0
  5 25  1  0  0  0  0
  5 29  1  1  0  0  0
  6  7  1  1  0  0  0
  6 11  1  0  0  0  0
  8 12  1  0  0  0  0
  9 10  1  1  0  0  0
  9 14  1  0  0  0  0
 11 16  1  0  0  0  0
 12 13  1  6  0  0  0
 12 17  1  0  0  0  0
 14 15  1  6  0  0  0
 14 18  1  0  0  0  0
 15 31  1  0  0  0  0
 16 20  1  0  0  0  0
 17  2  1  1  0  0  0
 17 22  1  0  0  0  0
 18 19  1  6  0  0  0
 18 24  1  0  0  0  0
 18 30  1  0  0  0  0
 20 21  1  0  0  0  0
 20 26  1  6  0  0  0
 22 23  1  6  0  0  0
 22 28  1  0  0  0  0
 24 25  1  0  0  0  0
 26 27  1  0  0  0  0
 28 29  1  1  0  0  0
M  END
>  <CHROM.1>
-172.74204473,156.63251465,-130.87155230,-148.40294377,62.33482210,115.81551654
4.76959902,-1.74778744,38.21874007,-0.04547302,0.78835037,2.89807403

>  <Name>
2et3_lig

>  <RI>
0

>  <Rbt.Current_Directory>
/home/itssahil/PROJECTS/Mol_Feturizer/New_Systems/rnas/2et3

>  <Rbt.Executable>
rbdock ($Id: //depot/dev/client3/rdock/2013.1/src/exe/rbdock.cxx#4 $)

>  <Rbt.Library>
libRbt.so (2013.1, Build901 2013/11/27)

>  <Rbt.Parameter_File>
/export/apps/rDock/src/rDock_2013.1_src/data/scripts/dock_solv.prm

>  <Rbt.Receptor>
prm/blind_docking_60.prm

>  <SCORE>
-14.4296

>  <SCORE.INTER>
-12.9747

>  <SCORE.INTER.CONST>
1

>  <SCORE.INTER.POLAR>
-0.821836

>  <SCORE.INTER.ROT>
6

>  <SCORE.INTER.SOLV>
17.299

>  <SCORE.INTER.VDW>
-19.2767

>  <SCORE.INTER.norm>
-0.418538

>  <SCORE.INTRA>
-3.46066

>  <SCORE.INTRA.DIHEDRAL>
-7.32093

>  <SCORE.INTRA.DIHEDRAL.0>
22.2484

>  <SCORE.INTRA.POLAR>
0

>  <SCORE.INTRA.POLAR.0>
0

>  <SCORE.INTRA.REPUL>
0

>  <SCORE.INTRA.REPUL.0>
0

>  <SCORE.INTRA.SOLV>
-1.30807

>  <SCORE.INTRA.SOLV.lig_0>
-75.7198

>  <SCORE.INTRA.VDW>
0.853835

>  <SCORE.INTRA.VDW.0>
-3.34171

>  <SCORE.INTRA.norm>
-0.111634

>  <SCORE.RESTR>
2.00575

>  <SCORE.RESTR.CAVITY>
2.00575

>  <SCORE.RESTR.norm>
0.0647015

>  <SCORE.SYSTEM>
0

>  <SCORE.SYSTEM.CONST>
0

>  <SCORE.SYSTEM.DIHEDRAL>
0

>  <SCORE.SYSTEM.SOLV>
0

>  <SCORE.SYSTEM.norm>
0

>  <SCORE.heavy>
31

>  <SCORE.norm>
-0.465471

>  <RMSD>
12.988

$$$$
2et3_lig
 OpenBabel11021811423D
libRbt.so/2013.1/901 2013/11/27
 31 33  0  0  0  0  0  0  0  0999 V2000
    6.4826   -2.1979   40.5007 C   0  0  2  0  0  0  0  0  0  0  0  0
    5.6715   -0.9963   40.4333 O   0  0  0  0  0  0  0  0  0  0  0  0
    3.8857    1.2328   37.2477 C   0  0  2  0  0  0  0  0  0  0  0  0
    3.7332    1.8612   35.9720 N   0  0  0  0  0  0  0  0  0  0  0  0
    3.0184   -1.4291   35.0518 C   0  0  2  0  0  0  0  0  0  0  0  0
    6.3770   -2.8167   41.8986 C   0  0  2  0  0  0  0  0  0  0  0  0
    4.9975   -3.0641   42.1849 N   0  0  0  0  0  0  0  0  0  0  0  0
    5.1062    1.8597   37.9958 C   0  0  0  0  0  0  0  0  0  0  0  0
    1.7962   -2.3672   34.9427 C   0  0  2  0  0  0  0  0  0  0  0  0
    0.6203   -1.6074   35.1116 O   0  0  0  0  0  0  0  0  0  0  0  0
    7.0346   -1.8749   42.9645 C   0  0  0  0  0  0  0  0  0  0  0  0
    5.2868    1.1684   39.3967 C   0  0  2  0  0  0  0  0  0  0  0  0
    6.4356    1.7550   40.1052 N   0  0  0  0  0  0  0  0  0  0  0  0
    1.9391   -3.4862   36.0537 C   0  0  1  0  0  0  0  0  0  0  0  0
    0.7638   -4.4176   36.0485 N   0  0  0  0  0  0  0  0  0  0  0  0
    8.5371   -1.6900   42.5838 C   0  0  0  0  0  0  0  0  0  0  0  0
    5.4893   -0.3827   39.1974 C   0  0  2  0  0  0  0  0  0  0  0  0
    3.3089   -4.3221   35.8336 C   0  0  1  0  0  0  0  0  0  0  0  0
    3.3058   -4.9961   34.5921 O   0  0  0  0  0  0  0  0  0  0  0  0
    8.6169   -1.0740   41.1179 C   0  0  2  0  0  0  0  0  0  0  0  0
    7.8909   -1.8800   40.1378 O   0  0  0  0  0  0  0  0  0  0  0  0
    4.2441   -0.9845   38.4390 C   0  0  2  0  0  0  0  0  0  0  0  0
    4.4049   -2.3869   38.2516 O   0  0  0  0  0  0  0  0  0  0  0  0
    4.5153   -3.3330   35.8321 C   0  0  0  0  0  0  0  0  0  0  0  0
    4.2763   -2.2090   34.8666 O   0  0  0  0  0  0  0  0  0  0  0  0
   10.0239   -0.8255   40.6277 C   0  0  0  0  0  0  0  0  0  0  0  0
   10.7701   -2.0497   40.5000 N   0  0  0  0  0  0  0  0  0  0  0  0
    4.0791   -0.2819   37.0457 C   0  0  1  0  0  0  0  0  0  0  0  0
    2.9484   -0.8327   36.3813 O   0  0  0  0  0  0  0  0  0  0  0  0
    3.6067   -5.4411   36.8410 C   0  0  0  0  0  0  0  0  0  0  0  0
    0.0163   -4.5620   37.3089 C   0  0  0  0  0  0  0  0  0  0  0  0
  1  2  1  1  0  0  0
  1  6  1  0  0  0  0
  1 21  1  0  0  0  0
  3  4  1  6  0  0  0
  3  8  1  0  0  0  0
  3 28  1  0  0  0  0
  5  9  1  0  0  0  0
  5 25  1  0  0  0  0
  5 29  1  1  0  0  0
  6  7  1  1  0  0  0
  6 11  1  0  0  0  0
  8 12  1  0  0  0  0
  9 10  1  1  0  0  0
  9 14  1  0  0  0  0
 11 16  1  0  0  0  0
 12 13  1  6  0  0  0
 12 17  1  0  0  0  0
 14 15  1  6  0  0  0
 14 18  1  0  0  0  0
 15 31  1  0  0  0  0
 16 20  1  0  0  0  0
 17  2  1  1  0  0  0
 17 22  1  0  0  0  0
 18 19  1  6  0  0  0
 18 24  1  0  0  0  0
 18 30  1  0  0  0  0
 20 21  1  0  0  0  0
 20 26  1  6  0  0  0
 22 23  1  6  0  0  0
 22 28  1  0  0  0  0
 24 25  1  0  0  0  0
 26 27  1  0  0  0  0
 28 29  1  1  0  0  0
M  END
>  <CHROM.1>
-171.55174520,158.04530101,-123.51317502,-150.40927825,63.84422768,115.65057242
4.78867395,-1.76070392,38.21010301,-0.06838752,0.78934463,2.92539663

>  <Name>
2et3_lig

>  <RI>
0

>  <Rbt.Current_Directory>
/home/itssahil/PROJECTS/Mol_Feturizer/New_Systems/rnas/2et3

>  <Rbt.Executable>
rbdock ($Id: //depot/dev/client3/rdock/2013.1/src/exe/rbdock.cxx#4 $)

>  <Rbt.Library>
libRbt.so (2013.1, Build901 2013/11/27)

>  <Rbt.Parameter_File>
/export/apps/rDock/src/rDock_2013.1_src/data/scripts/dock_solv.prm

>  <Rbt.Receptor>
prm/blind_docking_60.prm

>  <SCORE>
-14.438

>  <SCORE.INTER>
-12.6444

>  <SCORE.INTER.CONST>
1

>  <SCORE.INTER.POLAR>
-0.849833

>  <SCORE.INTER.ROT>
6

>  <SCORE.INTER.SOLV>
17.5602

>  <SCORE.INTER.VDW>
-19.0502

>  <SCORE.INTER.norm>
-0.407884

>  <SCORE.INTRA>
-3.81243

>  <SCORE.INTRA.DIHEDRAL>
-7.74369

>  <SCORE.INTRA.DIHEDRAL.0>
22.2484

>  <SCORE.INTRA.POLAR>
0

>  <SCORE.INTRA.POLAR.0>
0

>  <SCORE.INTRA.REPUL>
0

>  <SCORE.INTRA.REPUL.0>
0

>  <SCORE.INTRA.SOLV>
-1.46237

>  <SCORE.INTRA.SOLV.lig_0>
-75.7198

>  <SCORE.INTRA.VDW>
0.790597

>  <SCORE.INTRA.VDW.0>
-3.34171

>  <SCORE.INTRA.norm>
-0.122982

>  <SCORE.RESTR>
2.01887

>  <SCORE.RESTR.CAVITY>
2.01887

>  <SCORE.RESTR.norm>
0.0651249

>  <SCORE.SYSTEM>
0

>  <SCORE.SYSTEM.CONST>
0

>  <SCORE.SYSTEM.DIHEDRAL>
0

>  <SCORE.SYSTEM.SOLV>
0

>  <SCORE.SYSTEM.norm>
0

>  <SCORE.heavy>
31

>  <SCORE.norm>
-0.465741

>  <RMSD>
12.988

$$$$
2et3_lig
 OpenBabel11021811423D
libRbt.so/2013.1/901 2013/11/27
 31 33  0  0  0  0  0  0  0  0999 V2000
    5.9968   -2.1193   40.1539 C   0  0  2  0  0  0  0  0  0  0  0  0
    5.4092   -0.8111   40.3769 O   0  0  0  0  0  0  0  0  0  0  0  0
    2.1130    1.0450   38.3779 C   0  0  2  0  0  0  0  0  0  0  0  0
    1.3369    1.6240   37.3253 N   0  0  0  0  0  0  0  0  0  0  0  0
    0.6673   -1.4731   36.5518 C   0  0  2  0  0  0  0  0  0  0  0  0
    5.7237   -3.0227   41.3613 C   0  0  2  0  0  0  0  0  0  0  0  0
    4.3109   -3.0808   41.5772 N   0  0  0  0  0  0  0  0  0  0  0  0
    3.4184    1.8792   38.5836 C   0  0  0  0  0  0  0  0  0  0  0  0
    1.3699   -2.7650   36.0797 C   0  0  2  0  0  0  0  0  0  0  0  0
    1.1216   -3.7889   37.0170 O   0  0  0  0  0  0  0  0  0  0  0  0
    6.4859   -2.4931   42.6238 C   0  0  0  0  0  0  0  0  0  0  0  0
    4.2826    1.2445   39.7340 C   0  0  2  0  0  0  0  0  0  0  0  0
    5.5136    2.0264   39.9313 N   0  0  0  0  0  0  0  0  0  0  0  0
    2.9166   -2.4564   35.9404 C   0  0  1  0  0  0  0  0  0  0  0  0
    3.6846   -3.6769   35.5289 N   0  0  0  0  0  0  0  0  0  0  0  0
    8.0132   -2.4942   42.3015 C   0  0  0  0  0  0  0  0  0  0  0  0
    4.6258   -0.2514   39.3719 C   0  0  2  0  0  0  0  0  0  0  0  0
    3.1556   -1.2647   34.8697 C   0  0  1  0  0  0  0  0  0  0  0  0
    2.7088   -1.6341   33.5815 O   0  0  0  0  0  0  0  0  0  0  0  0
    8.2634   -1.5728   41.0275 C   0  0  2  0  0  0  0  0  0  0  0  0
    7.4536   -1.9808   39.8808 O   0  0  0  0  0  0  0  0  0  0  0  0
    3.2901   -1.0653   39.1688 C   0  0  2  0  0  0  0  0  0  0  0  0
    3.5775   -2.4217   38.8442 O   0  0  0  0  0  0  0  0  0  0  0  0
    2.3400   -0.0106   35.3119 C   0  0  0  0  0  0  0  0  0  0  0  0
    0.9074   -0.3758   35.5705 O   0  0  0  0  0  0  0  0  0  0  0  0
    9.7127   -1.4702   40.6141 C   0  0  0  0  0  0  0  0  0  0  0  0
    9.9806   -0.2486   39.9015 N   0  0  0  0  0  0  0  0  0  0  0  0
    2.4413   -0.4166   38.0195 C   0  0  1  0  0  0  0  0  0  0  0  0
    1.2393   -1.1596   37.8568 O   0  0  0  0  0  0  0  0  0  0  0  0
    4.6082   -0.8321   34.6280 C   0  0  0  0  0  0  0  0  0  0  0  0
    3.8618   -4.7313   36.5414 C   0  0  0  0  0  0  0  0  0  0  0  0
  1  2  1  1  0  0  0
  1  6  1  0  0  0  0
  1 21  1  0  0  0  0
  3  4  1  6  0  0  0
  3  8  1  0  0  0  0
  3 28  1  0  0  0  0
  5  9  1  0  0  0  0
  5 25  1  0  0  0  0
  5 29  1  1  0  0  0
  6  7  1  1  0  0  0
  6 11  1  0  0  0  0
  8 12  1  0  0  0  0
  9 10  1  1  0  0  0
  9 14  1  0  0  0  0
 11 16  1  0  0  0  0
 12 13  1  6  0  0  0
 12 17  1  0  0  0  0
 14 15  1  6  0  0  0
 14 18  1  0  0  0  0
 15 31  1  0  0  0  0
 16 20  1  0  0  0  0
 17  2  1  1  0  0  0
 17 22  1  0  0  0  0
 18 19  1  6  0  0  0
 18 24  1  0  0  0  0
 18 30  1  0  0  0  0
 20 21  1  0  0  0  0
 20 26  1  6  0  0  0
 22 23  1  6  0  0  0
 22 28  1  0  0  0  0
 24 25  1  0  0  0  0
 26 27  1  0  0  0  0
 28 29  1  1  0  0  0
M  END
>  <CHROM.1>
-131.16106091,85.54919552,-72.48818663,-171.28315495,-154.48485402,100.36860017
4.19429194,-1.30821859,38.31377959,-0.21809114,0.72485515,-2.78336666

>  <Name>
2et3_lig

>  <RI>
0

>  <Rbt.Current_Directory>
/home/itssahil/PROJECTS/Mol_Feturizer/New_Systems/rnas/2et3

>  <Rbt.Executable>
rbdock ($Id: //depot/dev/client3/rdock/2013.1/src/exe/rbdock.cxx#4 $)

>  <Rbt.Library>
libRbt.so (2013.1, Build901 2013/11/27)

>  <Rbt.Parameter_File>
/export/apps/rDock/src/rDock_2013.1_src/data/scripts/dock_solv.prm

>  <Rbt.Receptor>
prm/blind_docking_60.prm

>  <SCORE>
-11.5449

>  <SCORE.INTER>
-13.1792

>  <SCORE.INTER.CONST>
1

>  <SCORE.INTER.POLAR>
-1.14059

>  <SCORE.INTER.ROT>
6

>  <SCORE.INTER.SOLV>
18.2477

>  <SCORE.INTER.VDW>
-18.6668

>  <SCORE.INTER.norm>
-0.425136

>  <SCORE.INTRA>
1.37902

>  <SCORE.INTRA.DIHEDRAL>
-4.85625

>  <SCORE.INTRA.DIHEDRAL.0>
22.2484

>  <SCORE.INTRA.POLAR>
0

>  <SCORE.INTRA.POLAR.0>
0

>  <SCORE.INTRA.REPUL>
0

>  <SCORE.INTRA.REPUL.0>
0

>  <SCORE.INTRA.SOLV>
1.28456

>  <SCORE.INTRA.SOLV.lig_0>
-75.7198

>  <SCORE.INTRA.VDW>
3.16486

>  <SCORE.INTRA.VDW.0>
-3.34171

>  <SCORE.INTRA.norm>
0.0444846

>  <SCORE.RESTR>
0.255314

>  <SCORE.RESTR.CAVITY>
0.255314

>  <SCORE.RESTR.norm>
0.00823592

>  <SCORE.SYSTEM>
0

>  <SCORE.SYSTEM.CONST>
0

>  <SCORE.SYSTEM.DIHEDRAL>
0

>  <SCORE.SYSTEM.SOLV>
0

>  <SCORE.SYSTEM.norm>
0

>  <SCORE.heavy>
31

>  <SCORE.norm>
-0.372415

>  <RMSD>
12.992

$$$$
2et3_lig
 OpenBabel11021811423D
libRbt.so/2013.1/901 2013/11/27
 31 33  0  0  0  0  0  0  0  0999 V2000
    0.2890    1.5422   37.3802 C   0  0  2  0  0  0  0  0  0  0  0  0
    0.6254    0.6969   38.5109 O   0  0  0  0  0  0  0  0  0  0  0  0
    3.0474   -2.7465   39.2747 C   0  0  2  0  0  0  0  0  0  0  0  0
    3.9255   -3.8489   39.0314 N   0  0  0  0  0  0  0  0  0  0  0  0
    6.1087   -2.1426   39.5230 C   0  0  2  0  0  0  0  0  0  0  0  0
   -0.5889    0.7639   36.3944 C   0  0  2  0  0  0  0  0  0  0  0  0
   -1.7437    0.2866   37.0906 N   0  0  0  0  0  0  0  0  0  0  0  0
    1.7328   -2.9346   38.4510 C   0  0  0  0  0  0  0  0  0  0  0  0
    6.5567   -2.4876   40.9604 C   0  0  2  0  0  0  0  0  0  0  0  0
    5.4992   -3.1436   41.6236 O   0  0  0  0  0  0  0  0  0  0  0  0
    0.2251   -0.4061   35.7433 C   0  0  0  0  0  0  0  0  0  0  0  0
    0.7643   -1.7220   38.7057 C   0  0  2  0  0  0  0  0  0  0  0  0
   -0.4754   -1.8942   37.9316 N   0  0  0  0  0  0  0  0  0  0  0  0
    6.9584   -1.1376   41.6836 C   0  0  1  0  0  0  0  0  0  0  0  0
    7.3635   -1.3776   43.1074 N   0  0  0  0  0  0  0  0  0  0  0  0
    1.4414    0.2144   34.9869 C   0  0  0  0  0  0  0  0  0  0  0  0
    1.4863   -0.3778   38.3079 C   0  0  2  0  0  0  0  0  0  0  0  0
    8.1618   -0.4089   40.8809 C   0  0  1  0  0  0  0  0  0  0  0  0
    9.3258   -1.2089   40.8628 O   0  0  0  0  0  0  0  0  0  0  0  0
    2.3185    1.0401   36.0279 C   0  0  2  0  0  0  0  0  0  0  0  0
    1.5330    2.0482   36.7377 O   0  0  0  0  0  0  0  0  0  0  0  0
    2.8083   -0.2182   39.1533 C   0  0  2  0  0  0  0  0  0  0  0  0
    3.4750    0.9929   38.8119 O   0  0  0  0  0  0  0  0  0  0  0  0
    7.7224   -0.1791   39.4018 C   0  0  0  0  0  0  0  0  0  0  0  0
    7.2153   -1.4554   38.7964 O   0  0  0  0  0  0  0  0  0  0  0  0
    3.5463    1.6838   35.4280 C   0  0  0  0  0  0  0  0  0  0  0  0
    4.5016    2.0581   36.4375 N   0  0  0  0  0  0  0  0  0  0  0  0
    3.7602   -1.4370   38.8876 C   0  0  1  0  0  0  0  0  0  0  0  0
    4.9418   -1.2783   39.6634 O   0  0  0  0  0  0  0  0  0  0  0  0
    8.6617    0.9275   41.4464 C   0  0  0  0  0  0  0  0  0  0  0  0
    6.2872   -1.6516   44.0743 C   0  0  0  0  0  0  0  0  0  0  0  0
  1  2  1  1  0  0  0
  1  6  1  0  0  0  0
  1 21  1  0  0  0  0
  3  4  1  6  0  0  0
  3  8  1  0  0  0  0
  3 28  1  0  0  0  0
  5  9  1  0  0  0  0
  5 25  1  0  0  0  0
  5 29  1  1  0  0  0
  6  7  1  1  0  0  0
  6 11  1  0  0  0  0
  8 12  1  0  0  0  0
  9 10  1  1  0  0  0
  9 14  1  0  0  0  0
 11 16  1  0  0  0  0
 12 13  1  6  0  0  0
 12 17  1  0  0  0  0
 14 15  1  1  0  0  0
 14 18  1  0  0  0  0
 15 31  1  0  0  0  0
 16 20  1  0  0  0  0
 17  2  1  1  0  0  0
 17 22  1  0  0  0  0
 18 19  1  6  0  0  0
 18 24  1  0  0  0  0
 18 30  1  0  0  0  0
 20 21  1  0  0  0  0
 20 26  1  6  0  0  0
 22 23  1  6  0  0  0
 22 28  1  0  0  0  0
 24 25  1  0  0  0  0
 26 27  1  0  0  0  0
 28 29  1  1  0  0  0
M  END
>  <CHROM.1>
69.16597443,-135.39503123,-75.25511203,-120.95512264,-162.30066006,67.90127683
3.83288795,-0.62905440,38.90589117,-2.60829510,0.32058068,2.40516106

>  <Name>
2et3_lig

>  <RI>
1.07224e+07

>  <Rbt.Current_Directory>
/home/itssahil/PROJECTS/Mol_Feturizer/New_Systems/rnas/2et3

>  <Rbt.Executable>
rbdock ($Id: //depot/dev/client3/rdock/2013.1/src/exe/rbdock.cxx#4 $)

>  <Rbt.Library>
libRbt.so (2013.1, Build901 2013/11/27)

>  <Rbt.Parameter_File>
/export/apps/rDock/src/rDock_2013.1_src/data/scripts/dock_solv.prm

>  <Rbt.Receptor>
prm/blind_docking_80.prm

>  <SCORE>
0.152751

>  <SCORE.INTER>
-3.59508

>  <SCORE.INTER.CONST>
1

>  <SCORE.INTER.POLAR>
0

>  <SCORE.INTER.ROT>
6

>  <SCORE.INTER.SOLV>
17.9049

>  <SCORE.INTER.VDW>
-15.965

>  <SCORE.INTER.norm>
-0.11597

>  <SCORE.INTRA>
2.35625

>  <SCORE.INTRA.DIHEDRAL>
-6.87699

>  <SCORE.INTRA.DIHEDRAL.0>
22.2484

>  <SCORE.INTRA.POLAR>
0

>  <SCORE.INTRA.POLAR.0>
0

>  <SCORE.INTRA.REPUL>
0

>  <SCORE.INTRA.REPUL.0>
0

>  <SCORE.INTRA.SOLV>
5.99765

>  <SCORE.INTRA.SOLV.lig_0>
-75.7198

>  <SCORE.INTRA.VDW>
2.79592

>  <SCORE.INTRA.VDW.0>
-3.34171

>  <SCORE.INTRA.norm>
0.076008

>  <SCORE.RESTR>
1.39159

>  <SCORE.RESTR.CAVITY>
1.39159

>  <SCORE.RESTR.norm>
0.04489

>  <SCORE.SYSTEM>
0

>  <SCORE.SYSTEM.CONST>
0

>  <SCORE.SYSTEM.DIHEDRAL>
0

>  <SCORE.SYSTEM.SOLV>
0

>  <SCORE.SYSTEM.norm>
0

>  <SCORE.heavy>
31

>  <SCORE.norm>
0.00492747

>  <RMSD>
13.013

$$$$
2et3_lig
 OpenBabel11021811423D
libRbt.so/2013.1/901 2013/11/27
 31 33  0  0  0  0  0  0  0  0999 V2000
    4.9427   -2.0072   40.5530 C   0  0  2  0  0  0  0  0  0  0  0  0
    4.2271   -0.7490   40.6578 O   0  0  0  0  0  0  0  0  0  0  0  0
    1.5825    0.9539   37.7575 C   0  0  2  0  0  0  0  0  0  0  0  0
    1.1415    1.5857   36.5525 N   0  0  0  0  0  0  0  0  0  0  0  0
    1.4314   -1.5002   35.2982 C   0  0  2  0  0  0  0  0  0  0  0  0
    5.1602   -2.5978   41.9502 C   0  0  2  0  0  0  0  0  0  0  0  0
    3.8882   -2.7369   42.5897 N   0  0  0  0  0  0  0  0  0  0  0  0
    2.5567    1.9081   38.5208 C   0  0  0  0  0  0  0  0  0  0  0  0
    2.1779   -2.8442   35.1502 C   0  0  2  0  0  0  0  0  0  0  0  0
    1.4552   -3.8458   35.8307 O   0  0  0  0  0  0  0  0  0  0  0  0
    6.1349   -1.6940   42.7801 C   0  0  0  0  0  0  0  0  0  0  0  0
    3.0537    1.2178   39.8435 C   0  0  2  0  0  0  0  0  0  0  0  0
    3.9721    2.1124   40.5660 N   0  0  0  0  0  0  0  0  0  0  0  0
    3.6340   -2.6618   35.7446 C   0  0  1  0  0  0  0  0  0  0  0  0
    4.4157   -3.9401   35.6831 N   0  0  0  0  0  0  0  0  0  0  0  0
    7.4967   -1.6277   42.0199 C   0  0  0  0  0  0  0  0  0  0  0  0
    3.7659   -0.1445   39.4921 C   0  0  2  0  0  0  0  0  0  0  0  0
    4.4217   -1.4922   34.9476 C   0  0  1  0  0  0  0  0  0  0  0  0
    4.5899   -1.8227   33.5846 O   0  0  0  0  0  0  0  0  0  0  0  0
    7.2366   -1.0390   40.5637 C   0  0  2  0  0  0  0  0  0  0  0  0
    6.2275   -1.8010   39.8299 O   0  0  0  0  0  0  0  0  0  0  0  0
    2.7593   -1.0832   38.7216 C   0  0  2  0  0  0  0  0  0  0  0  0
    3.3820   -2.3221   38.3975 O   0  0  0  0  0  0  0  0  0  0  0  0
    3.5862   -0.1766   35.0160 C   0  0  0  0  0  0  0  0  0  0  0  0
    2.1724   -0.4248   34.5776 O   0  0  0  0  0  0  0  0  0  0  0  0
    8.4824   -0.9035   39.7203 C   0  0  0  0  0  0  0  0  0  0  0  0
    9.5006   -0.1370   40.3892 N   0  0  0  0  0  0  0  0  0  0  0  0
    2.2735   -0.3774   37.4071 C   0  0  1  0  0  0  0  0  0  0  0  0
    1.3625   -1.2356   36.7313 O   0  0  0  0  0  0  0  0  0  0  0  0
    5.8503   -1.1785   35.4128 C   0  0  0  0  0  0  0  0  0  0  0  0
    3.9550   -5.0501   36.5339 C   0  0  0  0  0  0  0  0  0  0  0  0
  1  2  1  1  0  0  0
  1  6  1  0  0  0  0
  1 21  1  0  0  0  0
  3  4  1  6  0  0  0
  3  8  1  0  0  0  0
  3 28  1  0  0  0  0
  5  9  1  0  0  0  0
  5 25  1  0  0  0  0
  5 29  1  1  0  0  0
  6  7  1  1  0  0  0
  6 11  1  0  0  0  0
  8 12  1  0  0  0  0
  9 10  1  1  0  0  0
  9 14  1  0  0  0  0
 11 16  1  0  0  0  0
 12 13  1  6  0  0  0
 12 17  1  0  0  0  0
 14 15  1  6  0  0  0
 14 18  1  0  0  0  0
 15 31  1  0  0  0  0
 16 20  1  0  0  0  0
 17  2  1  1  0  0  0
 17 22  1  0  0  0  0
 18 19  1  6  0  0  0
 18 24  1  0  0  0  0
 18 30  1  0  0  0  0
 20 21  1  0  0  0  0
 20 26  1  6  0  0  0
 22 23  1  6  0  0  0
 22 28  1  0  0  0  0
 24 25  1  0  0  0  0
 26 27  1  0  0  0  0
 28 29  1  1  0  0  0
M  END
>  <CHROM.1>
-171.11460509,97.92271134,-66.94280203,-178.67890299,-54.17800729,105.81561004
4.08614461,-1.24062822,38.11996165,-0.84091518,0.63447533,-2.13464255

>  <Name>
2et3_lig

>  <RI>
0

>  <Rbt.Current_Directory>
/home/itssahil/PROJECTS/Mol_Feturizer/New_Systems/rnas/2et3

>  <Rbt.Executable>
rbdock ($Id: //depot/dev/client3/rdock/2013.1/src/exe/rbdock.cxx#4 $)

>  <Rbt.Library>
libRbt.so (2013.1, Build901 2013/11/27)

>  <Rbt.Parameter_File>
/export/apps/rDock/src/rDock_2013.1_src/data/scripts/dock_solv.prm

>  <Rbt.Receptor>
prm/blind_docking_100.prm

>  <SCORE>
-9.54973

>  <SCORE.INTER>
-9.25243

>  <SCORE.INTER.CONST>
1

>  <SCORE.INTER.POLAR>
-1.22198

>  <SCORE.INTER.ROT>
6

>  <SCORE.INTER.SOLV>
23.6617

>  <SCORE.INTER.VDW>
-17.5822

>  <SCORE.INTER.norm>
-0.298466

>  <SCORE.INTRA>
-1.82033

>  <SCORE.INTRA.DIHEDRAL>
-10.2223

>  <SCORE.INTRA.DIHEDRAL.0>
22.2484

>  <SCORE.INTRA.POLAR>
0

>  <SCORE.INTRA.POLAR.0>
0

>  <SCORE.INTRA.REPUL>
0

>  <SCORE.INTRA.REPUL.0>
0

>  <SCORE.INTRA.SOLV>
-0.759704

>  <SCORE.INTRA.SOLV.lig_0>
-75.7198

>  <SCORE.INTRA.VDW>
3.6707

>  <SCORE.INTRA.VDW.0>
-3.34171

>  <SCORE.INTRA.norm>
-0.0587203

>  <SCORE.RESTR>
1.52304

>  <SCORE.RESTR.CAVITY>
1.52304

>  <SCORE.RESTR.norm>
0.0491302

>  <SCORE.SYSTEM>
0

>  <SCORE.SYSTEM.CONST>
0

>  <SCORE.SYSTEM.DIHEDRAL>
0

>  <SCORE.SYSTEM.SOLV>
0

>  <SCORE.SYSTEM.norm>
0

>  <SCORE.heavy>
31

>  <SCORE.norm>
-0.308056

>  <RMSD>
13.015

$$$$
2et3_lig
 OpenBabel11021811423D
libRbt.so/2013.1/901 2013/11/27
 31 33  0  0  0  0  0  0  0  0999 V2000
    1.4193   -0.1435   36.5437 C   0  0  2  0  0  0  0  0  0  0  0  0
    1.4605   -1.5381   36.9432 O   0  0  0  0  0  0  0  0  0  0  0  0
    2.0949   -1.1092   41.1527 C   0  0  2  0  0  0  0  0  0  0  0  0
    2.1630   -1.4501   42.5400 N   0  0  0  0  0  0  0  0  0  0  0  0
    5.5274   -2.6290   40.4237 C   0  0  2  0  0  0  0  0  0  0  0  0
    1.5044   -0.0389   35.0172 C   0  0  2  0  0  0  0  0  0  0  0  0
    0.4420   -0.8088   34.4474 N   0  0  0  0  0  0  0  0  0  0  0  0
    0.6304   -1.2962   40.6405 C   0  0  0  0  0  0  0  0  0  0  0  0
    6.3885   -2.8332   41.6897 C   0  0  2  0  0  0  0  0  0  0  0  0
    5.6060   -3.4661   42.6774 O   0  0  0  0  0  0  0  0  0  0  0  0
    2.9084   -0.5193   34.5138 C   0  0  0  0  0  0  0  0  0  0  0  0
    0.5478   -0.9318   39.1129 C   0  0  2  0  0  0  0  0  0  0  0  0
   -0.8297   -1.1068   38.6254 N   0  0  0  0  0  0  0  0  0  0  0  0
    6.9016   -1.4129   42.1653 C   0  0  1  0  0  0  0  0  0  0  0  0
    7.7116   -1.5152   43.4232 N   0  0  0  0  0  0  0  0  0  0  0  0
    3.9934    0.3952   35.1644 C   0  0  0  0  0  0  0  0  0  0  0  0
    1.5457   -1.8417   38.2988 C   0  0  2  0  0  0  0  0  0  0  0  0
    7.7793   -0.7144   40.9968 C   0  0  1  0  0  0  0  0  0  0  0  0
    8.9337   -1.4720   40.6987 O   0  0  0  0  0  0  0  0  0  0  0  0
    3.8627    0.2897   36.7476 C   0  0  2  0  0  0  0  0  0  0  0  0
    2.5147    0.6087   37.2149 O   0  0  0  0  0  0  0  0  0  0  0  0
    3.0124   -1.6324   38.8399 C   0  0  2  0  0  0  0  0  0  0  0  0
    3.9315   -2.4432   38.1150 O   0  0  0  0  0  0  0  0  0  0  0  0
    6.9212   -0.6281   39.6969 C   0  0  0  0  0  0  0  0  0  0  0  0
    6.3369   -1.9687   39.3591 O   0  0  0  0  0  0  0  0  0  0  0  0
    4.8721    1.1176   37.5076 C   0  0  0  0  0  0  0  0  0  0  0  0
    4.5800    2.5247   37.4261 N   0  0  0  0  0  0  0  0  0  0  0  0
    3.0745   -1.9989   40.3644 C   0  0  1  0  0  0  0  0  0  0  0  0
    4.4017   -1.7969   40.8346 O   0  0  0  0  0  0  0  0  0  0  0  0
    8.3418    0.6822   41.2944 C   0  0  0  0  0  0  0  0  0  0  0  0
    6.9711   -1.6152   44.6920 C   0  0  0  0  0  0  0  0  0  0  0  0
  1  2  1  6  0  0  0
  1  6  1  0  0  0  0
  1 21  1  0  0  0  0
  3  4  1  1  0  0  0
  3  8  1  0  0  0  0
  3 28  1  0  0  0  0
  5  9  1  0  0  0  0
  5 25  1  0  0  0  0
  5 29  1  1  0  0  0
  6  7  1  6  0  0  0
  6 11  1  0  0  0  0
  8 12  1  0  0  0  0
  9 10  1  1  0  0  0
  9 14  1  0  0  0  0
 11 16  1  0  0  0  0
 12 13  1  6  0  0  0
 12 17  1  0  0  0  0
 14 15  1  1  0  0  0
 14 18  1  0  0  0  0
 15 31  1  0  0  0  0
 16 20  1  0  0  0  0
 17  2  1  6  0  0  0
 17 22  1  0  0  0  0
 18 19  1  6  0  0  0
 18 24  1  0  0  0  0
 18 30  1  0  0  0  0
 20 21  1  0  0  0  0
 20 26  1  1  0  0  0
 22 23  1  6  0  0  0
 22 28  1  0  0  0  0
 24 25  1  0  0  0  0
 26 27  1  0  0  0  0
 28 29  1  1  0  0  0
M  END
>  <CHROM.1>
172.91643301,-140.57872370,-80.85019870,44.15471901,72.37897251,170.95593175
4.09146260,-1.02369385,39.28070960,-2.33331106,0.19126386,1.95137032

>  <Name>
2et3_lig

>  <RI>
1.07224e+07

>  <Rbt.Current_Directory>
/home/itssahil/PROJECTS/Mol_Feturizer/New_Systems/rnas/2et3

>  <Rbt.Executable>
rbdock ($Id: //depot/dev/client3/rdock/2013.1/src/exe/rbdock.cxx#4 $)

>  <Rbt.Library>
libRbt.so (2013.1, Build901 2013/11/27)

>  <Rbt.Parameter_File>
/export/apps/rDock/src/rDock_2013.1_src/data/scripts/dock_solv.prm

>  <Rbt.Receptor>
prm/blind_docking_80.prm

>  <SCORE>
-16.5367

>  <SCORE.INTER>
-10.8484

>  <SCORE.INTER.CONST>
1

>  <SCORE.INTER.POLAR>
0

>  <SCORE.INTER.ROT>
6

>  <SCORE.INTER.SOLV>
19.1806

>  <SCORE.INTER.VDW>
-21.2258

>  <SCORE.INTER.norm>
-0.349949

>  <SCORE.INTRA>
-6.87721

>  <SCORE.INTRA.DIHEDRAL>
-14.1106

>  <SCORE.INTRA.DIHEDRAL.0>
22.2484

>  <SCORE.INTRA.POLAR>
0

>  <SCORE.INTRA.POLAR.0>
0

>  <SCORE.INTRA.REPUL>
0

>  <SCORE.INTRA.REPUL.0>
0

>  <SCORE.INTRA.SOLV>
-1.55094

>  <SCORE.INTRA.SOLV.lig_0>
-75.7198

>  <SCORE.INTRA.VDW>
0.953573

>  <SCORE.INTRA.VDW.0>
-3.34171

>  <SCORE.INTRA.norm>
-0.221846

>  <SCORE.RESTR>
1.18893

>  <SCORE.RESTR.CAVITY>
1.18893

>  <SCORE.RESTR.norm>
0.0383526

>  <SCORE.SYSTEM>
0

>  <SCORE.SYSTEM.CONST>
0

>  <SCORE.SYSTEM.DIHEDRAL>
0

>  <SCORE.SYSTEM.SOLV>
0

>  <SCORE.SYSTEM.norm>
0

>  <SCORE.heavy>
31

>  <SCORE.norm>
-0.533442

>  <RMSD>
13.020

$$$$
2et3_lig
 OpenBabel11021811423D
libRbt.so/2013.1/901 2013/11/27
 31 33  0  0  0  0  0  0  0  0999 V2000
    7.6334    0.1042   40.8563 C   0  0  2  0  0  0  0  0  0  0  0  0
    7.5968    0.0924   39.4055 O   0  0  0  0  0  0  0  0  0  0  0  0
    3.4570   -0.5727   38.5534 C   0  0  2  0  0  0  0  0  0  0  0  0
    2.1973   -0.4954   37.8806 N   0  0  0  0  0  0  0  0  0  0  0  0
    4.3337   -3.0824   35.9157 C   0  0  2  0  0  0  0  0  0  0  0  0
    9.0688   -0.1272   41.3404 C   0  0  2  0  0  0  0  0  0  0  0  0
    9.9129    0.8701   40.7581 N   0  0  0  0  0  0  0  0  0  0  0  0
    3.9004    0.8586   38.9974 C   0  0  0  0  0  0  0  0  0  0  0  0
    3.3069   -2.4256   34.9672 C   0  0  2  0  0  0  0  0  0  0  0  0
    3.5020   -1.0291   34.9788 O   0  0  0  0  0  0  0  0  0  0  0  0
    9.5413   -1.5764   40.9773 C   0  0  0  0  0  0  0  0  0  0  0  0
    5.2895    0.7844   39.7308 C   0  0  2  0  0  0  0  0  0  0  0  0
    5.7118    2.1301   40.1506 N   0  0  0  0  0  0  0  0  0  0  0  0
    1.8577   -2.8220   35.4668 C   0  0  1  0  0  0  0  0  0  0  0  0
    0.7935   -2.1841   34.6245 N   0  0  0  0  0  0  0  0  0  0  0  0
    8.5809   -2.5873   41.6789 C   0  0  0  0  0  0  0  0  0  0  0  0
    6.3601    0.1403   38.7688 C   0  0  2  0  0  0  0  0  0  0  0  0
    1.6822   -4.4322   35.4548 C   0  0  1  0  0  0  0  0  0  0  0  0
    1.8055   -4.9528   34.1474 O   0  0  0  0  0  0  0  0  0  0  0  0
    7.0954   -2.3051   41.1804 C   0  0  2  0  0  0  0  0  0  0  0  0
    6.6931   -0.9162   41.3955 O   0  0  0  0  0  0  0  0  0  0  0  0
    5.8837   -1.3001   38.3373 C   0  0  2  0  0  0  0  0  0  0  0  0
    6.8392   -1.9020   37.4699 O   0  0  0  0  0  0  0  0  0  0  0  0
    2.8046   -5.0741   36.3276 C   0  0  0  0  0  0  0  0  0  0  0  0
    4.1537   -4.5631   35.9135 O   0  0  0  0  0  0  0  0  0  0  0  0
    6.0587   -3.2309   41.7720 C   0  0  0  0  0  0  0  0  0  0  0  0
    4.7211   -2.8278   41.4249 N   0  0  0  0  0  0  0  0  0  0  0  0
    4.4967   -1.2059   37.6096 C   0  0  1  0  0  0  0  0  0  0  0  0
    4.0814   -2.5139   37.2353 O   0  0  0  0  0  0  0  0  0  0  0  0
    0.3308   -4.9850   35.9279 C   0  0  0  0  0  0  0  0  0  0  0  0
    0.5427   -0.7483   34.8339 C   0  0  0  0  0  0  0  0  0  0  0  0
  1  2  1  6  0  0  0
  1  6  1  0  0  0  0
  1 21  1  0  0  0  0
  3  4  1  6  0  0  0
  3  8  1  0  0  0  0
  3 28  1  0  0  0  0
  5  9  1  0  0  0  0
  5 25  1  0  0  0  0
  5 29  1  1  0  0  0
  6  7  1  6  0  0  0
  6 11  1  0  0  0  0
  8 12  1  0  0  0  0
  9 10  1  1  0  0  0
  9 14  1  0  0  0  0
 11 16  1  0  0  0  0
 12 13  1  6  0  0  0
 12 17  1  0  0  0  0
 14 15  1  6  0  0  0
 14 18  1  0  0  0  0
 15 31  1  0  0  0  0
 16 20  1  0  0  0  0
 17  2  1  1  0  0  0
 17 22  1  0  0  0  0
 18 19  1  6  0  0  0
 18 24  1  0  0  0  0
 18 30  1  0  0  0  0
 20 21  1  0  0  0  0
 20 26  1  1  0  0  0
 22 23  1  6  0  0  0
 22 28  1  0  0  0  0
 24 25  1  0  0  0  0
 26 27  1  0  0  0  0
 28 29  1  1  0  0  0
M  END
>  <CHROM.1>
173.10057711,-76.70102832,-75.30491209,23.34470318,172.60184726,144.93824870
4.83128388,-1.72990632,38.15893527,0.37220777,-0.73273485,0.07338913

>  <Name>
2et3_lig

>  <RI>
0

>  <Rbt.Current_Directory>
/home/itssahil/PROJECTS/Mol_Feturizer/New_Systems/rnas/2et3

>  <Rbt.Executable>
rbdock ($Id: //depot/dev/client3/rdock/2013.1/src/exe/rbdock.cxx#4 $)

>  <Rbt.Library>
libRbt.so (2013.1, Build901 2013/11/27)

>  <Rbt.Parameter_File>
/export/apps/rDock/src/rDock_2013.1_src/data/scripts/dock_solv.prm

>  <Rbt.Receptor>
prm/blind_docking_60.prm

>  <SCORE>
-3.38046

>  <SCORE.INTER>
-3.089

>  <SCORE.INTER.CONST>
1

>  <SCORE.INTER.POLAR>
-0.943308

>  <SCORE.INTER.ROT>
6

>  <SCORE.INTER.SOLV>
17.7711

>  <SCORE.INTER.VDW>
-12.4387

>  <SCORE.INTER.norm>
-0.0996451

>  <SCORE.INTRA>
-2.09777

>  <SCORE.INTRA.DIHEDRAL>
-10.8432

>  <SCORE.INTRA.DIHEDRAL.0>
22.2484

>  <SCORE.INTRA.POLAR>
0

>  <SCORE.INTRA.POLAR.0>
0

>  <SCORE.INTRA.REPUL>
0

>  <SCORE.INTRA.REPUL.0>
0

>  <SCORE.INTRA.SOLV>
3.1448

>  <SCORE.INTRA.SOLV.lig_0>
-75.7198

>  <SCORE.INTRA.VDW>
1.75142

>  <SCORE.INTRA.VDW.0>
-3.34171

>  <SCORE.INTRA.norm>
-0.0676702

>  <SCORE.RESTR>
1.80632

>  <SCORE.RESTR.CAVITY>
1.80632

>  <SCORE.RESTR.norm>
0.0582683

>  <SCORE.SYSTEM>
0

>  <SCORE.SYSTEM.CONST>
0

>  <SCORE.SYSTEM.DIHEDRAL>
0

>  <SCORE.SYSTEM.SOLV>
0

>  <SCORE.SYSTEM.norm>
0

>  <SCORE.heavy>
31

>  <SCORE.norm>
-0.109047

>  <RMSD>
13.033

$$$$
2et3_lig
 OpenBabel11021811423D
libRbt.so/2013.1/901 2013/11/27
 31 33  0  0  0  0  0  0  0  0999 V2000
    0.5643    0.1226   37.1957 C   0  0  2  0  0  0  0  0  0  0  0  0
    0.5408   -1.2936   37.5121 O   0  0  0  0  0  0  0  0  0  0  0  0
    1.8565   -1.1493   41.5808 C   0  0  2  0  0  0  0  0  0  0  0  0
    2.1761   -1.5907   42.9031 N   0  0  0  0  0  0  0  0  0  0  0  0
    5.1895   -2.3475   40.1322 C   0  0  2  0  0  0  0  0  0  0  0  0
    0.0651    0.3420   35.7636 C   0  0  2  0  0  0  0  0  0  0  0  0
   -1.2405   -0.2299   35.6430 N   0  0  0  0  0  0  0  0  0  0  0  0
    0.3379   -1.3911   41.3025 C   0  0  0  0  0  0  0  0  0  0  0  0
    6.2636   -2.6426   41.2023 C   0  0  2  0  0  0  0  0  0  0  0  0
    5.6957   -3.4498   42.2095 O   0  0  0  0  0  0  0  0  0  0  0  0
    1.0707   -0.2767   34.7333 C   0  0  0  0  0  0  0  0  0  0  0  0
   -0.0209   -0.9165   39.8468 C   0  0  2  0  0  0  0  0  0  0  0  0
   -1.4502   -1.1426   39.5795 N   0  0  0  0  0  0  0  0  0  0  0  0
    6.7748   -1.2580   41.7755 C   0  0  1  0  0  0  0  0  0  0  0  0
    7.7919   -1.4551   42.8597 N   0  0  0  0  0  0  0  0  0  0  0  0
    2.4506    0.4282   34.9226 C   0  0  0  0  0  0  0  0  0  0  0  0
    0.8699   -1.6943   38.8037 C   0  0  2  0  0  0  0  0  0  0  0  0
    7.4022   -0.3565   40.5850 C   0  0  1  0  0  0  0  0  0  0  0  0
    8.5270   -0.9831   40.0041 O   0  0  0  0  0  0  0  0  0  0  0  0
    2.9302    0.2092   36.4248 C   0  0  2  0  0  0  0  0  0  0  0  0
    1.9364    0.6641   37.3958 O   0  0  0  0  0  0  0  0  0  0  0  0
    2.3944   -1.4323   39.1120 C   0  0  2  0  0  0  0  0  0  0  0  0
    3.2177   -2.1236   38.1781 O   0  0  0  0  0  0  0  0  0  0  0  0
    6.3314   -0.1736   39.4653 C   0  0  0  0  0  0  0  0  0  0  0  0
    5.7695   -1.5017   39.0492 O   0  0  0  0  0  0  0  0  0  0  0  0
    4.2704    0.8295   36.7423 C   0  0  0  0  0  0  0  0  0  0  0  0
    4.2442    2.2616   36.6005 N   0  0  0  0  0  0  0  0  0  0  0  0
    2.7327   -1.9102   40.5678 C   0  0  1  0  0  0  0  0  0  0  0  0
    4.1082   -1.6591   40.8289 O   0  0  0  0  0  0  0  0  0  0  0  0
    7.9329    1.0304   40.9729 C   0  0  0  0  0  0  0  0  0  0  0  0
    9.0116   -2.2013   42.5080 C   0  0  0  0  0  0  0  0  0  0  0  0
  1  2  1  6  0  0  0
  1  6  1  0  0  0  0
  1 21  1  0  0  0  0
  3  4  1  1  0  0  0
  3  8  1  0  0  0  0
  3 28  1  0  0  0  0
  5  9  1  0  0  0  0
  5 25  1  0  0  0  0
  5 29  1  1  0  0  0
  6  7  1  1  0  0  0
  6 11  1  0  0  0  0
  8 12  1  0  0  0  0
  9 10  1  1  0  0  0
  9 14  1  0  0  0  0
 11 16  1  0  0  0  0
 12 13  1  6  0  0  0
 12 17  1  0  0  0  0
 14 15  1  1  0  0  0
 14 18  1  0  0  0  0
 15 31  1  0  0  0  0
 16 20  1  0  0  0  0
 17  2  1  6  0  0  0
 17 22  1  0  0  0  0
 18 19  1  6  0  0  0
 18 24  1  0  0  0  0
 18 30  1  0  0  0  0
 20 21  1  0  0  0  0
 20 26  1  6  0  0  0
 22 23  1  6  0  0  0
 22 28  1  0  0  0  0
 24 25  1  0  0  0  0
 26 27  1  0  0  0  0
 28 29  1  1  0  0  0
M  END
>  <CHROM.1>
-175.55285105,-139.86045358,58.82208200,53.59187649,62.78960952,173.27910116
3.58946319,-0.89351564,39.24447870,-2.53892438,0.12922194,2.01423372

>  <Name>
2et3_lig

>  <RI>
1.07224e+07

>  <Rbt.Current_Directory>
/home/itssahil/PROJECTS/Mol_Feturizer/New_Systems/rnas/2et3

>  <Rbt.Executable>
rbdock ($Id: //depot/dev/client3/rdock/2013.1/src/exe/rbdock.cxx#4 $)

>  <Rbt.Library>
libRbt.so (2013.1, Build901 2013/11/27)

>  <Rbt.Parameter_File>
/export/apps/rDock/src/rDock_2013.1_src/data/scripts/dock_solv.prm

>  <Rbt.Receptor>
prm/blind_docking_80.prm

>  <SCORE>
-11.2323

>  <SCORE.INTER>
-6.25555

>  <SCORE.INTER.CONST>
1

>  <SCORE.INTER.POLAR>
0

>  <SCORE.INTER.ROT>
6

>  <SCORE.INTER.SOLV>
16.1424

>  <SCORE.INTER.VDW>
-17.1512

>  <SCORE.INTER.norm>
-0.201792

>  <SCORE.INTRA>
-6.49992

>  <SCORE.INTRA.DIHEDRAL>
-16.1057

>  <SCORE.INTRA.DIHEDRAL.0>
22.2484

>  <SCORE.INTRA.POLAR>
0

>  <SCORE.INTRA.POLAR.0>
0

>  <SCORE.INTRA.REPUL>
0

>  <SCORE.INTRA.REPUL.0>
0

>  <SCORE.INTRA.SOLV>
-1.06799

>  <SCORE.INTRA.SOLV.lig_0>
-75.7198

>  <SCORE.INTRA.VDW>
2.08694

>  <SCORE.INTRA.VDW.0>
-3.34171

>  <SCORE.INTRA.norm>
-0.209675

>  <SCORE.RESTR>
1.52313

>  <SCORE.RESTR.CAVITY>
1.52313

>  <SCORE.RESTR.norm>
0.0491332

>  <SCORE.SYSTEM>
0

>  <SCORE.SYSTEM.CONST>
0

>  <SCORE.SYSTEM.DIHEDRAL>
0

>  <SCORE.SYSTEM.SOLV>
0

>  <SCORE.SYSTEM.norm>
0

>  <SCORE.heavy>
31

>  <SCORE.norm>
-0.362334

>  <RMSD>
13.034

$$$$
2et3_lig
 OpenBabel11021811423D
libRbt.so/2013.1/901 2013/11/27
 31 33  0  0  0  0  0  0  0  0999 V2000
    1.4828   -2.0642   35.8193 C   0  0  2  0  0  0  0  0  0  0  0  0
    2.6879   -2.8273   36.0867 O   0  0  0  0  0  0  0  0  0  0  0  0
    6.6143   -2.0986   37.6225 C   0  0  2  0  0  0  0  0  0  0  0  0
    7.7487   -1.3821   38.1179 N   0  0  0  0  0  0  0  0  0  0  0  0
    5.7080   -1.4676   41.0501 C   0  0  2  0  0  0  0  0  0  0  0  0
    1.6343   -1.3021   34.4985 C   0  0  2  0  0  0  0  0  0  0  0  0
    1.9352   -2.2411   33.4621 N   0  0  0  0  0  0  0  0  0  0  0  0
    6.2864   -1.6185   36.1719 C   0  0  0  0  0  0  0  0  0  0  0  0
    6.8504   -0.4468   40.8532 C   0  0  2  0  0  0  0  0  0  0  0  0
    6.6136    0.2813   39.6690 O   0  0  0  0  0  0  0  0  0  0  0  0
    2.7407   -0.2000   34.6269 C   0  0  0  0  0  0  0  0  0  0  0  0
    5.0344   -2.3951   35.6221 C   0  0  2  0  0  0  0  0  0  0  0  0
    4.7210   -1.9461   34.2561 N   0  0  0  0  0  0  0  0  0  0  0  0
    8.2148   -1.2476   40.7895 C   0  0  1  0  0  0  0  0  0  0  0  0
    9.3779   -0.3314   40.5516 N   0  0  0  0  0  0  0  0  0  0  0  0
    2.3098    0.7873   35.7567 C   0  0  0  0  0  0  0  0  0  0  0  0
    3.8047   -2.1597   36.5808 C   0  0  2  0  0  0  0  0  0  0  0  0
    8.4386   -2.0823   42.1595 C   0  0  1  0  0  0  0  0  0  0  0  0
    8.5373   -1.2217   43.2753 O   0  0  0  0  0  0  0  0  0  0  0  0
    2.1317   -0.0351   37.1082 C   0  0  2  0  0  0  0  0  0  0  0  0
    1.1981   -1.1503   36.9595 O   0  0  0  0  0  0  0  0  0  0  0  0
    4.1671   -2.6514   38.0350 C   0  0  2  0  0  0  0  0  0  0  0  0
    3.0676   -2.4510   38.9173 O   0  0  0  0  0  0  0  0  0  0  0  0
    7.2134   -3.0196   42.3916 C   0  0  0  0  0  0  0  0  0  0  0  0
    5.9309   -2.2449   42.3034 O   0  0  0  0  0  0  0  0  0  0  0  0
    1.7301    0.8075   38.2959 C   0  0  0  0  0  0  0  0  0  0  0  0
    0.4954    1.5091   38.0612 N   0  0  0  0  0  0  0  0  0  0  0  0
    5.4185   -1.8672   38.5654 C   0  0  1  0  0  0  0  0  0  0  0  0
    5.7333   -2.3294   39.8733 O   0  0  0  0  0  0  0  0  0  0  0  0
    9.7154   -2.9288   42.2537 C   0  0  0  0  0  0  0  0  0  0  0  0
    9.2467    1.0566   41.0253 C   0  0  0  0  0  0  0  0  0  0  0  0
  1  2  1  1  0  0  0
  1  6  1  0  0  0  0
  1 21  1  0  0  0  0
  3  4  1  1  0  0  0
  3  8  1  0  0  0  0
  3 28  1  0  0  0  0
  5  9  1  0  0  0  0
  5 25  1  0  0  0  0
  5 29  1  6  0  0  0
  6  7  1  6  0  0  0
  6 11  1  0  0  0  0
  8 12  1  0  0  0  0
  9 10  1  6  0  0  0
  9 14  1  0  0  0  0
 11 16  1  0  0  0  0
 12 13  1  6  0  0  0
 12 17  1  0  0  0  0
 14 15  1  1  0  0  0
 14 18  1  0  0  0  0
 15 31  1  0  0  0  0
 16 20  1  0  0  0  0
 17  2  1  6  0  0  0
 17 22  1  0  0  0  0
 18 19  1  1  0  0  0
 18 24  1  0  0  0  0
 18 30  1  0  0  0  0
 20 21  1  0  0  0  0
 20 26  1  1  0  0  0
 22 23  1  1  0  0  0
 22 28  1  0  0  0  0
 24 25  1  0  0  0  0
 26 27  1  0  0  0  0
 28 29  1  1  0  0  0
M  END
>  <CHROM.1>
77.83858883,-66.73396036,27.74391565,-123.17566026,58.20865631,121.31928491
5.06572192,-1.33076419,38.46032499,2.41389028,0.32298880,-1.85854807

>  <Name>
2et3_lig

>  <RI>
0

>  <Rbt.Current_Directory>
/home/itssahil/PROJECTS/Mol_Feturizer/New_Systems/rnas/2et3

>  <Rbt.Executable>
rbdock ($Id: //depot/dev/client3/rdock/2013.1/src/exe/rbdock.cxx#4 $)

>  <Rbt.Library>
libRbt.so (2013.1, Build901 2013/11/27)

>  <Rbt.Parameter_File>
/export/apps/rDock/src/rDock_2013.1_src/data/scripts/dock_solv.prm

>  <Rbt.Receptor>
prm/blind_docking_100.prm

>  <SCORE>
11.3794

>  <SCORE.INTER>
0.586438

>  <SCORE.INTER.CONST>
1

>  <SCORE.INTER.POLAR>
-0.801582

>  <SCORE.INTER.ROT>
6

>  <SCORE.INTER.SOLV>
19.9874

>  <SCORE.INTER.VDW>
-11.1996

>  <SCORE.INTER.norm>
0.0189174

>  <SCORE.INTRA>
7.00064

>  <SCORE.INTRA.DIHEDRAL>
-5.41295

>  <SCORE.INTRA.DIHEDRAL.0>
22.2484

>  <SCORE.INTRA.POLAR>
0

>  <SCORE.INTRA.POLAR.0>
0

>  <SCORE.INTRA.REPUL>
0

>  <SCORE.INTRA.REPUL.0>
0

>  <SCORE.INTRA.SOLV>
7.64548

>  <SCORE.INTRA.SOLV.lig_0>
-75.7198

>  <SCORE.INTRA.VDW>
5.88438

>  <SCORE.INTRA.VDW.0>
-3.34171

>  <SCORE.INTRA.norm>
0.225827

>  <SCORE.RESTR>
3.79237

>  <SCORE.RESTR.CAVITY>
3.79237

>  <SCORE.RESTR.norm>
0.122334

>  <SCORE.SYSTEM>
0

>  <SCORE.SYSTEM.CONST>
0

>  <SCORE.SYSTEM.DIHEDRAL>
0

>  <SCORE.SYSTEM.SOLV>
0

>  <SCORE.SYSTEM.norm>
0

>  <SCORE.heavy>
31

>  <SCORE.norm>
0.367079

>  <RMSD>
13.044

$$$$
2et3_lig
 OpenBabel11021811423D
libRbt.so/2013.1/901 2013/11/27
 31 33  0  0  0  0  0  0  0  0999 V2000
    5.9239   -1.9810   40.4716 C   0  0  2  0  0  0  0  0  0  0  0  0
    5.0288   -0.8473   40.6114 O   0  0  0  0  0  0  0  0  0  0  0  0
    2.3049    1.2713   38.0819 C   0  0  2  0  0  0  0  0  0  0  0  0
    1.7156    1.7987   36.8902 N   0  0  0  0  0  0  0  0  0  0  0  0
    0.4995   -1.4844   36.7169 C   0  0  2  0  0  0  0  0  0  0  0  0
    5.9567   -2.7798   41.7790 C   0  0  2  0  0  0  0  0  0  0  0  0
    4.6203   -3.1681   42.1098 N   0  0  0  0  0  0  0  0  0  0  0  0
    3.7563    1.8292   38.2376 C   0  0  0  0  0  0  0  0  0  0  0  0
    1.2656   -2.8256   36.7149 C   0  0  2  0  0  0  0  0  0  0  0  0
    0.9844   -3.5144   37.9127 O   0  0  0  0  0  0  0  0  0  0  0  0
    6.6181   -1.9338   42.9201 C   0  0  0  0  0  0  0  0  0  0  0  0
    4.4155    1.2474   39.5415 C   0  0  2  0  0  0  0  0  0  0  0  0
    5.7831    1.7695   39.6925 N   0  0  0  0  0  0  0  0  0  0  0  0
    2.8093   -2.5056   36.5678 C   0  0  1  0  0  0  0  0  0  0  0  0
    3.6348   -3.7571   36.6041 N   0  0  0  0  0  0  0  0  0  0  0  0
    8.0749   -1.5856   42.4805 C   0  0  0  0  0  0  0  0  0  0  0  0
    4.4264   -0.3278   39.4693 C   0  0  2  0  0  0  0  0  0  0  0  0
    3.0855   -1.6999   35.1900 C   0  0  1  0  0  0  0  0  0  0  0  0
    2.7334   -2.4745   34.0624 O   0  0  0  0  0  0  0  0  0  0  0  0
    8.0121   -0.7830   41.1069 C   0  0  2  0  0  0  0  0  0  0  0  0
    7.2789   -1.5109   40.0726 O   0  0  0  0  0  0  0  0  0  0  0  0
    2.9498   -0.8593   39.3103 C   0  0  2  0  0  0  0  0  0  0  0  0
    2.9363   -2.2818   39.2468 O   0  0  0  0  0  0  0  0  0  0  0  0
    2.2096   -0.4092   35.1697 C   0  0  0  0  0  0  0  0  0  0  0  0
    0.7735   -0.7401   35.4537 O   0  0  0  0  0  0  0  0  0  0  0  0
    9.3619   -0.3653   40.5729 C   0  0  0  0  0  0  0  0  0  0  0  0
   10.2425   -1.4914   40.4045 N   0  0  0  0  0  0  0  0  0  0  0  0
    2.3087   -0.2672   38.0063 C   0  0  1  0  0  0  0  0  0  0  0  0
    0.9769   -0.7519   37.8848 O   0  0  0  0  0  0  0  0  0  0  0  0
    4.5386   -1.2988   34.9019 C   0  0  0  0  0  0  0  0  0  0  0  0
    3.1440   -4.9075   35.8270 C   0  0  0  0  0  0  0  0  0  0  0  0
  1  2  1  1  0  0  0
  1  6  1  0  0  0  0
  1 21  1  0  0  0  0
  3  4  1  6  0  0  0
  3  8  1  0  0  0  0
  3 28  1  0  0  0  0
  5  9  1  0  0  0  0
  5 25  1  0  0  0  0
  5 29  1  1  0  0  0
  6  7  1  1  0  0  0
  6 11  1  0  0  0  0
  8 12  1  0  0  0  0
  9 10  1  1  0  0  0
  9 14  1  0  0  0  0
 11 16  1  0  0  0  0
 12 13  1  6  0  0  0
 12 17  1  0  0  0  0
 14 15  1  6  0  0  0
 14 18  1  0  0  0  0
 15 31  1  0  0  0  0
 16 20  1  0  0  0  0
 17  2  1  1  0  0  0
 17 22  1  0  0  0  0
 18 19  1  6  0  0  0
 18 24  1  0  0  0  0
 18 30  1  0  0  0  0
 20 21  1  0  0  0  0
 20 26  1  6  0  0  0
 22 23  1  6  0  0  0
 22 28  1  0  0  0  0
 24 25  1  0  0  0  0
 26 27  1  0  0  0  0
 28 29  1  1  0  0  0
M  END
>  <CHROM.1>
-153.91272245,66.72269927,43.53843804,-139.37831750,56.32380269,116.65486115
4.11767281,-1.27371019,38.48804427,-0.16374252,0.73099603,-2.96486759

>  <Name>
2et3_lig

>  <RI>
0

>  <Rbt.Current_Directory>
/home/itssahil/PROJECTS/Mol_Feturizer/New_Systems/rnas/2et3

>  <Rbt.Executable>
rbdock ($Id: //depot/dev/client3/rdock/2013.1/src/exe/rbdock.cxx#4 $)

>  <Rbt.Library>
libRbt.so (2013.1, Build901 2013/11/27)

>  <Rbt.Parameter_File>
/export/apps/rDock/src/rDock_2013.1_src/data/scripts/dock_solv.prm

>  <Rbt.Receptor>
prm/blind_docking_100.prm

>  <SCORE>
-5.83208

>  <SCORE.INTER>
-10.2868

>  <SCORE.INTER.CONST>
1

>  <SCORE.INTER.POLAR>
0

>  <SCORE.INTER.ROT>
6

>  <SCORE.INTER.SOLV>
16.2887

>  <SCORE.INTER.VDW>
-19.8875

>  <SCORE.INTER.norm>
-0.331833

>  <SCORE.INTRA>
2.7884

>  <SCORE.INTRA.DIHEDRAL>
-6.14209

>  <SCORE.INTRA.DIHEDRAL.0>
22.2484

>  <SCORE.INTRA.POLAR>
0

>  <SCORE.INTRA.POLAR.0>
0

>  <SCORE.INTRA.REPUL>
0

>  <SCORE.INTRA.REPUL.0>
0

>  <SCORE.INTRA.SOLV>
3.2657

>  <SCORE.INTRA.SOLV.lig_0>
-75.7198

>  <SCORE.INTRA.VDW>
4.2266

>  <SCORE.INTRA.VDW.0>
-3.34171

>  <SCORE.INTRA.norm>
0.0899484

>  <SCORE.RESTR>
1.66634

>  <SCORE.RESTR.CAVITY>
1.66634

>  <SCORE.RESTR.norm>
0.0537529

>  <SCORE.SYSTEM>
0

>  <SCORE.SYSTEM.CONST>
0

>  <SCORE.SYSTEM.DIHEDRAL>
0

>  <SCORE.SYSTEM.SOLV>
0

>  <SCORE.SYSTEM.norm>
0

>  <SCORE.heavy>
31

>  <SCORE.norm>
-0.188132

>  <RMSD>
13.047

$$$$
2et3_lig
 OpenBabel11021811423D
libRbt.so/2013.1/901 2013/11/27
 31 33  0  0  0  0  0  0  0  0999 V2000
   -1.9088   -1.6543   41.1707 C   0  0  2  0  0  0  0  0  0  0  0  0
   -0.7442   -0.8169   40.9501 O   0  0  0  0  0  0  0  0  0  0  0  0
    3.5113   -1.2602   40.9498 C   0  0  2  0  0  0  0  0  0  0  0  0
    4.7941   -1.8882   41.0267 N   0  0  0  0  0  0  0  0  0  0  0  0
    4.3052   -2.6360   37.9462 C   0  0  2  0  0  0  0  0  0  0  0  0
   -2.3745   -2.2552   39.8401 C   0  0  2  0  0  0  0  0  0  0  0  0
   -1.2822   -2.9702   39.2554 N   0  0  0  0  0  0  0  0  0  0  0  0
    2.7457   -1.4704   42.2958 C   0  0  0  0  0  0  0  0  0  0  0  0
    4.5850   -2.1398   36.5105 C   0  0  2  0  0  0  0  0  0  0  0  0
    5.2068   -0.8759   36.5769 O   0  0  0  0  0  0  0  0  0  0  0  0
   -2.9110   -1.1304   38.8902 C   0  0  0  0  0  0  0  0  0  0  0  0
    1.3299   -0.7903   42.2173 C   0  0  2  0  0  0  0  0  0  0  0  0
    0.6045   -0.9859   43.4826 N   0  0  0  0  0  0  0  0  0  0  0  0
    3.2044   -2.0773   35.7379 C   0  0  1  0  0  0  0  0  0  0  0  0
    3.3799   -1.5576   34.3422 N   0  0  0  0  0  0  0  0  0  0  0  0
   -4.1127   -0.4314   39.6002 C   0  0  0  0  0  0  0  0  0  0  0  0
    0.5181   -1.4000   41.0107 C   0  0  2  0  0  0  0  0  0  0  0  0
    2.5168   -3.5434   35.7004 C   0  0  1  0  0  0  0  0  0  0  0  0
    3.3203   -4.4700   34.9995 O   0  0  0  0  0  0  0  0  0  0  0  0
   -3.6077    0.1570   40.9907 C   0  0  2  0  0  0  0  0  0  0  0  0
   -2.9839   -0.8640   41.8308 O   0  0  0  0  0  0  0  0  0  0  0  0
    1.3165   -1.1742   39.6693 C   0  0  2  0  0  0  0  0  0  0  0  0
    0.5984   -1.7148   38.5648 O   0  0  0  0  0  0  0  0  0  0  0  0
    2.3539   -4.0678   37.1606 C   0  0  0  0  0  0  0  0  0  0  0  0
    3.6553   -3.9778   37.9030 O   0  0  0  0  0  0  0  0  0  0  0  0
   -4.6738    0.8805   41.7793 C   0  0  0  0  0  0  0  0  0  0  0  0
   -4.8689    2.2258   41.3060 N   0  0  0  0  0  0  0  0  0  0  0  0
    2.7256   -1.8576   39.7673 C   0  0  1  0  0  0  0  0  0  0  0  0
    3.4319   -1.6369   38.5525 O   0  0  0  0  0  0  0  0  0  0  0  0
    1.1574   -3.6528   34.9965 C   0  0  0  0  0  0  0  0  0  0  0  0
    3.5975   -0.1095   34.1877 C   0  0  0  0  0  0  0  0  0  0  0  0
  1  2  1  6  0  0  0
  1  6  1  0  0  0  0
  1 21  1  0  0  0  0
  3  4  1  1  0  0  0
  3  8  1  0  0  0  0
  3 28  1  0  0  0  0
  5  9  1  0  0  0  0
  5 25  1  0  0  0  0
  5 29  1  6  0  0  0
  6  7  1  6  0  0  0
  6 11  1  0  0  0  0
  8 12  1  0  0  0  0
  9 10  1  1  0  0  0
  9 14  1  0  0  0  0
 11 16  1  0  0  0  0
 12 13  1  1  0  0  0
 12 17  1  0  0  0  0
 14 15  1  6  0  0  0
 14 18  1  0  0  0  0
 15 31  1  0  0  0  0
 16 20  1  0  0  0  0
 17  2  1  6  0  0  0
 17 22  1  0  0  0  0
 18 19  1  6  0  0  0
 18 24  1  0  0  0  0
 18 30  1  0  0  0  0
 20 21  1  0  0  0  0
 20 26  1  1  0  0  0
 22 23  1  6  0  0  0
 22 28  1  0  0  0  0
 24 25  1  0  0  0  0
 26 27  1  0  0  0  0
 28 29  1  6  0  0  0
M  END
>  <CHROM.1>
-89.09420662,166.59455186,-75.63405643,-115.67383684,-80.70622935,96.74899258
0.96660551,-1.62537904,38.96944526,2.47481710,-0.18159012,1.37129408

>  <Name>
2et3_lig

>  <RI>
0

>  <Rbt.Current_Directory>
/home/itssahil/PROJECTS/Mol_Feturizer/New_Systems/rnas/2et3

>  <Rbt.Executable>
rbdock ($Id: //depot/dev/client3/rdock/2013.1/src/exe/rbdock.cxx#4 $)

>  <Rbt.Library>
libRbt.so (2013.1, Build901 2013/11/27)

>  <Rbt.Parameter_File>
/export/apps/rDock/src/rDock_2013.1_src/data/scripts/dock_solv.prm

>  <Rbt.Receptor>
prm/blind_docking_60.prm

>  <SCORE>
-3.26901

>  <SCORE.INTER>
-4.98415

>  <SCORE.INTER.CONST>
1

>  <SCORE.INTER.POLAR>
-0.440375

>  <SCORE.INTER.ROT>
6

>  <SCORE.INTER.SOLV>
14.9238

>  <SCORE.INTER.VDW>
-14.4295

>  <SCORE.INTER.norm>
-0.160779

>  <SCORE.INTRA>
-1.057

>  <SCORE.INTRA.DIHEDRAL>
-4.4033

>  <SCORE.INTRA.DIHEDRAL.0>
22.2484

>  <SCORE.INTRA.POLAR>
0

>  <SCORE.INTRA.POLAR.0>
0

>  <SCORE.INTRA.REPUL>
0

>  <SCORE.INTRA.REPUL.0>
0

>  <SCORE.INTRA.SOLV>
0.148564

>  <SCORE.INTRA.SOLV.lig_0>
-75.7198

>  <SCORE.INTRA.VDW>
1.07037

>  <SCORE.INTRA.VDW.0>
-3.34171

>  <SCORE.INTRA.norm>
-0.0340968

>  <SCORE.RESTR>
2.77215

>  <SCORE.RESTR.CAVITY>
2.77215

>  <SCORE.RESTR.norm>
0.0894241

>  <SCORE.SYSTEM>
0

>  <SCORE.SYSTEM.CONST>
0

>  <SCORE.SYSTEM.DIHEDRAL>
0

>  <SCORE.SYSTEM.SOLV>
0

>  <SCORE.SYSTEM.norm>
0

>  <SCORE.heavy>
31

>  <SCORE.norm>
-0.105452

>  <RMSD>
13.052

$$$$
2et3_lig
 OpenBabel11021811423D
libRbt.so/2013.1/901 2013/11/27
 31 33  0  0  0  0  0  0  0  0999 V2000
    1.3090   -3.2065   36.9570 C   0  0  2  0  0  0  0  0  0  0  0  0
    2.0558   -1.9983   36.6591 O   0  0  0  0  0  0  0  0  0  0  0  0
    3.9862    1.1415   38.8320 C   0  0  2  0  0  0  0  0  0  0  0  0
    4.4241    1.9325   39.9402 N   0  0  0  0  0  0  0  0  0  0  0  0
    6.8035   -1.4442   38.9671 C   0  0  2  0  0  0  0  0  0  0  0  0
    2.2289   -4.2321   37.6279 C   0  0  2  0  0  0  0  0  0  0  0  0
    2.8034   -3.6355   38.7942 N   0  0  0  0  0  0  0  0  0  0  0  0
    2.4242    1.1243   38.7878 C   0  0  0  0  0  0  0  0  0  0  0  0
    7.1527   -1.7488   40.4406 C   0  0  2  0  0  0  0  0  0  0  0  0
    5.9578   -1.9571   41.1598 O   0  0  0  0  0  0  0  0  0  0  0  0
    3.3262   -4.7225   36.6224 C   0  0  0  0  0  0  0  0  0  0  0  0
    1.9334    0.2492   37.5768 C   0  0  2  0  0  0  0  0  0  0  0  0
    0.4626    0.2294   37.5311 N   0  0  0  0  0  0  0  0  0  0  0  0
    7.9770   -0.5229   41.0103 C   0  0  1  0  0  0  0  0  0  0  0  0
    8.3184   -0.7165   42.4576 N   0  0  0  0  0  0  0  0  0  0  0  0
    2.6054   -5.3807   35.4044 C   0  0  0  0  0  0  0  0  0  0  0  0
    2.5053   -1.2136   37.7171 C   0  0  2  0  0  0  0  0  0  0  0  0
    9.3301   -0.3079   40.1462 C   0  0  1  0  0  0  0  0  0  0  0  0
   10.1810   -1.4320   40.2358 O   0  0  0  0  0  0  0  0  0  0  0  0
    1.6359   -4.3032   34.7457 C   0  0  2  0  0  0  0  0  0  0  0  0
    0.6932   -3.7419   35.7119 O   0  0  0  0  0  0  0  0  0  0  0  0
    4.0811   -1.1625   37.7611 C   0  0  2  0  0  0  0  0  0  0  0  0
    4.6191   -2.4753   37.8840 O   0  0  0  0  0  0  0  0  0  0  0  0
    8.9518   -0.1192   38.6446 C   0  0  0  0  0  0  0  0  0  0  0  0
    8.0535   -1.2291   38.1822 O   0  0  0  0  0  0  0  0  0  0  0  0
    0.8834   -4.8063   33.5364 C   0  0  0  0  0  0  0  0  0  0  0  0
   -0.1015   -3.8580   33.0864 N   0  0  0  0  0  0  0  0  0  0  0  0
    4.5514   -0.2844   38.9735 C   0  0  1  0  0  0  0  0  0  0  0  0
    5.9732   -0.2449   38.9917 O   0  0  0  0  0  0  0  0  0  0  0  0
   10.2397    0.8562   40.5622 C   0  0  0  0  0  0  0  0  0  0  0  0
    7.2057   -1.0115   43.3759 C   0  0  0  0  0  0  0  0  0  0  0  0
  1  2  1  6  0  0  0
  1  6  1  0  0  0  0
  1 21  1  0  0  0  0
  3  4  1  1  0  0  0
  3  8  1  0  0  0  0
  3 28  1  0  0  0  0
  5  9  1  0  0  0  0
  5 25  1  0  0  0  0
  5 29  1  1  0  0  0
  6  7  1  1  0  0  0
  6 11  1  0  0  0  0
  8 12  1  0  0  0  0
  9 10  1  1  0  0  0
  9 14  1  0  0  0  0
 11 16  1  0  0  0  0
 12 13  1  1  0  0  0
 12 17  1  0  0  0  0
 14 15  1  1  0  0  0
 14 18  1  0  0  0  0
 15 31  1  0  0  0  0
 16 20  1  0  0  0  0
 17  2  1  6  0  0  0
 17 22  1  0  0  0  0
 18 19  1  1  0  0  0
 18 24  1  0  0  0  0
 18 30  1  0  0  0  0
 20 21  1  0  0  0  0
 20 26  1  6  0  0  0
 22 23  1  1  0  0  0
 22 28  1  0  0  0  0
 24 25  1  0  0  0  0
 26 27  1  0  0  0  0
 28 29  1  6  0  0  0
M  END
>  <CHROM.1>
-67.84223108,-95.88879937,-53.66724263,-122.33755381,172.48180556,-173.03014888
4.63550044,-1.62944027,38.34604839,2.52979261,0.37434583,-2.58815511

>  <Name>
2et3_lig

>  <RI>
0

>  <Rbt.Current_Directory>
/home/itssahil/PROJECTS/Mol_Feturizer/New_Systems/rnas/2et3

>  <Rbt.Executable>
rbdock ($Id: //depot/dev/client3/rdock/2013.1/src/exe/rbdock.cxx#4 $)

>  <Rbt.Library>
libRbt.so (2013.1, Build901 2013/11/27)

>  <Rbt.Parameter_File>
/export/apps/rDock/src/rDock_2013.1_src/data/scripts/dock_solv.prm

>  <Rbt.Receptor>
prm/blind_docking_60.prm

>  <SCORE>
-2.13845

>  <SCORE.INTER>
-7.91793

>  <SCORE.INTER.CONST>
1

>  <SCORE.INTER.POLAR>
0

>  <SCORE.INTER.ROT>
6

>  <SCORE.INTER.SOLV>
16.0627

>  <SCORE.INTER.VDW>
-18.2329

>  <SCORE.INTER.norm>
-0.255417

>  <SCORE.INTRA>
1.40572

>  <SCORE.INTRA.DIHEDRAL>
-9.48521

>  <SCORE.INTRA.DIHEDRAL.0>
22.2484

>  <SCORE.INTRA.POLAR>
0

>  <SCORE.INTRA.POLAR.0>
0

>  <SCORE.INTRA.REPUL>
0

>  <SCORE.INTRA.REPUL.0>
0

>  <SCORE.INTRA.SOLV>
0.313302

>  <SCORE.INTRA.SOLV.lig_0>
-75.7198

>  <SCORE.INTRA.VDW>
5.99168

>  <SCORE.INTRA.VDW.0>
-3.34171

>  <SCORE.INTRA.norm>
0.0453459

>  <SCORE.RESTR>
4.37376

>  <SCORE.RESTR.CAVITY>
4.37376

>  <SCORE.RESTR.norm>
0.141089

>  <SCORE.SYSTEM>
0

>  <SCORE.SYSTEM.CONST>
0

>  <SCORE.SYSTEM.DIHEDRAL>
0

>  <SCORE.SYSTEM.SOLV>
0

>  <SCORE.SYSTEM.norm>
0

>  <SCORE.heavy>
31

>  <SCORE.norm>
-0.0689821

>  <RMSD>
13.054

$$$$
2et3_lig
 OpenBabel11021811423D
libRbt.so/2013.1/901 2013/11/27
 31 33  0  0  0  0  0  0  0  0999 V2000
    0.2504   -0.9844   41.4748 C   0  0  2  0  0  0  0  0  0  0  0  0
    1.0661   -1.9478   40.7589 O   0  0  0  0  0  0  0  0  0  0  0  0
    3.8086    0.7094   38.8291 C   0  0  2  0  0  0  0  0  0  0  0  0
    4.8629    1.1589   37.9735 N   0  0  0  0  0  0  0  0  0  0  0  0
    2.4142    0.9637   35.6161 C   0  0  2  0  0  0  0  0  0  0  0  0
    0.0805   -1.4297   42.9312 C   0  0  2  0  0  0  0  0  0  0  0  0
    1.3773   -1.5957   43.5116 N   0  0  0  0  0  0  0  0  0  0  0  0
    4.3759   -0.3180   39.8610 C   0  0  0  0  0  0  0  0  0  0  0  0
    1.6131   -0.2590   35.1173 C   0  0  2  0  0  0  0  0  0  0  0  0
    0.2489   -0.0648   35.4169 O   0  0  0  0  0  0  0  0  0  0  0  0
   -0.7650   -2.7469   43.0050 C   0  0  0  0  0  0  0  0  0  0  0  0
    3.2213   -0.8245   40.8008 C   0  0  2  0  0  0  0  0  0  0  0  0
    3.7504   -1.7929   41.7744 N   0  0  0  0  0  0  0  0  0  0  0  0
    2.1950   -1.5476   35.8298 C   0  0  1  0  0  0  0  0  0  0  0  0
    1.4391   -2.7812   35.4353 N   0  0  0  0  0  0  0  0  0  0  0  0
   -2.1647   -2.4580   42.3773 C   0  0  0  0  0  0  0  0  0  0  0  0
    2.0807   -1.4781   39.9299 C   0  0  2  0  0  0  0  0  0  0  0  0
    3.7655   -1.7231   35.4742 C   0  0  1  0  0  0  0  0  0  0  0  0
    3.9600   -1.9161   34.0884 O   0  0  0  0  0  0  0  0  0  0  0  0
   -1.9564   -1.9699   40.8763 C   0  0  2  0  0  0  0  0  0  0  0  0
   -1.0596   -0.8188   40.7872 O   0  0  0  0  0  0  0  0  0  0  0  0
    1.5311   -0.4188   38.8986 C   0  0  2  0  0  0  0  0  0  0  0  0
    0.4961   -0.9880   38.1033 O   0  0  0  0  0  0  0  0  0  0  0  0
    4.5291   -0.4257   35.8831 C   0  0  0  0  0  0  0  0  0  0  0  0
    3.8614    0.7863   35.3017 O   0  0  0  0  0  0  0  0  0  0  0  0
   -3.2409   -1.6701   40.1401 C   0  0  0  0  0  0  0  0  0  0  0  0
   -2.9984   -0.9815   38.8996 N   0  0  0  0  0  0  0  0  0  0  0  0
    2.6967    0.0758   37.9718 C   0  0  1  0  0  0  0  0  0  0  0  0
    2.1831    1.0344   37.0549 O   0  0  0  0  0  0  0  0  0  0  0  0
    4.4876   -2.9233   36.1016 C   0  0  0  0  0  0  0  0  0  0  0  0
    1.2823   -3.8282   36.4587 C   0  0  0  0  0  0  0  0  0  0  0  0
  1  2  1  6  0  0  0
  1  6  1  0  0  0  0
  1 21  1  0  0  0  0
  3  4  1  6  0  0  0
  3  8  1  0  0  0  0
  3 28  1  0  0  0  0
  5  9  1  0  0  0  0
  5 25  1  0  0  0  0
  5 29  1  1  0  0  0
  6  7  1  6  0  0  0
  6 11  1  0  0  0  0
  8 12  1  0  0  0  0
  9 10  1  1  0  0  0
  9 14  1  0  0  0  0
 11 16  1  0  0  0  0
 12 13  1  1  0  0  0
 12 17  1  0  0  0  0
 14 15  1  6  0  0  0
 14 18  1  0  0  0  0
 15 31  1  0  0  0  0
 16 20  1  0  0  0  0
 17  2  1  1  0  0  0
 17 22  1  0  0  0  0
 18 19  1  6  0  0  0
 18 24  1  0  0  0  0
 18 30  1  0  0  0  0
 20 21  1  0  0  0  0
 20 26  1  1  0  0  0
 22 23  1  6  0  0  0
 22 28  1  0  0  0  0
 24 25  1  0  0  0  0
 26 27  1  0  0  0  0
 28 29  1  6  0  0  0
M  END
>  <CHROM.1>
-134.88289416,69.05813199,-145.85923423,68.46020318,168.19153568,109.87731153
1.58648580,-1.07187325,38.55848884,-2.16954627,-0.21441374,-1.54564557

>  <Name>
2et3_lig

>  <RI>
0

>  <Rbt.Current_Directory>
/home/itssahil/PROJECTS/Mol_Feturizer/New_Systems/rnas/2et3

>  <Rbt.Executable>
rbdock ($Id: //depot/dev/client3/rdock/2013.1/src/exe/rbdock.cxx#4 $)

>  <Rbt.Library>
libRbt.so (2013.1, Build901 2013/11/27)

>  <Rbt.Parameter_File>
/export/apps/rDock/src/rDock_2013.1_src/data/scripts/dock_solv.prm

>  <Rbt.Receptor>
prm/blind_docking_60.prm

>  <SCORE>
-2.75333

>  <SCORE.INTER>
-5.54424

>  <SCORE.INTER.CONST>
1

>  <SCORE.INTER.POLAR>
-0.161477

>  <SCORE.INTER.ROT>
6

>  <SCORE.INTER.SOLV>
11.9356

>  <SCORE.INTER.VDW>
-14.7364

>  <SCORE.INTER.norm>
-0.178846

>  <SCORE.INTRA>
2.17396

>  <SCORE.INTRA.DIHEDRAL>
-7.37159

>  <SCORE.INTRA.DIHEDRAL.0>
22.2484

>  <SCORE.INTRA.POLAR>
0

>  <SCORE.INTRA.POLAR.0>
0

>  <SCORE.INTRA.REPUL>
0

>  <SCORE.INTRA.REPUL.0>
0

>  <SCORE.INTRA.SOLV>
4.66111

>  <SCORE.INTRA.SOLV.lig_0>
-75.7198

>  <SCORE.INTRA.VDW>
3.5292

>  <SCORE.INTRA.VDW.0>
-3.34171

>  <SCORE.INTRA.norm>
0.0701276

>  <SCORE.RESTR>
0.616951

>  <SCORE.RESTR.CAVITY>
0.616951

>  <SCORE.RESTR.norm>
0.0199017

>  <SCORE.SYSTEM>
0

>  <SCORE.SYSTEM.CONST>
0

>  <SCORE.SYSTEM.DIHEDRAL>
0

>  <SCORE.SYSTEM.SOLV>
0

>  <SCORE.SYSTEM.norm>
0

>  <SCORE.heavy>
31

>  <SCORE.norm>
-0.0888171

>  <RMSD>
13.057

$$$$
2et3_lig
 OpenBabel11021811423D
libRbt.so/2013.1/901 2013/11/27
 31 33  0  0  0  0  0  0  0  0999 V2000
    6.0299   -2.0886   40.8857 C   0  0  2  0  0  0  0  0  0  0  0  0
    5.6839   -0.7015   40.6359 O   0  0  0  0  0  0  0  0  0  0  0  0
    2.2551    1.0435   38.7638 C   0  0  2  0  0  0  0  0  0  0  0  0
    1.2658    1.3194   37.7684 N   0  0  0  0  0  0  0  0  0  0  0  0
    0.5552   -2.0604   40.2223 C   0  0  2  0  0  0  0  0  0  0  0  0
    5.8557   -2.4061   42.3748 C   0  0  2  0  0  0  0  0  0  0  0  0
    4.5118   -2.0947   42.7533 N   0  0  0  0  0  0  0  0  0  0  0  0
    3.6690    1.4153   38.2117 C   0  0  0  0  0  0  0  0  0  0  0  0
   -0.7796   -2.4683   39.5608 C   0  0  2  0  0  0  0  0  0  0  0  0
   -0.5971   -2.5308   38.1639 O   0  0  0  0  0  0  0  0  0  0  0  0
    6.9017   -1.6116   43.2292 C   0  0  0  0  0  0  0  0  0  0  0  0
    4.7646    1.1069   39.2969 C   0  0  2  0  0  0  0  0  0  0  0  0
    6.0983    1.4550   38.7815 N   0  0  0  0  0  0  0  0  0  0  0  0
   -1.8722   -1.3959   39.9647 C   0  0  1  0  0  0  0  0  0  0  0  0
   -3.1949   -1.6920   39.3230 N   0  0  0  0  0  0  0  0  0  0  0  0
    8.3293   -2.0390   42.7643 C   0  0  0  0  0  0  0  0  0  0  0  0
    4.7015   -0.4185   39.6915 C   0  0  2  0  0  0  0  0  0  0  0  0
   -2.0374   -1.3440   41.5752 C   0  0  1  0  0  0  0  0  0  0  0  0
   -2.4903   -2.5810   42.0854 O   0  0  0  0  0  0  0  0  0  0  0  0
    8.4717   -1.7254   41.2100 C   0  0  2  0  0  0  0  0  0  0  0  0
    7.4175   -2.3571   40.4182 O   0  0  0  0  0  0  0  0  0  0  0  0
    3.2640   -0.7625   40.2420 C   0  0  2  0  0  0  0  0  0  0  0  0
    3.1862   -2.1364   40.6082 O   0  0  0  0  0  0  0  0  0  0  0  0
   -0.6491   -1.0455   42.2209 C   0  0  0  0  0  0  0  0  0  0  0  0
    0.3902   -1.9967   41.7034 O   0  0  0  0  0  0  0  0  0  0  0  0
    9.8214   -2.0768   40.6297 C   0  0  0  0  0  0  0  0  0  0  0  0
   10.0013   -1.5166   39.3161 N   0  0  0  0  0  0  0  0  0  0  0  0
    2.1852   -0.4468   39.1471 C   0  0  1  0  0  0  0  0  0  0  0  0
    0.8970   -0.7564   39.6646 O   0  0  0  0  0  0  0  0  0  0  0  0
   -3.0534   -0.3390   42.1349 C   0  0  0  0  0  0  0  0  0  0  0  0
   -4.0423   -0.5406   38.9701 C   0  0  0  0  0  0  0  0  0  0  0  0
  1  2  1  1  0  0  0
  1  6  1  0  0  0  0
  1 21  1  0  0  0  0
  3  4  1  6  0  0  0
  3  8  1  0  0  0  0
  3 28  1  0  0  0  0
  5  9  1  0  0  0  0
  5 25  1  0  0  0  0
  5 29  1  6  0  0  0
  6  7  1  1  0  0  0
  6 11  1  0  0  0  0
  8 12  1  0  0  0  0
  9 10  1  6  0  0  0
  9 14  1  0  0  0  0
 11 16  1  0  0  0  0
 12 13  1  6  0  0  0
 12 17  1  0  0  0  0
 14 15  1  6  0  0  0
 14 18  1  0  0  0  0
 15 31  1  0  0  0  0
 16 20  1  0  0  0  0
 17  2  1  1  0  0  0
 17 22  1  0  0  0  0
 18 19  1  1  0  0  0
 18 24  1  0  0  0  0
 18 30  1  0  0  0  0
 20 21  1  0  0  0  0
 20 26  1  6  0  0  0
 22 23  1  6  0  0  0
 22 28  1  0  0  0  0
 24 25  1  0  0  0  0
 26 27  1  0  0  0  0
 28 29  1  1  0  0  0
M  END
>  <CHROM.1>
-123.76857152,-131.54840860,-147.52579875,-164.53723754,-167.43179210,-174.55122806
2.78282146,-1.14344093,40.40198870,0.05721436,0.02527094,2.20218472

>  <Name>
2et3_lig

>  <RI>
1.07224e+07

>  <Rbt.Current_Directory>
/home/itssahil/PROJECTS/Mol_Feturizer/New_Systems/rnas/2et3

>  <Rbt.Executable>
rbdock ($Id: //depot/dev/client3/rdock/2013.1/src/exe/rbdock.cxx#4 $)

>  <Rbt.Library>
libRbt.so (2013.1, Build901 2013/11/27)

>  <Rbt.Parameter_File>
/export/apps/rDock/src/rDock_2013.1_src/data/scripts/dock_solv.prm

>  <Rbt.Receptor>
prm/blind_docking_80.prm

>  <SCORE>
-7.33278

>  <SCORE.INTER>
-7.88238

>  <SCORE.INTER.CONST>
1

>  <SCORE.INTER.POLAR>
0

>  <SCORE.INTER.ROT>
6

>  <SCORE.INTER.SOLV>
14.2712

>  <SCORE.INTER.VDW>
-17.612

>  <SCORE.INTER.norm>
-0.25427

>  <SCORE.INTRA>
-1.78406

>  <SCORE.INTRA.DIHEDRAL>
-5.98299

>  <SCORE.INTRA.DIHEDRAL.0>
22.2484

>  <SCORE.INTRA.POLAR>
0

>  <SCORE.INTRA.POLAR.0>
0

>  <SCORE.INTRA.REPUL>
0.105075

>  <SCORE.INTRA.REPUL.0>
0

>  <SCORE.INTRA.SOLV>
-2.16977

>  <SCORE.INTRA.SOLV.lig_0>
-75.7198

>  <SCORE.INTRA.VDW>
1.76694

>  <SCORE.INTRA.VDW.0>
-3.34171

>  <SCORE.INTRA.norm>
-0.0575505

>  <SCORE.RESTR>
2.33366

>  <SCORE.RESTR.CAVITY>
2.33366

>  <SCORE.RESTR.norm>
0.0752795

>  <SCORE.SYSTEM>
0

>  <SCORE.SYSTEM.CONST>
0

>  <SCORE.SYSTEM.DIHEDRAL>
0

>  <SCORE.SYSTEM.SOLV>
0

>  <SCORE.SYSTEM.norm>
0

>  <SCORE.heavy>
31

>  <SCORE.norm>
-0.236541

>  <RMSD>
13.060

$$$$
2et3_lig
 OpenBabel11021811423D
libRbt.so/2013.1/901 2013/11/27
 31 33  0  0  0  0  0  0  0  0999 V2000
    5.9000   -2.1688   40.3232 C   0  0  2  0  0  0  0  0  0  0  0  0
    5.0155   -1.0319   40.5003 O   0  0  0  0  0  0  0  0  0  0  0  0
    2.0738    0.8541   38.0314 C   0  0  2  0  0  0  0  0  0  0  0  0
    1.4551    1.4040   36.8651 N   0  0  0  0  0  0  0  0  0  0  0  0
    0.7943   -1.8576   36.2190 C   0  0  2  0  0  0  0  0  0  0  0  0
    6.1449   -2.8503   41.6737 C   0  0  2  0  0  0  0  0  0  0  0  0
    4.8813   -3.2153   42.2361 N   0  0  0  0  0  0  0  0  0  0  0  0
    3.3909    1.6359   38.3414 C   0  0  0  0  0  0  0  0  0  0  0  0
    1.8464   -2.9422   35.8987 C   0  0  2  0  0  0  0  0  0  0  0  0
    1.7877   -3.9428   36.8905 O   0  0  0  0  0  0  0  0  0  0  0  0
    6.9556   -1.9045   42.6243 C   0  0  0  0  0  0  0  0  0  0  0  0
    4.0830    1.0321   39.6180 C   0  0  2  0  0  0  0  0  0  0  0  0
    5.3244    1.7648   39.9140 N   0  0  0  0  0  0  0  0  0  0  0  0
    3.2669   -2.2445   35.8491 C   0  0  1  0  0  0  0  0  0  0  0  0
    4.3580   -3.2397   35.5884 N   0  0  0  0  0  0  0  0  0  0  0  0
    8.3225   -1.5884   41.9398 C   0  0  0  0  0  0  0  0  0  0  0  0
    4.3830   -0.4978   39.3815 C   0  0  2  0  0  0  0  0  0  0  0  0
    3.2853   -1.0920   34.7111 C   0  0  1  0  0  0  0  0  0  0  0  0
    3.0669   -1.6355   33.4257 O   0  0  0  0  0  0  0  0  0  0  0  0
    8.0378   -0.9089   40.5284 C   0  0  2  0  0  0  0  0  0  0  0  0
    7.1702   -1.7282   39.6838 O   0  0  0  0  0  0  0  0  0  0  0  0
    3.0366   -1.2578   39.0693 C   0  0  2  0  0  0  0  0  0  0  0  0
    3.2846   -2.6437   38.8558 O   0  0  0  0  0  0  0  0  0  0  0  0
    2.1370   -0.0753   34.9963 C   0  0  0  0  0  0  0  0  0  0  0  0
    0.8300   -0.7908   35.1771 O   0  0  0  0  0  0  0  0  0  0  0  0
    9.2834   -0.5323   39.7613 C   0  0  0  0  0  0  0  0  0  0  0  0
    9.7494    0.7840   40.1107 N   0  0  0  0  0  0  0  0  0  0  0  0
    2.3605   -0.6408   37.7949 C   0  0  1  0  0  0  0  0  0  0  0  0
    1.1460   -1.3340   37.5344 O   0  0  0  0  0  0  0  0  0  0  0  0
    4.5924   -0.3053   34.5434 C   0  0  0  0  0  0  0  0  0  0  0  0
    5.7130   -2.8840   36.0416 C   0  0  0  0  0  0  0  0  0  0  0  0
  1  2  1  1  0  0  0
  1  6  1  0  0  0  0
  1 21  1  0  0  0  0
  3  4  1  6  0  0  0
  3  8  1  0  0  0  0
  3 28  1  0  0  0  0
  5  9  1  0  0  0  0
  5 25  1  0  0  0  0
  5 29  1  1  0  0  0
  6  7  1  1  0  0  0
  6 11  1  0  0  0  0
  8 12  1  0  0  0  0
  9 10  1  1  0  0  0
  9 14  1  0  0  0  0
 11 16  1  0  0  0  0
 12 13  1  6  0  0  0
 12 17  1  0  0  0  0
 14 15  1  6  0  0  0
 14 18  1  0  0  0  0
 15 31  1  0  0  0  0
 16 20  1  0  0  0  0
 17  2  1  1  0  0  0
 17 22  1  0  0  0  0
 18 19  1  6  0  0  0
 18 24  1  0  0  0  0
 18 30  1  0  0  0  0
 20 21  1  0  0  0  0
 20 26  1  6  0  0  0
 22 23  1  6  0  0  0
 22 28  1  0  0  0  0
 24 25  1  0  0  0  0
 26 27  1  0  0  0  0
 28 29  1  1  0  0  0
M  END
>  <CHROM.1>
-162.95482181,64.14112431,-155.81805943,-152.43969329,-87.64090851,108.90734164
4.29768736,-1.17937254,38.16651419,0.27185092,0.76112395,2.73008238

>  <Name>
2et3_lig

>  <RI>
0

>  <Rbt.Current_Directory>
/home/itssahil/PROJECTS/Mol_Feturizer/New_Systems/rnas/2et3

>  <Rbt.Executable>
rbdock ($Id: //depot/dev/client3/rdock/2013.1/src/exe/rbdock.cxx#4 $)

>  <Rbt.Library>
libRbt.so (2013.1, Build901 2013/11/27)

>  <Rbt.Parameter_File>
/export/apps/rDock/src/rDock_2013.1_src/data/scripts/dock_solv.prm

>  <Rbt.Receptor>
prm/blind_docking_60.prm

>  <SCORE>
-9.27688

>  <SCORE.INTER>
-13.0468

>  <SCORE.INTER.CONST>
1

>  <SCORE.INTER.POLAR>
-0.922408

>  <SCORE.INTER.ROT>
6

>  <SCORE.INTER.SOLV>
17.3157

>  <SCORE.INTER.VDW>
-18.9951

>  <SCORE.INTER.norm>
-0.420866

>  <SCORE.INTRA>
2.96451

>  <SCORE.INTRA.DIHEDRAL>
-8.33705

>  <SCORE.INTRA.DIHEDRAL.0>
22.2484

>  <SCORE.INTRA.POLAR>
0

>  <SCORE.INTRA.POLAR.0>
0

>  <SCORE.INTRA.REPUL>
0

>  <SCORE.INTRA.REPUL.0>
0

>  <SCORE.INTRA.SOLV>
1.78679

>  <SCORE.INTRA.SOLV.lig_0>
-75.7198

>  <SCORE.INTRA.VDW>
6.23964

>  <SCORE.INTRA.VDW.0>
-3.34171

>  <SCORE.INTRA.norm>
0.0956294

>  <SCORE.RESTR>
0.805454

>  <SCORE.RESTR.CAVITY>
0.805454

>  <SCORE.RESTR.norm>
0.0259824

>  <SCORE.SYSTEM>
0

>  <SCORE.SYSTEM.CONST>
0

>  <SCORE.SYSTEM.DIHEDRAL>
0

>  <SCORE.SYSTEM.SOLV>
0

>  <SCORE.SYSTEM.norm>
0

>  <SCORE.heavy>
31

>  <SCORE.norm>
-0.299254

>  <RMSD>
13.061

$$$$
2et3_lig
 OpenBabel11021811423D
libRbt.so/2013.1/901 2013/11/27
 31 33  0  0  0  0  0  0  0  0999 V2000
    3.9517   -0.9227   34.9460 C   0  0  2  0  0  0  0  0  0  0  0  0
    4.1320   -0.2301   36.2085 O   0  0  0  0  0  0  0  0  0  0  0  0
    3.5745   -1.0642   40.3678 C   0  0  2  0  0  0  0  0  0  0  0  0
    3.1494   -1.7397   41.5546 N   0  0  0  0  0  0  0  0  0  0  0  0
    6.1408   -1.4880   41.4422 C   0  0  2  0  0  0  0  0  0  0  0  0
    2.4895   -0.8154   34.5001 C   0  0  2  0  0  0  0  0  0  0  0  0
    2.1354    0.5686   34.4268 N   0  0  0  0  0  0  0  0  0  0  0  0
    2.3248   -0.6624   39.5198 C   0  0  0  0  0  0  0  0  0  0  0  0
    7.1154   -0.4784   40.7967 C   0  0  2  0  0  0  0  0  0  0  0  0
    6.4175    0.2783   39.8330 O   0  0  0  0  0  0  0  0  0  0  0  0
    1.5589   -1.6048   35.4831 C   0  0  0  0  0  0  0  0  0  0  0  0
    2.7833    0.0736   38.2079 C   0  0  2  0  0  0  0  0  0  0  0  0
    1.6099    0.4538   37.4053 N   0  0  0  0  0  0  0  0  0  0  0  0
    8.3088   -1.2957   40.1526 C   0  0  1  0  0  0  0  0  0  0  0  0
    9.2828   -0.3901   39.4597 N   0  0  0  0  0  0  0  0  0  0  0  0
    2.0032   -3.1012   35.4717 C   0  0  0  0  0  0  0  0  0  0  0  0
    3.7406   -0.8686   37.3817 C   0  0  2  0  0  0  0  0  0  0  0  0
    9.0709   -2.1630   41.2887 C   0  0  1  0  0  0  0  0  0  0  0  0
    9.6485   -1.3282   42.2711 O   0  0  0  0  0  0  0  0  0  0  0  0
    3.5318   -3.1797   35.9098 C   0  0  2  0  0  0  0  0  0  0  0  0
    4.3908   -2.3390   35.0775 O   0  0  0  0  0  0  0  0  0  0  0  0
    4.9889   -1.2577   38.2639 C   0  0  2  0  0  0  0  0  0  0  0  0
    5.8694   -2.1065   37.5346 O   0  0  0  0  0  0  0  0  0  0  0  0
    8.0378   -3.0887   42.0022 C   0  0  0  0  0  0  0  0  0  0  0  0
    6.8542   -2.2953   42.4738 O   0  0  0  0  0  0  0  0  0  0  0  0
    4.0893   -4.5828   35.9588 C   0  0  0  0  0  0  0  0  0  0  0  0
    3.5010   -5.3555   37.0212 N   0  0  0  0  0  0  0  0  0  0  0  0
    4.5118   -1.9885   39.5679 C   0  0  1  0  0  0  0  0  0  0  0  0
    5.6499   -2.3243   40.3523 O   0  0  0  0  0  0  0  0  0  0  0  0
   10.2504   -3.0282   40.8241 C   0  0  0  0  0  0  0  0  0  0  0  0
    9.8010    0.7530   40.2298 C   0  0  0  0  0  0  0  0  0  0  0  0
  1  2  1  1  0  0  0
  1  6  1  0  0  0  0
  1 21  1  0  0  0  0
  3  4  1  1  0  0  0
  3  8  1  0  0  0  0
  3 28  1  0  0  0  0
  5  9  1  0  0  0  0
  5 25  1  0  0  0  0
  5 29  1  6  0  0  0
  6  7  1  1  0  0  0
  6 11  1  0  0  0  0
  8 12  1  0  0  0  0
  9 10  1  6  0  0  0
  9 14  1  0  0  0  0
 11 16  1  0  0  0  0
 12 13  1  6  0  0  0
 12 17  1  0  0  0  0
 14 15  1  1  0  0  0
 14 18  1  0  0  0  0
 15 31  1  0  0  0  0
 16 20  1  0  0  0  0
 17  2  1  6  0  0  0
 17 22  1  0  0  0  0
 18 19  1  1  0  0  0
 18 24  1  0  0  0  0
 18 30  1  0  0  0  0
 20 21  1  0  0  0  0
 20 26  1  6  0  0  0
 22 23  1  6  0  0  0
 22 28  1  0  0  0  0
 24 25  1  0  0  0  0
 26 27  1  0  0  0  0
 28 29  1  1  0  0  0
M  END
>  <CHROM.1>
79.32123802,-87.87574046,51.57762733,-127.55569717,-68.17450786,-24.92232154
5.23909722,-1.53638250,38.59832443,-2.47465700,-0.38784497,1.11760678

>  <Name>
2et3_lig

>  <RI>
1.07224e+07

>  <Rbt.Current_Directory>
/home/itssahil/PROJECTS/Mol_Feturizer/New_Systems/rnas/2et3

>  <Rbt.Executable>
rbdock ($Id: //depot/dev/client3/rdock/2013.1/src/exe/rbdock.cxx#4 $)

>  <Rbt.Library>
libRbt.so (2013.1, Build901 2013/11/27)

>  <Rbt.Parameter_File>
/export/apps/rDock/src/rDock_2013.1_src/data/scripts/dock_solv.prm

>  <Rbt.Receptor>
prm/blind_docking_80.prm

>  <SCORE>
1.08574

>  <SCORE.INTER>
-4.3108

>  <SCORE.INTER.CONST>
1

>  <SCORE.INTER.POLAR>
-0.886752

>  <SCORE.INTER.ROT>
6

>  <SCORE.INTER.SOLV>
19.4016

>  <SCORE.INTER.VDW>
-13.9852

>  <SCORE.INTER.norm>
-0.139058

>  <SCORE.INTRA>
3.52753

>  <SCORE.INTRA.DIHEDRAL>
-5.48628

>  <SCORE.INTRA.DIHEDRAL.0>
22.2484

>  <SCORE.INTRA.POLAR>
0

>  <SCORE.INTRA.POLAR.0>
0

>  <SCORE.INTRA.REPUL>
0

>  <SCORE.INTRA.REPUL.0>
0

>  <SCORE.INTRA.SOLV>
3.82311

>  <SCORE.INTRA.SOLV.lig_0>
-75.7198

>  <SCORE.INTRA.VDW>
4.35911

>  <SCORE.INTRA.VDW.0>
-3.34171

>  <SCORE.INTRA.norm>
0.113791

>  <SCORE.RESTR>
1.86901

>  <SCORE.RESTR.CAVITY>
1.86901

>  <SCORE.RESTR.norm>
0.0602906

>  <SCORE.SYSTEM>
0

>  <SCORE.SYSTEM.CONST>
0

>  <SCORE.SYSTEM.DIHEDRAL>
0

>  <SCORE.SYSTEM.SOLV>
0

>  <SCORE.SYSTEM.norm>
0

>  <SCORE.heavy>
31

>  <SCORE.norm>
0.0350239

>  <RMSD>
13.066

$$$$
2et3_lig
 OpenBabel11021811423D
libRbt.so/2013.1/901 2013/11/27
 31 33  0  0  0  0  0  0  0  0999 V2000
    6.0164   -2.1668   40.8073 C   0  0  2  0  0  0  0  0  0  0  0  0
    5.6203   -0.7859   40.6016 O   0  0  0  0  0  0  0  0  0  0  0  0
    4.3996    1.3085   37.0761 C   0  0  2  0  0  0  0  0  0  0  0  0
    4.4366    1.8251   35.7429 N   0  0  0  0  0  0  0  0  0  0  0  0
    3.4232   -1.3665   34.9968 C   0  0  2  0  0  0  0  0  0  0  0  0
    6.0164   -2.4883   42.3057 C   0  0  2  0  0  0  0  0  0  0  0  0
    4.7184   -2.2009   42.8338 N   0  0  0  0  0  0  0  0  0  0  0  0
    5.6125    1.8687   37.8868 C   0  0  0  0  0  0  0  0  0  0  0  0
    2.1604   -2.2435   34.8489 C   0  0  2  0  0  0  0  0  0  0  0  0
    1.0195   -1.4180   34.9218 O   0  0  0  0  0  0  0  0  0  0  0  0
    7.1379   -1.6760   43.0390 C   0  0  0  0  0  0  0  0  0  0  0  0
    5.5848    1.2988   39.3522 C   0  0  2  0  0  0  0  0  0  0  0  0
    6.7257    1.8232   40.1199 N   0  0  0  0  0  0  0  0  0  0  0  0
    2.1795   -3.3254   36.0047 C   0  0  1  0  0  0  0  0  0  0  0  0
    0.9579   -4.1943   35.9631 N   0  0  0  0  0  0  0  0  0  0  0  0
    8.5113   -2.0779   42.4154 C   0  0  0  0  0  0  0  0  0  0  0  0
    5.6225   -0.2769   39.3062 C   0  0  2  0  0  0  0  0  0  0  0  0
    3.5126   -4.2389   35.8948 C   0  0  1  0  0  0  0  0  0  0  0  0
    3.5437   -4.9584   34.6796 O   0  0  0  0  0  0  0  0  0  0  0  0
    8.4724   -1.7608   40.8557 C   0  0  2  0  0  0  0  0  0  0  0  0
    7.3470   -2.4105   40.1860 O   0  0  0  0  0  0  0  0  0  0  0  0
    4.3890   -0.8107   38.4807 C   0  0  2  0  0  0  0  0  0  0  0  0
    4.4017   -2.2337   38.4297 O   0  0  0  0  0  0  0  0  0  0  0  0
    4.7686   -3.3143   35.9296 C   0  0  0  0  0  0  0  0  0  0  0  0
    4.6457   -2.2169   34.9131 O   0  0  0  0  0  0  0  0  0  0  0  0
    9.7542   -2.0880   40.1264 C   0  0  0  0  0  0  0  0  0  0  0  0
   10.8406   -1.2434   40.5486 N   0  0  0  0  0  0  0  0  0  0  0  0
    4.4328   -0.2306   37.0234 C   0  0  1  0  0  0  0  0  0  0  0  0
    3.3100   -0.7171   36.2983 O   0  0  0  0  0  0  0  0  0  0  0  0
    3.6919   -5.3327   36.9564 C   0  0  0  0  0  0  0  0  0  0  0  0
    0.5307   -4.8127   37.2293 C   0  0  0  0  0  0  0  0  0  0  0  0
  1  2  1  1  0  0  0
  1  6  1  0  0  0  0
  1 21  1  0  0  0  0
  3  4  1  6  0  0  0
  3  8  1  0  0  0  0
  3 28  1  0  0  0  0
  5  9  1  0  0  0  0
  5 25  1  0  0  0  0
  5 29  1  1  0  0  0
  6  7  1  1  0  0  0
  6 11  1  0  0  0  0
  8 12  1  0  0  0  0
  9 10  1  1  0  0  0
  9 14  1  0  0  0  0
 11 16  1  0  0  0  0
 12 13  1  1  0  0  0
 12 17  1  0  0  0  0
 14 15  1  6  0  0  0
 14 18  1  0  0  0  0
 15 31  1  0  0  0  0
 16 20  1  0  0  0  0
 17  2  1  1  0  0  0
 17 22  1  0  0  0  0
 18 19  1  6  0  0  0
 18 24  1  0  0  0  0
 18 30  1  0  0  0  0
 20 21  1  0  0  0  0
 20 26  1  6  0  0  0
 22 23  1  6  0  0  0
 22 28  1  0  0  0  0
 24 25  1  0  0  0  0
 26 27  1  0  0  0  0
 28 29  1  6  0  0  0
M  END
>  <CHROM.1>
176.82609990,156.43173832,-153.99143336,-163.31515967,-66.26256503,111.62119791
4.93667453,-1.72461367,38.22057489,0.06388475,0.84664135,2.76381071

>  <Name>
2et3_lig

>  <RI>
1.07224e+07

>  <Rbt.Current_Directory>
/home/itssahil/PROJECTS/Mol_Feturizer/New_Systems/rnas/2et3

>  <Rbt.Executable>
rbdock ($Id: //depot/dev/client3/rdock/2013.1/src/exe/rbdock.cxx#4 $)

>  <Rbt.Library>
libRbt.so (2013.1, Build901 2013/11/27)

>  <Rbt.Parameter_File>
/export/apps/rDock/src/rDock_2013.1_src/data/scripts/dock_solv.prm

>  <Rbt.Receptor>
prm/blind_docking_80.prm

>  <SCORE>
-11.3379

>  <SCORE.INTER>
-9.74039

>  <SCORE.INTER.CONST>
1

>  <SCORE.INTER.POLAR>
-0.55412

>  <SCORE.INTER.ROT>
6

>  <SCORE.INTER.SOLV>
17.6766

>  <SCORE.INTER.VDW>
-18.1387

>  <SCORE.INTER.norm>
-0.314206

>  <SCORE.INTRA>
-6.1231

>  <SCORE.INTRA.DIHEDRAL>
-10.8817

>  <SCORE.INTRA.DIHEDRAL.0>
22.2484

>  <SCORE.INTRA.POLAR>
0

>  <SCORE.INTRA.POLAR.0>
0

>  <SCORE.INTRA.REPUL>
0

>  <SCORE.INTRA.REPUL.0>
0

>  <SCORE.INTRA.SOLV>
-3.15188

>  <SCORE.INTRA.SOLV.lig_0>
-75.7198

>  <SCORE.INTRA.VDW>
0.893692

>  <SCORE.INTRA.VDW.0>
-3.34171

>  <SCORE.INTRA.norm>
-0.197519

>  <SCORE.RESTR>
4.52559

>  <SCORE.RESTR.CAVITY>
4.52559

>  <SCORE.RESTR.norm>
0.145987

>  <SCORE.SYSTEM>
0

>  <SCORE.SYSTEM.CONST>
0

>  <SCORE.SYSTEM.DIHEDRAL>
0

>  <SCORE.SYSTEM.SOLV>
0

>  <SCORE.SYSTEM.norm>
0

>  <SCORE.heavy>
31

>  <SCORE.norm>
-0.365739

>  <RMSD>
13.092

$$$$
2et3_lig
 OpenBabel11021811423D
libRbt.so/2013.1/901 2013/11/27
 31 33  0  0  0  0  0  0  0  0999 V2000
    0.4006    0.0669   37.0534 C   0  0  2  0  0  0  0  0  0  0  0  0
    0.6757   -1.3328   37.3205 O   0  0  0  0  0  0  0  0  0  0  0  0
    1.9139   -1.1243   41.4107 C   0  0  2  0  0  0  0  0  0  0  0  0
    2.2178   -1.5469   42.7429 N   0  0  0  0  0  0  0  0  0  0  0  0
    5.2938   -2.3457   40.1165 C   0  0  2  0  0  0  0  0  0  0  0  0
    0.3289    0.3015   35.5407 C   0  0  2  0  0  0  0  0  0  0  0  0
   -0.6616   -0.5714   34.9903 N   0  0  0  0  0  0  0  0  0  0  0  0
    0.4056   -1.3985   41.1074 C   0  0  0  0  0  0  0  0  0  0  0  0
    6.2231   -2.7232   41.2910 C   0  0  2  0  0  0  0  0  0  0  0  0
    5.4982   -3.5040   42.2147 O   0  0  0  0  0  0  0  0  0  0  0  0
    1.7343    0.0764   34.8854 C   0  0  0  0  0  0  0  0  0  0  0  0
    0.0643   -0.9447   39.6409 C   0  0  2  0  0  0  0  0  0  0  0  0
   -1.3553   -1.2013   39.3500 N   0  0  0  0  0  0  0  0  0  0  0  0
    6.7550   -1.3819   41.9430 C   0  0  1  0  0  0  0  0  0  0  0  0
    7.6326   -1.6581   43.1273 N   0  0  0  0  0  0  0  0  0  0  0  0
    2.7341    1.0889   35.5273 C   0  0  0  0  0  0  0  0  0  0  0  0
    0.9889   -1.7147   38.6217 C   0  0  2  0  0  0  0  0  0  0  0  0
    7.5650   -0.5085   40.8454 C   0  0  1  0  0  0  0  0  0  0  0  0
    8.7049   -1.1998   40.3781 O   0  0  0  0  0  0  0  0  0  0  0  0
    2.7662    0.8423   37.0998 C   0  0  2  0  0  0  0  0  0  0  0  0
    1.4355    0.9194   37.7002 O   0  0  0  0  0  0  0  0  0  0  0  0
    2.5021   -1.4200   38.9550 C   0  0  2  0  0  0  0  0  0  0  0  0
    3.3556   -2.1038   38.0429 O   0  0  0  0  0  0  0  0  0  0  0  0
    6.6373   -0.2427   39.6197 C   0  0  0  0  0  0  0  0  0  0  0  0
    6.0414   -1.5261   39.1194 O   0  0  0  0  0  0  0  0  0  0  0  0
    3.7138    1.7497   37.8485 C   0  0  0  0  0  0  0  0  0  0  0  0
    5.0857    1.5049   37.4884 N   0  0  0  0  0  0  0  0  0  0  0  0
    2.8230   -1.8774   40.4213 C   0  0  1  0  0  0  0  0  0  0  0  0
    4.1884   -1.5970   40.7046 O   0  0  0  0  0  0  0  0  0  0  0  0
    8.1368    0.8360   41.3154 C   0  0  0  0  0  0  0  0  0  0  0  0
    7.0206   -1.5300   44.4604 C   0  0  0  0  0  0  0  0  0  0  0  0
  1  2  1  6  0  0  0
  1  6  1  0  0  0  0
  1 21  1  0  0  0  0
  3  4  1  1  0  0  0
  3  8  1  0  0  0  0
  3 28  1  0  0  0  0
  5  9  1  0  0  0  0
  5 25  1  0  0  0  0
  5 29  1  1  0  0  0
  6  7  1  6  0  0  0
  6 11  1  0  0  0  0
  8 12  1  0  0  0  0
  9 10  1  1  0  0  0
  9 14  1  0  0  0  0
 11 16  1  0  0  0  0
 12 13  1  6  0  0  0
 12 17  1  0  0  0  0
 14 15  1  1  0  0  0
 14 18  1  0  0  0  0
 15 31  1  0  0  0  0
 16 20  1  0  0  0  0
 17  2  1  6  0  0  0
 17 22  1  0  0  0  0
 18 19  1  6  0  0  0
 18 24  1  0  0  0  0
 18 30  1  0  0  0  0
 20 21  1  0  0  0  0
 20 26  1  1  0  0  0
 22 23  1  6  0  0  0
 22 28  1  0  0  0  0
 24 25  1  0  0  0  0
 26 27  1  0  0  0  0
 28 29  1  1  0  0  0
M  END
>  <CHROM.1>
169.96738452,-131.22220826,-99.74071378,40.78215537,-65.32944960,168.06526881
3.61865401,-0.85317421,39.39436207,-2.47871147,0.17388542,2.02708709

>  <Name>
2et3_lig

>  <RI>
1.07224e+07

>  <Rbt.Current_Directory>
/home/itssahil/PROJECTS/Mol_Feturizer/New_Systems/rnas/2et3

>  <Rbt.Executable>
rbdock ($Id: //depot/dev/client3/rdock/2013.1/src/exe/rbdock.cxx#4 $)

>  <Rbt.Library>
libRbt.so (2013.1, Build901 2013/11/27)

>  <Rbt.Parameter_File>
/export/apps/rDock/src/rDock_2013.1_src/data/scripts/dock_solv.prm

>  <Rbt.Receptor>
prm/blind_docking_80.prm

>  <SCORE>
-16.8059

>  <SCORE.INTER>
-12.8402

>  <SCORE.INTER.CONST>
1

>  <SCORE.INTER.POLAR>
0

>  <SCORE.INTER.ROT>
6

>  <SCORE.INTER.SOLV>
14.1269

>  <SCORE.INTER.VDW>
-20.8691

>  <SCORE.INTER.norm>
-0.414201

>  <SCORE.INTRA>
-5.44229

>  <SCORE.INTRA.DIHEDRAL>
-11.6793

>  <SCORE.INTRA.DIHEDRAL.0>
22.2484

>  <SCORE.INTRA.POLAR>
0

>  <SCORE.INTRA.POLAR.0>
0

>  <SCORE.INTRA.REPUL>
0

>  <SCORE.INTRA.REPUL.0>
0

>  <SCORE.INTRA.SOLV>
-0.252669

>  <SCORE.INTRA.SOLV.lig_0>
-75.7198

>  <SCORE.INTRA.VDW>
0.523715

>  <SCORE.INTRA.VDW.0>
-3.34171

>  <SCORE.INTRA.norm>
-0.175558

>  <SCORE.RESTR>
1.47661

>  <SCORE.RESTR.CAVITY>
1.47661

>  <SCORE.RESTR.norm>
0.0476327

>  <SCORE.SYSTEM>
0

>  <SCORE.SYSTEM.CONST>
0

>  <SCORE.SYSTEM.DIHEDRAL>
0

>  <SCORE.SYSTEM.SOLV>
0

>  <SCORE.SYSTEM.norm>
0

>  <SCORE.heavy>
31

>  <SCORE.norm>
-0.542126

>  <RMSD>
13.107

$$$$
2et3_lig
 OpenBabel11021811423D
libRbt.so/2013.1/901 2013/11/27
 31 33  0  0  0  0  0  0  0  0999 V2000
   -1.6117   -1.5179   41.3208 C   0  0  2  0  0  0  0  0  0  0  0  0
   -0.5461   -0.7116   40.7546 O   0  0  0  0  0  0  0  0  0  0  0  0
    3.7161   -1.0428   40.5820 C   0  0  2  0  0  0  0  0  0  0  0  0
    5.0119   -1.6411   40.4893 N   0  0  0  0  0  0  0  0  0  0  0  0
    2.9508   -0.6875   36.8650 C   0  0  2  0  0  0  0  0  0  0  0  0
   -1.9320   -2.6863   40.3823 C   0  0  2  0  0  0  0  0  0  0  0  0
   -0.7329   -3.4333   40.1582 N   0  0  0  0  0  0  0  0  0  0  0  0
    2.9833   -1.5791   41.8538 C   0  0  0  0  0  0  0  0  0  0  0  0
    2.8088   -2.1096   36.2793 C   0  0  2  0  0  0  0  0  0  0  0  0
    2.0231   -2.8879   37.1543 O   0  0  0  0  0  0  0  0  0  0  0  0
   -2.5496   -2.1579   39.0426 C   0  0  0  0  0  0  0  0  0  0  0  0
    1.5535   -0.9328   41.9592 C   0  0  2  0  0  0  0  0  0  0  0  0
    0.8588   -1.4351   43.1553 N   0  0  0  0  0  0  0  0  0  0  0  0
    4.2624   -2.7111   36.1003 C   0  0  1  0  0  0  0  0  0  0  0  0
    4.2143   -4.1158   35.5773 N   0  0  0  0  0  0  0  0  0  0  0  0
   -3.8617   -1.3857   39.3873 C   0  0  0  0  0  0  0  0  0  0  0  0
    0.7281   -1.2630   40.6568 C   0  0  2  0  0  0  0  0  0  0  0  0
    5.1354   -1.7790   35.1040 C   0  0  1  0  0  0  0  0  0  0  0  0
    4.5652   -1.7325   33.8124 O   0  0  0  0  0  0  0  0  0  0  0  0
   -3.5040   -0.1978   40.3850 C   0  0  2  0  0  0  0  0  0  0  0  0
   -2.8067   -0.6690   41.5804 O   0  0  0  0  0  0  0  0  0  0  0  0
    1.4935   -0.7119   39.3926 C   0  0  2  0  0  0  0  0  0  0  0  0
    0.7625   -0.9965   38.2042 O   0  0  0  0  0  0  0  0  0  0  0  0
    5.1629   -0.3224   35.6617 C   0  0  0  0  0  0  0  0  0  0  0  0
    3.7712    0.1593   35.9514 O   0  0  0  0  0  0  0  0  0  0  0  0
   -4.6887    0.6477   40.7892 C   0  0  0  0  0  0  0  0  0  0  0  0
   -4.2813    1.8513   41.4653 N   0  0  0  0  0  0  0  0  0  0  0  0
    2.9171   -1.3661   39.3054 C   0  0  1  0  0  0  0  0  0  0  0  0
    3.5932   -0.8516   38.1646 O   0  0  0  0  0  0  0  0  0  0  0  0
    6.5814   -2.2175   34.8349 C   0  0  0  0  0  0  0  0  0  0  0  0
    3.7539   -5.1621   36.5055 C   0  0  0  0  0  0  0  0  0  0  0  0
  1  2  1  6  0  0  0
  1  6  1  0  0  0  0
  1 21  1  0  0  0  0
  3  4  1  6  0  0  0
  3  8  1  0  0  0  0
  3 28  1  0  0  0  0
  5  9  1  0  0  0  0
  5 25  1  0  0  0  0
  5 29  1  1  0  0  0
  6  7  1  6  0  0  0
  6 11  1  0  0  0  0
  8 12  1  0  0  0  0
  9 10  1  1  0  0  0
  9 14  1  0  0  0  0
 11 16  1  0  0  0  0
 12 13  1  1  0  0  0
 12 17  1  0  0  0  0
 14 15  1  6  0  0  0
 14 18  1  0  0  0  0
 15 31  1  0  0  0  0
 16 20  1  0  0  0  0
 17  2  1  1  0  0  0
 17 22  1  0  0  0  0
 18 19  1  6  0  0  0
 18 24  1  0  0  0  0
 18 30  1  0  0  0  0
 20 21  1  0  0  0  0
 20 26  1  1  0  0  0
 22 23  1  6  0  0  0
 22 28  1  0  0  0  0
 24 25  1  0  0  0  0
 26 27  1  0  0  0  0
 28 29  1  6  0  0  0
M  END
>  <CHROM.1>
-67.51691052,-73.96049850,-72.06657832,-91.12986202,-168.41813981,-163.85764723
1.37770954,-1.47163544,38.76291904,-2.51691338,0.10899767,-1.69666646

>  <Name>
2et3_lig

>  <RI>
0

>  <Rbt.Current_Directory>
/home/itssahil/PROJECTS/Mol_Feturizer/New_Systems/rnas/2et3

>  <Rbt.Executable>
rbdock ($Id: //depot/dev/client3/rdock/2013.1/src/exe/rbdock.cxx#4 $)

>  <Rbt.Library>
libRbt.so (2013.1, Build901 2013/11/27)

>  <Rbt.Parameter_File>
/export/apps/rDock/src/rDock_2013.1_src/data/scripts/dock_solv.prm

>  <Rbt.Receptor>
prm/blind_docking_60.prm

>  <SCORE>
-7.59808

>  <SCORE.INTER>
-8.0826

>  <SCORE.INTER.CONST>
1

>  <SCORE.INTER.POLAR>
-1.45554

>  <SCORE.INTER.ROT>
6

>  <SCORE.INTER.SOLV>
16.8801

>  <SCORE.INTER.VDW>
-13.7633

>  <SCORE.INTER.norm>
-0.260729

>  <SCORE.INTRA>
-3.09144

>  <SCORE.INTRA.DIHEDRAL>
-15.2812

>  <SCORE.INTRA.DIHEDRAL.0>
22.2484

>  <SCORE.INTRA.POLAR>
0

>  <SCORE.INTRA.POLAR.0>
0

>  <SCORE.INTRA.REPUL>
0.0973336

>  <SCORE.INTRA.REPUL.0>
0

>  <SCORE.INTRA.SOLV>
0.58639

>  <SCORE.INTRA.SOLV.lig_0>
-75.7198

>  <SCORE.INTRA.VDW>
3.76928

>  <SCORE.INTRA.VDW.0>
-3.34171

>  <SCORE.INTRA.norm>
-0.0997237

>  <SCORE.RESTR>
3.57595

>  <SCORE.RESTR.CAVITY>
3.57595

>  <SCORE.RESTR.norm>
0.115353

>  <SCORE.SYSTEM>
0

>  <SCORE.SYSTEM.CONST>
0

>  <SCORE.SYSTEM.DIHEDRAL>
0

>  <SCORE.SYSTEM.SOLV>
0

>  <SCORE.SYSTEM.norm>
0

>  <SCORE.heavy>
31

>  <SCORE.norm>
-0.245099

>  <RMSD>
13.118

$$$$
2et3_lig
 OpenBabel11021811423D
libRbt.so/2013.1/901 2013/11/27
 31 33  0  0  0  0  0  0  0  0999 V2000
   -1.7095   -1.5865   40.3700 C   0  0  2  0  0  0  0  0  0  0  0  0
   -0.6186   -0.8288   40.9548 O   0  0  0  0  0  0  0  0  0  0  0  0
    3.6384   -1.2568   40.9151 C   0  0  2  0  0  0  0  0  0  0  0  0
    4.9239   -1.8805   40.9775 N   0  0  0  0  0  0  0  0  0  0  0  0
    4.3423   -2.6429   37.8532 C   0  0  2  0  0  0  0  0  0  0  0  0
   -2.7822   -0.6276   39.8426 C   0  0  2  0  0  0  0  0  0  0  0  0
   -2.1726    0.2716   38.9121 N   0  0  0  0  0  0  0  0  0  0  0  0
    2.8852   -1.4766   42.2666 C   0  0  0  0  0  0  0  0  0  0  0  0
    4.6048   -2.1153   36.4254 C   0  0  2  0  0  0  0  0  0  0  0  0
    5.2919   -0.8869   36.5112 O   0  0  0  0  0  0  0  0  0  0  0  0
   -3.4651    0.1347   41.0291 C   0  0  0  0  0  0  0  0  0  0  0  0
    1.4664   -0.8013   42.2039 C   0  0  2  0  0  0  0  0  0  0  0  0
    0.7528   -1.0060   43.4745 N   0  0  0  0  0  0  0  0  0  0  0  0
    3.2071   -1.9590   35.6982 C   0  0  1  0  0  0  0  0  0  0  0  0
    3.3678   -1.4040   34.3144 N   0  0  0  0  0  0  0  0  0  0  0  0
   -4.1229   -0.9243   41.9685 C   0  0  0  0  0  0  0  0  0  0  0  0
    0.6463   -1.4076   41.0013 C   0  0  2  0  0  0  0  0  0  0  0  0
    2.4448   -3.3869   35.6371 C   0  0  1  0  0  0  0  0  0  0  0  0
    3.1790   -4.3294   34.8835 O   0  0  0  0  0  0  0  0  0  0  0  0
   -2.9923   -1.9230   42.4773 C   0  0  2  0  0  0  0  0  0  0  0  0
   -2.2595   -2.5395   41.3726 O   0  0  0  0  0  0  0  0  0  0  0  0
    1.4322   -1.1721   39.6542 C   0  0  2  0  0  0  0  0  0  0  0  0
    0.7063   -1.7095   38.5533 O   0  0  0  0  0  0  0  0  0  0  0  0
    2.2984   -3.9492   37.0848 C   0  0  0  0  0  0  0  0  0  0  0  0
    3.6239   -3.9484   37.7889 O   0  0  0  0  0  0  0  0  0  0  0  0
   -3.4921   -2.9960   43.4157 C   0  0  0  0  0  0  0  0  0  0  0  0
   -2.4629   -3.9508   43.7334 N   0  0  0  0  0  0  0  0  0  0  0  0
    2.8445   -1.8509   39.7364 C   0  0  1  0  0  0  0  0  0  0  0  0
    3.5393   -1.6214   38.5166 O   0  0  0  0  0  0  0  0  0  0  0  0
    1.0615   -3.4054   34.9726 C   0  0  0  0  0  0  0  0  0  0  0  0
    3.6792    0.0305   34.1986 C   0  0  0  0  0  0  0  0  0  0  0  0
  1  2  1  1  0  0  0
  1  6  1  0  0  0  0
  1 21  1  0  0  0  0
  3  4  1  1  0  0  0
  3  8  1  0  0  0  0
  3 28  1  0  0  0  0
  5  9  1  0  0  0  0
  5 25  1  0  0  0  0
  5 29  1  1  0  0  0
  6  7  1  6  0  0  0
  6 11  1  0  0  0  0
  8 12  1  0  0  0  0
  9 10  1  1  0  0  0
  9 14  1  0  0  0  0
 11 16  1  0  0  0  0
 12 13  1  1  0  0  0
 12 17  1  0  0  0  0
 14 15  1  6  0  0  0
 14 18  1  0  0  0  0
 15 31  1  0  0  0  0
 16 20  1  0  0  0  0
 17  2  1  6  0  0  0
 17 22  1  0  0  0  0
 18 19  1  6  0  0  0
 18 24  1  0  0  0  0
 18 30  1  0  0  0  0
 20 21  1  0  0  0  0
 20 26  1  6  0  0  0
 22 23  1  6  0  0  0
 22 28  1  0  0  0  0
 24 25  1  0  0  0  0
 26 27  1  0  0  0  0
 28 29  1  6  0  0  0
M  END
>  <CHROM.1>
-154.56095780,165.74407734,-74.52208899,-153.15836968,173.95080196,100.80453223
1.11195702,-1.85587893,39.20667822,2.35225460,-0.03829072,1.50127814

>  <Name>
2et3_lig

>  <RI>
0

>  <Rbt.Current_Directory>
/home/itssahil/PROJECTS/Mol_Feturizer/New_Systems/rnas/2et3

>  <Rbt.Executable>
rbdock ($Id: //depot/dev/client3/rdock/2013.1/src/exe/rbdock.cxx#4 $)

>  <Rbt.Library>
libRbt.so (2013.1, Build901 2013/11/27)

>  <Rbt.Parameter_File>
/export/apps/rDock/src/rDock_2013.1_src/data/scripts/dock_solv.prm

>  <Rbt.Receptor>
prm/blind_docking_60.prm

>  <SCORE>
-2.81832

>  <SCORE.INTER>
-1.62512

>  <SCORE.INTER.CONST>
1

>  <SCORE.INTER.POLAR>
-0.461038

>  <SCORE.INTER.ROT>
6

>  <SCORE.INTER.SOLV>
18.8721

>  <SCORE.INTER.VDW>
-13.4373

>  <SCORE.INTER.norm>
-0.0524233

>  <SCORE.INTRA>
-5.80205

>  <SCORE.INTRA.DIHEDRAL>
-9.59732

>  <SCORE.INTRA.DIHEDRAL.0>
22.2484

>  <SCORE.INTRA.POLAR>
0

>  <SCORE.INTRA.POLAR.0>
0

>  <SCORE.INTRA.REPUL>
0

>  <SCORE.INTRA.REPUL.0>
0

>  <SCORE.INTRA.SOLV>
-1.66497

>  <SCORE.INTRA.SOLV.lig_0>
-75.7198

>  <SCORE.INTRA.VDW>
-0.170899

>  <SCORE.INTRA.VDW.0>
-3.34171

>  <SCORE.INTRA.norm>
-0.187163

>  <SCORE.RESTR>
4.60885

>  <SCORE.RESTR.CAVITY>
4.60885

>  <SCORE.RESTR.norm>
0.148673

>  <SCORE.SYSTEM>
0

>  <SCORE.SYSTEM.CONST>
0

>  <SCORE.SYSTEM.DIHEDRAL>
0

>  <SCORE.SYSTEM.SOLV>
0

>  <SCORE.SYSTEM.norm>
0

>  <SCORE.heavy>
31

>  <SCORE.norm>
-0.0909136

>  <RMSD>
13.123

$$$$
2et3_lig
 OpenBabel11021811423D
libRbt.so/2013.1/901 2013/11/27
 31 33  0  0  0  0  0  0  0  0999 V2000
   -1.8466   -1.1900   39.6145 C   0  0  2  0  0  0  0  0  0  0  0  0
   -1.0935   -0.7176   40.7617 O   0  0  0  0  0  0  0  0  0  0  0  0
    3.0910   -1.2573   41.4725 C   0  0  2  0  0  0  0  0  0  0  0  0
    4.3242   -1.9088   41.7895 N   0  0  0  0  0  0  0  0  0  0  0  0
    3.9120   -2.9140   38.3785 C   0  0  2  0  0  0  0  0  0  0  0  0
   -2.0431   -0.0441   38.6161 C   0  0  2  0  0  0  0  0  0  0  0  0
   -0.7589    0.4747   38.2587 N   0  0  0  0  0  0  0  0  0  0  0  0
    2.1137   -1.3703   42.6867 C   0  0  0  0  0  0  0  0  0  0  0  0
    4.9232   -2.3325   37.3660 C   0  0  2  0  0  0  0  0  0  0  0  0
    5.9381   -1.6542   38.0719 O   0  0  0  0  0  0  0  0  0  0  0  0
   -2.9696    1.0614   39.2282 C   0  0  0  0  0  0  0  0  0  0  0  0
    0.7512   -0.6639   42.3436 C   0  0  2  0  0  0  0  0  0  0  0  0
   -0.1731   -0.7679   43.4840 N   0  0  0  0  0  0  0  0  0  0  0  0
    4.1360   -1.3647   36.3911 C   0  0  1  0  0  0  0  0  0  0  0  0
    5.0563   -0.7173   35.3998 N   0  0  0  0  0  0  0  0  0  0  0  0
   -4.3488    0.4082   39.5565 C   0  0  0  0  0  0  0  0  0  0  0  0
    0.1236   -1.3248   41.0569 C   0  0  2  0  0  0  0  0  0  0  0  0
    2.9703   -2.1785   35.6149 C   0  0  1  0  0  0  0  0  0  0  0  0
    3.5103   -3.2019   34.8046 O   0  0  0  0  0  0  0  0  0  0  0  0
   -4.1113   -0.7955   40.5710 C   0  0  2  0  0  0  0  0  0  0  0  0
   -3.1440   -1.7665   40.0623 O   0  0  0  0  0  0  0  0  0  0  0  0
    1.1330   -1.1968   39.8517 C   0  0  2  0  0  0  0  0  0  0  0  0
    0.5837   -1.7849   38.6769 O   0  0  0  0  0  0  0  0  0  0  0  0
    2.0325   -2.8512   36.6645 C   0  0  0  0  0  0  0  0  0  0  0  0
    2.8320   -3.6458   37.6555 O   0  0  0  0  0  0  0  0  0  0  0  0
   -5.3749   -1.5099   40.9891 C   0  0  0  0  0  0  0  0  0  0  0  0
   -5.1223   -2.4883   42.0141 N   0  0  0  0  0  0  0  0  0  0  0  0
    2.4857   -1.9052   40.2129 C   0  0  1  0  0  0  0  0  0  0  0  0
    3.3838   -1.7726   39.1179 O   0  0  0  0  0  0  0  0  0  0  0  0
    2.1000   -1.3774   34.6370 C   0  0  0  0  0  0  0  0  0  0  0  0
    6.0085   -1.5931   34.6966 C   0  0  0  0  0  0  0  0  0  0  0  0
  1  2  1  1  0  0  0
  1  6  1  0  0  0  0
  1 21  1  0  0  0  0
  3  4  1  1  0  0  0
  3  8  1  0  0  0  0
  3 28  1  0  0  0  0
  5  9  1  0  0  0  0
  5 25  1  0  0  0  0
  5 29  1  6  0  0  0
  6  7  1  1  0  0  0
  6 11  1  0  0  0  0
  8 12  1  0  0  0  0
  9 10  1  1  0  0  0
  9 14  1  0  0  0  0
 11 16  1  0  0  0  0
 12 13  1  1  0  0  0
 12 17  1  0  0  0  0
 14 15  1  6  0  0  0
 14 18  1  0  0  0  0
 15 31  1  0  0  0  0
 16 20  1  0  0  0  0
 17  2  1  6  0  0  0
 17 22  1  0  0  0  0
 18 19  1  6  0  0  0
 18 24  1  0  0  0  0
 18 30  1  0  0  0  0
 20 21  1  0  0  0  0
 20 26  1  6  0  0  0
 22 23  1  6  0  0  0
 22 28  1  0  0  0  0
 24 25  1  0  0  0  0
 26 27  1  0  0  0  0
 28 29  1  6  0  0  0
M  END
>  <CHROM.1>
-120.11843196,-175.45807800,47.67766142,-179.39770037,-173.63013996,121.76192784
1.00559495,-1.44969917,38.99567800,2.63299042,-0.14026609,1.55169319

>  <Name>
2et3_lig

>  <RI>
1.07224e+07

>  <Rbt.Current_Directory>
/home/itssahil/PROJECTS/Mol_Feturizer/New_Systems/rnas/2et3

>  <Rbt.Executable>
rbdock ($Id: //depot/dev/client3/rdock/2013.1/src/exe/rbdock.cxx#4 $)

>  <Rbt.Library>
libRbt.so (2013.1, Build901 2013/11/27)

>  <Rbt.Parameter_File>
/export/apps/rDock/src/rDock_2013.1_src/data/scripts/dock_solv.prm

>  <Rbt.Receptor>
prm/blind_docking_80.prm

>  <SCORE>
-2.54756

>  <SCORE.INTER>
-3.73505

>  <SCORE.INTER.CONST>
1

>  <SCORE.INTER.POLAR>
-0.723566

>  <SCORE.INTER.ROT>
6

>  <SCORE.INTER.SOLV>
15.7634

>  <SCORE.INTER.VDW>
-12.9326

>  <SCORE.INTER.norm>
-0.120485

>  <SCORE.INTRA>
-1.28551

>  <SCORE.INTRA.DIHEDRAL>
-7.40133

>  <SCORE.INTRA.DIHEDRAL.0>
22.2484

>  <SCORE.INTRA.POLAR>
0

>  <SCORE.INTRA.POLAR.0>
0

>  <SCORE.INTRA.REPUL>
0

>  <SCORE.INTRA.REPUL.0>
0

>  <SCORE.INTRA.SOLV>
-0.946414

>  <SCORE.INTRA.SOLV.lig_0>
-75.7198

>  <SCORE.INTRA.VDW>
2.88836

>  <SCORE.INTRA.VDW.0>
-3.34171

>  <SCORE.INTRA.norm>
-0.0414681

>  <SCORE.RESTR>
2.473

>  <SCORE.RESTR.CAVITY>
2.473

>  <SCORE.RESTR.norm>
0.0797743

>  <SCORE.SYSTEM>
0

>  <SCORE.SYSTEM.CONST>
0

>  <SCORE.SYSTEM.DIHEDRAL>
0

>  <SCORE.SYSTEM.SOLV>
0

>  <SCORE.SYSTEM.norm>
0

>  <SCORE.heavy>
31

>  <SCORE.norm>
-0.0821793

>  <RMSD>
13.126

$$$$
2et3_lig
 OpenBabel11021811423D
libRbt.so/2013.1/901 2013/11/27
 31 33  0  0  0  0  0  0  0  0999 V2000
    5.5391   -1.5443   40.1263 C   0  0  2  0  0  0  0  0  0  0  0  0
    4.5203   -0.5455   40.3925 O   0  0  0  0  0  0  0  0  0  0  0  0
    1.5248    0.9769   37.7438 C   0  0  2  0  0  0  0  0  0  0  0  0
    0.9405    1.6589   36.6307 N   0  0  0  0  0  0  0  0  0  0  0  0
    1.8866   -1.2600   35.0169 C   0  0  2  0  0  0  0  0  0  0  0  0
    5.7309   -2.4308   41.3614 C   0  0  2  0  0  0  0  0  0  0  0  0
    4.4690   -3.0075   41.7095 N   0  0  0  0  0  0  0  0  0  0  0  0
    2.3265    1.9949   38.6174 C   0  0  0  0  0  0  0  0  0  0  0  0
    2.3967   -2.7080   34.8473 C   0  0  2  0  0  0  0  0  0  0  0  0
    1.4287   -3.5965   35.3592 O   0  0  0  0  0  0  0  0  0  0  0  0
    6.3381   -1.5990   42.5424 C   0  0  0  0  0  0  0  0  0  0  0  0
    2.9802    1.2519   39.8396 C   0  0  2  0  0  0  0  0  0  0  0  0
    3.7369    2.2064   40.6654 N   0  0  0  0  0  0  0  0  0  0  0  0
    3.7755   -2.8328   35.6156 C   0  0  1  0  0  0  0  0  0  0  0  0
    4.3208   -4.2278   35.5410 N   0  0  0  0  0  0  0  0  0  0  0  0
    7.7192   -1.0386   42.0783 C   0  0  0  0  0  0  0  0  0  0  0  0
    3.9222    0.1013   39.3150 C   0  0  2  0  0  0  0  0  0  0  0  0
    4.8513   -1.7847   35.0092 C   0  0  1  0  0  0  0  0  0  0  0  0
    5.1289   -2.0607   33.6519 O   0  0  0  0  0  0  0  0  0  0  0  0
    7.4939   -0.1469   40.7787 C   0  0  2  0  0  0  0  0  0  0  0  0
    6.8063   -0.8792   39.7165 O   0  0  0  0  0  0  0  0  0  0  0  0
    3.0857   -0.9068   38.4365 C   0  0  2  0  0  0  0  0  0  0  0  0
    3.9177   -1.9573   37.9549 O   0  0  0  0  0  0  0  0  0  0  0  0
    4.2593   -0.3435   35.0875 C   0  0  0  0  0  0  0  0  0  0  0  0
    2.8905   -0.3001   34.4732 O   0  0  0  0  0  0  0  0  0  0  0  0
    8.7560    0.4761   40.2303 C   0  0  0  0  0  0  0  0  0  0  0  0
    9.7144   -0.5205   39.8302 N   0  0  0  0  0  0  0  0  0  0  0  0
    2.4404   -0.1475   37.2243 C   0  0  1  0  0  0  0  0  0  0  0  0
    1.6855   -1.0710   36.4494 O   0  0  0  0  0  0  0  0  0  0  0  0
    6.2427   -1.7680   35.6568 C   0  0  0  0  0  0  0  0  0  0  0  0
    3.8710   -5.1801   36.5701 C   0  0  0  0  0  0  0  0  0  0  0  0
  1  2  1  1  0  0  0
  1  6  1  0  0  0  0
  1 21  1  0  0  0  0
  3  4  1  6  0  0  0
  3  8  1  0  0  0  0
  3 28  1  0  0  0  0
  5  9  1  0  0  0  0
  5 25  1  0  0  0  0
  5 29  1  1  0  0  0
  6  7  1  1  0  0  0
  6 11  1  0  0  0  0
  8 12  1  0  0  0  0
  9 10  1  1  0  0  0
  9 14  1  0  0  0  0
 11 16  1  0  0  0  0
 12 13  1  6  0  0  0
 12 17  1  0  0  0  0
 14 15  1  6  0  0  0
 14 18  1  0  0  0  0
 15 31  1  0  0  0  0
 16 20  1  0  0  0  0
 17  2  1  1  0  0  0
 17 22  1  0  0  0  0
 18 19  1  6  0  0  0
 18 24  1  0  0  0  0
 18 30  1  0  0  0  0
 20 21  1  0  0  0  0
 20 26  1  6  0  0  0
 22 23  1  6  0  0  0
 22 28  1  0  0  0  0
 24 25  1  0  0  0  0
 26 27  1  0  0  0  0
 28 29  1  1  0  0  0
M  END
>  <CHROM.1>
-161.79040011,115.21206834,-87.05025006,-173.39927152,61.27021636,114.05573188
4.34398998,-1.09657825,37.97861195,-0.84018720,0.57502306,-2.21383508

>  <Name>
2et3_lig

>  <RI>
1.07224e+07

>  <Rbt.Current_Directory>
/home/itssahil/PROJECTS/Mol_Feturizer/New_Systems/rnas/2et3

>  <Rbt.Executable>
rbdock ($Id: //depot/dev/client3/rdock/2013.1/src/exe/rbdock.cxx#4 $)

>  <Rbt.Library>
libRbt.so (2013.1, Build901 2013/11/27)

>  <Rbt.Parameter_File>
/export/apps/rDock/src/rDock_2013.1_src/data/scripts/dock_solv.prm

>  <Rbt.Receptor>
prm/blind_docking_80.prm

>  <SCORE>
-9.59012

>  <SCORE.INTER>
-10.9528

>  <SCORE.INTER.CONST>
1

>  <SCORE.INTER.POLAR>
-1.47796

>  <SCORE.INTER.ROT>
6

>  <SCORE.INTER.SOLV>
24.2044

>  <SCORE.INTER.VDW>
-18.0435

>  <SCORE.INTER.norm>
-0.353317

>  <SCORE.INTRA>
-0.258534

>  <SCORE.INTRA.DIHEDRAL>
-5.74171

>  <SCORE.INTRA.DIHEDRAL.0>
22.2484

>  <SCORE.INTRA.POLAR>
0

>  <SCORE.INTRA.POLAR.0>
0

>  <SCORE.INTRA.REPUL>
0

>  <SCORE.INTRA.REPUL.0>
0

>  <SCORE.INTRA.SOLV>
-0.561752

>  <SCORE.INTRA.SOLV.lig_0>
-75.7198

>  <SCORE.INTRA.VDW>
2.8932

>  <SCORE.INTRA.VDW.0>
-3.34171

>  <SCORE.INTRA.norm>
-0.00833982

>  <SCORE.RESTR>
1.62123

>  <SCORE.RESTR.CAVITY>
1.62123

>  <SCORE.RESTR.norm>
0.0522978

>  <SCORE.SYSTEM>
0

>  <SCORE.SYSTEM.CONST>
0

>  <SCORE.SYSTEM.DIHEDRAL>
0

>  <SCORE.SYSTEM.SOLV>
0

>  <SCORE.SYSTEM.norm>
0

>  <SCORE.heavy>
31

>  <SCORE.norm>
-0.309359

>  <RMSD>
13.127

$$$$
2et3_lig
 OpenBabel11021811423D
libRbt.so/2013.1/901 2013/11/27
 31 33  0  0  0  0  0  0  0  0999 V2000
    4.4637   -2.4807   41.9712 C   0  0  2  0  0  0  0  0  0  0  0  0
    3.7740   -1.2048   41.9206 O   0  0  0  0  0  0  0  0  0  0  0  0
    0.6081   -2.0353   39.1649 C   0  0  2  0  0  0  0  0  0  0  0  0
   -0.4129   -1.8117   38.1886 N   0  0  0  0  0  0  0  0  0  0  0  0
    1.5911   -2.1174   36.1392 C   0  0  2  0  0  0  0  0  0  0  0  0
    4.8520   -2.8029   43.4182 C   0  0  2  0  0  0  0  0  0  0  0  0
    3.6699   -2.7813   44.2232 N   0  0  0  0  0  0  0  0  0  0  0  0
    0.2657   -1.2449   40.4688 C   0  0  0  0  0  0  0  0  0  0  0  0
    2.5964   -2.5498   35.0492 C   0  0  2  0  0  0  0  0  0  0  0  0
    2.9213   -3.9086   35.2404 O   0  0  0  0  0  0  0  0  0  0  0  0
    5.9284   -1.7878   43.9343 C   0  0  0  0  0  0  0  0  0  0  0  0
    1.3880   -1.4781   41.5454 C   0  0  2  0  0  0  0  0  0  0  0  0
    1.0703   -0.7353   42.7755 N   0  0  0  0  0  0  0  0  0  0  0  0
    3.8711   -1.6176   35.1635 C   0  0  1  0  0  0  0  0  0  0  0  0
    4.9229   -2.0019   34.1661 N   0  0  0  0  0  0  0  0  0  0  0  0
    7.1841   -1.9063   43.0145 C   0  0  0  0  0  0  0  0  0  0  0  0
    2.7804   -1.0209   40.9634 C   0  0  2  0  0  0  0  0  0  0  0  0
    3.4513   -0.0670   34.9558 C   0  0  1  0  0  0  0  0  0  0  0  0
    2.9158    0.1522   33.6671 O   0  0  0  0  0  0  0  0  0  0  0  0
    6.7460   -1.5957   41.5157 C   0  0  2  0  0  0  0  0  0  0  0  0
    5.6485   -2.4526   41.0702 O   0  0  0  0  0  0  0  0  0  0  0  0
    3.0959   -1.8337   39.6491 C   0  0  2  0  0  0  0  0  0  0  0  0
    4.3526   -1.4385   39.1083 O   0  0  0  0  0  0  0  0  0  0  0  0
    2.3503    0.3070   35.9957 C   0  0  0  0  0  0  0  0  0  0  0  0
    1.2237   -0.6838   35.9525 O   0  0  0  0  0  0  0  0  0  0  0  0
    7.8765   -1.6587   40.5158 C   0  0  0  0  0  0  0  0  0  0  0  0
    7.4710   -1.1835   39.2191 N   0  0  0  0  0  0  0  0  0  0  0  0
    1.9655   -1.5902   38.5885 C   0  0  1  0  0  0  0  0  0  0  0  0
    2.2642   -2.3363   37.4149 O   0  0  0  0  0  0  0  0  0  0  0  0
    4.5755    0.9735   35.0515 C   0  0  0  0  0  0  0  0  0  0  0  0
    6.3207   -1.9970   34.6293 C   0  0  0  0  0  0  0  0  0  0  0  0
  1  2  1  1  0  0  0
  1  6  1  0  0  0  0
  1 21  1  0  0  0  0
  3  4  1  6  0  0  0
  3  8  1  0  0  0  0
  3 28  1  0  0  0  0
  5  9  1  0  0  0  0
  5 25  1  0  0  0  0
  5 29  1  1  0  0  0
  6  7  1  1  0  0  0
  6 11  1  0  0  0  0
  8 12  1  0  0  0  0
  9 10  1  1  0  0  0
  9 14  1  0  0  0  0
 11 16  1  0  0  0  0
 12 13  1  1  0  0  0
 12 17  1  0  0  0  0
 14 15  1  6  0  0  0
 14 18  1  0  0  0  0
 15 31  1  0  0  0  0
 16 20  1  0  0  0  0
 17  2  1  1  0  0  0
 17 22  1  0  0  0  0
 18 19  1  6  0  0  0
 18 24  1  0  0  0  0
 18 30  1  0  0  0  0
 20 21  1  0  0  0  0
 20 26  1  6  0  0  0
 22 23  1  6  0  0  0
 22 28  1  0  0  0  0
 24 25  1  0  0  0  0
 26 27  1  0  0  0  0
 28 29  1  6  0  0  0
M  END
>  <CHROM.1>
-147.41716782,152.68675077,-138.68035333,89.28858984,-171.57584540,73.56077425
3.61701940,-1.57416241,38.81229570,-1.34900116,0.02562321,-1.48354022

>  <Name>
2et3_lig

>  <RI>
1.07224e+07

>  <Rbt.Current_Directory>
/home/itssahil/PROJECTS/Mol_Feturizer/New_Systems/rnas/2et3

>  <Rbt.Executable>
rbdock ($Id: //depot/dev/client3/rdock/2013.1/src/exe/rbdock.cxx#4 $)

>  <Rbt.Library>
libRbt.so (2013.1, Build901 2013/11/27)

>  <Rbt.Parameter_File>
/export/apps/rDock/src/rDock_2013.1_src/data/scripts/dock_solv.prm

>  <Rbt.Receptor>
prm/blind_docking_80.prm

>  <SCORE>
-16.4336

>  <SCORE.INTER>
-15.1418

>  <SCORE.INTER.CONST>
1

>  <SCORE.INTER.POLAR>
-1.71887

>  <SCORE.INTER.ROT>
6

>  <SCORE.INTER.SOLV>
16.2653

>  <SCORE.INTER.VDW>
-17.3867

>  <SCORE.INTER.norm>
-0.488446

>  <SCORE.INTRA>
-3.20293

>  <SCORE.INTRA.DIHEDRAL>
-9.42683

>  <SCORE.INTRA.DIHEDRAL.0>
22.2484

>  <SCORE.INTRA.POLAR>
0

>  <SCORE.INTRA.POLAR.0>
0

>  <SCORE.INTRA.REPUL>
0

>  <SCORE.INTRA.REPUL.0>
0

>  <SCORE.INTRA.SOLV>
0.697031

>  <SCORE.INTRA.SOLV.lig_0>
-75.7198

>  <SCORE.INTRA.VDW>
1.16197

>  <SCORE.INTRA.VDW.0>
-3.34171

>  <SCORE.INTRA.norm>
-0.10332

>  <SCORE.RESTR>
1.91116

>  <SCORE.RESTR.CAVITY>
1.91116

>  <SCORE.RESTR.norm>
0.0616503

>  <SCORE.SYSTEM>
0

>  <SCORE.SYSTEM.CONST>
0

>  <SCORE.SYSTEM.DIHEDRAL>
0

>  <SCORE.SYSTEM.SOLV>
0

>  <SCORE.SYSTEM.norm>
0

>  <SCORE.heavy>
31

>  <SCORE.norm>
-0.530116

>  <RMSD>
13.164

$$$$
2et3_lig
 OpenBabel11021811423D
libRbt.so/2013.1/901 2013/11/27
 31 33  0  0  0  0  0  0  0  0999 V2000
    5.3984   -1.6792   40.3043 C   0  0  2  0  0  0  0  0  0  0  0  0
    4.4287   -0.6168   40.4970 O   0  0  0  0  0  0  0  0  0  0  0  0
    1.6475    1.0368   37.6976 C   0  0  2  0  0  0  0  0  0  0  0  0
    1.1540    1.7174   36.5405 N   0  0  0  0  0  0  0  0  0  0  0  0
    1.8412   -1.2725   35.0567 C   0  0  2  0  0  0  0  0  0  0  0  0
    5.3994   -2.6074   41.5237 C   0  0  2  0  0  0  0  0  0  0  0  0
    4.0715   -3.1004   41.7227 N   0  0  0  0  0  0  0  0  0  0  0  0
    2.5079    2.0204   38.5546 C   0  0  0  0  0  0  0  0  0  0  0  0
    2.3967   -2.7044   34.8932 C   0  0  2  0  0  0  0  0  0  0  0  0
    1.4734   -3.6182   35.4416 O   0  0  0  0  0  0  0  0  0  0  0  0
    5.9364   -1.8506   42.7864 C   0  0  0  0  0  0  0  0  0  0  0  0
    3.0621    1.2778   39.8252 C   0  0  2  0  0  0  0  0  0  0  0  0
    3.8737    2.1999   40.6355 N   0  0  0  0  0  0  0  0  0  0  0  0
    3.7981   -2.7709   35.6271 C   0  0  1  0  0  0  0  0  0  0  0  0
    4.3893   -4.1473   35.5568 N   0  0  0  0  0  0  0  0  0  0  0  0
    7.3935   -1.3794   42.4835 C   0  0  0  0  0  0  0  0  0  0  0  0
    3.9176    0.0315   39.3764 C   0  0  2  0  0  0  0  0  0  0  0  0
    4.8212   -1.6951   34.9792 C   0  0  1  0  0  0  0  0  0  0  0  0
    5.0736   -1.9806   33.6190 O   0  0  0  0  0  0  0  0  0  0  0  0
    7.3663   -0.4422   41.1968 C   0  0  2  0  0  0  0  0  0  0  0  0
    6.7441   -1.0969   40.0473 O   0  0  0  0  0  0  0  0  0  0  0  0
    3.0235   -0.9396   38.5131 C   0  0  2  0  0  0  0  0  0  0  0  0
    3.7766   -2.0753   38.0999 O   0  0  0  0  0  0  0  0  0  0  0  0
    4.1817   -0.2742   35.0538 C   0  0  0  0  0  0  0  0  0  0  0  0
    2.7971   -0.2864   34.4747 O   0  0  0  0  0  0  0  0  0  0  0  0
    8.7184    0.1020   40.8001 C   0  0  0  0  0  0  0  0  0  0  0  0
    8.6023    1.2238   39.9057 N   0  0  0  0  0  0  0  0  0  0  0  0
    2.4787   -0.1811   37.2521 C   0  0  1  0  0  0  0  0  0  0  0  0
    1.6701   -1.0703   36.4914 O   0  0  0  0  0  0  0  0  0  0  0  0
    6.2271   -1.6216   35.5904 C   0  0  0  0  0  0  0  0  0  0  0  0
    3.8856   -5.1438   36.5166 C   0  0  0  0  0  0  0  0  0  0  0  0
  1  2  1  1  0  0  0
  1  6  1  0  0  0  0
  1 21  1  0  0  0  0
  3  4  1  6  0  0  0
  3  8  1  0  0  0  0
  3 28  1  0  0  0  0
  5  9  1  0  0  0  0
  5 25  1  0  0  0  0
  5 29  1  1  0  0  0
  6  7  1  1  0  0  0
  6 11  1  0  0  0  0
  8 12  1  0  0  0  0
  9 10  1  1  0  0  0
  9 14  1  0  0  0  0
 11 16  1  0  0  0  0
 12 13  1  6  0  0  0
 12 17  1  0  0  0  0
 14 15  1  6  0  0  0
 14 18  1  0  0  0  0
 15 31  1  0  0  0  0
 16 20  1  0  0  0  0
 17  2  1  1  0  0  0
 17 22  1  0  0  0  0
 18 19  1  6  0  0  0
 18 24  1  0  0  0  0
 18 30  1  0  0  0  0
 20 21  1  0  0  0  0
 20 26  1  6  0  0  0
 22 23  1  6  0  0  0
 22 28  1  0  0  0  0
 24 25  1  0  0  0  0
 26 27  1  0  0  0  0
 28 29  1  1  0  0  0
M  END
>  <CHROM.1>
-157.11200773,110.47022105,-80.35084497,-171.47263116,-163.04502988,110.09302737
4.25855974,-1.08887626,38.06237770,-0.83184857,0.74608741,-2.30948294

>  <Name>
2et3_lig

>  <RI>
1.07224e+07

>  <Rbt.Current_Directory>
/home/itssahil/PROJECTS/Mol_Feturizer/New_Systems/rnas/2et3

>  <Rbt.Executable>
rbdock ($Id: //depot/dev/client3/rdock/2013.1/src/exe/rbdock.cxx#4 $)

>  <Rbt.Library>
libRbt.so (2013.1, Build901 2013/11/27)

>  <Rbt.Parameter_File>
/export/apps/rDock/src/rDock_2013.1_src/data/scripts/dock_solv.prm

>  <Rbt.Receptor>
prm/blind_docking_80.prm

>  <SCORE>
-8.61469

>  <SCORE.INTER>
-10.1355

>  <SCORE.INTER.CONST>
1

>  <SCORE.INTER.POLAR>
-1.54079

>  <SCORE.INTER.ROT>
6

>  <SCORE.INTER.SOLV>
26.5873

>  <SCORE.INTER.VDW>
-18.0835

>  <SCORE.INTER.norm>
-0.326952

>  <SCORE.INTRA>
-0.277658

>  <SCORE.INTRA.DIHEDRAL>
-4.70538

>  <SCORE.INTRA.DIHEDRAL.0>
22.2484

>  <SCORE.INTRA.POLAR>
0

>  <SCORE.INTRA.POLAR.0>
0

>  <SCORE.INTRA.REPUL>
0

>  <SCORE.INTRA.REPUL.0>
0

>  <SCORE.INTRA.SOLV>
-0.949898

>  <SCORE.INTRA.SOLV.lig_0>
-75.7198

>  <SCORE.INTRA.VDW>
2.54998

>  <SCORE.INTRA.VDW.0>
-3.34171

>  <SCORE.INTRA.norm>
-0.00895671

>  <SCORE.RESTR>
1.79847

>  <SCORE.RESTR.CAVITY>
1.79847

>  <SCORE.RESTR.norm>
0.0580152

>  <SCORE.SYSTEM>
0

>  <SCORE.SYSTEM.CONST>
0

>  <SCORE.SYSTEM.DIHEDRAL>
0

>  <SCORE.SYSTEM.SOLV>
0

>  <SCORE.SYSTEM.norm>
0

>  <SCORE.heavy>
31

>  <SCORE.norm>
-0.277893

>  <RMSD>
13.189

$$$$
2et3_lig
 OpenBabel11021811423D
libRbt.so/2013.1/901 2013/11/27
 31 33  0  0  0  0  0  0  0  0999 V2000
    5.8269   -2.3828   41.1383 C   0  0  2  0  0  0  0  0  0  0  0  0
    5.0554   -1.1814   40.8785 O   0  0  0  0  0  0  0  0  0  0  0  0
    1.9093   -2.8007   38.4730 C   0  0  2  0  0  0  0  0  0  0  0  0
    0.7855   -2.8478   37.5896 N   0  0  0  0  0  0  0  0  0  0  0  0
    3.3338   -2.3209   35.2383 C   0  0  2  0  0  0  0  0  0  0  0  0
    5.8592   -2.6624   42.6446 C   0  0  2  0  0  0  0  0  0  0  0  0
    4.5134   -2.7561   43.1201 N   0  0  0  0  0  0  0  0  0  0  0  0
    1.5218   -2.0188   39.7694 C   0  0  0  0  0  0  0  0  0  0  0  0
    4.2455   -1.0744   35.2118 C   0  0  2  0  0  0  0  0  0  0  0  0
    5.5655   -1.4672   35.5145 O   0  0  0  0  0  0  0  0  0  0  0  0
    6.6655   -1.5450   43.3908 C   0  0  0  0  0  0  0  0  0  0  0  0
    2.7548   -1.9543   40.7434 C   0  0  2  0  0  0  0  0  0  0  0  0
    2.3950   -1.2184   41.9659 N   0  0  0  0  0  0  0  0  0  0  0  0
    3.6833   -0.0360   36.2666 C   0  0  1  0  0  0  0  0  0  0  0  0
    4.5419    1.1913   36.3394 N   0  0  0  0  0  0  0  0  0  0  0  0
    8.1206   -1.5406   42.8259 C   0  0  0  0  0  0  0  0  0  0  0  0
    3.9681   -1.2606   40.0132 C   0  0  2  0  0  0  0  0  0  0  0  0
    2.1616    0.3741   35.8923 C   0  0  1  0  0  0  0  0  0  0  0  0
    2.0965    1.0140   34.6346 O   0  0  0  0  0  0  0  0  0  0  0  0
    8.0549   -1.2777   41.2571 C   0  0  2  0  0  0  0  0  0  0  0  0
    7.1951   -2.2396   40.5694 O   0  0  0  0  0  0  0  0  0  0  0  0
    4.3332   -2.0706   38.7099 C   0  0  2  0  0  0  0  0  0  0  0  0
    5.4304   -1.4625   38.0362 O   0  0  0  0  0  0  0  0  0  0  0  0
    1.2904   -0.9174   35.8120 C   0  0  0  0  0  0  0  0  0  0  0  0
    1.9314   -1.9324   34.9111 O   0  0  0  0  0  0  0  0  0  0  0  0
    9.4050   -1.2305   40.5812 C   0  0  0  0  0  0  0  0  0  0  0  0
   10.1097   -2.4794   40.7059 N   0  0  0  0  0  0  0  0  0  0  0  0
    3.0914   -2.1255   37.7523 C   0  0  1  0  0  0  0  0  0  0  0  0
    3.4381   -2.8652   36.5878 O   0  0  0  0  0  0  0  0  0  0  0  0
    1.4619    1.3678   36.8296 C   0  0  0  0  0  0  0  0  0  0  0  0
    4.6178    1.8812   37.6380 C   0  0  0  0  0  0  0  0  0  0  0  0
  1  2  1  1  0  0  0
  1  6  1  0  0  0  0
  1 21  1  0  0  0  0
  3  4  1  6  0  0  0
  3  8  1  0  0  0  0
  3 28  1  0  0  0  0
  5  9  1  0  0  0  0
  5 25  1  0  0  0  0
  5 29  1  1  0  0  0
  6  7  1  1  0  0  0
  6 11  1  0  0  0  0
  8 12  1  0  0  0  0
  9 10  1  1  0  0  0
  9 14  1  0  0  0  0
 11 16  1  0  0  0  0
 12 13  1  1  0  0  0
 12 17  1  0  0  0  0
 14 15  1  6  0  0  0
 14 18  1  0  0  0  0
 15 31  1  0  0  0  0
 16 20  1  0  0  0  0
 17  2  1  1  0  0  0
 17 22  1  0  0  0  0
 18 19  1  6  0  0  0
 18 24  1  0  0  0  0
 18 30  1  0  0  0  0
 20 21  1  0  0  0  0
 20 26  1  6  0  0  0
 22 23  1  6  0  0  0
 22 28  1  0  0  0  0
 24 25  1  0  0  0  0
 26 27  1  0  0  0  0
 28 29  1  6  0  0  0
M  END
>  <CHROM.1>
-123.44015367,59.26837346,-148.96043067,75.97320474,61.74853382,116.77686527
4.37346690,-1.33514870,38.70080405,0.90782032,0.12080795,1.86706766

>  <Name>
2et3_lig

>  <RI>
1.07224e+07

>  <Rbt.Current_Directory>
/home/itssahil/PROJECTS/Mol_Feturizer/New_Systems/rnas/2et3

>  <Rbt.Executable>
rbdock ($Id: //depot/dev/client3/rdock/2013.1/src/exe/rbdock.cxx#4 $)

>  <Rbt.Library>
libRbt.so (2013.1, Build901 2013/11/27)

>  <Rbt.Parameter_File>
/export/apps/rDock/src/rDock_2013.1_src/data/scripts/dock_solv.prm

>  <Rbt.Receptor>
prm/blind_docking_80.prm

>  <SCORE>
-4.83235

>  <SCORE.INTER>
-10.3115

>  <SCORE.INTER.CONST>
1

>  <SCORE.INTER.POLAR>
0

>  <SCORE.INTER.ROT>
6

>  <SCORE.INTER.SOLV>
13.3304

>  <SCORE.INTER.VDW>
-18.9178

>  <SCORE.INTER.norm>
-0.332629

>  <SCORE.INTRA>
4.58995

>  <SCORE.INTRA.DIHEDRAL>
-6.03948

>  <SCORE.INTRA.DIHEDRAL.0>
22.2484

>  <SCORE.INTRA.POLAR>
0

>  <SCORE.INTRA.POLAR.0>
0

>  <SCORE.INTRA.REPUL>
0

>  <SCORE.INTRA.REPUL.0>
0

>  <SCORE.INTRA.SOLV>
5.43468

>  <SCORE.INTRA.SOLV.lig_0>
-75.7198

>  <SCORE.INTRA.VDW>
4.89235

>  <SCORE.INTRA.VDW.0>
-3.34171

>  <SCORE.INTRA.norm>
0.148063

>  <SCORE.RESTR>
0.889193

>  <SCORE.RESTR.CAVITY>
0.889193

>  <SCORE.RESTR.norm>
0.0286836

>  <SCORE.SYSTEM>
0

>  <SCORE.SYSTEM.CONST>
0

>  <SCORE.SYSTEM.DIHEDRAL>
0

>  <SCORE.SYSTEM.SOLV>
0

>  <SCORE.SYSTEM.norm>
0

>  <SCORE.heavy>
31

>  <SCORE.norm>
-0.155882

>  <RMSD>
13.212

$$$$
2et3_lig
 OpenBabel11021811423D
libRbt.so/2013.1/901 2013/11/27
 31 33  0  0  0  0  0  0  0  0999 V2000
    2.5805    0.0171   37.2444 C   0  0  2  0  0  0  0  0  0  0  0  0
    2.0192   -1.2569   37.6545 O   0  0  0  0  0  0  0  0  0  0  0  0
    3.5497   -1.4852   41.6435 C   0  0  2  0  0  0  0  0  0  0  0  0
    3.8597   -2.0231   42.9319 N   0  0  0  0  0  0  0  0  0  0  0  0
    6.3334   -1.3098   41.5337 C   0  0  2  0  0  0  0  0  0  0  0  0
    1.6341    0.7062   36.2556 C   0  0  2  0  0  0  0  0  0  0  0  0
    0.3500    0.8405   36.8714 N   0  0  0  0  0  0  0  0  0  0  0  0
    1.9996   -1.4641   41.4458 C   0  0  0  0  0  0  0  0  0  0  0  0
    6.7769   -0.2261   40.5264 C   0  0  2  0  0  0  0  0  0  0  0  0
    5.6351    0.2956   39.8841 O   0  0  0  0  0  0  0  0  0  0  0  0
    1.5575   -0.1043   34.9168 C   0  0  0  0  0  0  0  0  0  0  0  0
    1.6495   -0.8820   40.0275 C   0  0  2  0  0  0  0  0  0  0  0  0
    0.1906   -0.8605   39.8362 N   0  0  0  0  0  0  0  0  0  0  0  0
    7.7769   -0.8960   39.4977 C   0  0  1  0  0  0  0  0  0  0  0  0
    8.2224    0.0806   38.4505 N   0  0  0  0  0  0  0  0  0  0  0  0
    2.9941   -0.1707   34.3097 C   0  0  0  0  0  0  0  0  0  0  0  0
    2.3439   -1.7550   38.9129 C   0  0  2  0  0  0  0  0  0  0  0  0
    9.0632   -1.4969   40.2775 C   0  0  1  0  0  0  0  0  0  0  0  0
    9.7914   -0.4770   40.9294 O   0  0  0  0  0  0  0  0  0  0  0  0
    3.9606   -0.8635   35.3684 C   0  0  2  0  0  0  0  0  0  0  0  0
    3.9363   -0.1891   36.6653 O   0  0  0  0  0  0  0  0  0  0  0  0
    3.9046   -1.7583   39.1407 C   0  0  2  0  0  0  0  0  0  0  0  0
    4.5524   -2.5391   38.1415 O   0  0  0  0  0  0  0  0  0  0  0  0
    8.5757   -2.5009   41.3673 C   0  0  0  0  0  0  0  0  0  0  0  0
    7.5246   -1.8712   42.2341 O   0  0  0  0  0  0  0  0  0  0  0  0
    5.3889   -1.0086   34.8988 C   0  0  0  0  0  0  0  0  0  0  0  0
    5.5043   -1.9557   33.8211 N   0  0  0  0  0  0  0  0  0  0  0  0
    4.2339   -2.3402   40.5603 C   0  0  1  0  0  0  0  0  0  0  0  0
    5.6437   -2.3282   40.7491 O   0  0  0  0  0  0  0  0  0  0  0  0
   10.1272   -2.1970   39.4211 C   0  0  0  0  0  0  0  0  0  0  0  0
    8.2810   -0.4050   37.0616 C   0  0  0  0  0  0  0  0  0  0  0  0
  1  2  1  6  0  0  0
  1  6  1  0  0  0  0
  1 21  1  0  0  0  0
  3  4  1  1  0  0  0
  3  8  1  0  0  0  0
  3 28  1  0  0  0  0
  5  9  1  0  0  0  0
  5 25  1  0  0  0  0
  5 29  1  6  0  0  0
  6  7  1  1  0  0  0
  6 11  1  0  0  0  0
  8 12  1  0  0  0  0
  9 10  1  6  0  0  0
  9 14  1  0  0  0  0
 11 16  1  0  0  0  0
 12 13  1  6  0  0  0
 12 17  1  0  0  0  0
 14 15  1  6  0  0  0
 14 18  1  0  0  0  0
 15 31  1  0  0  0  0
 16 20  1  0  0  0  0
 17  2  1  6  0  0  0
 17 22  1  0  0  0  0
 18 19  1  1  0  0  0
 18 24  1  0  0  0  0
 18 30  1  0  0  0  0
 20 21  1  0  0  0  0
 20 26  1  6  0  0  0
 22 23  1  6  0  0  0
 22 28  1  0  0  0  0
 24 25  1  0  0  0  0
 26 27  1  0  0  0  0
 28 29  1  1  0  0  0
M  END
>  <CHROM.1>
-151.56856998,-93.84340065,-137.49710428,70.31727982,-68.17084373,-19.42180809
4.88151113,-1.05145617,38.79561762,-2.53179430,-0.05012190,1.73604200

>  <Name>
2et3_lig

>  <RI>
1.07224e+07

>  <Rbt.Current_Directory>
/home/itssahil/PROJECTS/Mol_Feturizer/New_Systems/rnas/2et3

>  <Rbt.Executable>
rbdock ($Id: //depot/dev/client3/rdock/2013.1/src/exe/rbdock.cxx#4 $)

>  <Rbt.Library>
libRbt.so (2013.1, Build901 2013/11/27)

>  <Rbt.Parameter_File>
/export/apps/rDock/src/rDock_2013.1_src/data/scripts/dock_solv.prm

>  <Rbt.Receptor>
prm/blind_docking_80.prm

>  <SCORE>
1.4063

>  <SCORE.INTER>
-1.51822

>  <SCORE.INTER.CONST>
1

>  <SCORE.INTER.POLAR>
-1.15255

>  <SCORE.INTER.ROT>
6

>  <SCORE.INTER.SOLV>
17.8958

>  <SCORE.INTER.VDW>
-10.7356

>  <SCORE.INTER.norm>
-0.0489748

>  <SCORE.INTRA>
-0.595589

>  <SCORE.INTRA.DIHEDRAL>
-7.31906

>  <SCORE.INTRA.DIHEDRAL.0>
22.2484

>  <SCORE.INTRA.POLAR>
0

>  <SCORE.INTRA.POLAR.0>
0

>  <SCORE.INTRA.REPUL>
0.402024

>  <SCORE.INTRA.REPUL.0>
0

>  <SCORE.INTRA.SOLV>
0.59746

>  <SCORE.INTRA.SOLV.lig_0>
-75.7198

>  <SCORE.INTRA.VDW>
0.755091

>  <SCORE.INTRA.VDW.0>
-3.34171

>  <SCORE.INTRA.norm>
-0.0192125

>  <SCORE.RESTR>
3.5201

>  <SCORE.RESTR.CAVITY>
3.5201

>  <SCORE.RESTR.norm>
0.113552

>  <SCORE.SYSTEM>
0

>  <SCORE.SYSTEM.CONST>
0

>  <SCORE.SYSTEM.DIHEDRAL>
0

>  <SCORE.SYSTEM.SOLV>
0

>  <SCORE.SYSTEM.norm>
0

>  <SCORE.heavy>
31

>  <SCORE.norm>
0.0453644

>  <RMSD>
13.215

$$$$
2et3_lig
 OpenBabel11021811423D
libRbt.so/2013.1/901 2013/11/27
 31 33  0  0  0  0  0  0  0  0999 V2000
    0.4439   -2.7772   38.8887 C   0  0  2  0  0  0  0  0  0  0  0  0
    0.7120   -1.7378   37.9119 O   0  0  0  0  0  0  0  0  0  0  0  0
    4.7263   -2.7661   36.8468 C   0  0  2  0  0  0  0  0  0  0  0  0
    6.0081   -2.6889   36.2170 N   0  0  0  0  0  0  0  0  0  0  0  0
    5.4057   -0.5758   39.8889 C   0  0  2  0  0  0  0  0  0  0  0  0
   -1.0655   -3.0247   38.9810 C   0  0  2  0  0  0  0  0  0  0  0  0
   -1.5547   -3.3519   37.6773 N   0  0  0  0  0  0  0  0  0  0  0  0
    3.6152   -2.8944   35.7553 C   0  0  0  0  0  0  0  0  0  0  0  0
    6.8525   -0.2477   40.3189 C   0  0  2  0  0  0  0  0  0  0  0  0
    7.5040    0.4183   39.2604 O   0  0  0  0  0  0  0  0  0  0  0  0
   -1.7898   -1.7700   39.5783 C   0  0  0  0  0  0  0  0  0  0  0  0
    2.2010   -2.9711   36.4388 C   0  0  2  0  0  0  0  0  0  0  0  0
    1.1508   -3.0916   35.4148 N   0  0  0  0  0  0  0  0  0  0  0  0
    7.5718   -1.6085   40.6901 C   0  0  1  0  0  0  0  0  0  0  0  0
    9.0035   -1.3847   41.0760 N   0  0  0  0  0  0  0  0  0  0  0  0
   -1.2113   -1.5124   41.0051 C   0  0  0  0  0  0  0  0  0  0  0  0
    1.9716   -1.6852   37.3221 C   0  0  2  0  0  0  0  0  0  0  0  0
    6.7825   -2.3484   41.8957 C   0  0  1  0  0  0  0  0  0  0  0  0
    6.7887   -1.5648   43.0710 O   0  0  0  0  0  0  0  0  0  0  0  0
    0.3601   -1.2880   40.8824 C   0  0  2  0  0  0  0  0  0  0  0  0
    1.0272   -2.3986   40.2049 O   0  0  0  0  0  0  0  0  0  0  0  0
    3.1083   -1.5827   38.4108 C   0  0  2  0  0  0  0  0  0  0  0  0
    2.9178   -0.4287   39.2230 O   0  0  0  0  0  0  0  0  0  0  0  0
    5.2950   -2.5611   41.4766 C   0  0  0  0  0  0  0  0  0  0  0  0
    4.6915   -1.2733   40.9971 O   0  0  0  0  0  0  0  0  0  0  0  0
    1.0490   -1.0088   42.1974 C   0  0  0  0  0  0  0  0  0  0  0  0
    2.2038   -0.1664   42.0282 N   0  0  0  0  0  0  0  0  0  0  0  0
    4.5106   -1.5091   37.7106 C   0  0  1  0  0  0  0  0  0  0  0  0
    5.5213   -1.4245   38.7079 O   0  0  0  0  0  0  0  0  0  0  0  0
    7.3458   -3.6958   42.3678 C   0  0  0  0  0  0  0  0  0  0  0  0
    9.9557   -1.1045   39.9884 C   0  0  0  0  0  0  0  0  0  0  0  0
  1  2  1  6  0  0  0
  1  6  1  0  0  0  0
  1 21  1  0  0  0  0
  3  4  1  6  0  0  0
  3  8  1  0  0  0  0
  3 28  1  0  0  0  0
  5  9  1  0  0  0  0
  5 25  1  0  0  0  0
  5 29  1  6  0  0  0
  6  7  1  6  0  0  0
  6 11  1  0  0  0  0
  8 12  1  0  0  0  0
  9 10  1  6  0  0  0
  9 14  1  0  0  0  0
 11 16  1  0  0  0  0
 12 13  1  6  0  0  0
 12 17  1  0  0  0  0
 14 15  1  1  0  0  0
 14 18  1  0  0  0  0
 15 31  1  0  0  0  0
 16 20  1  0  0  0  0
 17  2  1  1  0  0  0
 17 22  1  0  0  0  0
 18 19  1  1  0  0  0
 18 24  1  0  0  0  0
 18 30  1  0  0  0  0
 20 21  1  0  0  0  0
 20 26  1  1  0  0  0
 22 23  1  6  0  0  0
 22 28  1  0  0  0  0
 24 25  1  0  0  0  0
 26 27  1  0  0  0  0
 28 29  1  1  0  0  0
M  END
>  <CHROM.1>
-157.12708214,-153.89016765,-75.33968026,65.51205106,-149.69302705,-163.02526151
3.68280535,-1.78791714,39.46233557,2.86917780,-0.05619425,-1.75664522

>  <Name>
2et3_lig

>  <RI>
0

>  <Rbt.Current_Directory>
/home/itssahil/PROJECTS/Mol_Feturizer/New_Systems/rnas/2et3

>  <Rbt.Executable>
rbdock ($Id: //depot/dev/client3/rdock/2013.1/src/exe/rbdock.cxx#4 $)

>  <Rbt.Library>
libRbt.so (2013.1, Build901 2013/11/27)

>  <Rbt.Parameter_File>
/export/apps/rDock/src/rDock_2013.1_src/data/scripts/dock_solv.prm

>  <Rbt.Receptor>
prm/blind_docking_60.prm

>  <SCORE>
-4.40202

>  <SCORE.INTER>
-3.11056

>  <SCORE.INTER.CONST>
1

>  <SCORE.INTER.POLAR>
0

>  <SCORE.INTER.ROT>
6

>  <SCORE.INTER.SOLV>
12.4876

>  <SCORE.INTER.VDW>
-13.8362

>  <SCORE.INTER.norm>
-0.100341

>  <SCORE.INTRA>
-3.50113

>  <SCORE.INTRA.DIHEDRAL>
-12.6788

>  <SCORE.INTRA.DIHEDRAL.0>
22.2484

>  <SCORE.INTRA.POLAR>
0

>  <SCORE.INTRA.POLAR.0>
0

>  <SCORE.INTRA.REPUL>
0.0659412

>  <SCORE.INTRA.REPUL.0>
0

>  <SCORE.INTRA.SOLV>
1.50413

>  <SCORE.INTRA.SOLV.lig_0>
-75.7198

>  <SCORE.INTRA.VDW>
1.7565

>  <SCORE.INTRA.VDW.0>
-3.34171

>  <SCORE.INTRA.norm>
-0.11294

>  <SCORE.RESTR>
2.20966

>  <SCORE.RESTR.CAVITY>
2.20966

>  <SCORE.RESTR.norm>
0.0712795

>  <SCORE.SYSTEM>
0

>  <SCORE.SYSTEM.CONST>
0

>  <SCORE.SYSTEM.DIHEDRAL>
0

>  <SCORE.SYSTEM.SOLV>
0

>  <SCORE.SYSTEM.norm>
0

>  <SCORE.heavy>
31

>  <SCORE.norm>
-0.142001

>  <RMSD>
13.223

$$$$
2et3_lig
 OpenBabel11021811423D
libRbt.so/2013.1/901 2013/11/27
 31 33  0  0  0  0  0  0  0  0999 V2000
    1.0888    0.1685   36.7134 C   0  0  2  0  0  0  0  0  0  0  0  0
    1.4336   -1.2169   36.9743 O   0  0  0  0  0  0  0  0  0  0  0  0
    2.2948   -1.0883   41.1634 C   0  0  2  0  0  0  0  0  0  0  0  0
    2.4644   -1.5342   42.5117 N   0  0  0  0  0  0  0  0  0  0  0  0
    5.7249   -2.4849   40.3065 C   0  0  2  0  0  0  0  0  0  0  0  0
    1.1023    0.4304   35.2036 C   0  0  2  0  0  0  0  0  0  0  0  0
    0.2073   -0.4902   34.5730 N   0  0  0  0  0  0  0  0  0  0  0  0
    0.8146   -1.3202   40.7191 C   0  0  0  0  0  0  0  0  0  0  0  0
    6.5053   -2.7329   41.6162 C   0  0  2  0  0  0  0  0  0  0  0  0
    5.6443   -3.3404   42.5532 O   0  0  0  0  0  0  0  0  0  0  0  0
    2.5592    0.3068   34.6403 C   0  0  0  0  0  0  0  0  0  0  0  0
    0.6209   -0.8406   39.2340 C   0  0  2  0  0  0  0  0  0  0  0  0
   -0.7718   -1.0574   38.8106 N   0  0  0  0  0  0  0  0  0  0  0  0
    7.0479   -1.3380   42.1326 C   0  0  1  0  0  0  0  0  0  0  0  0
    7.7819   -1.4820   43.4323 N   0  0  0  0  0  0  0  0  0  0  0  0
    3.4485    1.3653   35.3651 C   0  0  0  0  0  0  0  0  0  0  0  0
    1.6163   -1.6220   38.2933 C   0  0  2  0  0  0  0  0  0  0  0  0
    8.0166   -0.6675   41.0209 C   0  0  1  0  0  0  0  0  0  0  0  0
    9.1544   -1.4694   40.7801 O   0  0  0  0  0  0  0  0  0  0  0  0
    3.3925    1.0876   36.9317 C   0  0  2  0  0  0  0  0  0  0  0  0
    2.0229    1.0694   37.4428 O   0  0  0  0  0  0  0  0  0  0  0  0
    3.0992   -1.3701   38.7680 C   0  0  2  0  0  0  0  0  0  0  0  0
    4.0161   -2.0647   37.9286 O   0  0  0  0  0  0  0  0  0  0  0  0
    7.2363   -0.5373   39.6764 C   0  0  0  0  0  0  0  0  0  0  0  0
    6.6182   -1.8506   39.2944 O   0  0  0  0  0  0  0  0  0  0  0  0
    4.2294    2.0358   37.7578 C   0  0  0  0  0  0  0  0  0  0  0  0
    4.0996    1.7748   39.1673 N   0  0  0  0  0  0  0  0  0  0  0  0
    3.2724   -1.8527   40.2510 C   0  0  1  0  0  0  0  0  0  0  0  0
    4.6124   -1.6107   40.6623 O   0  0  0  0  0  0  0  0  0  0  0  0
    8.6174    0.7029   41.3621 C   0  0  0  0  0  0  0  0  0  0  0  0
    6.9692   -1.5479   44.6584 C   0  0  0  0  0  0  0  0  0  0  0  0
  1  2  1  6  0  0  0
  1  6  1  0  0  0  0
  1 21  1  0  0  0  0
  3  4  1  1  0  0  0
  3  8  1  0  0  0  0
  3 28  1  0  0  0  0
  5  9  1  0  0  0  0
  5 25  1  0  0  0  0
  5 29  1  1  0  0  0
  6  7  1  6  0  0  0
  6 11  1  0  0  0  0
  8 12  1  0  0  0  0
  9 10  1  1  0  0  0
  9 14  1  0  0  0  0
 11 16  1  0  0  0  0
 12 13  1  6  0  0  0
 12 17  1  0  0  0  0
 14 15  1  1  0  0  0
 14 18  1  0  0  0  0
 15 31  1  0  0  0  0
 16 20  1  0  0  0  0
 17  2  1  6  0  0  0
 17 22  1  0  0  0  0
 18 19  1  6  0  0  0
 18 24  1  0  0  0  0
 18 30  1  0  0  0  0
 20 21  1  0  0  0  0
 20 26  1  1  0  0  0
 22 23  1  6  0  0  0
 22 28  1  0  0  0  0
 24 25  1  0  0  0  0
 26 27  1  0  0  0  0
 28 29  1  1  0  0  0
M  END
>  <CHROM.1>
173.23728559,-132.46105313,-81.41466446,34.82747448,177.63292033,159.83081543
4.07317603,-0.80725952,39.36811024,2.38590118,-0.18140530,-1.11704758

>  <Name>
2et3_lig

>  <RI>
1.07224e+07

>  <Rbt.Current_Directory>
/home/itssahil/PROJECTS/Mol_Feturizer/New_Systems/rnas/2et3

>  <Rbt.Executable>
rbdock ($Id: //depot/dev/client3/rdock/2013.1/src/exe/rbdock.cxx#4 $)

>  <Rbt.Library>
libRbt.so (2013.1, Build901 2013/11/27)

>  <Rbt.Parameter_File>
/export/apps/rDock/src/rDock_2013.1_src/data/scripts/dock_solv.prm

>  <Rbt.Receptor>
prm/blind_docking_80.prm

>  <SCORE>
-16.9639

>  <SCORE.INTER>
-13.8362

>  <SCORE.INTER.CONST>
1

>  <SCORE.INTER.POLAR>
0

>  <SCORE.INTER.ROT>
6

>  <SCORE.INTER.SOLV>
17.3928

>  <SCORE.INTER.VDW>
-22.6217

>  <SCORE.INTER.norm>
-0.446329

>  <SCORE.INTRA>
-4.23378

>  <SCORE.INTRA.DIHEDRAL>
-10.5249

>  <SCORE.INTRA.DIHEDRAL.0>
22.2484

>  <SCORE.INTRA.POLAR>
0

>  <SCORE.INTRA.POLAR.0>
0

>  <SCORE.INTRA.REPUL>
0

>  <SCORE.INTRA.REPUL.0>
0

>  <SCORE.INTRA.SOLV>
1.32413

>  <SCORE.INTRA.SOLV.lig_0>
-75.7198

>  <SCORE.INTRA.VDW>
0.3666

>  <SCORE.INTRA.VDW.0>
-3.34171

>  <SCORE.INTRA.norm>
-0.136574

>  <SCORE.RESTR>
1.10614

>  <SCORE.RESTR.CAVITY>
1.10614

>  <SCORE.RESTR.norm>
0.0356819

>  <SCORE.SYSTEM>
0

>  <SCORE.SYSTEM.CONST>
0

>  <SCORE.SYSTEM.DIHEDRAL>
0

>  <SCORE.SYSTEM.SOLV>
0

>  <SCORE.SYSTEM.norm>
0

>  <SCORE.heavy>
31

>  <SCORE.norm>
-0.547221

>  <RMSD>
13.255

$$$$
2et3_lig
 OpenBabel11021811423D
libRbt.so/2013.1/901 2013/11/27
 31 33  0  0  0  0  0  0  0  0999 V2000
    0.4855   -0.9128   39.2469 C   0  0  2  0  0  0  0  0  0  0  0  0
    0.7214   -1.9928   38.3066 O   0  0  0  0  0  0  0  0  0  0  0  0
    4.6686   -2.9355   36.9510 C   0  0  2  0  0  0  0  0  0  0  0  0
    5.8551   -2.9056   36.1530 N   0  0  0  0  0  0  0  0  0  0  0  0
    5.4046   -0.3169   39.5483 C   0  0  2  0  0  0  0  0  0  0  0  0
    0.6916   -1.4181   40.6788 C   0  0  2  0  0  0  0  0  0  0  0  0
    2.0092   -1.9649   40.7843 N   0  0  0  0  0  0  0  0  0  0  0  0
    3.4575   -3.3804   36.0692 C   0  0  0  0  0  0  0  0  0  0  0  0
    6.8392   -0.1069   40.0807 C   0  0  2  0  0  0  0  0  0  0  0  0
    7.6129    0.5123   39.0775 O   0  0  0  0  0  0  0  0  0  0  0  0
   -0.4084   -2.4701   41.0510 C   0  0  0  0  0  0  0  0  0  0  0  0
    2.1462   -3.4077   36.9367 C   0  0  2  0  0  0  0  0  0  0  0  0
    1.0023   -3.8257   36.1105 N   0  0  0  0  0  0  0  0  0  0  0  0
    7.4221   -1.5226   40.4844 C   0  0  1  0  0  0  0  0  0  0  0  0
    8.8367   -1.4151   40.9704 N   0  0  0  0  0  0  0  0  0  0  0  0
   -1.8009   -1.7743   40.9348 C   0  0  0  0  0  0  0  0  0  0  0  0
    1.8930   -1.9795   37.5554 C   0  0  2  0  0  0  0  0  0  0  0  0
    6.4955   -2.2054   41.6240 C   0  0  1  0  0  0  0  0  0  0  0  0
    6.4813   -1.4322   42.8062 O   0  0  0  0  0  0  0  0  0  0  0  0
   -1.9754   -1.2342   39.4473 C   0  0  2  0  0  0  0  0  0  0  0  0
   -0.8795   -0.3541   39.0451 O   0  0  0  0  0  0  0  0  0  0  0  0
    3.1317   -1.5587   38.4365 C   0  0  2  0  0  0  0  0  0  0  0  0
    2.9221   -0.2716   39.0086 O   0  0  0  0  0  0  0  0  0  0  0  0
    5.0286   -2.2973   41.1011 C   0  0  0  0  0  0  0  0  0  0  0  0
    4.5626   -0.9628   40.5965 O   0  0  0  0  0  0  0  0  0  0  0  0
   -3.2968   -0.5490   39.1897 C   0  0  0  0  0  0  0  0  0  0  0  0
   -3.3581    0.0149   37.8668 N   0  0  0  0  0  0  0  0  0  0  0  0
    4.4296   -1.5388   37.5550 C   0  0  1  0  0  0  0  0  0  0  0  0
    5.5351   -1.1646   38.3682 O   0  0  0  0  0  0  0  0  0  0  0  0
    6.9172   -3.5961   42.1178 C   0  0  0  0  0  0  0  0  0  0  0  0
    9.8671   -1.0898   39.9701 C   0  0  0  0  0  0  0  0  0  0  0  0
  1  2  1  6  0  0  0
  1  6  1  0  0  0  0
  1 21  1  0  0  0  0
  3  4  1  6  0  0  0
  3  8  1  0  0  0  0
  3 28  1  0  0  0  0
  5  9  1  0  0  0  0
  5 25  1  0  0  0  0
  5 29  1  6  0  0  0
  6  7  1  6  0  0  0
  6 11  1  0  0  0  0
  8 12  1  0  0  0  0
  9 10  1  6  0  0  0
  9 14  1  0  0  0  0
 11 16  1  0  0  0  0
 12 13  1  6  0  0  0
 12 17  1  0  0  0  0
 14 15  1  1  0  0  0
 14 18  1  0  0  0  0
 15 31  1  0  0  0  0
 16 20  1  0  0  0  0
 17  2  1  1  0  0  0
 17 22  1  0  0  0  0
 18 19  1  1  0  0  0
 18 24  1  0  0  0  0
 18 30  1  0  0  0  0
 20 21  1  0  0  0  0
 20 26  1  1  0  0  0
 22 23  1  6  0  0  0
 22 28  1  0  0  0  0
 24 25  1  0  0  0  0
 26 27  1  0  0  0  0
 28 29  1  1  0  0  0
M  END
>  <CHROM.1>
-106.31852615,-177.18710060,-70.26072711,163.56909449,175.24300544,-148.47818856
3.34165613,-1.59175433,39.31213831,2.99574941,0.04613078,-1.81429858

>  <Name>
2et3_lig

>  <RI>
0

>  <Rbt.Current_Directory>
/home/itssahil/PROJECTS/Mol_Feturizer/New_Systems/rnas/2et3

>  <Rbt.Executable>
rbdock ($Id: //depot/dev/client3/rdock/2013.1/src/exe/rbdock.cxx#4 $)

>  <Rbt.Library>
libRbt.so (2013.1, Build901 2013/11/27)

>  <Rbt.Parameter_File>
/export/apps/rDock/src/rDock_2013.1_src/data/scripts/dock_solv.prm

>  <Rbt.Receptor>
prm/blind_docking_60.prm

>  <SCORE>
1.8702

>  <SCORE.INTER>
-4.41299

>  <SCORE.INTER.CONST>
1

>  <SCORE.INTER.POLAR>
0

>  <SCORE.INTER.ROT>
6

>  <SCORE.INTER.SOLV>
12.4326

>  <SCORE.INTER.VDW>
-14.6862

>  <SCORE.INTER.norm>
-0.142355

>  <SCORE.INTRA>
4.82469

>  <SCORE.INTRA.DIHEDRAL>
-10.5097

>  <SCORE.INTRA.DIHEDRAL.0>
22.2484

>  <SCORE.INTRA.POLAR>
0

>  <SCORE.INTRA.POLAR.0>
0

>  <SCORE.INTRA.REPUL>
0.160998

>  <SCORE.INTRA.REPUL.0>
0

>  <SCORE.INTRA.SOLV>
1.29436

>  <SCORE.INTRA.SOLV.lig_0>
-75.7198

>  <SCORE.INTRA.VDW>
8.62737

>  <SCORE.INTRA.VDW.0>
-3.34171

>  <SCORE.INTRA.norm>
0.155635

>  <SCORE.RESTR>
1.45851

>  <SCORE.RESTR.CAVITY>
1.45851

>  <SCORE.RESTR.norm>
0.0470485

>  <SCORE.SYSTEM>
0

>  <SCORE.SYSTEM.CONST>
0

>  <SCORE.SYSTEM.DIHEDRAL>
0

>  <SCORE.SYSTEM.SOLV>
0

>  <SCORE.SYSTEM.norm>
0

>  <SCORE.heavy>
31

>  <SCORE.norm>
0.0603291

>  <RMSD>
13.260

$$$$
2et3_lig
 OpenBabel11021811423D
libRbt.so/2013.1/901 2013/11/27
 31 33  0  0  0  0  0  0  0  0999 V2000
    1.0779    0.1359   36.7208 C   0  0  2  0  0  0  0  0  0  0  0  0
    1.4341   -1.2484   36.9719 O   0  0  0  0  0  0  0  0  0  0  0  0
    2.3827   -1.1125   41.1418 C   0  0  2  0  0  0  0  0  0  0  0  0
    2.5913   -1.5583   42.4847 N   0  0  0  0  0  0  0  0  0  0  0  0
    5.8182   -2.4515   40.2398 C   0  0  2  0  0  0  0  0  0  0  0  0
    1.0647    0.4021   35.2117 C   0  0  2  0  0  0  0  0  0  0  0  0
    0.1640   -0.5213   34.5935 N   0  0  0  0  0  0  0  0  0  0  0  0
    0.8987   -1.3759   40.7288 C   0  0  0  0  0  0  0  0  0  0  0  0
    6.5828   -2.7092   41.5569 C   0  0  2  0  0  0  0  0  0  0  0  0
    5.7113   -3.3259   42.4781 O   0  0  0  0  0  0  0  0  0  0  0  0
    2.5127    0.2876   34.6237 C   0  0  0  0  0  0  0  0  0  0  0  0
    0.6624   -0.8965   39.2498 C   0  0  2  0  0  0  0  0  0  0  0  0
   -0.7340   -1.1429   38.8559 N   0  0  0  0  0  0  0  0  0  0  0  0
    7.1165   -1.3178   42.0916 C   0  0  1  0  0  0  0  0  0  0  0  0
    7.8348   -1.4715   43.3990 N   0  0  0  0  0  0  0  0  0  0  0  0
    3.4085    1.3487   35.3366 C   0  0  0  0  0  0  0  0  0  0  0  0
    1.6542   -1.6531   38.2853 C   0  0  2  0  0  0  0  0  0  0  0  0
    8.0978   -0.6365   40.9976 C   0  0  1  0  0  0  0  0  0  0  0  0
    9.2398   -1.4345   40.7642 O   0  0  0  0  0  0  0  0  0  0  0  0
    3.3801    1.0663   36.9032 C   0  0  2  0  0  0  0  0  0  0  0  0
    2.0194    1.0396   37.4370 O   0  0  0  0  0  0  0  0  0  0  0  0
    3.1411   -1.3697   38.7287 C   0  0  2  0  0  0  0  0  0  0  0  0
    4.0547   -2.0415   37.8674 O   0  0  0  0  0  0  0  0  0  0  0  0
    7.3339   -0.4963   39.6447 C   0  0  0  0  0  0  0  0  0  0  0  0
    6.7229   -1.8074   39.2441 O   0  0  0  0  0  0  0  0  0  0  0  0
    4.2259    2.0165   37.7179 C   0  0  0  0  0  0  0  0  0  0  0  0
    4.1764    1.7068   39.1227 N   0  0  0  0  0  0  0  0  0  0  0  0
    3.3570   -1.8525   40.2060 C   0  0  1  0  0  0  0  0  0  0  0  0
    4.6999   -1.5821   40.5890 O   0  0  0  0  0  0  0  0  0  0  0  0
    8.6920    0.7320   41.3576 C   0  0  0  0  0  0  0  0  0  0  0  0
    7.0083   -1.5246   44.6165 C   0  0  0  0  0  0  0  0  0  0  0  0
  1  2  1  6  0  0  0
  1  6  1  0  0  0  0
  1 21  1  0  0  0  0
  3  4  1  1  0  0  0
  3  8  1  0  0  0  0
  3 28  1  0  0  0  0
  5  9  1  0  0  0  0
  5 25  1  0  0  0  0
  5 29  1  1  0  0  0
  6  7  1  6  0  0  0
  6 11  1  0  0  0  0
  8 12  1  0  0  0  0
  9 10  1  1  0  0  0
  9 14  1  0  0  0  0
 11 16  1  0  0  0  0
 12 13  1  6  0  0  0
 12 17  1  0  0  0  0
 14 15  1  1  0  0  0
 14 18  1  0  0  0  0
 15 31  1  0  0  0  0
 16 20  1  0  0  0  0
 17  2  1  6  0  0  0
 17 22  1  0  0  0  0
 18 19  1  6  0  0  0
 18 24  1  0  0  0  0
 18 30  1  0  0  0  0
 20 21  1  0  0  0  0
 20 26  1  1  0  0  0
 22 23  1  6  0  0  0
 22 28  1  0  0  0  0
 24 25  1  0  0  0  0
 26 27  1  0  0  0  0
 28 29  1  1  0  0  0
M  END
>  <CHROM.1>
172.59296843,-129.76328869,-82.48178060,35.97533075,-179.32201180,157.96703010
4.11825548,-0.81360020,39.34253293,2.40066560,-0.18725135,-1.11580172

>  <Name>
2et3_lig

>  <RI>
1.07224e+07

>  <Rbt.Current_Directory>
/home/itssahil/PROJECTS/Mol_Feturizer/New_Systems/rnas/2et3

>  <Rbt.Executable>
rbdock ($Id: //depot/dev/client3/rdock/2013.1/src/exe/rbdock.cxx#4 $)

>  <Rbt.Library>
libRbt.so (2013.1, Build901 2013/11/27)

>  <Rbt.Parameter_File>
/export/apps/rDock/src/rDock_2013.1_src/data/scripts/dock_solv.prm

>  <Rbt.Receptor>
prm/blind_docking_80.prm

>  <SCORE>
-16.9412

>  <SCORE.INTER>
-14.113

>  <SCORE.INTER.CONST>
1

>  <SCORE.INTER.POLAR>
0

>  <SCORE.INTER.ROT>
6

>  <SCORE.INTER.SOLV>
16.8827

>  <SCORE.INTER.VDW>
-22.6363

>  <SCORE.INTER.norm>
-0.455259

>  <SCORE.INTRA>
-3.94747

>  <SCORE.INTRA.DIHEDRAL>
-10.0764

>  <SCORE.INTRA.DIHEDRAL.0>
22.2484

>  <SCORE.INTRA.POLAR>
0

>  <SCORE.INTRA.POLAR.0>
0

>  <SCORE.INTRA.REPUL>
0.00468259

>  <SCORE.INTRA.REPUL.0>
0

>  <SCORE.INTRA.SOLV>
1.58962

>  <SCORE.INTRA.SOLV.lig_0>
-75.7198

>  <SCORE.INTRA.VDW>
0.272518

>  <SCORE.INTRA.VDW.0>
-3.34171

>  <SCORE.INTRA.norm>
-0.127338

>  <SCORE.RESTR>
1.11926

>  <SCORE.RESTR.CAVITY>
1.11926

>  <SCORE.RESTR.norm>
0.0361051

>  <SCORE.SYSTEM>
0

>  <SCORE.SYSTEM.CONST>
0

>  <SCORE.SYSTEM.DIHEDRAL>
0

>  <SCORE.SYSTEM.SOLV>
0

>  <SCORE.SYSTEM.norm>
0

>  <SCORE.heavy>
31

>  <SCORE.norm>
-0.546492

>  <RMSD>
13.263

$$$$
2et3_lig
 OpenBabel11021811423D
libRbt.so/2013.1/901 2013/11/27
 31 33  0  0  0  0  0  0  0  0999 V2000
    4.7722   -2.5622   42.1065 C   0  0  2  0  0  0  0  0  0  0  0  0
    3.9781   -1.3492   42.0424 O   0  0  0  0  0  0  0  0  0  0  0  0
    0.6804   -2.3279   39.4980 C   0  0  2  0  0  0  0  0  0  0  0  0
   -0.3227   -2.1854   38.4885 N   0  0  0  0  0  0  0  0  0  0  0  0
    2.0868   -2.9501   36.4351 C   0  0  2  0  0  0  0  0  0  0  0  0
    5.0946   -2.8940   43.5674 C   0  0  2  0  0  0  0  0  0  0  0  0
    3.8664   -2.9984   44.2931 N   0  0  0  0  0  0  0  0  0  0  0  0
    0.4656   -1.2449   40.6039 C   0  0  0  0  0  0  0  0  0  0  0  0
    3.5025   -3.0365   35.8237 C   0  0  2  0  0  0  0  0  0  0  0  0
    4.0304   -4.3202   36.0727 O   0  0  0  0  0  0  0  0  0  0  0  0
    6.0431   -1.8066   44.1785 C   0  0  0  0  0  0  0  0  0  0  0  0
    1.5699   -1.3885   41.7143 C   0  0  2  0  0  0  0  0  0  0  0  0
    1.3723   -0.3702   42.7582 N   0  0  0  0  0  0  0  0  0  0  0  0
    4.3873   -1.8985   36.4786 C   0  0  1  0  0  0  0  0  0  0  0  0
    5.7983   -1.9411   35.9725 N   0  0  0  0  0  0  0  0  0  0  0  0
    7.3601   -1.7889   43.3408 C   0  0  0  0  0  0  0  0  0  0  0  0
    2.9975   -1.2447   41.0602 C   0  0  2  0  0  0  0  0  0  0  0  0
    3.7372   -0.4445   36.1843 C   0  0  1  0  0  0  0  0  0  0  0  0
    3.7007   -0.1687   34.7993 O   0  0  0  0  0  0  0  0  0  0  0  0
    6.9926   -1.4714   41.8246 C   0  0  2  0  0  0  0  0  0  0  0  0
    6.0048   -2.4051   41.2865 O   0  0  0  0  0  0  0  0  0  0  0  0
    3.1826   -2.3483   39.9486 C   0  0  2  0  0  0  0  0  0  0  0  0
    4.4685   -2.2386   39.3467 O   0  0  0  0  0  0  0  0  0  0  0  0
    2.2682   -0.4269   36.7091 C   0  0  0  0  0  0  0  0  0  0  0  0
    1.5023   -1.6025   36.1762 O   0  0  0  0  0  0  0  0  0  0  0  0
    8.1855   -1.4066   40.9001 C   0  0  0  0  0  0  0  0  0  0  0  0
    7.8931   -0.6669   39.7004 N   0  0  0  0  0  0  0  0  0  0  0  0
    2.0718   -2.1902   38.8516 C   0  0  1  0  0  0  0  0  0  0  0  0
    2.2513   -3.1974   37.8635 O   0  0  0  0  0  0  0  0  0  0  0  0
    4.4696    0.7722   36.7664 C   0  0  0  0  0  0  0  0  0  0  0  0
    5.9893   -1.9000   34.5131 C   0  0  0  0  0  0  0  0  0  0  0  0
  1  2  1  1  0  0  0
  1  6  1  0  0  0  0
  1 21  1  0  0  0  0
  3  4  1  6  0  0  0
  3  8  1  0  0  0  0
  3 28  1  0  0  0  0
  5  9  1  0  0  0  0
  5 25  1  0  0  0  0
  5 29  1  1  0  0  0
  6  7  1  1  0  0  0
  6 11  1  0  0  0  0
  8 12  1  0  0  0  0
  9 10  1  1  0  0  0
  9 14  1  0  0  0  0
 11 16  1  0  0  0  0
 12 13  1  1  0  0  0
 12 17  1  0  0  0  0
 14 15  1  6  0  0  0
 14 18  1  0  0  0  0
 15 31  1  0  0  0  0
 16 20  1  0  0  0  0
 17  2  1  1  0  0  0
 17 22  1  0  0  0  0
 18 19  1  6  0  0  0
 18 24  1  0  0  0  0
 18 30  1  0  0  0  0
 20 21  1  0  0  0  0
 20 26  1  6  0  0  0
 22 23  1  6  0  0  0
 22 28  1  0  0  0  0
 24 25  1  0  0  0  0
 26 27  1  0  0  0  0
 28 29  1  6  0  0  0
M  END
>  <CHROM.1>
-144.83106725,110.36515045,54.23417650,106.80093703,-159.03833864,100.04479603
3.89756804,-1.80876733,39.28406493,-1.28871963,-0.04158964,-1.53698213

>  <Name>
2et3_lig

>  <RI>
1.07224e+07

>  <Rbt.Current_Directory>
/home/itssahil/PROJECTS/Mol_Feturizer/New_Systems/rnas/2et3

>  <Rbt.Executable>
rbdock ($Id: //depot/dev/client3/rdock/2013.1/src/exe/rbdock.cxx#4 $)

>  <Rbt.Library>
libRbt.so (2013.1, Build901 2013/11/27)

>  <Rbt.Parameter_File>
/export/apps/rDock/src/rDock_2013.1_src/data/scripts/dock_solv.prm

>  <Rbt.Receptor>
prm/blind_docking_80.prm

>  <SCORE>
0.0457231

>  <SCORE.INTER>
-7.99944

>  <SCORE.INTER.CONST>
1

>  <SCORE.INTER.POLAR>
0

>  <SCORE.INTER.ROT>
6

>  <SCORE.INTER.SOLV>
13.5071

>  <SCORE.INTER.VDW>
-17.4353

>  <SCORE.INTER.norm>
-0.258046

>  <SCORE.INTRA>
6.65109

>  <SCORE.INTRA.DIHEDRAL>
2.38888

>  <SCORE.INTRA.DIHEDRAL.0>
22.2484

>  <SCORE.INTRA.POLAR>
0

>  <SCORE.INTRA.POLAR.0>
0

>  <SCORE.INTRA.REPUL>
0.0151864

>  <SCORE.INTRA.REPUL.0>
0

>  <SCORE.INTRA.SOLV>
0.444901

>  <SCORE.INTRA.SOLV.lig_0>
-75.7198

>  <SCORE.INTRA.VDW>
5.15827

>  <SCORE.INTRA.VDW.0>
-3.34171

>  <SCORE.INTRA.norm>
0.214551

>  <SCORE.RESTR>
1.39407

>  <SCORE.RESTR.CAVITY>
1.39407

>  <SCORE.RESTR.norm>
0.0449701

>  <SCORE.SYSTEM>
0

>  <SCORE.SYSTEM.CONST>
0

>  <SCORE.SYSTEM.DIHEDRAL>
0

>  <SCORE.SYSTEM.SOLV>
0

>  <SCORE.SYSTEM.norm>
0

>  <SCORE.heavy>
31

>  <SCORE.norm>
0.00147494

>  <RMSD>
13.277

$$$$
2et3_lig
 OpenBabel11021811423D
libRbt.so/2013.1/901 2013/11/27
 31 33  0  0  0  0  0  0  0  0999 V2000
    1.1750    0.0986   36.7644 C   0  0  2  0  0  0  0  0  0  0  0  0
    1.4371   -1.2935   37.0799 O   0  0  0  0  0  0  0  0  0  0  0  0
    2.0419   -1.1023   41.3112 C   0  0  2  0  0  0  0  0  0  0  0  0
    2.0979   -1.5201   42.6779 N   0  0  0  0  0  0  0  0  0  0  0  0
    5.4618   -2.6323   40.5636 C   0  0  2  0  0  0  0  0  0  0  0  0
    1.5918    0.3897   35.3188 C   0  0  2  0  0  0  0  0  0  0  0  0
    0.8978   -0.5133   34.4534 N   0  0  0  0  0  0  0  0  0  0  0  0
    0.5804   -1.2526   40.7788 C   0  0  0  0  0  0  0  0  0  0  0  0
    6.3100   -2.8600   41.8342 C   0  0  2  0  0  0  0  0  0  0  0  0
    5.5097   -3.4861   42.8119 O   0  0  0  0  0  0  0  0  0  0  0  0
    3.1463    0.2688   35.1631 C   0  0  0  0  0  0  0  0  0  0  0  0
    0.5111   -0.8036   39.2733 C   0  0  2  0  0  0  0  0  0  0  0  0
   -0.8635   -0.9438   38.7669 N   0  0  0  0  0  0  0  0  0  0  0  0
    6.8439   -1.4519   42.3234 C   0  0  1  0  0  0  0  0  0  0  0  0
    7.6429   -1.5768   43.5862 N   0  0  0  0  0  0  0  0  0  0  0  0
    3.8097    1.3080   36.1206 C   0  0  0  0  0  0  0  0  0  0  0  0
    1.5106   -1.6723   38.4172 C   0  0  2  0  0  0  0  0  0  0  0  0
    7.7419   -0.7607   41.1660 C   0  0  1  0  0  0  0  0  0  0  0  0
    8.8853   -1.5360   40.8710 O   0  0  0  0  0  0  0  0  0  0  0  0
    3.3367    1.0002   37.6093 C   0  0  2  0  0  0  0  0  0  0  0  0
    1.8803    0.9798   37.7351 O   0  0  0  0  0  0  0  0  0  0  0  0
    2.9742   -1.5013   38.9797 C   0  0  2  0  0  0  0  0  0  0  0  0
    3.8946   -2.2757   38.2175 O   0  0  0  0  0  0  0  0  0  0  0  0
    6.8950   -0.6508   39.8606 C   0  0  0  0  0  0  0  0  0  0  0  0
    6.2902   -1.9788   39.5093 O   0  0  0  0  0  0  0  0  0  0  0  0
    3.9225    1.9273   38.6481 C   0  0  0  0  0  0  0  0  0  0  0  0
    5.2792    1.5752   38.9753 N   0  0  0  0  0  0  0  0  0  0  0  0
    3.0230   -1.9522   40.4818 C   0  0  1  0  0  0  0  0  0  0  0  0
    4.3476   -1.7839   40.9722 O   0  0  0  0  0  0  0  0  0  0  0  0
    8.3262    0.6240   41.4774 C   0  0  0  0  0  0  0  0  0  0  0  0
    8.5915   -2.6997   43.6719 C   0  0  0  0  0  0  0  0  0  0  0  0
  1  2  1  1  0  0  0
  1  6  1  0  0  0  0
  1 21  1  0  0  0  0
  3  4  1  1  0  0  0
  3  8  1  0  0  0  0
  3 28  1  0  0  0  0
  5  9  1  0  0  0  0
  5 25  1  0  0  0  0
  5 29  1  1  0  0  0
  6  7  1  6  0  0  0
  6 11  1  0  0  0  0
  8 12  1  0  0  0  0
  9 10  1  1  0  0  0
  9 14  1  0  0  0  0
 11 16  1  0  0  0  0
 12 13  1  6  0  0  0
 12 17  1  0  0  0  0
 14 15  1  1  0  0  0
 14 18  1  0  0  0  0
 15 31  1  0  0  0  0
 16 20  1  0  0  0  0
 17  2  1  6  0  0  0
 17 22  1  0  0  0  0
 18 19  1  6  0  0  0
 18 24  1  0  0  0  0
 18 30  1  0  0  0  0
 20 21  1  0  0  0  0
 20 26  1  1  0  0  0
 22 23  1  6  0  0  0
 22 28  1  0  0  0  0
 24 25  1  0  0  0  0
 26 27  1  0  0  0  0
 28 29  1  1  0  0  0
M  END
>  <CHROM.1>
161.15375789,-141.16193090,42.60994270,33.69766790,-78.26561796,168.44671083
4.07895109,-0.92391391,39.54283355,-2.40952843,0.17644080,2.06874322

>  <Name>
2et3_lig

>  <RI>
1.07224e+07

>  <Rbt.Current_Directory>
/home/itssahil/PROJECTS/Mol_Feturizer/New_Systems/rnas/2et3

>  <Rbt.Executable>
rbdock ($Id: //depot/dev/client3/rdock/2013.1/src/exe/rbdock.cxx#4 $)

>  <Rbt.Library>
libRbt.so (2013.1, Build901 2013/11/27)

>  <Rbt.Parameter_File>
/export/apps/rDock/src/rDock_2013.1_src/data/scripts/dock_solv.prm

>  <Rbt.Receptor>
prm/blind_docking_80.prm

>  <SCORE>
-10.2163

>  <SCORE.INTER>
-10.235

>  <SCORE.INTER.CONST>
1

>  <SCORE.INTER.POLAR>
0

>  <SCORE.INTER.ROT>
6

>  <SCORE.INTER.SOLV>
16.6801

>  <SCORE.INTER.VDW>
-19.9834

>  <SCORE.INTER.norm>
-0.330162

>  <SCORE.INTRA>
-1.26836

>  <SCORE.INTRA.DIHEDRAL>
-10.4709

>  <SCORE.INTRA.DIHEDRAL.0>
22.2484

>  <SCORE.INTRA.POLAR>
0

>  <SCORE.INTRA.POLAR.0>
0

>  <SCORE.INTRA.REPUL>
0

>  <SCORE.INTRA.REPUL.0>
0

>  <SCORE.INTRA.SOLV>
1.29771

>  <SCORE.INTRA.SOLV.lig_0>
-75.7198

>  <SCORE.INTRA.VDW>
3.31824

>  <SCORE.INTRA.VDW.0>
-3.34171

>  <SCORE.INTRA.norm>
-0.040915

>  <SCORE.RESTR>
1.28703

>  <SCORE.RESTR.CAVITY>
1.28703

>  <SCORE.RESTR.norm>
0.041517

>  <SCORE.SYSTEM>
0

>  <SCORE.SYSTEM.CONST>
0

>  <SCORE.SYSTEM.DIHEDRAL>
0

>  <SCORE.SYSTEM.SOLV>
0

>  <SCORE.SYSTEM.norm>
0

>  <SCORE.heavy>
31

>  <SCORE.norm>
-0.329559

>  <RMSD>
13.285

$$$$
2et3_lig
 OpenBabel11021811423D
libRbt.so/2013.1/901 2013/11/27
 31 33  0  0  0  0  0  0  0  0999 V2000
    7.2920   -0.2981   40.9302 C   0  0  2  0  0  0  0  0  0  0  0  0
    7.5963   -0.4227   39.5167 O   0  0  0  0  0  0  0  0  0  0  0  0
    4.0276    1.1766   37.7810 C   0  0  2  0  0  0  0  0  0  0  0  0
    3.1543    1.7642   36.8126 N   0  0  0  0  0  0  0  0  0  0  0  0
    3.1339   -1.5544   35.6634 C   0  0  2  0  0  0  0  0  0  0  0  0
    8.5933   -0.2387   41.7373 C   0  0  2  0  0  0  0  0  0  0  0  0
    9.3863    0.8453   41.2449 N   0  0  0  0  0  0  0  0  0  0  0  0
    5.2067    2.1566   38.0834 C   0  0  0  0  0  0  0  0  0  0  0  0
    1.8675   -2.4209   35.8395 C   0  0  2  0  0  0  0  0  0  0  0  0
    0.8328   -1.6174   36.3611 O   0  0  0  0  0  0  0  0  0  0  0  0
    9.3542   -1.6056   41.6491 C   0  0  0  0  0  0  0  0  0  0  0  0
    6.1773    1.5147   39.1413 C   0  0  2  0  0  0  0  0  0  0  0  0
    7.2900    2.4338   39.4292 N   0  0  0  0  0  0  0  0  0  0  0  0
    2.2276   -3.6201   36.8088 C   0  0  1  0  0  0  0  0  0  0  0  0
    1.0345   -4.4895   37.0724 N   0  0  0  0  0  0  0  0  0  0  0  0
    8.4238   -2.7146   42.2333 C   0  0  0  0  0  0  0  0  0  0  0  0
    6.7195    0.1392   38.5933 C   0  0  2  0  0  0  0  0  0  0  0  0
    3.4301   -4.5055   36.1814 C   0  0  1  0  0  0  0  0  0  0  0  0
    3.0506   -5.0907   34.9530 O   0  0  0  0  0  0  0  0  0  0  0  0
    7.0700   -2.7339   41.3958 C   0  0  2  0  0  0  0  0  0  0  0  0
    6.4202   -1.4247   41.3624 O   0  0  0  0  0  0  0  0  0  0  0  0
    5.5076   -0.8255   38.2961 C   0  0  2  0  0  0  0  0  0  0  0  0
    5.9759   -2.0767   37.8030 O   0  0  0  0  0  0  0  0  0  0  0  0
    4.6551   -3.5797   35.9061 C   0  0  0  0  0  0  0  0  0  0  0  0
    4.2419   -2.3809   35.1030 O   0  0  0  0  0  0  0  0  0  0  0  0
    6.0788   -3.7806   41.8474 C   0  0  0  0  0  0  0  0  0  0  0  0
    5.5319   -3.4758   43.1434 N   0  0  0  0  0  0  0  0  0  0  0  0
    4.5504   -0.1679   37.2409 C   0  0  1  0  0  0  0  0  0  0  0  0
    3.4617   -1.0489   36.9921 O   0  0  0  0  0  0  0  0  0  0  0  0
    3.9113   -5.7050   37.0091 C   0  0  0  0  0  0  0  0  0  0  0  0
    0.3090   -5.0068   35.9002 C   0  0  0  0  0  0  0  0  0  0  0  0
  1  2  1  6  0  0  0
  1  6  1  0  0  0  0
  1 21  1  0  0  0  0
  3  4  1  6  0  0  0
  3  8  1  0  0  0  0
  3 28  1  0  0  0  0
  5  9  1  0  0  0  0
  5 25  1  0  0  0  0
  5 29  1  1  0  0  0
  6  7  1  6  0  0  0
  6 11  1  0  0  0  0
  8 12  1  0  0  0  0
  9 10  1  1  0  0  0
  9 14  1  0  0  0  0
 11 16  1  0  0  0  0
 12 13  1  6  0  0  0
 12 17  1  0  0  0  0
 14 15  1  6  0  0  0
 14 18  1  0  0  0  0
 15 31  1  0  0  0  0
 16 20  1  0  0  0  0
 17  2  1  1  0  0  0
 17 22  1  0  0  0  0
 18 19  1  6  0  0  0
 18 24  1  0  0  0  0
 18 30  1  0  0  0  0
 20 21  1  0  0  0  0
 20 26  1  1  0  0  0
 22 23  1  6  0  0  0
 22 28  1  0  0  0  0
 24 25  1  0  0  0  0
 26 27  1  0  0  0  0
 28 29  1  1  0  0  0
M  END
>  <CHROM.1>
-148.82038833,-177.90841165,52.87349246,38.34905958,68.88750943,117.10740343
5.02192169,-1.67382140,38.42068164,-0.15149410,0.80601327,2.82835704

>  <Name>
2et3_lig

>  <RI>
0

>  <Rbt.Current_Directory>
/home/itssahil/PROJECTS/Mol_Feturizer/New_Systems/rnas/2et3

>  <Rbt.Executable>
rbdock ($Id: //depot/dev/client3/rdock/2013.1/src/exe/rbdock.cxx#4 $)

>  <Rbt.Library>
libRbt.so (2013.1, Build901 2013/11/27)

>  <Rbt.Parameter_File>
/export/apps/rDock/src/rDock_2013.1_src/data/scripts/dock_solv.prm

>  <Rbt.Receptor>
prm/blind_docking_60.prm

>  <SCORE>
-5.39333

>  <SCORE.INTER>
-6.94011

>  <SCORE.INTER.CONST>
1

>  <SCORE.INTER.POLAR>
-0.912516

>  <SCORE.INTER.ROT>
6

>  <SCORE.INTER.SOLV>
19.3167

>  <SCORE.INTER.VDW>
-15.6239

>  <SCORE.INTER.norm>
-0.223874

>  <SCORE.INTRA>
-1.71905

>  <SCORE.INTRA.DIHEDRAL>
-8.72021

>  <SCORE.INTRA.DIHEDRAL.0>
22.2484

>  <SCORE.INTRA.POLAR>
0

>  <SCORE.INTRA.POLAR.0>
0

>  <SCORE.INTRA.REPUL>
0

>  <SCORE.INTRA.REPUL.0>
0

>  <SCORE.INTRA.SOLV>
0.519842

>  <SCORE.INTRA.SOLV.lig_0>
-75.7198

>  <SCORE.INTRA.VDW>
2.38113

>  <SCORE.INTRA.VDW.0>
-3.34171

>  <SCORE.INTRA.norm>
-0.0554532

>  <SCORE.RESTR>
3.26583

>  <SCORE.RESTR.CAVITY>
3.26583

>  <SCORE.RESTR.norm>
0.105349

>  <SCORE.SYSTEM>
0

>  <SCORE.SYSTEM.CONST>
0

>  <SCORE.SYSTEM.DIHEDRAL>
0

>  <SCORE.SYSTEM.SOLV>
0

>  <SCORE.SYSTEM.norm>
0

>  <SCORE.heavy>
31

>  <SCORE.norm>
-0.173978

>  <RMSD>
13.302

$$$$
2et3_lig
 OpenBabel11021811423D
libRbt.so/2013.1/901 2013/11/27
 31 33  0  0  0  0  0  0  0  0999 V2000
    6.5156   -2.2133   40.5831 C   0  0  2  0  0  0  0  0  0  0  0  0
    5.8361   -0.9377   40.7148 O   0  0  0  0  0  0  0  0  0  0  0  0
    3.0971    1.2745   38.2838 C   0  0  2  0  0  0  0  0  0  0  0  0
    2.4856    1.8252   37.1140 N   0  0  0  0  0  0  0  0  0  0  0  0
    1.1681   -1.4292   36.9735 C   0  0  2  0  0  0  0  0  0  0  0  0
    6.7030   -2.8459   41.9662 C   0  0  2  0  0  0  0  0  0  0  0  0
    5.4218   -2.9641   42.5912 N   0  0  0  0  0  0  0  0  0  0  0  0
    4.5692    1.7873   38.3940 C   0  0  0  0  0  0  0  0  0  0  0  0
    1.9504   -2.7594   36.9077 C   0  0  2  0  0  0  0  0  0  0  0  0
    1.7477   -3.4687   38.1095 O   0  0  0  0  0  0  0  0  0  0  0  0
    7.6961   -1.9931   42.8274 C   0  0  0  0  0  0  0  0  0  0  0  0
    5.2525    1.1796   39.6733 C   0  0  2  0  0  0  0  0  0  0  0  0
    6.6396    1.6592   39.7814 N   0  0  0  0  0  0  0  0  0  0  0  0
    3.4787   -2.4159   36.6771 C   0  0  1  0  0  0  0  0  0  0  0  0
    4.3213   -3.6561   36.6475 N   0  0  0  0  0  0  0  0  0  0  0  0
    9.0662   -1.9472   42.0806 C   0  0  0  0  0  0  0  0  0  0  0  0
    5.2129   -0.3948   39.5950 C   0  0  2  0  0  0  0  0  0  0  0  0
    3.6645   -1.5873   35.2978 C   0  0  1  0  0  0  0  0  0  0  0  0
    3.2583   -2.3509   34.1809 O   0  0  0  0  0  0  0  0  0  0  0  0
    8.8366   -1.3136   40.6382 C   0  0  2  0  0  0  0  0  0  0  0  0
    7.8124   -2.0263   39.8764 O   0  0  0  0  0  0  0  0  0  0  0  0
    3.7165   -0.8805   39.4824 C   0  0  2  0  0  0  0  0  0  0  0  0
    3.6575   -2.3016   39.4141 O   0  0  0  0  0  0  0  0  0  0  0  0
    2.7721   -0.3087   35.3467 C   0  0  0  0  0  0  0  0  0  0  0  0
    1.3591   -0.6637   35.7077 O   0  0  0  0  0  0  0  0  0  0  0  0
   10.0934   -1.1930   39.8090 C   0  0  0  0  0  0  0  0  0  0  0  0
   10.9727   -0.1722   40.3155 N   0  0  0  0  0  0  0  0  0  0  0  0
    3.0515   -0.2630   38.2023 C   0  0  1  0  0  0  0  0  0  0  0  0
    1.7023   -0.7065   38.1227 O   0  0  0  0  0  0  0  0  0  0  0  0
    5.0932   -1.1619   34.9326 C   0  0  0  0  0  0  0  0  0  0  0  0
    3.7281   -4.8559   36.0337 C   0  0  0  0  0  0  0  0  0  0  0  0
  1  2  1  1  0  0  0
  1  6  1  0  0  0  0
  1 21  1  0  0  0  0
  3  4  1  6  0  0  0
  3  8  1  0  0  0  0
  3 28  1  0  0  0  0
  5  9  1  0  0  0  0
  5 25  1  0  0  0  0
  5 29  1  1  0  0  0
  6  7  1  1  0  0  0
  6 11  1  0  0  0  0
  8 12  1  0  0  0  0
  9 10  1  1  0  0  0
  9 14  1  0  0  0  0
 11 16  1  0  0  0  0
 12 13  1  6  0  0  0
 12 17  1  0  0  0  0
 14 15  1  6  0  0  0
 14 18  1  0  0  0  0
 15 31  1  0  0  0  0
 16 20  1  0  0  0  0
 17  2  1  1  0  0  0
 17 22  1  0  0  0  0
 18 19  1  6  0  0  0
 18 24  1  0  0  0  0
 18 30  1  0  0  0  0
 20 21  1  0  0  0  0
 20 26  1  6  0  0  0
 22 23  1  6  0  0  0
 22 28  1  0  0  0  0
 24 25  1  0  0  0  0
 26 27  1  0  0  0  0
 28 29  1  1  0  0  0
M  END
>  <CHROM.1>
-160.78127065,63.49839705,35.83511194,-149.03837135,-70.93102764,117.22640671
4.84155936,-1.28802251,38.56196947,-0.03556098,0.70392059,-3.11839000

>  <Name>
2et3_lig

>  <RI>
1.07224e+07

>  <Rbt.Current_Directory>
/home/itssahil/PROJECTS/Mol_Feturizer/New_Systems/rnas/2et3

>  <Rbt.Executable>
rbdock ($Id: //depot/dev/client3/rdock/2013.1/src/exe/rbdock.cxx#4 $)

>  <Rbt.Library>
libRbt.so (2013.1, Build901 2013/11/27)

>  <Rbt.Parameter_File>
/export/apps/rDock/src/rDock_2013.1_src/data/scripts/dock_solv.prm

>  <Rbt.Receptor>
prm/blind_docking_80.prm

>  <SCORE>
-3.57619

>  <SCORE.INTER>
-6.53215

>  <SCORE.INTER.CONST>
1

>  <SCORE.INTER.POLAR>
-0.077853

>  <SCORE.INTER.ROT>
6

>  <SCORE.INTER.SOLV>
14.2358

>  <SCORE.INTER.VDW>
-16.4405

>  <SCORE.INTER.norm>
-0.210714

>  <SCORE.INTRA>
1.69081

>  <SCORE.INTRA.DIHEDRAL>
-8.63214

>  <SCORE.INTRA.DIHEDRAL.0>
22.2484

>  <SCORE.INTRA.POLAR>
0

>  <SCORE.INTRA.POLAR.0>
0

>  <SCORE.INTRA.REPUL>
0

>  <SCORE.INTRA.REPUL.0>
0

>  <SCORE.INTRA.SOLV>
1.8985

>  <SCORE.INTRA.SOLV.lig_0>
-75.7198

>  <SCORE.INTRA.VDW>
5.05763

>  <SCORE.INTRA.VDW.0>
-3.34171

>  <SCORE.INTRA.norm>
0.0545423

>  <SCORE.RESTR>
1.26514

>  <SCORE.RESTR.CAVITY>
1.26514

>  <SCORE.RESTR.norm>
0.0408111

>  <SCORE.SYSTEM>
0

>  <SCORE.SYSTEM.CONST>
0

>  <SCORE.SYSTEM.DIHEDRAL>
0

>  <SCORE.SYSTEM.SOLV>
0

>  <SCORE.SYSTEM.norm>
0

>  <SCORE.heavy>
31

>  <SCORE.norm>
-0.115361

>  <RMSD>
13.342

$$$$
2et3_lig
 OpenBabel11021811423D
libRbt.so/2013.1/901 2013/11/27
 31 33  0  0  0  0  0  0  0  0999 V2000
    7.0608   -0.6624   41.1998 C   0  0  2  0  0  0  0  0  0  0  0  0
    6.6665   -1.0680   39.8633 O   0  0  0  0  0  0  0  0  0  0  0  0
    3.0921    1.2387   39.4062 C   0  0  2  0  0  0  0  0  0  0  0  0
    1.9682    1.8594   38.7759 N   0  0  0  0  0  0  0  0  0  0  0  0
    1.0335   -1.8961   39.3007 C   0  0  2  0  0  0  0  0  0  0  0  0
    8.5254   -1.0407   41.4452 C   0  0  2  0  0  0  0  0  0  0  0  0
    9.3287   -0.4397   40.4256 N   0  0  0  0  0  0  0  0  0  0  0  0
    4.4128    1.7882   38.7768 C   0  0  0  0  0  0  0  0  0  0  0  0
   -0.0875   -1.2849   38.4315 C   0  0  2  0  0  0  0  0  0  0  0  0
    0.4983   -0.5216   37.4006 O   0  0  0  0  0  0  0  0  0  0  0  0
    8.6900   -2.5987   41.4755 C   0  0  0  0  0  0  0  0  0  0  0  0
    5.6543    1.1045   39.4581 C   0  0  2  0  0  0  0  0  0  0  0  0
    6.9009    1.6183   38.8684 N   0  0  0  0  0  0  0  0  0  0  0  0
   -1.0057   -0.4004   39.3704 C   0  0  1  0  0  0  0  0  0  0  0  0
   -2.0985    0.2715   38.5938 N   0  0  0  0  0  0  0  0  0  0  0  0
    7.8025   -3.1556   42.6326 C   0  0  0  0  0  0  0  0  0  0  0  0
    5.5585   -0.4595   39.2809 C   0  0  2  0  0  0  0  0  0  0  0  0
   -1.6431   -1.3107   40.5489 C   0  0  1  0  0  0  0  0  0  0  0  0
   -2.4754   -2.3235   40.0226 O   0  0  0  0  0  0  0  0  0  0  0  0
    6.2934   -2.7233   42.3674 C   0  0  2  0  0  0  0  0  0  0  0  0
    6.1513   -1.2773   42.2052 O   0  0  0  0  0  0  0  0  0  0  0  0
    4.2161   -0.9824   39.9232 C   0  0  2  0  0  0  0  0  0  0  0  0
    4.1111   -2.3950   39.7774 O   0  0  0  0  0  0  0  0  0  0  0  0
   -0.4900   -2.0071   41.3356 C   0  0  0  0  0  0  0  0  0  0  0  0
    0.4386   -2.7174   40.3944 O   0  0  0  0  0  0  0  0  0  0  0  0
    5.3174   -3.2150   43.4103 C   0  0  0  0  0  0  0  0  0  0  0  0
    5.2700   -4.6526   43.4632 N   0  0  0  0  0  0  0  0  0  0  0  0
    2.9900   -0.2884   39.2325 C   0  0  1  0  0  0  0  0  0  0  0  0
    1.7911   -0.7671   39.8298 O   0  0  0  0  0  0  0  0  0  0  0  0
   -2.5519   -0.5979   41.5596 C   0  0  0  0  0  0  0  0  0  0  0  0
   -3.1085   -0.5977   37.9671 C   0  0  0  0  0  0  0  0  0  0  0  0
  1  2  1  6  0  0  0
  1  6  1  0  0  0  0
  1 21  1  0  0  0  0
  3  4  1  6  0  0  0
  3  8  1  0  0  0  0
  3 28  1  0  0  0  0
  5  9  1  0  0  0  0
  5 25  1  0  0  0  0
  5 29  1  1  0  0  0
  6  7  1  6  0  0  0
  6 11  1  0  0  0  0
  8 12  1  0  0  0  0
  9 10  1  6  0  0  0
  9 14  1  0  0  0  0
 11 16  1  0  0  0  0
 12 13  1  6  0  0  0
 12 17  1  0  0  0  0
 14 15  1  6  0  0  0
 14 18  1  0  0  0  0
 15 31  1  0  0  0  0
 16 20  1  0  0  0  0
 17  2  1  1  0  0  0
 17 22  1  0  0  0  0
 18 19  1  6  0  0  0
 18 24  1  0  0  0  0
 18 30  1  0  0  0  0
 20 21  1  0  0  0  0
 20 26  1  1  0  0  0
 22 23  1  6  0  0  0
 22 28  1  0  0  0  0
 24 25  1  0  0  0  0
 26 27  1  0  0  0  0
 28 29  1  1  0  0  0
M  END
>  <CHROM.1>
-159.51297584,-96.57994657,64.92761752,47.36734006,-61.96090365,146.39358488
3.18762689,-1.03965653,40.21163248,-0.18489996,-0.11691788,-0.71732993

>  <Name>
2et3_lig

>  <RI>
1.07224e+07

>  <Rbt.Current_Directory>
/home/itssahil/PROJECTS/Mol_Feturizer/New_Systems/rnas/2et3

>  <Rbt.Executable>
rbdock ($Id: //depot/dev/client3/rdock/2013.1/src/exe/rbdock.cxx#4 $)

>  <Rbt.Library>
libRbt.so (2013.1, Build901 2013/11/27)

>  <Rbt.Parameter_File>
/export/apps/rDock/src/rDock_2013.1_src/data/scripts/dock_solv.prm

>  <Rbt.Receptor>
prm/blind_docking_80.prm

>  <SCORE>
-5.99461

>  <SCORE.INTER>
-5.81632

>  <SCORE.INTER.CONST>
1

>  <SCORE.INTER.POLAR>
0

>  <SCORE.INTER.ROT>
6

>  <SCORE.INTER.SOLV>
16.6712

>  <SCORE.INTER.VDW>
-17.0346

>  <SCORE.INTER.norm>
-0.187623

>  <SCORE.INTRA>
-2.9849

>  <SCORE.INTRA.DIHEDRAL>
-10.3432

>  <SCORE.INTRA.DIHEDRAL.0>
22.2484

>  <SCORE.INTRA.POLAR>
0

>  <SCORE.INTRA.POLAR.0>
0

>  <SCORE.INTRA.REPUL>
0

>  <SCORE.INTRA.REPUL.0>
0

>  <SCORE.INTRA.SOLV>
0.231888

>  <SCORE.INTRA.SOLV.lig_0>
-75.7198

>  <SCORE.INTRA.VDW>
2.07077

>  <SCORE.INTRA.VDW.0>
-3.34171

>  <SCORE.INTRA.norm>
-0.0962871

>  <SCORE.RESTR>
2.80661

>  <SCORE.RESTR.CAVITY>
2.80661

>  <SCORE.RESTR.norm>
0.0905359

>  <SCORE.SYSTEM>
0

>  <SCORE.SYSTEM.CONST>
0

>  <SCORE.SYSTEM.DIHEDRAL>
0

>  <SCORE.SYSTEM.SOLV>
0

>  <SCORE.SYSTEM.norm>
0

>  <SCORE.heavy>
31

>  <SCORE.norm>
-0.193374

>  <RMSD>
13.428

$$$$
2et3_lig
 OpenBabel11021811423D
libRbt.so/2013.1/901 2013/11/27
 31 33  0  0  0  0  0  0  0  0999 V2000
    4.8650   -2.3627   41.6521 C   0  0  2  0  0  0  0  0  0  0  0  0
    3.9674   -1.2631   41.9547 O   0  0  0  0  0  0  0  0  0  0  0  0
    0.6013   -1.8780   39.3861 C   0  0  2  0  0  0  0  0  0  0  0  0
   -0.4839   -1.5800   38.5034 N   0  0  0  0  0  0  0  0  0  0  0  0
    1.6290   -1.5598   36.2322 C   0  0  2  0  0  0  0  0  0  0  0  0
    5.2835   -3.0621   42.9497 C   0  0  2  0  0  0  0  0  0  0  0  0
    4.1046   -3.4851   43.6406 N   0  0  0  0  0  0  0  0  0  0  0  0
    0.3639   -1.1746   40.7613 C   0  0  0  0  0  0  0  0  0  0  0  0
    2.8119   -1.6626   35.2443 C   0  0  2  0  0  0  0  0  0  0  0  0
    3.2062   -3.0126   35.1425 O   0  0  0  0  0  0  0  0  0  0  0  0
    6.1629   -2.1067   43.8267 C   0  0  0  0  0  0  0  0  0  0  0  0
    1.5572   -1.4897   41.7358 C   0  0  2  0  0  0  0  0  0  0  0  0
    1.3385   -0.8291   43.0325 N   0  0  0  0  0  0  0  0  0  0  0  0
    3.9830   -0.7463   35.7882 C   0  0  1  0  0  0  0  0  0  0  0  0
    5.1947   -0.8248   34.9081 N   0  0  0  0  0  0  0  0  0  0  0  0
    7.4324   -1.7262   43.0018 C   0  0  0  0  0  0  0  0  0  0  0  0
    2.9104   -1.0063   41.0864 C   0  0  2  0  0  0  0  0  0  0  0  0
    3.4832    0.7899   35.9065 C   0  0  1  0  0  0  0  0  0  0  0  0
    3.1262    1.3129   34.6437 O   0  0  0  0  0  0  0  0  0  0  0  0
    6.9675   -1.0290   41.6481 C   0  0  2  0  0  0  0  0  0  0  0  0
    6.0392   -1.8624   40.8859 O   0  0  0  0  0  0  0  0  0  0  0  0
    3.1199   -1.7311   39.7013 C   0  0  2  0  0  0  0  0  0  0  0  0
    4.3398   -1.3111   39.0986 O   0  0  0  0  0  0  0  0  0  0  0  0
    2.2175    0.8457   36.8168 C   0  0  0  0  0  0  0  0  0  0  0  0
    1.1866   -0.1402   36.3500 O   0  0  0  0  0  0  0  0  0  0  0  0
    8.1053   -0.5910   40.7562 C   0  0  0  0  0  0  0  0  0  0  0  0
    8.8460   -1.7136   40.2436 N   0  0  0  0  0  0  0  0  0  0  0  0
    1.9197   -1.4066   38.7440 C   0  0  1  0  0  0  0  0  0  0  0  0
    2.1235   -2.0743   37.5046 O   0  0  0  0  0  0  0  0  0  0  0  0
    4.5004    1.8102   36.4354 C   0  0  0  0  0  0  0  0  0  0  0  0
    6.0780   -1.9896   35.0847 C   0  0  0  0  0  0  0  0  0  0  0  0
  1  2  1  1  0  0  0
  1  6  1  0  0  0  0
  1 21  1  0  0  0  0
  3  4  1  6  0  0  0
  3  8  1  0  0  0  0
  3 28  1  0  0  0  0
  5  9  1  0  0  0  0
  5 25  1  0  0  0  0
  5 29  1  1  0  0  0
  6  7  1  1  0  0  0
  6 11  1  0  0  0  0
  8 12  1  0  0  0  0
  9 10  1  1  0  0  0
  9 14  1  0  0  0  0
 11 16  1  0  0  0  0
 12 13  1  1  0  0  0
 12 17  1  0  0  0  0
 14 15  1  6  0  0  0
 14 18  1  0  0  0  0
 15 31  1  0  0  0  0
 16 20  1  0  0  0  0
 17  2  1  1  0  0  0
 17 22  1  0  0  0  0
 18 19  1  6  0  0  0
 18 24  1  0  0  0  0
 18 30  1  0  0  0  0
 20 21  1  0  0  0  0
 20 26  1  6  0  0  0
 22 23  1  6  0  0  0
 22 28  1  0  0  0  0
 24 25  1  0  0  0  0
 26 27  1  0  0  0  0
 28 29  1  6  0  0  0
M  END
>  <CHROM.1>
-142.79466140,132.88361989,-80.29691723,105.60747423,66.25940340,89.60437335
3.78444543,-1.24603309,39.07124595,-1.19904368,-0.00705075,-1.36835474

>  <Name>
2et3_lig

>  <RI>
1.07224e+07

>  <Rbt.Current_Directory>
/home/itssahil/PROJECTS/Mol_Feturizer/New_Systems/rnas/2et3

>  <Rbt.Executable>
rbdock ($Id: //depot/dev/client3/rdock/2013.1/src/exe/rbdock.cxx#4 $)

>  <Rbt.Library>
libRbt.so (2013.1, Build901 2013/11/27)

>  <Rbt.Parameter_File>
/export/apps/rDock/src/rDock_2013.1_src/data/scripts/dock_solv.prm

>  <Rbt.Receptor>
prm/blind_docking_80.prm

>  <SCORE>
-4.94529

>  <SCORE.INTER>
-8.04605

>  <SCORE.INTER.CONST>
1

>  <SCORE.INTER.POLAR>
-0.912928

>  <SCORE.INTER.ROT>
6

>  <SCORE.INTER.SOLV>
14.133

>  <SCORE.INTER.VDW>
-14.632

>  <SCORE.INTER.norm>
-0.25955

>  <SCORE.INTRA>
2.51648

>  <SCORE.INTRA.DIHEDRAL>
-0.605302

>  <SCORE.INTRA.DIHEDRAL.0>
22.2484

>  <SCORE.INTRA.POLAR>
0

>  <SCORE.INTRA.POLAR.0>
0

>  <SCORE.INTRA.REPUL>
0

>  <SCORE.INTRA.REPUL.0>
0

>  <SCORE.INTRA.SOLV>
0.219901

>  <SCORE.INTRA.SOLV.lig_0>
-75.7198

>  <SCORE.INTRA.VDW>
2.70918

>  <SCORE.INTRA.VDW.0>
-3.34171

>  <SCORE.INTRA.norm>
0.0811767

>  <SCORE.RESTR>
0.584285

>  <SCORE.RESTR.CAVITY>
0.584285

>  <SCORE.RESTR.norm>
0.0188479

>  <SCORE.SYSTEM>
0

>  <SCORE.SYSTEM.CONST>
0

>  <SCORE.SYSTEM.DIHEDRAL>
0

>  <SCORE.SYSTEM.SOLV>
0

>  <SCORE.SYSTEM.norm>
0

>  <SCORE.heavy>
31

>  <SCORE.norm>
-0.159525

>  <RMSD>
13.432

$$$$
2et3_lig
 OpenBabel11021811423D
libRbt.so/2013.1/901 2013/11/27
 31 33  0  0  0  0  0  0  0  0999 V2000
    1.0775    0.3400   37.0654 C   0  0  2  0  0  0  0  0  0  0  0  0
    1.3667   -1.0731   37.2262 O   0  0  0  0  0  0  0  0  0  0  0  0
    2.5261   -1.1910   41.3430 C   0  0  2  0  0  0  0  0  0  0  0  0
    2.7957   -1.7165   42.6456 N   0  0  0  0  0  0  0  0  0  0  0  0
    5.9104   -2.3609   40.0082 C   0  0  2  0  0  0  0  0  0  0  0  0
    1.0194    0.6908   35.5748 C   0  0  2  0  0  0  0  0  0  0  0  0
    0.0456   -0.1477   34.9466 N   0  0  0  0  0  0  0  0  0  0  0  0
    1.0195   -1.4132   40.9920 C   0  0  0  0  0  0  0  0  0  0  0  0
    6.9033   -2.7063   41.1398 C   0  0  2  0  0  0  0  0  0  0  0  0
    6.2482   -3.5141   42.0920 O   0  0  0  0  0  0  0  0  0  0  0  0
    2.4345    0.5333   34.9206 C   0  0  0  0  0  0  0  0  0  0  0  0
    0.7158   -0.8459   39.5571 C   0  0  2  0  0  0  0  0  0  0  0  0
   -0.7020   -1.0532   39.2215 N   0  0  0  0  0  0  0  0  0  0  0  0
    7.4147   -1.3477   41.7719 C   0  0  1  0  0  0  0  0  0  0  0  0
    8.3526   -1.5936   42.9159 N   0  0  0  0  0  0  0  0  0  0  0  0
    3.4149    1.5039   35.6509 C   0  0  0  0  0  0  0  0  0  0  0  0
    1.6470   -1.5561   38.5011 C   0  0  2  0  0  0  0  0  0  0  0  0
    8.1437   -0.4440   40.6426 C   0  0  1  0  0  0  0  0  0  0  0  0
    9.2862   -1.0930   40.1238 O   0  0  0  0  0  0  0  0  0  0  0  0
    3.4329    1.1359   37.1998 C   0  0  2  0  0  0  0  0  0  0  0  0
    2.0949    1.1511   37.7887 O   0  0  0  0  0  0  0  0  0  0  0  0
    3.1582   -1.3157   38.8835 C   0  0  2  0  0  0  0  0  0  0  0  0
    4.0176   -1.9464   37.9394 O   0  0  0  0  0  0  0  0  0  0  0  0
    7.1542   -0.2101   39.4595 C   0  0  0  0  0  0  0  0  0  0  0  0
    6.5836   -1.5135   38.9818 O   0  0  0  0  0  0  0  0  0  0  0  0
    4.3612    1.9929   38.0278 C   0  0  0  0  0  0  0  0  0  0  0  0
    4.2286    1.7202   39.4349 N   0  0  0  0  0  0  0  0  0  0  0  0
    3.4414   -1.8861   40.3176 C   0  0  1  0  0  0  0  0  0  0  0  0
    4.8056   -1.6535   40.6464 O   0  0  0  0  0  0  0  0  0  0  0  0
    8.6867    0.9197   41.0912 C   0  0  0  0  0  0  0  0  0  0  0  0
    9.4912   -2.4940   42.6684 C   0  0  0  0  0  0  0  0  0  0  0  0
  1  2  1  6  0  0  0
  1  6  1  0  0  0  0
  1 21  1  0  0  0  0
  3  4  1  1  0  0  0
  3  8  1  0  0  0  0
  3 28  1  0  0  0  0
  5  9  1  0  0  0  0
  5 25  1  0  0  0  0
  5 29  1  1  0  0  0
  6  7  1  6  0  0  0
  6 11  1  0  0  0  0
  8 12  1  0  0  0  0
  9 10  1  1  0  0  0
  9 14  1  0  0  0  0
 11 16  1  0  0  0  0
 12 13  1  6  0  0  0
 12 17  1  0  0  0  0
 14 15  1  1  0  0  0
 14 18  1  0  0  0  0
 15 31  1  0  0  0  0
 16 20  1  0  0  0  0
 17  2  1  6  0  0  0
 17 22  1  0  0  0  0
 18 19  1  6  0  0  0
 18 24  1  0  0  0  0
 18 30  1  0  0  0  0
 20 21  1  0  0  0  0
 20 26  1  1  0  0  0
 22 23  1  6  0  0  0
 22 28  1  0  0  0  0
 24 25  1  0  0  0  0
 26 27  1  0  0  0  0
 28 29  1  1  0  0  0
M  END
>  <CHROM.1>
171.10028953,-138.07366044,52.10898004,38.74047616,173.52322295,169.18151520
4.27592872,-0.75979418,39.32170123,-2.53367232,0.15546352,2.13859563

>  <Name>
2et3_lig

>  <RI>
1.07224e+07

>  <Rbt.Current_Directory>
/home/itssahil/PROJECTS/Mol_Feturizer/New_Systems/rnas/2et3

>  <Rbt.Executable>
rbdock ($Id: //depot/dev/client3/rdock/2013.1/src/exe/rbdock.cxx#4 $)

>  <Rbt.Library>
libRbt.so (2013.1, Build901 2013/11/27)

>  <Rbt.Parameter_File>
/export/apps/rDock/src/rDock_2013.1_src/data/scripts/dock_solv.prm

>  <Rbt.Receptor>
prm/blind_docking_80.prm

>  <SCORE>
-13.6468

>  <SCORE.INTER>
-10.8643

>  <SCORE.INTER.CONST>
1

>  <SCORE.INTER.POLAR>
0

>  <SCORE.INTER.ROT>
6

>  <SCORE.INTER.SOLV>
16.9923

>  <SCORE.INTER.VDW>
-20.507

>  <SCORE.INTER.norm>
-0.350461

>  <SCORE.INTRA>
-4.09494

>  <SCORE.INTRA.DIHEDRAL>
-13.2479

>  <SCORE.INTRA.DIHEDRAL.0>
22.2484

>  <SCORE.INTRA.POLAR>
0

>  <SCORE.INTRA.POLAR.0>
0

>  <SCORE.INTRA.REPUL>
0

>  <SCORE.INTRA.REPUL.0>
0

>  <SCORE.INTRA.SOLV>
1.91165

>  <SCORE.INTRA.SOLV.lig_0>
-75.7198

>  <SCORE.INTRA.VDW>
1.57317

>  <SCORE.INTRA.VDW.0>
-3.34171

>  <SCORE.INTRA.norm>
-0.132095

>  <SCORE.RESTR>
1.3124

>  <SCORE.RESTR.CAVITY>
1.3124

>  <SCORE.RESTR.norm>
0.0423354

>  <SCORE.SYSTEM>
0

>  <SCORE.SYSTEM.CONST>
0

>  <SCORE.SYSTEM.DIHEDRAL>
0

>  <SCORE.SYSTEM.SOLV>
0

>  <SCORE.SYSTEM.norm>
0

>  <SCORE.heavy>
31

>  <SCORE.norm>
-0.440221

>  <RMSD>
13.442

$$$$
2et3_lig
 OpenBabel11021811423D
libRbt.so/2013.1/901 2013/11/27
 31 33  0  0  0  0  0  0  0  0999 V2000
    2.1898   -2.8954   36.9848 C   0  0  2  0  0  0  0  0  0  0  0  0
    2.3304   -2.9261   38.4290 O   0  0  0  0  0  0  0  0  0  0  0  0
    4.6234    0.6150   39.1424 C   0  0  2  0  0  0  0  0  0  0  0  0
    5.1542    1.7537   39.8259 N   0  0  0  0  0  0  0  0  0  0  0  0
    7.2277   -0.1671   41.0392 C   0  0  2  0  0  0  0  0  0  0  0  0
    2.0098   -4.3205   36.4512 C   0  0  2  0  0  0  0  0  0  0  0  0
    0.8832   -4.9130   37.1037 N   0  0  0  0  0  0  0  0  0  0  0  0
    3.0702    0.7488   39.0335 C   0  0  0  0  0  0  0  0  0  0  0  0
    8.6993   -0.5042   40.7131 C   0  0  2  0  0  0  0  0  0  0  0  0
    9.0223    0.0332   39.4501 O   0  0  0  0  0  0  0  0  0  0  0  0
    3.3173   -5.1557   36.6708 C   0  0  0  0  0  0  0  0  0  0  0  0
    2.4766   -0.5038   38.2905 C   0  0  2  0  0  0  0  0  0  0  0  0
    1.0137   -0.3828   38.1858 N   0  0  0  0  0  0  0  0  0  0  0  0
    8.8568   -2.0795   40.7408 C   0  0  1  0  0  0  0  0  0  0  0  0
   10.2528   -2.4975   40.3868 N   0  0  0  0  0  0  0  0  0  0  0  0
    4.4768   -4.4489   35.9008 C   0  0  0  0  0  0  0  0  0  0  0  0
    2.8719   -1.8160   39.0705 C   0  0  2  0  0  0  0  0  0  0  0  0
    8.4596   -2.6564   42.2013 C   0  0  1  0  0  0  0  0  0  0  0  0
    9.3205   -2.1557   43.2031 O   0  0  0  0  0  0  0  0  0  0  0  0
    4.6216   -2.9632   36.4544 C   0  0  2  0  0  0  0  0  0  0  0  0
    3.3667   -2.2175   36.3752 O   0  0  0  0  0  0  0  0  0  0  0  0
    4.4428   -1.9210   39.1654 C   0  0  2  0  0  0  0  0  0  0  0  0
    4.8220   -3.1025   39.8639 O   0  0  0  0  0  0  0  0  0  0  0  0
    7.0095   -2.2010   42.5525 C   0  0  0  0  0  0  0  0  0  0  0  0
    6.8641   -0.7175   42.3769 O   0  0  0  0  0  0  0  0  0  0  0  0
    5.7272   -2.1661   35.8033 C   0  0  0  0  0  0  0  0  0  0  0  0
    6.9374   -2.9348   35.6759 N   0  0  0  0  0  0  0  0  0  0  0  0
    5.0163   -0.6629   39.9074 C   0  0  1  0  0  0  0  0  0  0  0  0
    6.4328   -0.7728   39.9764 O   0  0  0  0  0  0  0  0  0  0  0  0
    8.5447   -4.1770   42.3916 C   0  0  0  0  0  0  0  0  0  0  0  0
   10.6403   -2.4100   38.9689 C   0  0  0  0  0  0  0  0  0  0  0  0
  1  2  1  1  0  0  0
  1  6  1  0  0  0  0
  1 21  1  0  0  0  0
  3  4  1  1  0  0  0
  3  8  1  0  0  0  0
  3 28  1  0  0  0  0
  5  9  1  0  0  0  0
  5 25  1  0  0  0  0
  5 29  1  6  0  0  0
  6  7  1  1  0  0  0
  6 11  1  0  0  0  0
  8 12  1  0  0  0  0
  9 10  1  6  0  0  0
  9 14  1  0  0  0  0
 11 16  1  0  0  0  0
 12 13  1  1  0  0  0
 12 17  1  0  0  0  0
 14 15  1  1  0  0  0
 14 18  1  0  0  0  0
 15 31  1  0  0  0  0
 16 20  1  0  0  0  0
 17  2  1  6  0  0  0
 17 22  1  0  0  0  0
 18 19  1  1  0  0  0
 18 24  1  0  0  0  0
 18 30  1  0  0  0  0
 20 21  1  0  0  0  0
 20 26  1  6  0  0  0
 22 23  1  1  0  0  0
 22 28  1  0  0  0  0
 24 25  1  0  0  0  0
 26 27  1  0  0  0  0
 28 29  1  6  0  0  0
M  END
>  <CHROM.1>
162.09361274,-178.83658475,-74.85327238,32.52970448,-44.44595655,87.78379907
5.54488890,-1.95684076,39.13260416,-2.63699587,-0.37583303,0.71186130

>  <Name>
2et3_lig

>  <RI>
1.07224e+07

>  <Rbt.Current_Directory>
/home/itssahil/PROJECTS/Mol_Feturizer/New_Systems/rnas/2et3

>  <Rbt.Executable>
rbdock ($Id: //depot/dev/client3/rdock/2013.1/src/exe/rbdock.cxx#4 $)

>  <Rbt.Library>
libRbt.so (2013.1, Build901 2013/11/27)

>  <Rbt.Parameter_File>
/export/apps/rDock/src/rDock_2013.1_src/data/scripts/dock_solv.prm

>  <Rbt.Receptor>
prm/blind_docking_80.prm

>  <SCORE>
-4.80383

>  <SCORE.INTER>
-5.17698

>  <SCORE.INTER.CONST>
1

>  <SCORE.INTER.POLAR>
0

>  <SCORE.INTER.ROT>
6

>  <SCORE.INTER.SOLV>
15.9962

>  <SCORE.INTER.VDW>
-16.3834

>  <SCORE.INTER.norm>
-0.166999

>  <SCORE.INTRA>
-4.81672

>  <SCORE.INTRA.DIHEDRAL>
-13.3238

>  <SCORE.INTRA.DIHEDRAL.0>
22.2484

>  <SCORE.INTRA.POLAR>
0

>  <SCORE.INTRA.POLAR.0>
0

>  <SCORE.INTRA.REPUL>
0

>  <SCORE.INTRA.REPUL.0>
0

>  <SCORE.INTRA.SOLV>
-1.21709

>  <SCORE.INTRA.SOLV.lig_0>
-75.7198

>  <SCORE.INTRA.VDW>
2.45372

>  <SCORE.INTRA.VDW.0>
-3.34171

>  <SCORE.INTRA.norm>
-0.155378

>  <SCORE.RESTR>
5.18987

>  <SCORE.RESTR.CAVITY>
5.18987

>  <SCORE.RESTR.norm>
0.167415

>  <SCORE.SYSTEM>
0

>  <SCORE.SYSTEM.CONST>
0

>  <SCORE.SYSTEM.DIHEDRAL>
0

>  <SCORE.SYSTEM.SOLV>
0

>  <SCORE.SYSTEM.norm>
0

>  <SCORE.heavy>
31

>  <SCORE.norm>
-0.154962

>  <RMSD>
13.458

$$$$
2et3_lig
 OpenBabel11021811423D
libRbt.so/2013.1/901 2013/11/27
 31 33  0  0  0  0  0  0  0  0999 V2000
    2.1042   -0.6913   42.0103 C   0  0  2  0  0  0  0  0  0  0  0  0
    2.6951   -1.9774   42.3313 O   0  0  0  0  0  0  0  0  0  0  0  0
    6.3483   -1.7231   40.1187 C   0  0  2  0  0  0  0  0  0  0  0  0
    7.5618   -2.1330   39.4823 N   0  0  0  0  0  0  0  0  0  0  0  0
    4.0757   -2.6822   37.1891 C   0  0  2  0  0  0  0  0  0  0  0  0
    0.8861   -0.4425   42.9062 C   0  0  2  0  0  0  0  0  0  0  0  0
    1.2984   -0.5357   44.2727 N   0  0  0  0  0  0  0  0  0  0  0  0
    6.4296   -2.0350   41.6479 C   0  0  0  0  0  0  0  0  0  0  0  0
    4.7367   -2.7784   35.7964 C   0  0  2  0  0  0  0  0  0  0  0  0
    5.8575   -3.6301   35.8803 O   0  0  0  0  0  0  0  0  0  0  0  0
   -0.2566   -1.4607   42.5705 C   0  0  0  0  0  0  0  0  0  0  0  0
    5.0955   -1.5953   42.3547 C   0  0  2  0  0  0  0  0  0  0  0  0
    5.1668   -1.8874   43.7953 N   0  0  0  0  0  0  0  0  0  0  0  0
    5.1411   -1.3154   35.3459 C   0  0  1  0  0  0  0  0  0  0  0  0
    5.8357   -1.3230   34.0169 N   0  0  0  0  0  0  0  0  0  0  0  0
   -0.6556   -1.2627   41.0744 C   0  0  0  0  0  0  0  0  0  0  0  0
    3.8763   -2.3466   41.6945 C   0  0  2  0  0  0  0  0  0  0  0  0
    3.8295   -0.3672   35.2797 C   0  0  1  0  0  0  0  0  0  0  0  0
    2.9051   -0.8351   34.3194 O   0  0  0  0  0  0  0  0  0  0  0  0
    0.6335   -1.4981   40.1702 C   0  0  2  0  0  0  0  0  0  0  0  0
    1.7511   -0.6422   40.5649 O   0  0  0  0  0  0  0  0  0  0  0  0
    3.8227   -2.0139   40.1537 C   0  0  2  0  0  0  0  0  0  0  0  0
    2.7253   -2.6803   39.5379 O   0  0  0  0  0  0  0  0  0  0  0  0
    3.1183   -0.3829   36.6681 C   0  0  0  0  0  0  0  0  0  0  0  0
    2.8800   -1.7929   37.1242 O   0  0  0  0  0  0  0  0  0  0  0  0
    0.3832   -1.3538   38.6876 C   0  0  0  0  0  0  0  0  0  0  0  0
   -0.2280   -0.0903   38.3686 N   0  0  0  0  0  0  0  0  0  0  0  0
    5.1618   -2.4577   39.4666 C   0  0  1  0  0  0  0  0  0  0  0  0
    5.0967   -2.1431   38.0809 O   0  0  0  0  0  0  0  0  0  0  0  0
    4.0522    1.0952   34.8709 C   0  0  0  0  0  0  0  0  0  0  0  0
    7.2870   -1.5718   34.0196 C   0  0  0  0  0  0  0  0  0  0  0  0
  1  2  1  1  0  0  0
  1  6  1  0  0  0  0
  1 21  1  0  0  0  0
  3  4  1  6  0  0  0
  3  8  1  0  0  0  0
  3 28  1  0  0  0  0
  5  9  1  0  0  0  0
  5 25  1  0  0  0  0
  5 29  1  1  0  0  0
  6  7  1  1  0  0  0
  6 11  1  0  0  0  0
  8 12  1  0  0  0  0
  9 10  1  1  0  0  0
  9 14  1  0  0  0  0
 11 16  1  0  0  0  0
 12 13  1  1  0  0  0
 12 17  1  0  0  0  0
 14 15  1  6  0  0  0
 14 18  1  0  0  0  0
 15 31  1  0  0  0  0
 16 20  1  0  0  0  0
 17  2  1  1  0  0  0
 17 22  1  0  0  0  0
 18 19  1  6  0  0  0
 18 24  1  0  0  0  0
 18 30  1  0  0  0  0
 20 21  1  0  0  0  0
 20 26  1  6  0  0  0
 22 23  1  6  0  0  0
 22 28  1  0  0  0  0
 24 25  1  0  0  0  0
 26 27  1  0  0  0  0
 28 29  1  6  0  0  0
M  END
>  <CHROM.1>
-175.24987050,-149.61932275,-85.03794572,77.62522366,53.83734296,-179.77539949
3.53368591,-1.50862470,38.97937757,2.01802802,-0.24901814,1.66218196

>  <Name>
2et3_lig

>  <RI>
1.07224e+07

>  <Rbt.Current_Directory>
/home/itssahil/PROJECTS/Mol_Feturizer/New_Systems/rnas/2et3

>  <Rbt.Executable>
rbdock ($Id: //depot/dev/client3/rdock/2013.1/src/exe/rbdock.cxx#4 $)

>  <Rbt.Library>
libRbt.so (2013.1, Build901 2013/11/27)

>  <Rbt.Parameter_File>
/export/apps/rDock/src/rDock_2013.1_src/data/scripts/dock_solv.prm

>  <Rbt.Receptor>
prm/blind_docking_80.prm

>  <SCORE>
4.21638

>  <SCORE.INTER>
3.9798

>  <SCORE.INTER.CONST>
1

>  <SCORE.INTER.POLAR>
-1.0198

>  <SCORE.INTER.ROT>
6

>  <SCORE.INTER.SOLV>
19.9548

>  <SCORE.INTER.VDW>
-8.19905

>  <SCORE.INTER.norm>
0.128381

>  <SCORE.INTRA>
-2.22158

>  <SCORE.INTRA.DIHEDRAL>
-16.3135

>  <SCORE.INTRA.DIHEDRAL.0>
22.2484

>  <SCORE.INTRA.POLAR>
0

>  <SCORE.INTRA.POLAR.0>
0

>  <SCORE.INTRA.REPUL>
0

>  <SCORE.INTRA.REPUL.0>
0

>  <SCORE.INTRA.SOLV>
-0.51937

>  <SCORE.INTRA.SOLV.lig_0>
-75.7198

>  <SCORE.INTRA.VDW>
6.19483

>  <SCORE.INTRA.VDW.0>
-3.34171

>  <SCORE.INTRA.norm>
-0.071664

>  <SCORE.RESTR>
2.45816

>  <SCORE.RESTR.CAVITY>
2.45816

>  <SCORE.RESTR.norm>
0.0792956

>  <SCORE.SYSTEM>
0

>  <SCORE.SYSTEM.CONST>
0

>  <SCORE.SYSTEM.DIHEDRAL>
0

>  <SCORE.SYSTEM.SOLV>
0

>  <SCORE.SYSTEM.norm>
0

>  <SCORE.heavy>
31

>  <SCORE.norm>
0.136012

>  <RMSD>
13.489

$$$$
2et3_lig
 OpenBabel11021811423D
libRbt.so/2013.1/901 2013/11/27
 31 33  0  0  0  0  0  0  0  0999 V2000
    7.2325   -0.4497   41.0141 C   0  0  2  0  0  0  0  0  0  0  0  0
    7.0586   -0.5902   39.5801 O   0  0  0  0  0  0  0  0  0  0  0  0
    3.1167    1.0123   39.1334 C   0  0  2  0  0  0  0  0  0  0  0  0
    1.9509    1.5487   38.5019 N   0  0  0  0  0  0  0  0  0  0  0  0
    1.2386   -1.5362   37.8624 C   0  0  2  0  0  0  0  0  0  0  0  0
    8.6952   -0.7136   41.3871 C   0  0  2  0  0  0  0  0  0  0  0  0
    9.5249    0.1801   40.6395 N   0  0  0  0  0  0  0  0  0  0  0  0
    4.3335    1.9574   38.8724 C   0  0  0  0  0  0  0  0  0  0  0  0
    1.7709   -2.7185   37.0231 C   0  0  2  0  0  0  0  0  0  0  0  0
    1.9996   -3.8180   37.8759 O   0  0  0  0  0  0  0  0  0  0  0  0
    9.0651   -2.2130   41.1219 C   0  0  0  0  0  0  0  0  0  0  0  0
    5.6224    1.3707   39.5563 C   0  0  2  0  0  0  0  0  0  0  0  0
    6.7716    2.2571   39.3129 N   0  0  0  0  0  0  0  0  0  0  0  0
    3.0989   -2.2463   36.3018 C   0  0  1  0  0  0  0  0  0  0  0  0
    3.7107   -3.3548   35.4982 N   0  0  0  0  0  0  0  0  0  0  0  0
    8.1302   -3.1034   41.9994 C   0  0  0  0  0  0  0  0  0  0  0  0
    5.9061   -0.0750   38.9940 C   0  0  2  0  0  0  0  0  0  0  0  0
    2.7955   -0.9730   35.3477 C   0  0  1  0  0  0  0  0  0  0  0  0
    1.8849   -1.3061   34.3204 O   0  0  0  0  0  0  0  0  0  0  0  0
    6.6187   -2.7876   41.6118 C   0  0  2  0  0  0  0  0  0  0  0  0
    6.3019   -1.3652   41.7296 O   0  0  0  0  0  0  0  0  0  0  0  0
    4.6610   -1.0029   39.2703 C   0  0  2  0  0  0  0  0  0  0  0  0
    4.8979   -2.3160   38.7731 O   0  0  0  0  0  0  0  0  0  0  0  0
    2.1509    0.1622   36.2017 C   0  0  0  0  0  0  0  0  0  0  0  0
    0.9794   -0.3620   36.9800 O   0  0  0  0  0  0  0  0  0  0  0  0
    5.6015   -3.5990   42.3791 C   0  0  0  0  0  0  0  0  0  0  0  0
    5.5001   -3.1717   43.7498 N   0  0  0  0  0  0  0  0  0  0  0  0
    3.3856   -0.4008   38.5825 C   0  0  1  0  0  0  0  0  0  0  0  0
    2.2737   -1.2469   38.8490 O   0  0  0  0  0  0  0  0  0  0  0  0
    3.9875   -0.3809   34.5834 C   0  0  0  0  0  0  0  0  0  0  0  0
    4.2017   -4.5287   36.2391 C   0  0  0  0  0  0  0  0  0  0  0  0
  1  2  1  6  0  0  0
  1  6  1  0  0  0  0
  1 21  1  0  0  0  0
  3  4  1  6  0  0  0
  3  8  1  0  0  0  0
  3 28  1  0  0  0  0
  5  9  1  0  0  0  0
  5 25  1  0  0  0  0
  5 29  1  1  0  0  0
  6  7  1  6  0  0  0
  6 11  1  0  0  0  0
  8 12  1  0  0  0  0
  9 10  1  1  0  0  0
  9 14  1  0  0  0  0
 11 16  1  0  0  0  0
 12 13  1  6  0  0  0
 12 17  1  0  0  0  0
 14 15  1  6  0  0  0
 14 18  1  0  0  0  0
 15 31  1  0  0  0  0
 16 20  1  0  0  0  0
 17  2  1  1  0  0  0
 17 22  1  0  0  0  0
 18 19  1  6  0  0  0
 18 24  1  0  0  0  0
 18 30  1  0  0  0  0
 20 21  1  0  0  0  0
 20 26  1  1  0  0  0
 22 23  1  6  0  0  0
 22 28  1  0  0  0  0
 24 25  1  0  0  0  0
 26 27  1  0  0  0  0
 28 29  1  1  0  0  0
M  END
>  <CHROM.1>
-164.15213094,85.31591934,-64.70044981,45.22697291,72.25829187,98.25906020
4.63322247,-1.18133208,38.79107888,-0.17447461,-0.76535703,-0.22975557

>  <Name>
2et3_lig

>  <RI>
1.07224e+07

>  <Rbt.Current_Directory>
/home/itssahil/PROJECTS/Mol_Feturizer/New_Systems/rnas/2et3

>  <Rbt.Executable>
rbdock ($Id: //depot/dev/client3/rdock/2013.1/src/exe/rbdock.cxx#4 $)

>  <Rbt.Library>
libRbt.so (2013.1, Build901 2013/11/27)

>  <Rbt.Parameter_File>
/export/apps/rDock/src/rDock_2013.1_src/data/scripts/dock_solv.prm

>  <Rbt.Receptor>
prm/blind_docking_80.prm

>  <SCORE>
-8.39971

>  <SCORE.INTER>
-10.4204

>  <SCORE.INTER.CONST>
1

>  <SCORE.INTER.POLAR>
-0.916515

>  <SCORE.INTER.ROT>
6

>  <SCORE.INTER.SOLV>
15.4798

>  <SCORE.INTER.VDW>
-16.6518

>  <SCORE.INTER.norm>
-0.336141

>  <SCORE.INTRA>
0.118748

>  <SCORE.INTRA.DIHEDRAL>
-11.5206

>  <SCORE.INTRA.DIHEDRAL.0>
22.2484

>  <SCORE.INTRA.POLAR>
0

>  <SCORE.INTRA.POLAR.0>
0

>  <SCORE.INTRA.REPUL>
0

>  <SCORE.INTRA.REPUL.0>
0

>  <SCORE.INTRA.SOLV>
2.78337

>  <SCORE.INTRA.SOLV.lig_0>
-75.7198

>  <SCORE.INTRA.VDW>
4.48737

>  <SCORE.INTRA.VDW.0>
-3.34171

>  <SCORE.INTRA.norm>
0.00383058

>  <SCORE.RESTR>
1.90189

>  <SCORE.RESTR.CAVITY>
1.90189

>  <SCORE.RESTR.norm>
0.0613514

>  <SCORE.SYSTEM>
0

>  <SCORE.SYSTEM.CONST>
0

>  <SCORE.SYSTEM.DIHEDRAL>
0

>  <SCORE.SYSTEM.SOLV>
0

>  <SCORE.SYSTEM.norm>
0

>  <SCORE.heavy>
31

>  <SCORE.norm>
-0.270959

>  <RMSD>
13.514

$$$$
2et3_lig
 OpenBabel11021811423D
libRbt.so/2013.1/901 2013/11/27
 31 33  0  0  0  0  0  0  0  0999 V2000
    1.9359   -2.9141   37.1837 C   0  0  2  0  0  0  0  0  0  0  0  0
    2.1801   -2.9343   38.6141 O   0  0  0  0  0  0  0  0  0  0  0  0
    4.4521    0.6541   39.1319 C   0  0  2  0  0  0  0  0  0  0  0  0
    5.0189    1.8019   39.7696 N   0  0  0  0  0  0  0  0  0  0  0  0
    7.2386    0.0144   40.7114 C   0  0  2  0  0  0  0  0  0  0  0  0
    1.7218   -4.3435   36.6743 C   0  0  2  0  0  0  0  0  0  0  0  0
    0.6467   -4.9338   37.4104 N   0  0  0  0  0  0  0  0  0  0  0  0
    2.8929    0.7540   39.1671 C   0  0  0  0  0  0  0  0  0  0  0  0
    8.6785   -0.2674   40.2287 C   0  0  2  0  0  0  0  0  0  0  0  0
    8.8185    0.2056   38.9077 O   0  0  0  0  0  0  0  0  0  0  0  0
    3.0440   -5.1742   36.8050 C   0  0  0  0  0  0  0  0  0  0  0  0
    2.2606   -0.5089   38.4754 C   0  0  2  0  0  0  0  0  0  0  0  0
    0.7920   -0.4198   38.5064 N   0  0  0  0  0  0  0  0  0  0  0  0
    8.9290   -1.8278   40.3254 C   0  0  1  0  0  0  0  0  0  0  0  0
   10.2953   -2.1958   39.8287 N   0  0  0  0  0  0  0  0  0  0  0  0
    4.1430   -4.4703   35.9486 C   0  0  0  0  0  0  0  0  0  0  0  0
    2.7543   -1.8146   39.2089 C   0  0  2  0  0  0  0  0  0  0  0  0
    8.7411   -2.3315   41.8533 C   0  0  1  0  0  0  0  0  0  0  0  0
    9.6838   -1.7259   42.7136 O   0  0  0  0  0  0  0  0  0  0  0  0
    4.3233   -2.9805   36.4800 C   0  0  2  0  0  0  0  0  0  0  0  0
    3.0639   -2.2380   36.4862 O   0  0  0  0  0  0  0  0  0  0  0  0
    4.3292   -1.8853   39.1582 C   0  0  2  0  0  0  0  0  0  0  0  0
    4.7965   -3.0605   39.8127 O   0  0  0  0  0  0  0  0  0  0  0  0
    7.3187   -1.9292   42.3517 C   0  0  0  0  0  0  0  0  0  0  0  0
    7.0679   -0.4689   42.1121 O   0  0  0  0  0  0  0  0  0  0  0  0
    5.3770   -2.1856   35.7454 C   0  0  0  0  0  0  0  0  0  0  0  0
    5.1859   -0.7679   35.9051 N   0  0  0  0  0  0  0  0  0  0  0  0
    4.9413   -0.6173   39.8508 C   0  0  1  0  0  0  0  0  0  0  0  0
    6.3602   -0.6963   39.7885 O   0  0  0  0  0  0  0  0  0  0  0  0
    8.9360   -3.8309   42.1170 C   0  0  0  0  0  0  0  0  0  0  0  0
   10.4259   -2.5128   38.3967 C   0  0  0  0  0  0  0  0  0  0  0  0
  1  2  1  1  0  0  0
  1  6  1  0  0  0  0
  1 21  1  0  0  0  0
  3  4  1  1  0  0  0
  3  8  1  0  0  0  0
  3 28  1  0  0  0  0
  5  9  1  0  0  0  0
  5 25  1  0  0  0  0
  5 29  1  6  0  0  0
  6  7  1  1  0  0  0
  6 11  1  0  0  0  0
  8 12  1  0  0  0  0
  9 10  1  6  0  0  0
  9 14  1  0  0  0  0
 11 16  1  0  0  0  0
 12 13  1  1  0  0  0
 12 17  1  0  0  0  0
 14 15  1  1  0  0  0
 14 18  1  0  0  0  0
 15 31  1  0  0  0  0
 16 20  1  0  0  0  0
 17  2  1  6  0  0  0
 17 22  1  0  0  0  0
 18 19  1  1  0  0  0
 18 24  1  0  0  0  0
 18 30  1  0  0  0  0
 20 21  1  0  0  0  0
 20 26  1  6  0  0  0
 22 23  1  1  0  0  0
 22 28  1  0  0  0  0
 24 25  1  0  0  0  0
 26 27  1  0  0  0  0
 28 29  1  6  0  0  0
M  END
>  <CHROM.1>
162.56065334,-176.07027592,-90.00825509,33.98336142,159.14714591,82.52614658
5.40785319,-1.79777906,39.04237235,-2.71734231,-0.34464908,0.57377712

>  <Name>
2et3_lig

>  <RI>
0

>  <Rbt.Current_Directory>
/home/itssahil/PROJECTS/Mol_Feturizer/New_Systems/rnas/2et3

>  <Rbt.Executable>
rbdock ($Id: //depot/dev/client3/rdock/2013.1/src/exe/rbdock.cxx#4 $)

>  <Rbt.Library>
libRbt.so (2013.1, Build901 2013/11/27)

>  <Rbt.Parameter_File>
/export/apps/rDock/src/rDock_2013.1_src/data/scripts/dock_solv.prm

>  <Rbt.Receptor>
prm/blind_docking_100.prm

>  <SCORE>
-2.81189

>  <SCORE.INTER>
-4.0138

>  <SCORE.INTER.CONST>
1

>  <SCORE.INTER.POLAR>
0

>  <SCORE.INTER.ROT>
6

>  <SCORE.INTER.SOLV>
13.0096

>  <SCORE.INTER.VDW>
-14.6124

>  <SCORE.INTER.norm>
-0.129478

>  <SCORE.INTRA>
-4.61099

>  <SCORE.INTRA.DIHEDRAL>
-13.6246

>  <SCORE.INTRA.DIHEDRAL.0>
22.2484

>  <SCORE.INTRA.POLAR>
0

>  <SCORE.INTRA.POLAR.0>
0

>  <SCORE.INTRA.REPUL>
0

>  <SCORE.INTRA.REPUL.0>
0

>  <SCORE.INTRA.SOLV>
1.71371

>  <SCORE.INTRA.SOLV.lig_0>
-75.7198

>  <SCORE.INTRA.VDW>
1.34444

>  <SCORE.INTRA.VDW.0>
-3.34171

>  <SCORE.INTRA.norm>
-0.148742

>  <SCORE.RESTR>
5.81291

>  <SCORE.RESTR.CAVITY>
5.81291

>  <SCORE.RESTR.norm>
0.187513

>  <SCORE.SYSTEM>
0

>  <SCORE.SYSTEM.CONST>
0

>  <SCORE.SYSTEM.DIHEDRAL>
0

>  <SCORE.SYSTEM.SOLV>
0

>  <SCORE.SYSTEM.norm>
0

>  <SCORE.heavy>
31

>  <SCORE.norm>
-0.0907061

>  <RMSD>
13.516

$$$$
2et3_lig
 OpenBabel11021811423D
libRbt.so/2013.1/901 2013/11/27
 31 33  0  0  0  0  0  0  0  0999 V2000
    2.1028   -2.7625   37.0363 C   0  0  2  0  0  0  0  0  0  0  0  0
    2.2658   -2.7790   38.4783 O   0  0  0  0  0  0  0  0  0  0  0  0
    4.6028    0.7531   39.0858 C   0  0  2  0  0  0  0  0  0  0  0  0
    5.1762    1.8842   39.7471 N   0  0  0  0  0  0  0  0  0  0  0  0
    7.3240    0.0330   40.7512 C   0  0  2  0  0  0  0  0  0  0  0  0
    1.7899   -4.1760   36.5339 C   0  0  2  0  0  0  0  0  0  0  0  0
    0.6278   -4.6558   37.2162 N   0  0  0  0  0  0  0  0  0  0  0  0
    3.0460    0.8889   39.0744 C   0  0  0  0  0  0  0  0  0  0  0  0
    8.7713   -0.2743   40.3078 C   0  0  2  0  0  0  0  0  0  0  0  0
    8.9618    0.2140   38.9988 O   0  0  0  0  0  0  0  0  0  0  0  0
    3.0235   -5.1181   36.7489 C   0  0  0  0  0  0  0  0  0  0  0  0
    2.4062   -0.3554   38.3564 C   0  0  2  0  0  0  0  0  0  0  0  0
    0.9398   -0.2325   38.3435 N   0  0  0  0  0  0  0  0  0  0  0  0
    8.9842   -1.8412   40.3888 C   0  0  1  0  0  0  0  0  0  0  0  0
   10.3564   -2.2329   39.9279 N   0  0  0  0  0  0  0  0  0  0  0  0
    4.2262   -4.5295   35.9465 C   0  0  0  0  0  0  0  0  0  0  0  0
    2.8472   -1.6760   39.0968 C   0  0  2  0  0  0  0  0  0  0  0  0
    8.7389   -2.3622   41.9027 C   0  0  1  0  0  0  0  0  0  0  0  0
    9.6682   -1.7903   42.7999 O   0  0  0  0  0  0  0  0  0  0  0  0
    4.5096   -3.0523   36.4683 C   0  0  2  0  0  0  0  0  0  0  0  0
    3.3231   -2.2013   36.3945 O   0  0  0  0  0  0  0  0  0  0  0  0
    4.4208   -1.7829   39.0934 C   0  0  2  0  0  0  0  0  0  0  0  0
    4.8410   -2.9719   39.7548 O   0  0  0  0  0  0  0  0  0  0  0  0
    7.3112   -1.9349   42.3641 C   0  0  0  0  0  0  0  0  0  0  0  0
    7.1003   -0.4661   42.1388 O   0  0  0  0  0  0  0  0  0  0  0  0
    5.6686   -2.3669   35.7837 C   0  0  0  0  0  0  0  0  0  0  0  0
    6.9025   -3.0828   35.9754 N   0  0  0  0  0  0  0  0  0  0  0  0
    5.0406   -0.5330   39.8117 C   0  0  1  0  0  0  0  0  0  0  0  0
    6.4585   -0.6445   39.7919 O   0  0  0  0  0  0  0  0  0  0  0  0
    8.8924   -3.8692   42.1498 C   0  0  0  0  0  0  0  0  0  0  0  0
   10.5199   -2.5483   38.4989 C   0  0  0  0  0  0  0  0  0  0  0  0
  1  2  1  1  0  0  0
  1  6  1  0  0  0  0
  1 21  1  0  0  0  0
  3  4  1  1  0  0  0
  3  8  1  0  0  0  0
  3 28  1  0  0  0  0
  5  9  1  0  0  0  0
  5 25  1  0  0  0  0
  5 29  1  6  0  0  0
  6  7  1  1  0  0  0
  6 11  1  0  0  0  0
  8 12  1  0  0  0  0
  9 10  1  6  0  0  0
  9 14  1  0  0  0  0
 11 16  1  0  0  0  0
 12 13  1  1  0  0  0
 12 17  1  0  0  0  0
 14 15  1  1  0  0  0
 14 18  1  0  0  0  0
 15 31  1  0  0  0  0
 16 20  1  0  0  0  0
 17  2  1  6  0  0  0
 17 22  1  0  0  0  0
 18 19  1  1  0  0  0
 18 24  1  0  0  0  0
 18 30  1  0  0  0  0
 20 21  1  0  0  0  0
 20 26  1  6  0  0  0
 22 23  1  1  0  0  0
 22 28  1  0  0  0  0
 24 25  1  0  0  0  0
 26 27  1  0  0  0  0
 28 29  1  6  0  0  0
M  END
>  <CHROM.1>
165.57005550,-175.98817040,-90.72940614,35.82912338,-60.48336872,82.99329646
5.55207923,-1.82598138,39.02075583,-2.68120255,-0.31929509,0.66855376

>  <Name>
2et3_lig

>  <RI>
0

>  <Rbt.Current_Directory>
/home/itssahil/PROJECTS/Mol_Feturizer/New_Systems/rnas/2et3

>  <Rbt.Executable>
rbdock ($Id: //depot/dev/client3/rdock/2013.1/src/exe/rbdock.cxx#4 $)

>  <Rbt.Library>
libRbt.so (2013.1, Build901 2013/11/27)

>  <Rbt.Parameter_File>
/export/apps/rDock/src/rDock_2013.1_src/data/scripts/dock_solv.prm

>  <Rbt.Receptor>
prm/blind_docking_100.prm

>  <SCORE>
-6.2015

>  <SCORE.INTER>
-4.96099

>  <SCORE.INTER.CONST>
1

>  <SCORE.INTER.POLAR>
0

>  <SCORE.INTER.ROT>
6

>  <SCORE.INTER.SOLV>
15.7205

>  <SCORE.INTER.VDW>
-16.1475

>  <SCORE.INTER.norm>
-0.160032

>  <SCORE.INTRA>
-7.08893

>  <SCORE.INTRA.DIHEDRAL>
-15.5905

>  <SCORE.INTRA.DIHEDRAL.0>
22.2484

>  <SCORE.INTRA.POLAR>
0

>  <SCORE.INTRA.POLAR.0>
0

>  <SCORE.INTRA.REPUL>
0

>  <SCORE.INTRA.REPUL.0>
0

>  <SCORE.INTRA.SOLV>
-1.04723

>  <SCORE.INTRA.SOLV.lig_0>
-75.7198

>  <SCORE.INTRA.VDW>
1.22991

>  <SCORE.INTRA.VDW.0>
-3.34171

>  <SCORE.INTRA.norm>
-0.228675

>  <SCORE.RESTR>
5.84843

>  <SCORE.RESTR.CAVITY>
5.84843

>  <SCORE.RESTR.norm>
0.188659

>  <SCORE.SYSTEM>
0

>  <SCORE.SYSTEM.CONST>
0

>  <SCORE.SYSTEM.DIHEDRAL>
0

>  <SCORE.SYSTEM.SOLV>
0

>  <SCORE.SYSTEM.norm>
0

>  <SCORE.heavy>
31

>  <SCORE.norm>
-0.200048

>  <RMSD>
13.527

$$$$
2et3_lig
 OpenBabel11021811423D
libRbt.so/2013.1/901 2013/11/27
 31 33  0  0  0  0  0  0  0  0999 V2000
    0.3199   -0.4514   37.7793 C   0  0  2  0  0  0  0  0  0  0  0  0
    0.7602    0.8680   38.1934 O   0  0  0  0  0  0  0  0  0  0  0  0
    4.9831    0.4080   37.6815 C   0  0  2  0  0  0  0  0  0  0  0  0
    6.3754    0.7346   37.6667 N   0  0  0  0  0  0  0  0  0  0  0  0
    5.2291   -1.7622   39.7738 C   0  0  2  0  0  0  0  0  0  0  0  0
   -1.0906   -0.3648   37.1867 C   0  0  2  0  0  0  0  0  0  0  0  0
   -1.0758    0.5763   36.1096 N   0  0  0  0  0  0  0  0  0  0  0  0
    4.2162    1.3466   36.6951 C   0  0  0  0  0  0  0  0  0  0  0  0
    4.7176   -2.4194   41.0746 C   0  0  2  0  0  0  0  0  0  0  0  0
    3.3893   -2.0056   41.3040 O   0  0  0  0  0  0  0  0  0  0  0  0
   -2.1255    0.0320   38.2943 C   0  0  0  0  0  0  0  0  0  0  0  0
    2.6823    1.0002   36.7113 C   0  0  2  0  0  0  0  0  0  0  0  0
    1.9553    1.8820   35.7841 N   0  0  0  0  0  0  0  0  0  0  0  0
    5.6818   -1.9847   42.2529 C   0  0  1  0  0  0  0  0  0  0  0  0
    5.2277   -2.5443   43.5680 N   0  0  0  0  0  0  0  0  0  0  0  0
   -2.0885   -1.0645   39.4048 C   0  0  0  0  0  0  0  0  0  0  0  0
    2.1226    1.1523   38.1776 C   0  0  2  0  0  0  0  0  0  0  0  0
    7.1977   -2.4631   41.9414 C   0  0  1  0  0  0  0  0  0  0  0  0
    7.2854   -3.8706   41.8579 O   0  0  0  0  0  0  0  0  0  0  0  0
   -0.6071   -1.1529   39.9811 C   0  0  2  0  0  0  0  0  0  0  0  0
    0.3825   -1.3916   38.9318 O   0  0  0  0  0  0  0  0  0  0  0  0
    2.9170    0.1957   39.1479 C   0  0  2  0  0  0  0  0  0  0  0  0
    2.4244    0.3147   40.4787 O   0  0  0  0  0  0  0  0  0  0  0  0
    7.6445   -1.8787   40.5658 C   0  0  0  0  0  0  0  0  0  0  0  0
    6.6315   -2.1927   39.5037 O   0  0  0  0  0  0  0  0  0  0  0  0
   -0.4326   -2.1706   41.0837 C   0  0  0  0  0  0  0  0  0  0  0  0
   -1.2005   -1.8301   42.2526 N   0  0  0  0  0  0  0  0  0  0  0  0
    4.4441    0.5550   39.1169 C   0  0  1  0  0  0  0  0  0  0  0  0
    5.1432   -0.3222   39.9916 O   0  0  0  0  0  0  0  0  0  0  0  0
    8.2649   -2.1051   42.9846 C   0  0  0  0  0  0  0  0  0  0  0  0
    4.8751   -3.9734   43.6034 C   0  0  0  0  0  0  0  0  0  0  0  0
  1  2  1  1  0  0  0
  1  6  1  0  0  0  0
  1 21  1  0  0  0  0
  3  4  1  1  0  0  0
  3  8  1  0  0  0  0
  3 28  1  0  0  0  0
  5  9  1  0  0  0  0
  5 25  1  0  0  0  0
  5 29  1  1  0  0  0
  6  7  1  6  0  0  0
  6 11  1  0  0  0  0
  8 12  1  0  0  0  0
  9 10  1  1  0  0  0
  9 14  1  0  0  0  0
 11 16  1  0  0  0  0
 12 13  1  6  0  0  0
 12 17  1  0  0  0  0
 14 15  1  1  0  0  0
 14 18  1  0  0  0  0
 15 31  1  0  0  0  0
 16 20  1  0  0  0  0
 17  2  1  6  0  0  0
 17 22  1  0  0  0  0
 18 19  1  6  0  0  0
 18 24  1  0  0  0  0
 18 30  1  0  0  0  0
 20 21  1  0  0  0  0
 20 26  1  1  0  0  0
 22 23  1  1  0  0  0
 22 28  1  0  0  0  0
 24 25  1  0  0  0  0
 26 27  1  0  0  0  0
 28 29  1  1  0  0  0
M  END
>  <CHROM.1>
-151.08951555,-125.47493696,47.36692023,60.43292220,-64.27977617,-55.95474054
3.12780538,-0.89225081,39.68369387,-2.57353718,0.01658214,2.17567917

>  <Name>
2et3_lig

>  <RI>
1.07224e+07

>  <Rbt.Current_Directory>
/home/itssahil/PROJECTS/Mol_Feturizer/New_Systems/rnas/2et3

>  <Rbt.Executable>
rbdock ($Id: //depot/dev/client3/rdock/2013.1/src/exe/rbdock.cxx#4 $)

>  <Rbt.Library>
libRbt.so (2013.1, Build901 2013/11/27)

>  <Rbt.Parameter_File>
/export/apps/rDock/src/rDock_2013.1_src/data/scripts/dock_solv.prm

>  <Rbt.Receptor>
prm/blind_docking_80.prm

>  <SCORE>
-11.3306

>  <SCORE.INTER>
-9.76705

>  <SCORE.INTER.CONST>
1

>  <SCORE.INTER.POLAR>
0

>  <SCORE.INTER.ROT>
6

>  <SCORE.INTER.SOLV>
16.9416

>  <SCORE.INTER.VDW>
-19.7586

>  <SCORE.INTER.norm>
-0.315066

>  <SCORE.INTRA>
-3.42986

>  <SCORE.INTRA.DIHEDRAL>
-11.4101

>  <SCORE.INTRA.DIHEDRAL.0>
22.2484

>  <SCORE.INTRA.POLAR>
0

>  <SCORE.INTRA.POLAR.0>
0

>  <SCORE.INTRA.REPUL>
0.105641

>  <SCORE.INTRA.REPUL.0>
0

>  <SCORE.INTRA.SOLV>
0.58451

>  <SCORE.INTRA.SOLV.lig_0>
-75.7198

>  <SCORE.INTRA.VDW>
1.45475

>  <SCORE.INTRA.VDW.0>
-3.34171

>  <SCORE.INTRA.norm>
-0.110641

>  <SCORE.RESTR>
1.86636

>  <SCORE.RESTR.CAVITY>
1.86636

>  <SCORE.RESTR.norm>
0.0602051

>  <SCORE.SYSTEM>
0

>  <SCORE.SYSTEM.CONST>
0

>  <SCORE.SYSTEM.DIHEDRAL>
0

>  <SCORE.SYSTEM.SOLV>
0

>  <SCORE.SYSTEM.norm>
0

>  <SCORE.heavy>
31

>  <SCORE.norm>
-0.365502

>  <RMSD>
13.538

$$$$
2et3_lig
 OpenBabel11021811423D
libRbt.so/2013.1/901 2013/11/27
 31 33  0  0  0  0  0  0  0  0999 V2000
    1.1570    0.6865   36.6518 C   0  0  2  0  0  0  0  0  0  0  0  0
    2.0039    0.6799   37.8303 O   0  0  0  0  0  0  0  0  0  0  0  0
    6.1128    1.8367   37.5374 C   0  0  2  0  0  0  0  0  0  0  0  0
    7.2736    2.6721   37.5345 N   0  0  0  0  0  0  0  0  0  0  0  0
    7.4863    0.5928   39.6394 C   0  0  2  0  0  0  0  0  0  0  0  0
   -0.3027    0.4633   37.0614 C   0  0  2  0  0  0  0  0  0  0  0  0
   -0.6689    1.4686   38.0108 N   0  0  0  0  0  0  0  0  0  0  0  0
    5.1310    2.3031   36.4146 C   0  0  0  0  0  0  0  0  0  0  0  0
    6.9048   -0.8269   39.4604 C   0  0  2  0  0  0  0  0  0  0  0  0
    5.9819   -0.8117   38.3943 O   0  0  0  0  0  0  0  0  0  0  0  0
   -0.4941   -0.9812   37.6376 C   0  0  0  0  0  0  0  0  0  0  0  0
    3.8470    1.3951   36.4162 C   0  0  2  0  0  0  0  0  0  0  0  0
    2.9188    1.8308   35.3606 N   0  0  0  0  0  0  0  0  0  0  0  0
    6.2218   -1.2502   40.8247 C   0  0  1  0  0  0  0  0  0  0  0  0
    5.5871   -2.6051   40.7232 N   0  0  0  0  0  0  0  0  0  0  0  0
   -0.0988   -2.0015   36.5242 C   0  0  0  0  0  0  0  0  0  0  0  0
    3.1533    1.4649   37.8305 C   0  0  2  0  0  0  0  0  0  0  0  0
    7.3108   -1.2374   42.0237 C   0  0  1  0  0  0  0  0  0  0  0  0
    8.3424   -2.1739   41.7910 O   0  0  0  0  0  0  0  0  0  0  0  0
    1.4105   -1.7277   36.0980 C   0  0  2  0  0  0  0  0  0  0  0  0
    1.6269   -0.3424   35.6840 O   0  0  0  0  0  0  0  0  0  0  0  0
    4.1685    0.9909   38.9406 C   0  0  2  0  0  0  0  0  0  0  0  0
    3.5602    1.0427   40.2271 O   0  0  0  0  0  0  0  0  0  0  0  0
    7.9647    0.1767   42.1037 C   0  0  0  0  0  0  0  0  0  0  0  0
    8.4740    0.6006   40.7570 O   0  0  0  0  0  0  0  0  0  0  0  0
    1.9309   -2.6628   35.0319 C   0  0  0  0  0  0  0  0  0  0  0  0
    3.3653   -2.6073   34.9253 N   0  0  0  0  0  0  0  0  0  0  0  0
    5.4425    1.9067   38.9225 C   0  0  1  0  0  0  0  0  0  0  0  0
    6.3477    1.4592   39.9244 O   0  0  0  0  0  0  0  0  0  0  0  0
    6.8042   -1.6120   43.4232 C   0  0  0  0  0  0  0  0  0  0  0  0
    4.2039   -2.6623   40.2215 C   0  0  0  0  0  0  0  0  0  0  0  0
  1  2  1  1  0  0  0
  1  6  1  0  0  0  0
  1 21  1  0  0  0  0
  3  4  1  1  0  0  0
  3  8  1  0  0  0  0
  3 28  1  0  0  0  0
  5  9  1  0  0  0  0
  5 25  1  0  0  0  0
  5 29  1  1  0  0  0
  6  7  1  1  0  0  0
  6 11  1  0  0  0  0
  8 12  1  0  0  0  0
  9 10  1  6  0  0  0
  9 14  1  0  0  0  0
 11 16  1  0  0  0  0
 12 13  1  6  0  0  0
 12 17  1  0  0  0  0
 14 15  1  6  0  0  0
 14 18  1  0  0  0  0
 15 31  1  0  0  0  0
 16 20  1  0  0  0  0
 17  2  1  6  0  0  0
 17 22  1  0  0  0  0
 18 19  1  6  0  0  0
 18 24  1  0  0  0  0
 18 30  1  0  0  0  0
 20 21  1  0  0  0  0
 20 26  1  6  0  0  0
 22 23  1  1  0  0  0
 22 28  1  0  0  0  0
 24 25  1  0  0  0  0
 26 27  1  0  0  0  0
 28 29  1  1  0  0  0
M  END
>  <CHROM.1>
-148.82248153,-76.94127731,-86.90269078,-39.89916871,-165.23086239,-22.17878180
4.31960149,-0.07681461,38.54553120,-2.76048002,0.53055824,2.51300800

>  <Name>
2et3_lig

>  <RI>
0

>  <Rbt.Current_Directory>
/home/itssahil/PROJECTS/Mol_Feturizer/New_Systems/rnas/2et3

>  <Rbt.Executable>
rbdock ($Id: //depot/dev/client3/rdock/2013.1/src/exe/rbdock.cxx#4 $)

>  <Rbt.Library>
libRbt.so (2013.1, Build901 2013/11/27)

>  <Rbt.Parameter_File>
/export/apps/rDock/src/rDock_2013.1_src/data/scripts/dock_solv.prm

>  <Rbt.Receptor>
prm/blind_docking_100.prm

>  <SCORE>
-9.21989

>  <SCORE.INTER>
-16.7305

>  <SCORE.INTER.CONST>
1

>  <SCORE.INTER.POLAR>
-1.41399

>  <SCORE.INTER.ROT>
6

>  <SCORE.INTER.SOLV>
23.6027

>  <SCORE.INTER.VDW>
-21.908

>  <SCORE.INTER.norm>
-0.539695

>  <SCORE.INTRA>
2.15819

>  <SCORE.INTRA.DIHEDRAL>
-8.88172

>  <SCORE.INTRA.DIHEDRAL.0>
22.2484

>  <SCORE.INTRA.POLAR>
0

>  <SCORE.INTRA.POLAR.0>
0

>  <SCORE.INTRA.REPUL>
0

>  <SCORE.INTRA.REPUL.0>
0

>  <SCORE.INTRA.SOLV>
1.42216

>  <SCORE.INTRA.SOLV.lig_0>
-75.7198

>  <SCORE.INTRA.VDW>
5.88797

>  <SCORE.INTRA.VDW.0>
-3.34171

>  <SCORE.INTRA.norm>
0.0696191

>  <SCORE.RESTR>
5.35247

>  <SCORE.RESTR.CAVITY>
5.35247

>  <SCORE.RESTR.norm>
0.17266

>  <SCORE.SYSTEM>
0

>  <SCORE.SYSTEM.CONST>
0

>  <SCORE.SYSTEM.DIHEDRAL>
0

>  <SCORE.SYSTEM.SOLV>
0

>  <SCORE.SYSTEM.norm>
0

>  <SCORE.heavy>
31

>  <SCORE.norm>
-0.297416

>  <RMSD>
13.539

$$$$
2et3_lig
 OpenBabel11021811423D
libRbt.so/2013.1/901 2013/11/27
 31 33  0  0  0  0  0  0  0  0999 V2000
    1.1476    0.3217   37.5713 C   0  0  2  0  0  0  0  0  0  0  0  0
    1.4041   -1.0919   37.7767 O   0  0  0  0  0  0  0  0  0  0  0  0
    1.9106   -1.1814   42.0243 C   0  0  2  0  0  0  0  0  0  0  0  0
    1.9982   -1.7020   43.3535 N   0  0  0  0  0  0  0  0  0  0  0  0
    5.2804   -2.5582   41.9992 C   0  0  2  0  0  0  0  0  0  0  0  0
    1.0544    0.6188   36.0708 C   0  0  2  0  0  0  0  0  0  0  0  0
    0.0405   -0.2153   35.5029 N   0  0  0  0  0  0  0  0  0  0  0  0
    0.4897   -1.4722   41.4424 C   0  0  0  0  0  0  0  0  0  0  0  0
    6.4353   -1.8318   42.7232 C   0  0  2  0  0  0  0  0  0  0  0  0
    5.9325   -1.2274   43.8938 O   0  0  0  0  0  0  0  0  0  0  0  0
    2.4447    0.3984   35.3825 C   0  0  0  0  0  0  0  0  0  0  0  0
    0.3871   -0.9106   39.9770 C   0  0  2  0  0  0  0  0  0  0  0  0
   -0.9494   -1.1825   39.4242 N   0  0  0  0  0  0  0  0  0  0  0  0
    7.0434   -0.7648   41.7239 C   0  0  1  0  0  0  0  0  0  0  0  0
    8.1463    0.0224   42.3664 N   0  0  0  0  0  0  0  0  0  0  0  0
    3.4717    1.3681   36.0472 C   0  0  0  0  0  0  0  0  0  0  0  0
    1.5045   -1.5692   39.0803 C   0  0  2  0  0  0  0  0  0  0  0  0
    7.5921   -1.4978   40.3878 C   0  0  1  0  0  0  0  0  0  0  0  0
    8.6380   -2.3985   40.6886 O   0  0  0  0  0  0  0  0  0  0  0  0
    3.5262    1.0571   37.6077 C   0  0  2  0  0  0  0  0  0  0  0  0
    2.2072    1.1308   38.2339 O   0  0  0  0  0  0  0  0  0  0  0  0
    2.9243   -1.2603   39.6940 C   0  0  2  0  0  0  0  0  0  0  0  0
    3.9496   -1.8436   38.8964 O   0  0  0  0  0  0  0  0  0  0  0  0
    6.4322   -2.3179   39.7431 C   0  0  0  0  0  0  0  0  0  0  0  0
    5.7897   -3.2149   40.7606 O   0  0  0  0  0  0  0  0  0  0  0  0
    4.5010    1.9183   38.3758 C   0  0  0  0  0  0  0  0  0  0  0  0
    4.2527    1.8740   39.7929 N   0  0  0  0  0  0  0  0  0  0  0  0
    3.0069   -1.8259   41.1552 C   0  0  1  0  0  0  0  0  0  0  0  0
    4.2904   -1.5313   41.6930 O   0  0  0  0  0  0  0  0  0  0  0  0
    8.2031   -0.5975   39.3053 C   0  0  0  0  0  0  0  0  0  0  0  0
    8.7315    1.1219   41.5810 C   0  0  0  0  0  0  0  0  0  0  0  0
  1  2  1  6  0  0  0
  1  6  1  0  0  0  0
  1 21  1  0  0  0  0
  3  4  1  1  0  0  0
  3  8  1  0  0  0  0
  3 28  1  0  0  0  0
  5  9  1  0  0  0  0
  5 25  1  0  0  0  0
  5 29  1  6  0  0  0
  6  7  1  6  0  0  0
  6 11  1  0  0  0  0
  8 12  1  0  0  0  0
  9 10  1  1  0  0  0
  9 14  1  0  0  0  0
 11 16  1  0  0  0  0
 12 13  1  6  0  0  0
 12 17  1  0  0  0  0
 14 15  1  1  0  0  0
 14 18  1  0  0  0  0
 15 31  1  0  0  0  0
 16 20  1  0  0  0  0
 17  2  1  6  0  0  0
 17 22  1  0  0  0  0
 18 19  1  1  0  0  0
 18 24  1  0  0  0  0
 18 30  1  0  0  0  0
 20 21  1  0  0  0  0
 20 26  1  1  0  0  0
 22 23  1  6  0  0  0
 22 28  1  0  0  0  0
 24 25  1  0  0  0  0
 26 27  1  0  0  0  0
 28 29  1  1  0  0  0
M  END
>  <CHROM.1>
-179.09970688,-172.83413980,-175.41581462,42.00495336,163.68985200,126.86640550
3.97488015,-0.73198885,39.82627969,-2.53450180,0.12401502,2.02279286

>  <Name>
2et3_lig

>  <RI>
1.07224e+07

>  <Rbt.Current_Directory>
/home/itssahil/PROJECTS/Mol_Feturizer/New_Systems/rnas/2et3

>  <Rbt.Executable>
rbdock ($Id: //depot/dev/client3/rdock/2013.1/src/exe/rbdock.cxx#4 $)

>  <Rbt.Library>
libRbt.so (2013.1, Build901 2013/11/27)

>  <Rbt.Parameter_File>
/export/apps/rDock/src/rDock_2013.1_src/data/scripts/dock_solv.prm

>  <Rbt.Receptor>
prm/blind_docking_80.prm

>  <SCORE>
3.06165

>  <SCORE.INTER>
4.3166

>  <SCORE.INTER.CONST>
1

>  <SCORE.INTER.POLAR>
0

>  <SCORE.INTER.ROT>
6

>  <SCORE.INTER.SOLV>
20.0536

>  <SCORE.INTER.VDW>
-11.4068

>  <SCORE.INTER.norm>
0.139245

>  <SCORE.INTRA>
-1.44742

>  <SCORE.INTRA.DIHEDRAL>
-12.5245

>  <SCORE.INTRA.DIHEDRAL.0>
22.2484

>  <SCORE.INTRA.POLAR>
0

>  <SCORE.INTRA.POLAR.0>
0

>  <SCORE.INTRA.REPUL>
0.00448373

>  <SCORE.INTRA.REPUL.0>
0

>  <SCORE.INTRA.SOLV>
0.488148

>  <SCORE.INTRA.SOLV.lig_0>
-75.7198

>  <SCORE.INTRA.VDW>
4.54833

>  <SCORE.INTRA.VDW.0>
-3.34171

>  <SCORE.INTRA.norm>
-0.0466909

>  <SCORE.RESTR>
0.192472

>  <SCORE.RESTR.CAVITY>
0.192472

>  <SCORE.RESTR.norm>
0.00620877

>  <SCORE.SYSTEM>
0

>  <SCORE.SYSTEM.CONST>
0

>  <SCORE.SYSTEM.DIHEDRAL>
0

>  <SCORE.SYSTEM.SOLV>
0

>  <SCORE.SYSTEM.norm>
0

>  <SCORE.heavy>
31

>  <SCORE.norm>
0.098763

>  <RMSD>
13.607

$$$$
2et3_lig
 OpenBabel11021811423D
libRbt.so/2013.1/901 2013/11/27
 31 33  0  0  0  0  0  0  0  0999 V2000
    7.4537   -0.8183   41.4741 C   0  0  2  0  0  0  0  0  0  0  0  0
    7.3647   -0.9718   40.0337 O   0  0  0  0  0  0  0  0  0  0  0  0
    3.7426    1.1729   39.2679 C   0  0  2  0  0  0  0  0  0  0  0  0
    2.7140    1.8513   38.5417 N   0  0  0  0  0  0  0  0  0  0  0  0
    1.5256   -0.9673   37.9888 C   0  0  2  0  0  0  0  0  0  0  0  0
    8.6880   -1.5593   41.9991 C   0  0  2  0  0  0  0  0  0  0  0  0
    9.8430   -1.0613   41.3177 N   0  0  0  0  0  0  0  0  0  0  0  0
    5.1008    1.9202   39.0703 C   0  0  0  0  0  0  0  0  0  0  0  0
    1.6180   -2.3432   37.2930 C   0  0  2  0  0  0  0  0  0  0  0  0
    1.4505   -3.3562   38.2595 O   0  0  0  0  0  0  0  0  0  0  0  0
    8.5195   -3.1055   41.8087 C   0  0  0  0  0  0  0  0  0  0  0  0
    6.2400    1.1759   39.8585 C   0  0  2  0  0  0  0  0  0  0  0  0
    7.5215    1.8756   39.6752 N   0  0  0  0  0  0  0  0  0  0  0  0
    3.0290   -2.4361   36.5807 C   0  0  1  0  0  0  0  0  0  0  0  0
    3.2214   -3.7667   35.9162 N   0  0  0  0  0  0  0  0  0  0  0  0
    7.2568   -3.5556   42.6086 C   0  0  0  0  0  0  0  0  0  0  0  0
    6.3430   -0.3147   39.3544 C   0  0  2  0  0  0  0  0  0  0  0  0
    3.1867   -1.2461   35.4932 C   0  0  1  0  0  0  0  0  0  0  0  0
    2.2194   -1.3541   34.4694 O   0  0  0  0  0  0  0  0  0  0  0  0
    5.9969   -2.7497   42.0630 C   0  0  2  0  0  0  0  0  0  0  0  0
    6.1999   -1.3028   42.1140 O   0  0  0  0  0  0  0  0  0  0  0  0
    4.9584   -1.0402   39.5649 C   0  0  2  0  0  0  0  0  0  0  0  0
    5.0305   -2.3907   39.1190 O   0  0  0  0  0  0  0  0  0  0  0  0
    2.9726    0.1259   36.2039 C   0  0  0  0  0  0  0  0  0  0  0  0
    1.6904    0.1228   36.9841 O   0  0  0  0  0  0  0  0  0  0  0  0
    4.6952   -3.1034   42.7431 C   0  0  0  0  0  0  0  0  0  0  0  0
    3.7072   -2.0697   42.5782 N   0  0  0  0  0  0  0  0  0  0  0  0
    3.8351   -0.2829   38.7732 C   0  0  1  0  0  0  0  0  0  0  0  0
    2.5947   -0.9474   38.9812 O   0  0  0  0  0  0  0  0  0  0  0  0
    4.5116   -1.1852   34.7208 C   0  0  0  0  0  0  0  0  0  0  0  0
    3.6290   -4.8923   36.7735 C   0  0  0  0  0  0  0  0  0  0  0  0
  1  2  1  6  0  0  0
  1  6  1  0  0  0  0
  1 21  1  0  0  0  0
  3  4  1  6  0  0  0
  3  8  1  0  0  0  0
  3 28  1  0  0  0  0
  5  9  1  0  0  0  0
  5 25  1  0  0  0  0
  5 29  1  1  0  0  0
  6  7  1  6  0  0  0
  6 11  1  0  0  0  0
  8 12  1  0  0  0  0
  9 10  1  1  0  0  0
  9 14  1  0  0  0  0
 11 16  1  0  0  0  0
 12 13  1  6  0  0  0
 12 17  1  0  0  0  0
 14 15  1  6  0  0  0
 14 18  1  0  0  0  0
 15 31  1  0  0  0  0
 16 20  1  0  0  0  0
 17  2  1  1  0  0  0
 17 22  1  0  0  0  0
 18 19  1  6  0  0  0
 18 24  1  0  0  0  0
 18 30  1  0  0  0  0
 20 21  1  0  0  0  0
 20 26  1  1  0  0  0
 22 23  1  6  0  0  0
 22 28  1  0  0  0  0
 24 25  1  0  0  0  0
 26 27  1  0  0  0  0
 28 29  1  1  0  0  0
M  END
>  <CHROM.1>
-176.89880210,100.59743791,-80.47262847,45.82903403,159.59331489,90.04040863
4.70847234,-1.26762368,39.05961138,-0.27743851,-0.78264210,-0.37009545

>  <Name>
2et3_lig

>  <RI>
0

>  <Rbt.Current_Directory>
/home/itssahil/PROJECTS/Mol_Feturizer/New_Systems/rnas/2et3

>  <Rbt.Executable>
rbdock ($Id: //depot/dev/client3/rdock/2013.1/src/exe/rbdock.cxx#4 $)

>  <Rbt.Library>
libRbt.so (2013.1, Build901 2013/11/27)

>  <Rbt.Parameter_File>
/export/apps/rDock/src/rDock_2013.1_src/data/scripts/dock_solv.prm

>  <Rbt.Receptor>
prm/blind_docking_60.prm

>  <SCORE>
-3.99318

>  <SCORE.INTER>
-4.13325

>  <SCORE.INTER.CONST>
1

>  <SCORE.INTER.POLAR>
0

>  <SCORE.INTER.ROT>
6

>  <SCORE.INTER.SOLV>
17.6275

>  <SCORE.INTER.VDW>
-16.2313

>  <SCORE.INTER.norm>
-0.133331

>  <SCORE.INTRA>
-0.949385

>  <SCORE.INTRA.DIHEDRAL>
-10.4024

>  <SCORE.INTRA.DIHEDRAL.0>
22.2484

>  <SCORE.INTRA.POLAR>
0

>  <SCORE.INTRA.POLAR.0>
0

>  <SCORE.INTRA.REPUL>
0.00597165

>  <SCORE.INTRA.REPUL.0>
0

>  <SCORE.INTRA.SOLV>
2.9439

>  <SCORE.INTRA.SOLV.lig_0>
-75.7198

>  <SCORE.INTRA.VDW>
2.75001

>  <SCORE.INTRA.VDW.0>
-3.34171

>  <SCORE.INTRA.norm>
-0.0306253

>  <SCORE.RESTR>
1.08945

>  <SCORE.RESTR.CAVITY>
1.08945

>  <SCORE.RESTR.norm>
0.0351436

>  <SCORE.SYSTEM>
0

>  <SCORE.SYSTEM.CONST>
0

>  <SCORE.SYSTEM.DIHEDRAL>
0

>  <SCORE.SYSTEM.SOLV>
0

>  <SCORE.SYSTEM.norm>
0

>  <SCORE.heavy>
31

>  <SCORE.norm>
-0.128812

>  <RMSD>
13.700

$$$$
2et3_lig
 OpenBabel11021811423D
libRbt.so/2013.1/901 2013/11/27
 31 33  0  0  0  0  0  0  0  0999 V2000
   -0.8509   -1.1482   39.8505 C   0  0  2  0  0  0  0  0  0  0  0  0
   -0.3269   -0.8715   38.5257 O   0  0  0  0  0  0  0  0  0  0  0  0
    3.3410    1.0179   37.3931 C   0  0  2  0  0  0  0  0  0  0  0  0
    4.3440    2.0292   37.2630 N   0  0  0  0  0  0  0  0  0  0  0  0
    5.2654   -0.6274   38.7873 C   0  0  2  0  0  0  0  0  0  0  0  0
   -1.5658   -2.5036   39.8524 C   0  0  2  0  0  0  0  0  0  0  0  0
   -0.6482   -3.5038   39.4010 N   0  0  0  0  0  0  0  0  0  0  0  0
    2.0188    1.5040   36.7167 C   0  0  0  0  0  0  0  0  0  0  0  0
    5.1696   -1.9907   39.5070 C   0  0  2  0  0  0  0  0  0  0  0  0
    3.8441   -2.4631   39.4165 O   0  0  0  0  0  0  0  0  0  0  0  0
   -2.8515   -2.4449   38.9586 C   0  0  0  0  0  0  0  0  0  0  0  0
    0.9071    0.4013   36.8627 C   0  0  2  0  0  0  0  0  0  0  0  0
   -0.3407    0.8545   36.2276 N   0  0  0  0  0  0  0  0  0  0  0  0
    5.6189   -1.7813   41.0108 C   0  0  1  0  0  0  0  0  0  0  0  0
    5.5104   -3.0531   41.7979 N   0  0  0  0  0  0  0  0  0  0  0  0
   -3.7978   -1.3509   39.5454 C   0  0  0  0  0  0  0  0  0  0  0  0
    0.6719    0.0883   38.3902 C   0  0  2  0  0  0  0  0  0  0  0  0
    7.1380   -1.2221   41.0687 C   0  0  1  0  0  0  0  0  0  0  0  0
    8.0477   -2.1470   40.5097 O   0  0  0  0  0  0  0  0  0  0  0  0
   -3.0203    0.0383   39.5587 C   0  0  2  0  0  0  0  0  0  0  0  0
   -1.7515   -0.0435   40.2803 O   0  0  0  0  0  0  0  0  0  0  0  0
    2.0229   -0.3969   39.0439 C   0  0  2  0  0  0  0  0  0  0  0  0
    1.8318   -0.6889   40.4245 O   0  0  0  0  0  0  0  0  0  0  0  0
    7.2292    0.0938   40.2358 C   0  0  0  0  0  0  0  0  0  0  0  0
    6.6626   -0.1104   38.8610 O   0  0  0  0  0  0  0  0  0  0  0  0
   -3.8323    1.1959   40.0902 C   0  0  0  0  0  0  0  0  0  0  0  0
   -5.2342    1.0431   39.8020 N   0  0  0  0  0  0  0  0  0  0  0  0
    3.1192    0.7146   38.8869 C   0  0  1  0  0  0  0  0  0  0  0  0
    4.3302    0.2558   39.4755 O   0  0  0  0  0  0  0  0  0  0  0  0
    7.7231   -0.9504   42.4613 C   0  0  0  0  0  0  0  0  0  0  0  0
    4.8808   -2.9686   43.1262 C   0  0  0  0  0  0  0  0  0  0  0  0
  1  2  1  6  0  0  0
  1  6  1  0  0  0  0
  1 21  1  0  0  0  0
  3  4  1  1  0  0  0
  3  8  1  0  0  0  0
  3 28  1  0  0  0  0
  5  9  1  0  0  0  0
  5 25  1  0  0  0  0
  5 29  1  1  0  0  0
  6  7  1  6  0  0  0
  6 11  1  0  0  0  0
  8 12  1  0  0  0  0
  9 10  1  1  0  0  0
  9 14  1  0  0  0  0
 11 16  1  0  0  0  0
 12 13  1  1  0  0  0
 12 17  1  0  0  0  0
 14 15  1  1  0  0  0
 14 18  1  0  0  0  0
 15 31  1  0  0  0  0
 16 20  1  0  0  0  0
 17  2  1  6  0  0  0
 17 22  1  0  0  0  0
 18 19  1  6  0  0  0
 18 24  1  0  0  0  0
 18 30  1  0  0  0  0
 20 21  1  0  0  0  0
 20 26  1  1  0  0  0
 22 23  1  1  0  0  0
 22 28  1  0  0  0  0
 24 25  1  0  0  0  0
 26 27  1  0  0  0  0
 28 29  1  6  0  0  0
M  END
>  <CHROM.1>
-161.39934557,-109.93910240,-134.08538244,-170.19430587,-31.53197936,-38.35557622
2.14928149,-0.69069035,39.48743035,2.97735797,-0.03372218,-0.82174779

>  <Name>
2et3_lig

>  <RI>
0

>  <Rbt.Current_Directory>
/home/itssahil/PROJECTS/Mol_Feturizer/New_Systems/rnas/2et3

>  <Rbt.Executable>
rbdock ($Id: //depot/dev/client3/rdock/2013.1/src/exe/rbdock.cxx#4 $)

>  <Rbt.Library>
libRbt.so (2013.1, Build901 2013/11/27)

>  <Rbt.Parameter_File>
/export/apps/rDock/src/rDock_2013.1_src/data/scripts/dock_solv.prm

>  <Rbt.Receptor>
prm/blind_docking_100.prm

>  <SCORE>
-11.4601

>  <SCORE.INTER>
-10.1195

>  <SCORE.INTER.CONST>
1

>  <SCORE.INTER.POLAR>
0

>  <SCORE.INTER.ROT>
6

>  <SCORE.INTER.SOLV>
17.6089

>  <SCORE.INTER.VDW>
-20.2159

>  <SCORE.INTER.norm>
-0.326435

>  <SCORE.INTRA>
-3.34077

>  <SCORE.INTRA.DIHEDRAL>
-7.87056

>  <SCORE.INTRA.DIHEDRAL.0>
22.2484

>  <SCORE.INTRA.POLAR>
0

>  <SCORE.INTRA.POLAR.0>
0

>  <SCORE.INTRA.REPUL>
0

>  <SCORE.INTRA.REPUL.0>
0

>  <SCORE.INTRA.SOLV>
-1.71005

>  <SCORE.INTRA.SOLV.lig_0>
-75.7198

>  <SCORE.INTRA.VDW>
1.44953

>  <SCORE.INTRA.VDW.0>
-3.34171

>  <SCORE.INTRA.norm>
-0.107767

>  <SCORE.RESTR>
2.00012

>  <SCORE.RESTR.CAVITY>
2.00012

>  <SCORE.RESTR.norm>
0.0645199

>  <SCORE.SYSTEM>
0

>  <SCORE.SYSTEM.CONST>
0

>  <SCORE.SYSTEM.DIHEDRAL>
0

>  <SCORE.SYSTEM.SOLV>
0

>  <SCORE.SYSTEM.norm>
0

>  <SCORE.heavy>
31

>  <SCORE.norm>
-0.369682

>  <RMSD>
13.707

$$$$
2et3_lig
 OpenBabel11021811423D
libRbt.so/2013.1/901 2013/11/27
 31 33  0  0  0  0  0  0  0  0999 V2000
    7.9215   -1.0206   41.6543 C   0  0  2  0  0  0  0  0  0  0  0  0
    8.1374   -1.1674   40.2267 O   0  0  0  0  0  0  0  0  0  0  0  0
    5.3500    1.7233   38.7501 C   0  0  2  0  0  0  0  0  0  0  0  0
    4.6812    2.5956   37.8350 N   0  0  0  0  0  0  0  0  0  0  0  0
    2.9601    0.3175   37.0909 C   0  0  2  0  0  0  0  0  0  0  0  0
    8.7236   -2.0842   42.4118 C   0  0  2  0  0  0  0  0  0  0  0  0
   10.1011   -1.9632   42.0458 N   0  0  0  0  0  0  0  0  0  0  0  0
    6.8540    2.1337   38.8581 C   0  0  0  0  0  0  0  0  0  0  0  0
    1.6001   -0.3652   37.3553 C   0  0  2  0  0  0  0  0  0  0  0  0
    1.1045    0.0708   38.6014 O   0  0  0  0  0  0  0  0  0  0  0  0
    8.1615   -3.5143   42.1050 C   0  0  0  0  0  0  0  0  0  0  0  0
    7.5996    1.1740   39.8561 C   0  0  2  0  0  0  0  0  0  0  0  0
    9.0169    1.5560   39.9609 N   0  0  0  0  0  0  0  0  0  0  0  0
    1.8269   -1.9319   37.3271 C   0  0  1  0  0  0  0  0  0  0  0  0
    0.5585   -2.6752   37.6231 N   0  0  0  0  0  0  0  0  0  0  0  0
    6.6700   -3.5555   42.5636 C   0  0  0  0  0  0  0  0  0  0  0  0
    7.4605   -0.3159   39.3585 C   0  0  2  0  0  0  0  0  0  0  0  0
    2.4123   -2.3872   35.8871 C   0  0  1  0  0  0  0  0  0  0  0  0
    1.4995   -2.1014   34.8476 O   0  0  0  0  0  0  0  0  0  0  0  0
    5.8680   -2.4227   41.7835 C   0  0  2  0  0  0  0  0  0  0  0  0
    6.4663   -1.1002   41.9578 O   0  0  0  0  0  0  0  0  0  0  0  0
    5.9337   -0.6986   39.2579 C   0  0  2  0  0  0  0  0  0  0  0  0
    5.7852   -2.0432   38.8132 O   0  0  0  0  0  0  0  0  0  0  0  0
    3.7241   -1.5947   35.5961 C   0  0  0  0  0  0  0  0  0  0  0  0
    3.5014   -0.1208   35.7719 O   0  0  0  0  0  0  0  0  0  0  0  0
    4.3971   -2.3625   42.1219 C   0  0  0  0  0  0  0  0  0  0  0  0
    3.5723   -2.5106   40.9516 N   0  0  0  0  0  0  0  0  0  0  0  0
    5.2069    0.2700   38.2601 C   0  0  1  0  0  0  0  0  0  0  0  0
    3.8317   -0.0864   38.1888 O   0  0  0  0  0  0  0  0  0  0  0  0
    2.7030   -3.8825   35.6992 C   0  0  0  0  0  0  0  0  0  0  0  0
    0.0365   -2.5912   38.9973 C   0  0  0  0  0  0  0  0  0  0  0  0
  1  2  1  6  0  0  0
  1  6  1  0  0  0  0
  1 21  1  0  0  0  0
  3  4  1  6  0  0  0
  3  8  1  0  0  0  0
  3 28  1  0  0  0  0
  5  9  1  0  0  0  0
  5 25  1  0  0  0  0
  5 29  1  1  0  0  0
  6  7  1  6  0  0  0
  6 11  1  0  0  0  0
  8 12  1  0  0  0  0
  9 10  1  1  0  0  0
  9 14  1  0  0  0  0
 11 16  1  0  0  0  0
 12 13  1  6  0  0  0
 12 17  1  0  0  0  0
 14 15  1  6  0  0  0
 14 18  1  0  0  0  0
 15 31  1  0  0  0  0
 16 20  1  0  0  0  0
 17  2  1  1  0  0  0
 17 22  1  0  0  0  0
 18 19  1  6  0  0  0
 18 24  1  0  0  0  0
 18 30  1  0  0  0  0
 20 21  1  0  0  0  0
 20 26  1  1  0  0  0
 22 23  1  6  0  0  0
 22 28  1  0  0  0  0
 24 25  1  0  0  0  0
 26 27  1  0  0  0  0
 28 29  1  1  0  0  0
M  END
>  <CHROM.1>
178.07115493,175.82501817,-69.46795471,47.77691038,-123.02725096,78.78491749
4.91862694,-1.06804037,39.06482650,0.36840082,0.55118645,2.45354416

>  <Name>
2et3_lig

>  <RI>
0

>  <Rbt.Current_Directory>
/home/itssahil/PROJECTS/Mol_Feturizer/New_Systems/rnas/2et3

>  <Rbt.Executable>
rbdock ($Id: //depot/dev/client3/rdock/2013.1/src/exe/rbdock.cxx#4 $)

>  <Rbt.Library>
libRbt.so (2013.1, Build901 2013/11/27)

>  <Rbt.Parameter_File>
/export/apps/rDock/src/rDock_2013.1_src/data/scripts/dock_solv.prm

>  <Rbt.Receptor>
prm/blind_docking_100.prm

>  <SCORE>
-6.27576

>  <SCORE.INTER>
-3.29498

>  <SCORE.INTER.CONST>
1

>  <SCORE.INTER.POLAR>
0

>  <SCORE.INTER.ROT>
6

>  <SCORE.INTER.SOLV>
17.7166

>  <SCORE.INTER.VDW>
-15.7022

>  <SCORE.INTER.norm>
-0.10629

>  <SCORE.INTRA>
-5.97791

>  <SCORE.INTRA.DIHEDRAL>
-14.5663

>  <SCORE.INTRA.DIHEDRAL.0>
22.2484

>  <SCORE.INTRA.POLAR>
0

>  <SCORE.INTRA.POLAR.0>
0

>  <SCORE.INTRA.REPUL>
0.0032415

>  <SCORE.INTRA.REPUL.0>
0

>  <SCORE.INTRA.SOLV>
1.18483

>  <SCORE.INTRA.SOLV.lig_0>
-75.7198

>  <SCORE.INTRA.VDW>
0.696639

>  <SCORE.INTRA.VDW.0>
-3.34171

>  <SCORE.INTRA.norm>
-0.192836

>  <SCORE.RESTR>
2.99713

>  <SCORE.RESTR.CAVITY>
2.99713

>  <SCORE.RESTR.norm>
0.0966815

>  <SCORE.SYSTEM>
0

>  <SCORE.SYSTEM.CONST>
0

>  <SCORE.SYSTEM.DIHEDRAL>
0

>  <SCORE.SYSTEM.SOLV>
0

>  <SCORE.SYSTEM.norm>
0

>  <SCORE.heavy>
31

>  <SCORE.norm>
-0.202444

>  <RMSD>
13.877

$$$$
2et3_lig
 OpenBabel11021811423D
libRbt.so/2013.1/901 2013/11/27
 31 33  0  0  0  0  0  0  0  0999 V2000
    0.7177   -0.1923   37.7233 C   0  0  2  0  0  0  0  0  0  0  0  0
    1.0744    1.0381   38.4053 O   0  0  0  0  0  0  0  0  0  0  0  0
    5.2187    1.4175   37.4117 C   0  0  2  0  0  0  0  0  0  0  0  0
    6.4837    2.0306   37.1481 N   0  0  0  0  0  0  0  0  0  0  0  0
    6.9816    0.5584   39.3472 C   0  0  2  0  0  0  0  0  0  0  0  0
   -0.6471   -0.6825   38.2187 C   0  0  2  0  0  0  0  0  0  0  0  0
   -1.6065    0.3592   38.0174 N   0  0  0  0  0  0  0  0  0  0  0  0
    4.1613    1.9408   36.3869 C   0  0  0  0  0  0  0  0  0  0  0  0
    6.6874   -0.9545   39.4498 C   0  0  2  0  0  0  0  0  0  0  0  0
    5.6000   -1.2667   38.6080 O   0  0  0  0  0  0  0  0  0  0  0  0
   -0.5602   -1.1134   39.7227 C   0  0  0  0  0  0  0  0  0  0  0  0
    2.7644    1.2783   36.6748 C   0  0  2  0  0  0  0  0  0  0  0  0
    1.7647    1.7684   35.7125 N   0  0  0  0  0  0  0  0  0  0  0  0
    6.3741   -1.2890   40.9653 C   0  0  1  0  0  0  0  0  0  0  0  0
    6.0296   -2.7372   41.1475 N   0  0  0  0  0  0  0  0  0  0  0  0
    0.4850   -2.2674   39.8347 C   0  0  0  0  0  0  0  0  0  0  0  0
    2.3205    1.6041   38.1524 C   0  0  2  0  0  0  0  0  0  0  0  0
    7.6398   -0.8994   41.8980 C   0  0  1  0  0  0  0  0  0  0  0  0
    8.7829   -1.6549   41.5547 O   0  0  0  0  0  0  0  0  0  0  0  0
    1.8836   -1.7400   39.2868 C   0  0  2  0  0  0  0  0  0  0  0  0
    1.7828   -1.2121   37.9272 O   0  0  0  0  0  0  0  0  0  0  0  0
    3.4074    1.0662   39.1610 C   0  0  2  0  0  0  0  0  0  0  0  0
    3.0240    1.3471   40.5034 O   0  0  0  0  0  0  0  0  0  0  0  0
    7.9862    0.6066   41.6845 C   0  0  0  0  0  0  0  0  0  0  0  0
    8.1360    0.9126   40.2227 O   0  0  0  0  0  0  0  0  0  0  0  0
    2.9974   -2.7581   39.3542 C   0  0  0  0  0  0  0  0  0  0  0  0
    2.9023   -3.7262   38.2933 N   0  0  0  0  0  0  0  0  0  0  0  0
    4.7932    1.7366   38.8573 C   0  0  1  0  0  0  0  0  0  0  0  0
    5.7601    1.2339   39.7715 O   0  0  0  0  0  0  0  0  0  0  0  0
    7.4921   -1.1491   43.4051 C   0  0  0  0  0  0  0  0  0  0  0  0
    5.0018   -3.0614   42.1508 C   0  0  0  0  0  0  0  0  0  0  0  0
  1  2  1  1  0  0  0
  1  6  1  0  0  0  0
  1 21  1  0  0  0  0
  3  4  1  6  0  0  0
  3  8  1  0  0  0  0
  3 28  1  0  0  0  0
  5  9  1  0  0  0  0
  5 25  1  0  0  0  0
  5 29  1  1  0  0  0
  6  7  1  1  0  0  0
  6 11  1  0  0  0  0
  8 12  1  0  0  0  0
  9 10  1  6  0  0  0
  9 14  1  0  0  0  0
 11 16  1  0  0  0  0
 12 13  1  6  0  0  0
 12 17  1  0  0  0  0
 14 15  1  6  0  0  0
 14 18  1  0  0  0  0
 15 31  1  0  0  0  0
 16 20  1  0  0  0  0
 17  2  1  1  0  0  0
 17 22  1  0  0  0  0
 18 19  1  6  0  0  0
 18 24  1  0  0  0  0
 18 30  1  0  0  0  0
 20 21  1  0  0  0  0
 20 26  1  6  0  0  0
 22 23  1  1  0  0  0
 22 28  1  0  0  0  0
 24 25  1  0  0  0  0
 26 27  1  0  0  0  0
 28 29  1  1  0  0  0
M  END
>  <CHROM.1>
176.20701409,-97.80382823,-143.99064838,30.91816825,77.78181875,1.75718418
4.07576710,-0.26040905,39.28733895,2.80786889,-0.28970070,-0.69010297

>  <Name>
2et3_lig

>  <RI>
0

>  <Rbt.Current_Directory>
/home/itssahil/PROJECTS/Mol_Feturizer/New_Systems/rnas/2et3

>  <Rbt.Executable>
rbdock ($Id: //depot/dev/client3/rdock/2013.1/src/exe/rbdock.cxx#4 $)

>  <Rbt.Library>
libRbt.so (2013.1, Build901 2013/11/27)

>  <Rbt.Parameter_File>
/export/apps/rDock/src/rDock_2013.1_src/data/scripts/dock_solv.prm

>  <Rbt.Receptor>
prm/blind_docking_60.prm

>  <SCORE>
-8.23397

>  <SCORE.INTER>
-11.7157

>  <SCORE.INTER.CONST>
1

>  <SCORE.INTER.POLAR>
0

>  <SCORE.INTER.ROT>
6

>  <SCORE.INTER.SOLV>
21.8242

>  <SCORE.INTER.VDW>
-22.6852

>  <SCORE.INTER.norm>
-0.377926

>  <SCORE.INTRA>
0.962085

>  <SCORE.INTRA.DIHEDRAL>
-4.54254

>  <SCORE.INTRA.DIHEDRAL.0>
22.2484

>  <SCORE.INTRA.POLAR>
0

>  <SCORE.INTRA.POLAR.0>
0

>  <SCORE.INTRA.REPUL>
0

>  <SCORE.INTRA.REPUL.0>
0

>  <SCORE.INTRA.SOLV>
1.87399

>  <SCORE.INTRA.SOLV.lig_0>
-75.7198

>  <SCORE.INTRA.VDW>
2.29636

>  <SCORE.INTRA.VDW.0>
-3.34171

>  <SCORE.INTRA.norm>
0.031035

>  <SCORE.RESTR>
2.51966

>  <SCORE.RESTR.CAVITY>
2.51966

>  <SCORE.RESTR.norm>
0.0812793

>  <SCORE.SYSTEM>
0

>  <SCORE.SYSTEM.CONST>
0

>  <SCORE.SYSTEM.DIHEDRAL>
0

>  <SCORE.SYSTEM.SOLV>
0

>  <SCORE.SYSTEM.norm>
0

>  <SCORE.heavy>
31

>  <SCORE.norm>
-0.265612

>  <RMSD>
13.895

$$$$
2et3_lig
 OpenBabel11021811423D
libRbt.so/2013.1/901 2013/11/27
 31 33  0  0  0  0  0  0  0  0999 V2000
    0.6342   -1.8175   39.7605 C   0  0  2  0  0  0  0  0  0  0  0  0
    0.5163   -0.4970   39.1701 O   0  0  0  0  0  0  0  0  0  0  0  0
    4.3635   -0.1039   37.3395 C   0  0  2  0  0  0  0  0  0  0  0  0
    5.4997    0.5104   36.7254 N   0  0  0  0  0  0  0  0  0  0  0  0
    6.2704   -0.8586   39.2537 C   0  0  2  0  0  0  0  0  0  0  0  0
   -0.7283   -2.5186   39.7384 C   0  0  2  0  0  0  0  0  0  0  0  0
   -1.1998   -2.5567   38.3884 N   0  0  0  0  0  0  0  0  0  0  0  0
    3.0964    0.1442   36.4591 C   0  0  0  0  0  0  0  0  0  0  0  0
    5.6864   -2.1180   39.9307 C   0  0  2  0  0  0  0  0  0  0  0  0
    4.4101   -2.3773   39.3901 O   0  0  0  0  0  0  0  0  0  0  0  0
   -1.7361   -1.7851   40.6881 C   0  0  0  0  0  0  0  0  0  0  0  0
    1.8398   -0.5207   37.1315 C   0  0  2  0  0  0  0  0  0  0  0  0
    0.6435   -0.2894   36.3062 N   0  0  0  0  0  0  0  0  0  0  0  0
    5.6222   -1.8488   41.4896 C   0  0  1  0  0  0  0  0  0  0  0  0
    5.0201   -3.0103   42.2226 N   0  0  0  0  0  0  0  0  0  0  0  0
   -1.1500   -1.8212   42.1344 C   0  0  0  0  0  0  0  0  0  0  0  0
    1.6403    0.0724   38.5789 C   0  0  2  0  0  0  0  0  0  0  0  0
    7.1039   -1.5384   42.0658 C   0  0  1  0  0  0  0  0  0  0  0  0
    7.9653   -2.6443   41.8910 O   0  0  0  0  0  0  0  0  0  0  0  0
    0.2760   -1.1133   42.1217 C   0  0  2  0  0  0  0  0  0  0  0  0
    1.1816   -1.7087   41.1406 O   0  0  0  0  0  0  0  0  0  0  0  0
    2.9346   -0.1915   39.4407 C   0  0  2  0  0  0  0  0  0  0  0  0
    2.7741    0.3336   40.7546 O   0  0  0  0  0  0  0  0  0  0  0  0
    7.7139   -0.3351   41.2827 C   0  0  0  0  0  0  0  0  0  0  0  0
    7.6267   -0.5686   39.8026 O   0  0  0  0  0  0  0  0  0  0  0  0
    0.9527   -1.0625   43.4712 C   0  0  0  0  0  0  0  0  0  0  0  0
    0.1774   -0.3213   44.4311 N   0  0  0  0  0  0  0  0  0  0  0  0
    4.1768    0.4772   38.7538 C   0  0  1  0  0  0  0  0  0  0  0  0
    5.3335    0.2221   39.5414 O   0  0  0  0  0  0  0  0  0  0  0  0
    7.2145   -1.2399   43.5672 C   0  0  0  0  0  0  0  0  0  0  0  0
    4.2119   -2.7053   43.4151 C   0  0  0  0  0  0  0  0  0  0  0  0
  1  2  1  1  0  0  0
  1  6  1  0  0  0  0
  1 21  1  0  0  0  0
  3  4  1  6  0  0  0
  3  8  1  0  0  0  0
  3 28  1  0  0  0  0
  5  9  1  0  0  0  0
  5 25  1  0  0  0  0
  5 29  1  1  0  0  0
  6  7  1  6  0  0  0
  6 11  1  0  0  0  0
  8 12  1  0  0  0  0
  9 10  1  6  0  0  0
  9 14  1  0  0  0  0
 11 16  1  0  0  0  0
 12 13  1  6  0  0  0
 12 17  1  0  0  0  0
 14 15  1  1  0  0  0
 14 18  1  0  0  0  0
 15 31  1  0  0  0  0
 16 20  1  0  0  0  0
 17  2  1  1  0  0  0
 17 22  1  0  0  0  0
 18 19  1  6  0  0  0
 18 24  1  0  0  0  0
 18 30  1  0  0  0  0
 20 21  1  0  0  0  0
 20 26  1  1  0  0  0
 22 23  1  1  0  0  0
 22 28  1  0  0  0  0
 24 25  1  0  0  0  0
 26 27  1  0  0  0  0
 28 29  1  1  0  0  0
M  END
>  <CHROM.1>
-153.16129398,-85.12116734,-146.16762760,80.15103425,-60.98310265,-22.92330593
3.26094403,-1.09364729,40.23394990,3.02095513,-0.04276418,-1.30442476

>  <Name>
2et3_lig

>  <RI>
1.07224e+07

>  <Rbt.Current_Directory>
/home/itssahil/PROJECTS/Mol_Feturizer/New_Systems/rnas/2et3

>  <Rbt.Executable>
rbdock ($Id: //depot/dev/client3/rdock/2013.1/src/exe/rbdock.cxx#4 $)

>  <Rbt.Library>
libRbt.so (2013.1, Build901 2013/11/27)

>  <Rbt.Parameter_File>
/export/apps/rDock/src/rDock_2013.1_src/data/scripts/dock_solv.prm

>  <Rbt.Receptor>
prm/blind_docking_80.prm

>  <SCORE>
-13.0853

>  <SCORE.INTER>
-13.0682

>  <SCORE.INTER.CONST>
1

>  <SCORE.INTER.POLAR>
0

>  <SCORE.INTER.ROT>
6

>  <SCORE.INTER.SOLV>
8.93845

>  <SCORE.INTER.VDW>
-19.2916

>  <SCORE.INTER.norm>
-0.421555

>  <SCORE.INTRA>
-1.98682

>  <SCORE.INTRA.DIHEDRAL>
-8.97556

>  <SCORE.INTRA.DIHEDRAL.0>
22.2484

>  <SCORE.INTRA.POLAR>
0

>  <SCORE.INTRA.POLAR.0>
0

>  <SCORE.INTRA.REPUL>
0.0702621

>  <SCORE.INTRA.REPUL.0>
0

>  <SCORE.INTRA.SOLV>
0.455057

>  <SCORE.INTRA.SOLV.lig_0>
-75.7198

>  <SCORE.INTRA.VDW>
1.92212

>  <SCORE.INTRA.VDW.0>
-3.34171

>  <SCORE.INTRA.norm>
-0.064091

>  <SCORE.RESTR>
1.96971

>  <SCORE.RESTR.CAVITY>
1.96971

>  <SCORE.RESTR.norm>
0.0635389

>  <SCORE.SYSTEM>
0

>  <SCORE.SYSTEM.CONST>
0

>  <SCORE.SYSTEM.DIHEDRAL>
0

>  <SCORE.SYSTEM.SOLV>
0

>  <SCORE.SYSTEM.norm>
0

>  <SCORE.heavy>
31

>  <SCORE.norm>
-0.422107

>  <RMSD>
13.898

$$$$
2et3_lig
 OpenBabel11021811423D
libRbt.so/2013.1/901 2013/11/27
 31 33  0  0  0  0  0  0  0  0999 V2000
    7.8412   -1.0682   41.6480 C   0  0  2  0  0  0  0  0  0  0  0  0
    7.5212   -1.4025   40.2725 O   0  0  0  0  0  0  0  0  0  0  0  0
    4.2882    1.3051   39.5495 C   0  0  2  0  0  0  0  0  0  0  0  0
    3.3284    2.0866   38.8327 N   0  0  0  0  0  0  0  0  0  0  0  0
    1.5764   -0.3823   38.7860 C   0  0  2  0  0  0  0  0  0  0  0  0
    8.9425   -1.9999   42.1650 C   0  0  2  0  0  0  0  0  0  0  0  0
   10.0726   -1.8977   41.2941 N   0  0  0  0  0  0  0  0  0  0  0  0
    5.7306    1.7504   39.1453 C   0  0  0  0  0  0  0  0  0  0  0  0
    1.1898   -1.7876   38.2746 C   0  0  2  0  0  0  0  0  0  0  0  0
    0.9071   -2.6147   39.3811 O   0  0  0  0  0  0  0  0  0  0  0  0
    8.4124   -3.4712   42.2632 C   0  0  0  0  0  0  0  0  0  0  0  0
    6.7930    0.8900   39.9225 C   0  0  2  0  0  0  0  0  0  0  0  0
    8.1534    1.3052   39.5449 N   0  0  0  0  0  0  0  0  0  0  0  0
    2.3985   -2.3443   37.4166 C   0  0  1  0  0  0  0  0  0  0  0  0
    2.1240   -3.7317   36.9179 N   0  0  0  0  0  0  0  0  0  0  0  0
    7.2053   -3.4845   43.2529 C   0  0  0  0  0  0  0  0  0  0  0  0
    6.5693   -0.6381   39.6040 C   0  0  2  0  0  0  0  0  0  0  0  0
    2.7009   -1.3570   36.1686 C   0  0  1  0  0  0  0  0  0  0  0  0
    1.5954   -1.2830   35.2924 O   0  0  0  0  0  0  0  0  0  0  0  0
    6.0908   -2.4873   42.7070 C   0  0  2  0  0  0  0  0  0  0  0  0
    6.6129   -1.1398   42.4860 O   0  0  0  0  0  0  0  0  0  0  0  0
    5.1064   -1.0556   40.0204 C   0  0  2  0  0  0  0  0  0  0  0  0
    4.8842   -2.4348   39.7444 O   0  0  0  0  0  0  0  0  0  0  0  0
    2.9729    0.0806   36.7099 C   0  0  0  0  0  0  0  0  0  0  0  0
    1.8714    0.5155   37.6320 O   0  0  0  0  0  0  0  0  0  0  0  0
    4.8507   -2.4160   43.5666 C   0  0  0  0  0  0  0  0  0  0  0  0
    4.1454   -3.6705   43.5934 N   0  0  0  0  0  0  0  0  0  0  0  0
    4.0615   -0.1860   39.2368 C   0  0  1  0  0  0  0  0  0  0  0  0
    2.7504   -0.5722   39.6310 O   0  0  0  0  0  0  0  0  0  0  0  0
    3.8596   -1.7481   35.2413 C   0  0  0  0  0  0  0  0  0  0  0  0
    3.1917   -4.7307   37.0915 C   0  0  0  0  0  0  0  0  0  0  0  0
  1  2  1  6  0  0  0
  1  6  1  0  0  0  0
  1 21  1  0  0  0  0
  3  4  1  6  0  0  0
  3  8  1  0  0  0  0
  3 28  1  0  0  0  0
  5  9  1  0  0  0  0
  5 25  1  0  0  0  0
  5 29  1  1  0  0  0
  6  7  1  6  0  0  0
  6 11  1  0  0  0  0
  8 12  1  0  0  0  0
  9 10  1  1  0  0  0
  9 14  1  0  0  0  0
 11 16  1  0  0  0  0
 12 13  1  6  0  0  0
 12 17  1  0  0  0  0
 14 15  1  6  0  0  0
 14 18  1  0  0  0  0
 15 31  1  0  0  0  0
 16 20  1  0  0  0  0
 17  2  1  1  0  0  0
 17 22  1  0  0  0  0
 18 19  1  6  0  0  0
 18 24  1  0  0  0  0
 18 30  1  0  0  0  0
 20 21  1  0  0  0  0
 20 26  1  1  0  0  0
 22 23  1  6  0  0  0
 22 28  1  0  0  0  0
 24 25  1  0  0  0  0
 26 27  1  0  0  0  0
 28 29  1  1  0  0  0
M  END
>  <CHROM.1>
-177.92868616,107.03199979,-132.66828842,42.58042992,-64.75452555,84.40175163
4.73151763,-1.30784160,39.57218377,-0.48120163,-0.58639312,-0.64619615

>  <Name>
2et3_lig

>  <RI>
1.07224e+07

>  <Rbt.Current_Directory>
/home/itssahil/PROJECTS/Mol_Feturizer/New_Systems/rnas/2et3

>  <Rbt.Executable>
rbdock ($Id: //depot/dev/client3/rdock/2013.1/src/exe/rbdock.cxx#4 $)

>  <Rbt.Library>
libRbt.so (2013.1, Build901 2013/11/27)

>  <Rbt.Parameter_File>
/export/apps/rDock/src/rDock_2013.1_src/data/scripts/dock_solv.prm

>  <Rbt.Receptor>
prm/blind_docking_80.prm

>  <SCORE>
-9.27449

>  <SCORE.INTER>
-9.86053

>  <SCORE.INTER.CONST>
1

>  <SCORE.INTER.POLAR>
0

>  <SCORE.INTER.ROT>
6

>  <SCORE.INTER.SOLV>
14.3344

>  <SCORE.INTER.VDW>
-18.9518

>  <SCORE.INTER.norm>
-0.318082

>  <SCORE.INTRA>
-2.04825

>  <SCORE.INTRA.DIHEDRAL>
-10.5703

>  <SCORE.INTRA.DIHEDRAL.0>
22.2484

>  <SCORE.INTRA.POLAR>
0

>  <SCORE.INTRA.POLAR.0>
0

>  <SCORE.INTRA.REPUL>
0

>  <SCORE.INTRA.REPUL.0>
0

>  <SCORE.INTRA.SOLV>
0.720894

>  <SCORE.INTRA.SOLV.lig_0>
-75.7198

>  <SCORE.INTRA.VDW>
2.87645

>  <SCORE.INTRA.VDW.0>
-3.34171

>  <SCORE.INTRA.norm>
-0.0660725

>  <SCORE.RESTR>
2.63429

>  <SCORE.RESTR.CAVITY>
2.63429

>  <SCORE.RESTR.norm>
0.084977

>  <SCORE.SYSTEM>
0

>  <SCORE.SYSTEM.CONST>
0

>  <SCORE.SYSTEM.DIHEDRAL>
0

>  <SCORE.SYSTEM.SOLV>
0

>  <SCORE.SYSTEM.norm>
0

>  <SCORE.heavy>
31

>  <SCORE.norm>
-0.299177

>  <RMSD>
13.920

$$$$
2et3_lig
 OpenBabel11021811423D
libRbt.so/2013.1/901 2013/11/27
 31 33  0  0  0  0  0  0  0  0999 V2000
    8.0619   -0.0804   40.7321 C   0  0  2  0  0  0  0  0  0  0  0  0
    7.6175   -0.5424   39.4300 O   0  0  0  0  0  0  0  0  0  0  0  0
    3.6075    0.9315   39.1978 C   0  0  2  0  0  0  0  0  0  0  0  0
    2.4050    1.4634   38.6352 N   0  0  0  0  0  0  0  0  0  0  0  0
    1.9109   -1.7572   37.7400 C   0  0  2  0  0  0  0  0  0  0  0  0
    9.4627   -0.6278   41.0259 C   0  0  2  0  0  0  0  0  0  0  0  0
   10.3396   -0.2283   39.9688 N   0  0  0  0  0  0  0  0  0  0  0  0
    4.7804    1.9389   38.9704 C   0  0  0  0  0  0  0  0  0  0  0  0
    2.6702   -2.7997   36.8902 C   0  0  2  0  0  0  0  0  0  0  0  0
    3.0491   -3.8761   37.7185 O   0  0  0  0  0  0  0  0  0  0  0  0
    9.4176   -2.1855   41.1896 C   0  0  0  0  0  0  0  0  0  0  0  0
    6.1093    1.3581   39.5783 C   0  0  2  0  0  0  0  0  0  0  0  0
    7.2173    2.3031   39.3663 N   0  0  0  0  0  0  0  0  0  0  0  0
    3.9257   -2.0825   36.2451 C   0  0  1  0  0  0  0  0  0  0  0  0
    4.7493   -3.0402   35.4368 N   0  0  0  0  0  0  0  0  0  0  0  0
    8.4632   -2.5186   42.3791 C   0  0  0  0  0  0  0  0  0  0  0  0
    6.4303   -0.0342   38.9110 C   0  0  2  0  0  0  0  0  0  0  0  0
    3.4477   -0.8437   35.3175 C   0  0  1  0  0  0  0  0  0  0  0  0
    2.6490   -1.2869   34.2399 O   0  0  0  0  0  0  0  0  0  0  0  0
    7.0254   -1.9136   42.0604 C   0  0  2  0  0  0  0  0  0  0  0  0
    7.0779   -0.4807   41.7750 O   0  0  0  0  0  0  0  0  0  0  0  0
    5.2289   -1.0265   39.1556 C   0  0  2  0  0  0  0  0  0  0  0  0
    5.5001   -2.2928   38.5635 O   0  0  0  0  0  0  0  0  0  0  0  0
    2.5852    0.1328   36.1755 C   0  0  0  0  0  0  0  0  0  0  0  0
    1.4904   -0.6112   36.8830 O   0  0  0  0  0  0  0  0  0  0  0  0
    5.9920   -2.1802   43.1294 C   0  0  0  0  0  0  0  0  0  0  0  0
    6.3221   -1.5254   44.3680 N   0  0  0  0  0  0  0  0  0  0  0  0
    3.9128   -0.4296   38.5443 C   0  0  1  0  0  0  0  0  0  0  0  0
    2.8413   -1.3345   38.7812 O   0  0  0  0  0  0  0  0  0  0  0  0
    4.5506   -0.0298   34.6270 C   0  0  0  0  0  0  0  0  0  0  0  0
    6.2037   -2.8129   35.4043 C   0  0  0  0  0  0  0  0  0  0  0  0
  1  2  1  6  0  0  0
  1  6  1  0  0  0  0
  1 21  1  0  0  0  0
  3  4  1  6  0  0  0
  3  8  1  0  0  0  0
  3 28  1  0  0  0  0
  5  9  1  0  0  0  0
  5 25  1  0  0  0  0
  5 29  1  1  0  0  0
  6  7  1  6  0  0  0
  6 11  1  0  0  0  0
  8 12  1  0  0  0  0
  9 10  1  1  0  0  0
  9 14  1  0  0  0  0
 11 16  1  0  0  0  0
 12 13  1  6  0  0  0
 12 17  1  0  0  0  0
 14 15  1  6  0  0  0
 14 18  1  0  0  0  0
 15 31  1  0  0  0  0
 16 20  1  0  0  0  0
 17  2  1  1  0  0  0
 17 22  1  0  0  0  0
 18 19  1  6  0  0  0
 18 24  1  0  0  0  0
 18 30  1  0  0  0  0
 20 21  1  0  0  0  0
 20 26  1  1  0  0  0
 22 23  1  6  0  0  0
 22 28  1  0  0  0  0
 24 25  1  0  0  0  0
 26 27  1  0  0  0  0
 28 29  1  1  0  0  0
M  END
>  <CHROM.1>
-172.91458378,76.90622303,-147.09157912,22.93122845,64.95676135,108.17318741
5.30145075,-0.94117809,38.76034338,-0.79618553,0.28503991,-1.88982343

>  <Name>
2et3_lig

>  <RI>
0

>  <Rbt.Current_Directory>
/home/itssahil/PROJECTS/Mol_Feturizer/New_Systems/rnas/2et3

>  <Rbt.Executable>
rbdock ($Id: //depot/dev/client3/rdock/2013.1/src/exe/rbdock.cxx#4 $)

>  <Rbt.Library>
libRbt.so (2013.1, Build901 2013/11/27)

>  <Rbt.Parameter_File>
/export/apps/rDock/src/rDock_2013.1_src/data/scripts/dock_solv.prm

>  <Rbt.Receptor>
prm/blind_docking_100.prm

>  <SCORE>
-6.87274

>  <SCORE.INTER>
-10.6968

>  <SCORE.INTER.CONST>
1

>  <SCORE.INTER.POLAR>
-0.916515

>  <SCORE.INTER.ROT>
6

>  <SCORE.INTER.SOLV>
16.69

>  <SCORE.INTER.VDW>
-17.2395

>  <SCORE.INTER.norm>
-0.345059

>  <SCORE.INTRA>
1.45789

>  <SCORE.INTRA.DIHEDRAL>
-8.30977

>  <SCORE.INTRA.DIHEDRAL.0>
22.2484

>  <SCORE.INTRA.POLAR>
0

>  <SCORE.INTRA.POLAR.0>
0

>  <SCORE.INTRA.REPUL>
0

>  <SCORE.INTRA.REPUL.0>
0

>  <SCORE.INTRA.SOLV>
2.5588

>  <SCORE.INTRA.SOLV.lig_0>
-75.7198

>  <SCORE.INTRA.VDW>
4.33338

>  <SCORE.INTRA.VDW.0>
-3.34171

>  <SCORE.INTRA.norm>
0.0470288

>  <SCORE.RESTR>
2.36619

>  <SCORE.RESTR.CAVITY>
2.36619

>  <SCORE.RESTR.norm>
0.0763288

>  <SCORE.SYSTEM>
0

>  <SCORE.SYSTEM.CONST>
0

>  <SCORE.SYSTEM.DIHEDRAL>
0

>  <SCORE.SYSTEM.SOLV>
0

>  <SCORE.SYSTEM.norm>
0

>  <SCORE.heavy>
31

>  <SCORE.norm>
-0.221701

>  <RMSD>
13.969

$$$$
2et3_lig
 OpenBabel11021811423D
libRbt.so/2013.1/901 2013/11/27
 31 33  0  0  0  0  0  0  0  0999 V2000
    7.8009   -1.0443   41.7189 C   0  0  2  0  0  0  0  0  0  0  0  0
    7.5792   -1.4259   40.3364 O   0  0  0  0  0  0  0  0  0  0  0  0
    4.4154    1.2475   39.2643 C   0  0  2  0  0  0  0  0  0  0  0  0
    3.5334    2.0220   38.4470 N   0  0  0  0  0  0  0  0  0  0  0  0
    1.9151   -0.8067   38.0988 C   0  0  2  0  0  0  0  0  0  0  0  0
    8.9018   -1.9193   42.3278 C   0  0  2  0  0  0  0  0  0  0  0  0
   10.0791   -1.7958   41.5247 N   0  0  0  0  0  0  0  0  0  0  0  0
    5.8886    1.7125   39.0286 C   0  0  0  0  0  0  0  0  0  0  0  0
    2.0272   -2.2744   37.6307 C   0  0  2  0  0  0  0  0  0  0  0  0
    1.7574   -3.1243   38.7231 O   0  0  0  0  0  0  0  0  0  0  0  0
    8.4215   -3.4070   42.4345 C   0  0  0  0  0  0  0  0  0  0  0  0
    6.8667    0.8600   39.9172 C   0  0  2  0  0  0  0  0  0  0  0  0
    8.2559    1.2937   39.6985 N   0  0  0  0  0  0  0  0  0  0  0  0
    3.4875   -2.4945   37.0599 C   0  0  1  0  0  0  0  0  0  0  0  0
    3.6980   -3.9139   36.6240 N   0  0  0  0  0  0  0  0  0  0  0  0
    7.1568   -3.4416   43.3490 C   0  0  0  0  0  0  0  0  0  0  0  0
    6.6998   -0.6687   39.5680 C   0  0  2  0  0  0  0  0  0  0  0  0
    3.7619   -1.4882   35.8206 C   0  0  1  0  0  0  0  0  0  0  0  0
    2.8766   -1.7397   34.7488 O   0  0  0  0  0  0  0  0  0  0  0  0
    6.0420   -2.5025   42.7086 C   0  0  2  0  0  0  0  0  0  0  0  0
    6.5266   -1.1419   42.4824 O   0  0  0  0  0  0  0  0  0  0  0  0
    5.2045   -1.1062   39.8135 C   0  0  2  0  0  0  0  0  0  0  0  0
    5.0323   -2.4862   39.5073 O   0  0  0  0  0  0  0  0  0  0  0  0
    3.5271   -0.0204   36.2938 C   0  0  0  0  0  0  0  0  0  0  0  0
    2.1872    0.1135   36.9568 O   0  0  0  0  0  0  0  0  0  0  0  0
    4.7494   -2.4573   43.4889 C   0  0  0  0  0  0  0  0  0  0  0  0
    4.1420   -3.7580   43.5939 N   0  0  0  0  0  0  0  0  0  0  0  0
    4.2444   -0.2442   38.9206 C   0  0  1  0  0  0  0  0  0  0  0  0
    2.9020   -0.6484   39.1615 O   0  0  0  0  0  0  0  0  0  0  0  0
    5.1451   -1.5643   35.1600 C   0  0  0  0  0  0  0  0  0  0  0  0
    2.6742   -4.5051   35.7462 C   0  0  0  0  0  0  0  0  0  0  0  0
  1  2  1  6  0  0  0
  1  6  1  0  0  0  0
  1 21  1  0  0  0  0
  3  4  1  6  0  0  0
  3  8  1  0  0  0  0
  3 28  1  0  0  0  0
  5  9  1  0  0  0  0
  5 25  1  0  0  0  0
  5 29  1  1  0  0  0
  6  7  1  6  0  0  0
  6 11  1  0  0  0  0
  8 12  1  0  0  0  0
  9 10  1  1  0  0  0
  9 14  1  0  0  0  0
 11 16  1  0  0  0  0
 12 13  1  6  0  0  0
 12 17  1  0  0  0  0
 14 15  1  6  0  0  0
 14 18  1  0  0  0  0
 15 31  1  0  0  0  0
 16 20  1  0  0  0  0
 17  2  1  1  0  0  0
 17 22  1  0  0  0  0
 18 19  1  6  0  0  0
 18 24  1  0  0  0  0
 18 30  1  0  0  0  0
 20 21  1  0  0  0  0
 20 26  1  1  0  0  0
 22 23  1  6  0  0  0
 22 28  1  0  0  0  0
 24 25  1  0  0  0  0
 26 27  1  0  0  0  0
 28 29  1  1  0  0  0
M  END
>  <CHROM.1>
-174.29605858,90.02030766,49.56958912,38.73616036,-60.35995490,101.42397907
5.04692016,-1.39886768,39.33235835,-0.58578637,-0.71809516,-0.73634790

>  <Name>
2et3_lig

>  <RI>
1.07224e+07

>  <Rbt.Current_Directory>
/home/itssahil/PROJECTS/Mol_Feturizer/New_Systems/rnas/2et3

>  <Rbt.Executable>
rbdock ($Id: //depot/dev/client3/rdock/2013.1/src/exe/rbdock.cxx#4 $)

>  <Rbt.Library>
libRbt.so (2013.1, Build901 2013/11/27)

>  <Rbt.Parameter_File>
/export/apps/rDock/src/rDock_2013.1_src/data/scripts/dock_solv.prm

>  <Rbt.Receptor>
prm/blind_docking_80.prm

>  <SCORE>
-6.54851

>  <SCORE.INTER>
-8.46849

>  <SCORE.INTER.CONST>
1

>  <SCORE.INTER.POLAR>
0

>  <SCORE.INTER.ROT>
6

>  <SCORE.INTER.SOLV>
15.0722

>  <SCORE.INTER.VDW>
-18.2697

>  <SCORE.INTER.norm>
-0.273177

>  <SCORE.INTRA>
-0.593325

>  <SCORE.INTRA.DIHEDRAL>
-10.5985

>  <SCORE.INTRA.DIHEDRAL.0>
22.2484

>  <SCORE.INTRA.POLAR>
0

>  <SCORE.INTRA.POLAR.0>
0

>  <SCORE.INTRA.REPUL>
0

>  <SCORE.INTRA.REPUL.0>
0

>  <SCORE.INTRA.SOLV>
1.21911

>  <SCORE.INTRA.SOLV.lig_0>
-75.7198

>  <SCORE.INTRA.VDW>
4.09636

>  <SCORE.INTRA.VDW.0>
-3.34171

>  <SCORE.INTRA.norm>
-0.0191395

>  <SCORE.RESTR>
2.51331

>  <SCORE.RESTR.CAVITY>
2.51331

>  <SCORE.RESTR.norm>
0.0810744

>  <SCORE.SYSTEM>
0

>  <SCORE.SYSTEM.CONST>
0

>  <SCORE.SYSTEM.DIHEDRAL>
0

>  <SCORE.SYSTEM.SOLV>
0

>  <SCORE.SYSTEM.norm>
0

>  <SCORE.heavy>
31

>  <SCORE.norm>
-0.211242

>  <RMSD>
13.981

$$$$
2et3_lig
 OpenBabel11021811423D
libRbt.so/2013.1/901 2013/11/27
 31 33  0  0  0  0  0  0  0  0999 V2000
   -0.5122   -1.7571   39.6456 C   0  0  2  0  0  0  0  0  0  0  0  0
    0.0032   -0.5266   39.0742 O   0  0  0  0  0  0  0  0  0  0  0  0
    3.8050   -1.9068   37.6786 C   0  0  2  0  0  0  0  0  0  0  0  0
    5.1205   -1.8734   37.1182 N   0  0  0  0  0  0  0  0  0  0  0  0
    5.9958   -2.1226   39.5309 C   0  0  2  0  0  0  0  0  0  0  0  0
   -2.0349   -1.6634   39.7900 C   0  0  2  0  0  0  0  0  0  0  0  0
   -2.5976   -1.3711   38.5078 N   0  0  0  0  0  0  0  0  0  0  0  0
    2.7755   -1.3841   36.6254 C   0  0  0  0  0  0  0  0  0  0  0  0
    6.6632   -2.5649   40.8517 C   0  0  2  0  0  0  0  0  0  0  0  0
    5.8364   -3.5152   41.4857 O   0  0  0  0  0  0  0  0  0  0  0  0
   -2.4173   -0.5804   40.8560 C   0  0  0  0  0  0  0  0  0  0  0  0
    1.3266   -1.4092   37.2363 C   0  0  2  0  0  0  0  0  0  0  0  0
    0.3532   -0.9172   36.2483 N   0  0  0  0  0  0  0  0  0  0  0  0
    6.8738   -1.2764   41.7475 C   0  0  1  0  0  0  0  0  0  0  0  0
    7.4774   -1.6242   43.0754 N   0  0  0  0  0  0  0  0  0  0  0  0
   -1.7850   -1.0009   42.2198 C   0  0  0  0  0  0  0  0  0  0  0  0
    1.2892   -0.5255   38.5417 C   0  0  2  0  0  0  0  0  0  0  0  0
    7.8126   -0.2054   40.9760 C   0  0  1  0  0  0  0  0  0  0  0  0
    9.1005   -0.7324   40.7328 O   0  0  0  0  0  0  0  0  0  0  0  0
   -0.2083   -1.1189   42.0330 C   0  0  2  0  0  0  0  0  0  0  0  0
    0.1547   -2.0295   40.9484 O   0  0  0  0  0  0  0  0  0  0  0  0
    2.3388   -1.0760   39.5824 C   0  0  2  0  0  0  0  0  0  0  0  0
    2.3188   -0.2935   40.7719 O   0  0  0  0  0  0  0  0  0  0  0  0
    7.1713    0.1331   39.5948 C   0  0  0  0  0  0  0  0  0  0  0  0
    6.8571   -1.1229   38.8356 O   0  0  0  0  0  0  0  0  0  0  0  0
    0.5357   -1.5049   43.2896 C   0  0  0  0  0  0  0  0  0  0  0  0
    0.3073   -0.5661   44.3565 N   0  0  0  0  0  0  0  0  0  0  0  0
    3.7767   -1.0450   38.9549 C   0  0  1  0  0  0  0  0  0  0  0  0
    4.7065   -1.5513   39.9049 O   0  0  0  0  0  0  0  0  0  0  0  0
    8.1036    1.1128   41.7063 C   0  0  0  0  0  0  0  0  0  0  0  0
    8.6884   -2.4616   43.0635 C   0  0  0  0  0  0  0  0  0  0  0  0
  1  2  1  1  0  0  0
  1  6  1  0  0  0  0
  1 21  1  0  0  0  0
  3  4  1  6  0  0  0
  3  8  1  0  0  0  0
  3 28  1  0  0  0  0
  5  9  1  0  0  0  0
  5 25  1  0  0  0  0
  5 29  1  1  0  0  0
  6  7  1  6  0  0  0
  6 11  1  0  0  0  0
  8 12  1  0  0  0  0
  9 10  1  1  0  0  0
  9 14  1  0  0  0  0
 11 16  1  0  0  0  0
 12 13  1  6  0  0  0
 12 17  1  0  0  0  0
 14 15  1  1  0  0  0
 14 18  1  0  0  0  0
 15 31  1  0  0  0  0
 16 20  1  0  0  0  0
 17  2  1  1  0  0  0
 17 22  1  0  0  0  0
 18 19  1  6  0  0  0
 18 24  1  0  0  0  0
 18 30  1  0  0  0  0
 20 21  1  0  0  0  0
 20 26  1  1  0  0  0
 22 23  1  1  0  0  0
 22 28  1  0  0  0  0
 24 25  1  0  0  0  0
 26 27  1  0  0  0  0
 28 29  1  1  0  0  0
M  END
>  <CHROM.1>
-163.52254502,-178.97255555,50.69486838,68.47854288,-58.34255223,36.29259951
3.26657486,-1.24186965,40.18438489,-3.02644717,-0.00875688,1.56828225

>  <Name>
2et3_lig

>  <RI>
1.07224e+07

>  <Rbt.Current_Directory>
/home/itssahil/PROJECTS/Mol_Feturizer/New_Systems/rnas/2et3

>  <Rbt.Executable>
rbdock ($Id: //depot/dev/client3/rdock/2013.1/src/exe/rbdock.cxx#4 $)

>  <Rbt.Library>
libRbt.so (2013.1, Build901 2013/11/27)

>  <Rbt.Parameter_File>
/export/apps/rDock/src/rDock_2013.1_src/data/scripts/dock_solv.prm

>  <Rbt.Receptor>
prm/blind_docking_80.prm

>  <SCORE>
-9.80764

>  <SCORE.INTER>
-7.7244

>  <SCORE.INTER.CONST>
1

>  <SCORE.INTER.POLAR>
0

>  <SCORE.INTER.ROT>
6

>  <SCORE.INTER.SOLV>
9.06885

>  <SCORE.INTER.VDW>
-15.7725

>  <SCORE.INTER.norm>
-0.249174

>  <SCORE.INTRA>
-4.14032

>  <SCORE.INTRA.DIHEDRAL>
-17.9635

>  <SCORE.INTRA.DIHEDRAL.0>
22.2484

>  <SCORE.INTRA.POLAR>
0

>  <SCORE.INTRA.POLAR.0>
0

>  <SCORE.INTRA.REPUL>
0

>  <SCORE.INTRA.REPUL.0>
0

>  <SCORE.INTRA.SOLV>
0.638171

>  <SCORE.INTRA.SOLV.lig_0>
-75.7198

>  <SCORE.INTRA.VDW>
4.52233

>  <SCORE.INTRA.VDW.0>
-3.34171

>  <SCORE.INTRA.norm>
-0.133559

>  <SCORE.RESTR>
2.05709

>  <SCORE.RESTR.CAVITY>
2.05709

>  <SCORE.RESTR.norm>
0.0663576

>  <SCORE.SYSTEM>
0

>  <SCORE.SYSTEM.CONST>
0

>  <SCORE.SYSTEM.DIHEDRAL>
0

>  <SCORE.SYSTEM.SOLV>
0

>  <SCORE.SYSTEM.norm>
0

>  <SCORE.heavy>
31

>  <SCORE.norm>
-0.316375

>  <RMSD>
13.981

$$$$
2et3_lig
 OpenBabel11021811423D
libRbt.so/2013.1/901 2013/11/27
 31 33  0  0  0  0  0  0  0  0999 V2000
    7.9356   -1.5470   42.2827 C   0  0  2  0  0  0  0  0  0  0  0  0
    8.3832   -1.4776   40.9039 O   0  0  0  0  0  0  0  0  0  0  0  0
    5.5701    1.3286   39.3171 C   0  0  2  0  0  0  0  0  0  0  0  0
    4.9843    2.2823   38.4266 N   0  0  0  0  0  0  0  0  0  0  0  0
    4.0347   -0.4179   36.7529 C   0  0  2  0  0  0  0  0  0  0  0  0
    8.4287   -2.8491   42.9227 C   0  0  2  0  0  0  0  0  0  0  0  0
    9.8527   -2.9069   42.8003 N   0  0  0  0  0  0  0  0  0  0  0  0
    6.9445    1.8679   39.8291 C   0  0  0  0  0  0  0  0  0  0  0  0
    2.5662   -0.8968   36.7490 C   0  0  2  0  0  0  0  0  0  0  0  0
    1.8075   -0.0509   37.5840 O   0  0  0  0  0  0  0  0  0  0  0  0
    7.7347   -4.0843   42.2533 C   0  0  0  0  0  0  0  0  0  0  0  0
    7.6002    0.8214   40.8026 C   0  0  2  0  0  0  0  0  0  0  0  0
    8.8954    1.3245   41.2874 N   0  0  0  0  0  0  0  0  0  0  0  0
    2.5411   -2.3979   37.2520 C   0  0  1  0  0  0  0  0  0  0  0  0
    1.1405   -2.9290   37.3237 N   0  0  0  0  0  0  0  0  0  0  0  0
    6.1942   -3.9456   42.4642 C   0  0  0  0  0  0  0  0  0  0  0  0
    7.7830   -0.5539   40.0532 C   0  0  2  0  0  0  0  0  0  0  0  0
    3.4375   -3.3303   36.2769 C   0  0  1  0  0  0  0  0  0  0  0  0
    2.9206   -3.3453   34.9624 O   0  0  0  0  0  0  0  0  0  0  0  0
    5.7152   -2.5725   41.8163 C   0  0  2  0  0  0  0  0  0  0  0  0
    6.4531   -1.4248   42.3412 O   0  0  0  0  0  0  0  0  0  0  0  0
    6.3810   -1.0701   39.5475 C   0  0  2  0  0  0  0  0  0  0  0  0
    6.5228   -2.3146   38.8700 O   0  0  0  0  0  0  0  0  0  0  0  0
    4.8854   -2.7536   36.2094 C   0  0  0  0  0  0  0  0  0  0  0  0
    4.8572   -1.2924   35.8677 O   0  0  0  0  0  0  0  0  0  0  0  0
    4.2309   -2.3181   41.9343 C   0  0  0  0  0  0  0  0  0  0  0  0
    3.5300   -2.6704   40.7274 N   0  0  0  0  0  0  0  0  0  0  0  0
    5.7421   -0.0129   38.5799 C   0  0  1  0  0  0  0  0  0  0  0  0
    4.4771   -0.4929   38.1411 O   0  0  0  0  0  0  0  0  0  0  0  0
    3.5301   -4.8196   36.6360 C   0  0  0  0  0  0  0  0  0  0  0  0
    0.3614   -2.6064   38.5308 C   0  0  0  0  0  0  0  0  0  0  0  0
  1  2  1  6  0  0  0
  1  6  1  0  0  0  0
  1 21  1  0  0  0  0
  3  4  1  6  0  0  0
  3  8  1  0  0  0  0
  3 28  1  0  0  0  0
  5  9  1  0  0  0  0
  5 25  1  0  0  0  0
  5 29  1  1  0  0  0
  6  7  1  6  0  0  0
  6 11  1  0  0  0  0
  8 12  1  0  0  0  0
  9 10  1  1  0  0  0
  9 14  1  0  0  0  0
 11 16  1  0  0  0  0
 12 13  1  6  0  0  0
 12 17  1  0  0  0  0
 14 15  1  6  0  0  0
 14 18  1  0  0  0  0
 15 31  1  0  0  0  0
 16 20  1  0  0  0  0
 17  2  1  1  0  0  0
 17 22  1  0  0  0  0
 18 19  1  6  0  0  0
 18 24  1  0  0  0  0
 18 30  1  0  0  0  0
 20 21  1  0  0  0  0
 20 26  1  1  0  0  0
 22 23  1  6  0  0  0
 22 28  1  0  0  0  0
 24 25  1  0  0  0  0
 26 27  1  0  0  0  0
 28 29  1  1  0  0  0
M  END
>  <CHROM.1>
164.49283599,-173.82801049,-82.67494827,42.61635353,-98.45712956,103.96434415
5.30823452,-1.54666086,39.30486522,0.23633257,0.74833604,2.67088285

>  <Name>
2et3_lig

>  <RI>
0

>  <Rbt.Current_Directory>
/home/itssahil/PROJECTS/Mol_Feturizer/New_Systems/rnas/2et3

>  <Rbt.Executable>
rbdock ($Id: //depot/dev/client3/rdock/2013.1/src/exe/rbdock.cxx#4 $)

>  <Rbt.Library>
libRbt.so (2013.1, Build901 2013/11/27)

>  <Rbt.Parameter_File>
/export/apps/rDock/src/rDock_2013.1_src/data/scripts/dock_solv.prm

>  <Rbt.Receptor>
prm/blind_docking_60.prm

>  <SCORE>
-10.144

>  <SCORE.INTER>
-10.2846

>  <SCORE.INTER.CONST>
1

>  <SCORE.INTER.POLAR>
-0.662745

>  <SCORE.INTER.ROT>
6

>  <SCORE.INTER.SOLV>
19.1074

>  <SCORE.INTER.VDW>
-18.6164

>  <SCORE.INTER.norm>
-0.331762

>  <SCORE.INTRA>
-3.1627

>  <SCORE.INTRA.DIHEDRAL>
-9.45221

>  <SCORE.INTRA.DIHEDRAL.0>
22.2484

>  <SCORE.INTRA.POLAR>
0

>  <SCORE.INTRA.POLAR.0>
0

>  <SCORE.INTRA.REPUL>
0

>  <SCORE.INTRA.REPUL.0>
0

>  <SCORE.INTRA.SOLV>
1.62352

>  <SCORE.INTRA.SOLV.lig_0>
-75.7198

>  <SCORE.INTRA.VDW>
0.751649

>  <SCORE.INTRA.VDW.0>
-3.34171

>  <SCORE.INTRA.norm>
-0.102023

>  <SCORE.RESTR>
3.30332

>  <SCORE.RESTR.CAVITY>
3.30332

>  <SCORE.RESTR.norm>
0.106559

>  <SCORE.SYSTEM>
0

>  <SCORE.SYSTEM.CONST>
0

>  <SCORE.SYSTEM.DIHEDRAL>
0

>  <SCORE.SYSTEM.SOLV>
0

>  <SCORE.SYSTEM.norm>
0

>  <SCORE.heavy>
31

>  <SCORE.norm>
-0.327226

>  <RMSD>
14.011

$$$$
2et3_lig
 OpenBabel11021811423D
libRbt.so/2013.1/901 2013/11/27
 31 33  0  0  0  0  0  0  0  0999 V2000
   -0.8969   -1.3533   40.1055 C   0  0  2  0  0  0  0  0  0  0  0  0
   -0.1748   -1.2093   38.8549 O   0  0  0  0  0  0  0  0  0  0  0  0
    3.7248    0.3495   38.0366 C   0  0  2  0  0  0  0  0  0  0  0  0
    4.8203    1.2681   37.9960 N   0  0  0  0  0  0  0  0  0  0  0  0
    5.2036   -1.6598   39.6875 C   0  0  2  0  0  0  0  0  0  0  0  0
   -1.7543   -2.6228   40.0656 C   0  0  2  0  0  0  0  0  0  0  0  0
   -0.9041   -3.7388   39.7865 N   0  0  0  0  0  0  0  0  0  0  0  0
    2.5095    0.9517   37.2604 C   0  0  0  0  0  0  0  0  0  0  0  0
    5.9423   -2.2511   40.9083 C   0  0  2  0  0  0  0  0  0  0  0  0
    4.9926   -2.6145   41.8852 O   0  0  0  0  0  0  0  0  0  0  0  0
   -2.8959   -2.4784   39.0020 C   0  0  0  0  0  0  0  0  0  0  0  0
    1.2968   -0.0484   37.3072 C   0  0  2  0  0  0  0  0  0  0  0  0
    0.1492    0.5144   36.5778 N   0  0  0  0  0  0  0  0  0  0  0  0
    6.9510   -1.1556   41.4461 C   0  0  1  0  0  0  0  0  0  0  0  0
    7.6800   -1.6331   42.6665 N   0  0  0  0  0  0  0  0  0  0  0  0
   -3.7817   -1.2586   39.4073 C   0  0  0  0  0  0  0  0  0  0  0  0
    0.9123   -0.3415   38.8082 C   0  0  2  0  0  0  0  0  0  0  0  0
    8.0114   -0.7546   40.2892 C   0  0  1  0  0  0  0  0  0  0  0  0
    8.7991   -1.8633   39.9075 O   0  0  0  0  0  0  0  0  0  0  0  0
   -2.8609    0.0387   39.4693 C   0  0  2  0  0  0  0  0  0  0  0  0
   -1.7158   -0.1367   40.3611 O   0  0  0  0  0  0  0  0  0  0  0  0
    2.1580   -0.9453   39.5641 C   0  0  2  0  0  0  0  0  0  0  0  0
    1.8311   -1.2212   40.9223 O   0  0  0  0  0  0  0  0  0  0  0  0
    7.2313   -0.2714   39.0276 C   0  0  0  0  0  0  0  0  0  0  0  0
    6.1877   -1.2759   38.6344 O   0  0  0  0  0  0  0  0  0  0  0  0
   -3.5999    1.3041   39.8357 C   0  0  0  0  0  0  0  0  0  0  0  0
   -4.2678    1.1853   41.1052 N   0  0  0  0  0  0  0  0  0  0  0  0
    3.3572    0.0650   39.5051 C   0  0  1  0  0  0  0  0  0  0  0  0
    4.4715   -0.5001   40.1851 O   0  0  0  0  0  0  0  0  0  0  0  0
    9.0551    0.3126   40.6463 C   0  0  0  0  0  0  0  0  0  0  0  0
    7.0036   -1.4600   43.9629 C   0  0  0  0  0  0  0  0  0  0  0  0
  1  2  1  6  0  0  0
  1  6  1  0  0  0  0
  1 21  1  0  0  0  0
  3  4  1  1  0  0  0
  3  8  1  0  0  0  0
  3 28  1  0  0  0  0
  5  9  1  0  0  0  0
  5 25  1  0  0  0  0
  5 29  1  1  0  0  0
  6  7  1  6  0  0  0
  6 11  1  0  0  0  0
  8 12  1  0  0  0  0
  9 10  1  1  0  0  0
  9 14  1  0  0  0  0
 11 16  1  0  0  0  0
 12 13  1  6  0  0  0
 12 17  1  0  0  0  0
 14 15  1  1  0  0  0
 14 18  1  0  0  0  0
 15 31  1  0  0  0  0
 16 20  1  0  0  0  0
 17  2  1  6  0  0  0
 17 22  1  0  0  0  0
 18 19  1  6  0  0  0
 18 24  1  0  0  0  0
 18 30  1  0  0  0  0
 20 21  1  0  0  0  0
 20 26  1  1  0  0  0
 22 23  1  1  0  0  0
 22 28  1  0  0  0  0
 24 25  1  0  0  0  0
 26 27  1  0  0  0  0
 28 29  1  1  0  0  0
M  END
>  <CHROM.1>
-163.17804381,-159.49624715,-84.53127945,-165.03223343,57.64403103,-51.98292012
2.60146929,-0.81131388,39.80701316,3.01360890,-0.02750713,-1.01484379

>  <Name>
2et3_lig

>  <RI>
0

>  <Rbt.Current_Directory>
/home/itssahil/PROJECTS/Mol_Feturizer/New_Systems/rnas/2et3

>  <Rbt.Executable>
rbdock ($Id: //depot/dev/client3/rdock/2013.1/src/exe/rbdock.cxx#4 $)

>  <Rbt.Library>
libRbt.so (2013.1, Build901 2013/11/27)

>  <Rbt.Parameter_File>
/export/apps/rDock/src/rDock_2013.1_src/data/scripts/dock_solv.prm

>  <Rbt.Receptor>
prm/blind_docking_100.prm

>  <SCORE>
-17.155

>  <SCORE.INTER>
-10.2634

>  <SCORE.INTER.CONST>
1

>  <SCORE.INTER.POLAR>
0

>  <SCORE.INTER.ROT>
6

>  <SCORE.INTER.SOLV>
15.6132

>  <SCORE.INTER.VDW>
-19.6466

>  <SCORE.INTER.norm>
-0.331076

>  <SCORE.INTRA>
-8.23878

>  <SCORE.INTRA.DIHEDRAL>
-17.1003

>  <SCORE.INTRA.DIHEDRAL.0>
22.2484

>  <SCORE.INTRA.POLAR>
0

>  <SCORE.INTRA.POLAR.0>
0

>  <SCORE.INTRA.REPUL>
0

>  <SCORE.INTRA.REPUL.0>
0

>  <SCORE.INTRA.SOLV>
-0.379799

>  <SCORE.INTRA.SOLV.lig_0>
-75.7198

>  <SCORE.INTRA.VDW>
0.501249

>  <SCORE.INTRA.VDW.0>
-3.34171

>  <SCORE.INTRA.norm>
-0.265767

>  <SCORE.RESTR>
1.34715

>  <SCORE.RESTR.CAVITY>
1.34715

>  <SCORE.RESTR.norm>
0.0434564

>  <SCORE.SYSTEM>
0

>  <SCORE.SYSTEM.CONST>
0

>  <SCORE.SYSTEM.DIHEDRAL>
0

>  <SCORE.SYSTEM.SOLV>
0

>  <SCORE.SYSTEM.norm>
0

>  <SCORE.heavy>
31

>  <SCORE.norm>
-0.553387

>  <RMSD>
14.044

$$$$
2et3_lig
 OpenBabel11021811423D
libRbt.so/2013.1/901 2013/11/27
 31 33  0  0  0  0  0  0  0  0999 V2000
   -0.8953   -1.4178   40.2326 C   0  0  2  0  0  0  0  0  0  0  0  0
   -0.1157   -1.3784   39.0091 O   0  0  0  0  0  0  0  0  0  0  0  0
    3.8073    0.1125   38.1764 C   0  0  2  0  0  0  0  0  0  0  0  0
    4.9126    1.0182   38.1156 N   0  0  0  0  0  0  0  0  0  0  0  0
    5.2935   -1.8125   39.8731 C   0  0  2  0  0  0  0  0  0  0  0  0
   -1.8050   -2.6510   40.2280 C   0  0  2  0  0  0  0  0  0  0  0  0
   -0.9936   -3.8157   40.0517 N   0  0  0  0  0  0  0  0  0  0  0  0
    2.6056    0.7004   37.3687 C   0  0  0  0  0  0  0  0  0  0  0  0
    6.0046   -2.4036   41.1103 C   0  0  2  0  0  0  0  0  0  0  0  0
    5.0317   -2.7946   42.0532 O   0  0  0  0  0  0  0  0  0  0  0  0
   -2.8936   -2.5230   39.1081 C   0  0  0  0  0  0  0  0  0  0  0  0
    1.3821   -0.2853   37.4375 C   0  0  2  0  0  0  0  0  0  0  0  0
    0.2473    0.2642   36.6786 N   0  0  0  0  0  0  0  0  0  0  0  0
    6.9758   -1.2959   41.6907 C   0  0  1  0  0  0  0  0  0  0  0  0
    7.6751   -1.7734   42.9284 N   0  0  0  0  0  0  0  0  0  0  0  0
   -3.7414   -1.2458   39.4026 C   0  0  0  0  0  0  0  0  0  0  0  0
    0.9808   -0.5237   38.9437 C   0  0  2  0  0  0  0  0  0  0  0  0
    8.0642   -0.8634   40.5717 C   0  0  1  0  0  0  0  0  0  0  0  0
    8.8835   -1.9536   40.2035 O   0  0  0  0  0  0  0  0  0  0  0  0
   -2.7679    0.0137   39.4306 C   0  0  2  0  0  0  0  0  0  0  0  0
   -1.6700   -0.1553   40.3810 O   0  0  0  0  0  0  0  0  0  0  0  0
    2.2131   -1.1141   39.7314 C   0  0  2  0  0  0  0  0  0  0  0  0
    1.8707   -1.3408   41.0950 O   0  0  0  0  0  0  0  0  0  0  0  0
    7.3150   -0.3808   39.2914 C   0  0  0  0  0  0  0  0  0  0  0  0
    6.3027   -1.3996   38.8554 O   0  0  0  0  0  0  0  0  0  0  0  0
   -3.4655    1.3282   39.6901 C   0  0  0  0  0  0  0  0  0  0  0  0
   -4.2735    1.2793   40.8803 N   0  0  0  0  0  0  0  0  0  0  0  0
    3.4232   -0.1186   39.6501 C   0  0  1  0  0  0  0  0  0  0  0  0
    4.5252   -0.6716   40.3594 O   0  0  0  0  0  0  0  0  0  0  0  0
    9.0765    0.2184   40.9723 C   0  0  0  0  0  0  0  0  0  0  0  0
    6.9769   -1.5806   44.2104 C   0  0  0  0  0  0  0  0  0  0  0  0
  1  2  1  6  0  0  0
  1  6  1  0  0  0  0
  1 21  1  0  0  0  0
  3  4  1  1  0  0  0
  3  8  1  0  0  0  0
  3 28  1  0  0  0  0
  5  9  1  0  0  0  0
  5 25  1  0  0  0  0
  5 29  1  1  0  0  0
  6  7  1  6  0  0  0
  6 11  1  0  0  0  0
  8 12  1  0  0  0  0
  9 10  1  1  0  0  0
  9 14  1  0  0  0  0
 11 16  1  0  0  0  0
 12 13  1  6  0  0  0
 12 17  1  0  0  0  0
 14 15  1  1  0  0  0
 14 18  1  0  0  0  0
 15 31  1  0  0  0  0
 16 20  1  0  0  0  0
 17  2  1  6  0  0  0
 17 22  1  0  0  0  0
 18 19  1  6  0  0  0
 18 24  1  0  0  0  0
 18 30  1  0  0  0  0
 20 21  1  0  0  0  0
 20 26  1  1  0  0  0
 22 23  1  1  0  0  0
 22 28  1  0  0  0  0
 24 25  1  0  0  0  0
 26 27  1  0  0  0  0
 28 29  1  1  0  0  0
M  END
>  <CHROM.1>
-165.51040804,-159.55517578,-86.76245875,-161.66777960,53.18441993,-48.69125407
2.65024422,-0.93214648,39.95348204,2.98819071,-0.03121579,-1.02133566

>  <Name>
2et3_lig

>  <RI>
1.07224e+07

>  <Rbt.Current_Directory>
/home/itssahil/PROJECTS/Mol_Feturizer/New_Systems/rnas/2et3

>  <Rbt.Executable>
rbdock ($Id: //depot/dev/client3/rdock/2013.1/src/exe/rbdock.cxx#4 $)

>  <Rbt.Library>
libRbt.so (2013.1, Build901 2013/11/27)

>  <Rbt.Parameter_File>
/export/apps/rDock/src/rDock_2013.1_src/data/scripts/dock_solv.prm

>  <Rbt.Receptor>
prm/blind_docking_80.prm

>  <SCORE>
-16.3723

>  <SCORE.INTER>
-9.60272

>  <SCORE.INTER.CONST>
1

>  <SCORE.INTER.POLAR>
0

>  <SCORE.INTER.ROT>
6

>  <SCORE.INTER.SOLV>
16.284

>  <SCORE.INTER.VDW>
-19.4298

>  <SCORE.INTER.norm>
-0.309765

>  <SCORE.INTRA>
-7.86957

>  <SCORE.INTRA.DIHEDRAL>
-16.4453

>  <SCORE.INTRA.DIHEDRAL.0>
22.2484

>  <SCORE.INTRA.POLAR>
0

>  <SCORE.INTRA.POLAR.0>
0

>  <SCORE.INTRA.REPUL>
0

>  <SCORE.INTRA.REPUL.0>
0

>  <SCORE.INTRA.SOLV>
-0.264237

>  <SCORE.INTRA.SOLV.lig_0>
-75.7198

>  <SCORE.INTRA.VDW>
0.485202

>  <SCORE.INTRA.VDW.0>
-3.34171

>  <SCORE.INTRA.norm>
-0.253857

>  <SCORE.RESTR>
1.10003

>  <SCORE.RESTR.CAVITY>
1.10003

>  <SCORE.RESTR.norm>
0.035485

>  <SCORE.SYSTEM>
0

>  <SCORE.SYSTEM.CONST>
0

>  <SCORE.SYSTEM.DIHEDRAL>
0

>  <SCORE.SYSTEM.SOLV>
0

>  <SCORE.SYSTEM.norm>
0

>  <SCORE.heavy>
31

>  <SCORE.norm>
-0.528137

>  <RMSD>
14.047

$$$$
2et3_lig
 OpenBabel11021811423D
libRbt.so/2013.1/901 2013/11/27
 31 33  0  0  0  0  0  0  0  0999 V2000
    1.4021   -1.4488   39.3964 C   0  0  2  0  0  0  0  0  0  0  0  0
    1.0728   -0.1971   38.7399 O   0  0  0  0  0  0  0  0  0  0  0  0
    4.8807    1.1984   37.3766 C   0  0  2  0  0  0  0  0  0  0  0  0
    5.9216    2.1062   37.0051 N   0  0  0  0  0  0  0  0  0  0  0  0
    6.8559    0.4952   39.1991 C   0  0  2  0  0  0  0  0  0  0  0  0
    0.6463   -2.6006   38.7252 C   0  0  2  0  0  0  0  0  0  0  0  0
    0.9679   -2.6062   37.3314 N   0  0  0  0  0  0  0  0  0  0  0  0
    3.6371    1.4260   36.4580 C   0  0  0  0  0  0  0  0  0  0  0  0
    6.5526   -1.0135   39.3315 C   0  0  2  0  0  0  0  0  0  0  0  0
    5.4227   -1.3232   38.5468 O   0  0  0  0  0  0  0  0  0  0  0  0
   -0.8951   -2.4581   38.9680 C   0  0  0  0  0  0  0  0  0  0  0  0
    2.4838    0.4376   36.8651 C   0  0  2  0  0  0  0  0  0  0  0  0
    1.3098    0.6483   36.0031 N   0  0  0  0  0  0  0  0  0  0  0  0
    6.3102   -1.3299   40.8639 C   0  0  1  0  0  0  0  0  0  0  0  0
    5.9612   -2.7726   41.0776 N   0  0  0  0  0  0  0  0  0  0  0  0
   -1.1464   -2.4917   40.5083 C   0  0  0  0  0  0  0  0  0  0  0  0
    2.1084    0.6604   38.3804 C   0  0  2  0  0  0  0  0  0  0  0  0
    7.6235   -0.9437   41.7299 C   0  0  1  0  0  0  0  0  0  0  0  0
    8.7413   -1.7141   41.3394 O   0  0  0  0  0  0  0  0  0  0  0  0
   -0.3273   -1.3044   41.1819 C   0  0  2  0  0  0  0  0  0  0  0  0
    1.0956   -1.3547   40.8502 O   0  0  0  0  0  0  0  0  0  0  0  0
    3.3825    0.4259   39.2800 C   0  0  2  0  0  0  0  0  0  0  0  0
    3.0644    0.6188   40.6546 O   0  0  0  0  0  0  0  0  0  0  0  0
    7.9734    0.5565   41.4842 C   0  0  0  0  0  0  0  0  0  0  0  0
    8.0548    0.8465   40.0138 O   0  0  0  0  0  0  0  0  0  0  0  0
   -0.4957   -1.2095   42.6801 C   0  0  0  0  0  0  0  0  0  0  0  0
   -0.3113   -2.4851   43.3211 N   0  0  0  0  0  0  0  0  0  0  0  0
    4.5219    1.4190   38.8582 C   0  0  1  0  0  0  0  0  0  0  0  0
    5.6630    1.1871   39.6751 O   0  0  0  0  0  0  0  0  0  0  0  0
    7.5469   -1.1770   43.2450 C   0  0  0  0  0  0  0  0  0  0  0  0
    4.9932   -3.0779   42.1443 C   0  0  0  0  0  0  0  0  0  0  0  0
  1  2  1  6  0  0  0
  1  6  1  0  0  0  0
  1 21  1  0  0  0  0
  3  4  1  6  0  0  0
  3  8  1  0  0  0  0
  3 28  1  0  0  0  0
  5  9  1  0  0  0  0
  5 25  1  0  0  0  0
  5 29  1  1  0  0  0
  6  7  1  6  0  0  0
  6 11  1  0  0  0  0
  8 12  1  0  0  0  0
  9 10  1  6  0  0  0
  9 14  1  0  0  0  0
 11 16  1  0  0  0  0
 12 13  1  6  0  0  0
 12 17  1  0  0  0  0
 14 15  1  6  0  0  0
 14 18  1  0  0  0  0
 15 31  1  0  0  0  0
 16 20  1  0  0  0  0
 17  2  1  1  0  0  0
 17 22  1  0  0  0  0
 18 19  1  6  0  0  0
 18 24  1  0  0  0  0
 18 30  1  0  0  0  0
 20 21  1  0  0  0  0
 20 26  1  1  0  0  0
 22 23  1  1  0  0  0
 22 28  1  0  0  0  0
 24 25  1  0  0  0  0
 26 27  1  0  0  0  0
 28 29  1  1  0  0  0
M  END
>  <CHROM.1>
-132.20338952,-82.93931725,-144.74291149,96.72106456,48.73753076,-15.38704517
3.74104364,-0.63159053,39.74709322,-3.13907952,-0.19829770,-1.03745921

>  <Name>
2et3_lig

>  <RI>
0

>  <Rbt.Current_Directory>
/home/itssahil/PROJECTS/Mol_Feturizer/New_Systems/rnas/2et3

>  <Rbt.Executable>
rbdock ($Id: //depot/dev/client3/rdock/2013.1/src/exe/rbdock.cxx#4 $)

>  <Rbt.Library>
libRbt.so (2013.1, Build901 2013/11/27)

>  <Rbt.Parameter_File>
/export/apps/rDock/src/rDock_2013.1_src/data/scripts/dock_solv.prm

>  <Rbt.Receptor>
prm/blind_docking_60.prm

>  <SCORE>
-9.20562

>  <SCORE.INTER>
-14.0713

>  <SCORE.INTER.CONST>
1

>  <SCORE.INTER.POLAR>
0

>  <SCORE.INTER.ROT>
6

>  <SCORE.INTER.SOLV>
14.0903

>  <SCORE.INTER.VDW>
-21.6776

>  <SCORE.INTER.norm>
-0.453912

>  <SCORE.INTRA>
3.10822

>  <SCORE.INTRA.DIHEDRAL>
-1.27867

>  <SCORE.INTRA.DIHEDRAL.0>
22.2484

>  <SCORE.INTRA.POLAR>
0

>  <SCORE.INTRA.POLAR.0>
0

>  <SCORE.INTRA.REPUL>
0

>  <SCORE.INTRA.REPUL.0>
0

>  <SCORE.INTRA.SOLV>
1.55122

>  <SCORE.INTRA.SOLV.lig_0>
-75.7198

>  <SCORE.INTRA.VDW>
2.97195

>  <SCORE.INTRA.VDW.0>
-3.34171

>  <SCORE.INTRA.norm>
0.100265

>  <SCORE.RESTR>
1.75742

>  <SCORE.RESTR.CAVITY>
1.75742

>  <SCORE.RESTR.norm>
0.0566911

>  <SCORE.SYSTEM>
0

>  <SCORE.SYSTEM.CONST>
0

>  <SCORE.SYSTEM.DIHEDRAL>
0

>  <SCORE.SYSTEM.SOLV>
0

>  <SCORE.SYSTEM.norm>
0

>  <SCORE.heavy>
31

>  <SCORE.norm>
-0.296955

>  <RMSD>
14.122

$$$$
2et3_lig
 OpenBabel11021811423D
libRbt.so/2013.1/901 2013/11/27
 31 33  0  0  0  0  0  0  0  0999 V2000
    7.8456   -1.6042   42.2180 C   0  0  2  0  0  0  0  0  0  0  0  0
    8.3283   -1.5288   40.8515 O   0  0  0  0  0  0  0  0  0  0  0  0
    5.6646    1.3908   39.2123 C   0  0  2  0  0  0  0  0  0  0  0  0
    5.1566    2.3999   38.3352 N   0  0  0  0  0  0  0  0  0  0  0  0
    3.9734    0.3665   36.7789 C   0  0  2  0  0  0  0  0  0  0  0  0
    8.2141   -2.9628   42.8236 C   0  0  2  0  0  0  0  0  0  0  0  0
    9.6308   -3.1359   42.7274 N   0  0  0  0  0  0  0  0  0  0  0  0
    6.9961    1.8867   39.8629 C   0  0  0  0  0  0  0  0  0  0  0  0
    2.5678    0.6993   37.3261 C   0  0  2  0  0  0  0  0  0  0  0  0
    2.7041    1.4954   38.4820 O   0  0  0  0  0  0  0  0  0  0  0  0
    7.4350   -4.1135   42.0995 C   0  0  0  0  0  0  0  0  0  0  0  0
    7.5668    0.7794   40.8227 C   0  0  2  0  0  0  0  0  0  0  0  0
    8.8213    1.2414   41.4377 N   0  0  0  0  0  0  0  0  0  0  0  0
    1.8285   -0.6663   37.6352 C   0  0  1  0  0  0  0  0  0  0  0  0
    0.4665   -0.4330   38.2178 N   0  0  0  0  0  0  0  0  0  0  0  0
    5.9071   -3.8529   42.2846 C   0  0  0  0  0  0  0  0  0  0  0  0
    7.8025   -0.5518   40.0110 C   0  0  2  0  0  0  0  0  0  0  0  0
    1.7092   -1.5561   36.2871 C   0  0  1  0  0  0  0  0  0  0  0  0
    0.9334   -0.9003   35.3055 O   0  0  0  0  0  0  0  0  0  0  0  0
    5.5586   -2.4246   41.6738 C   0  0  2  0  0  0  0  0  0  0  0  0
    6.3775   -1.3601   42.2514 O   0  0  0  0  0  0  0  0  0  0  0  0
    6.4431   -1.0247   39.3659 C   0  0  2  0  0  0  0  0  0  0  0  0
    6.6329   -2.2291   38.6303 O   0  0  0  0  0  0  0  0  0  0  0  0
    3.1349   -1.7769   35.6938 C   0  0  0  0  0  0  0  0  0  0  0  0
    3.8556   -0.4684   35.5485 O   0  0  0  0  0  0  0  0  0  0  0  0
    4.0983   -2.0505   41.7710 C   0  0  0  0  0  0  0  0  0  0  0  0
    3.3564   -2.4864   40.6172 N   0  0  0  0  0  0  0  0  0  0  0  0
    5.8888    0.0928   38.4139 C   0  0  1  0  0  0  0  0  0  0  0  0
    4.6607   -0.3491   37.8484 O   0  0  0  0  0  0  0  0  0  0  0  0
    1.0267   -2.9245   36.4188 C   0  0  0  0  0  0  0  0  0  0  0  0
   -0.3978    0.5434   37.5337 C   0  0  0  0  0  0  0  0  0  0  0  0
  1  2  1  6  0  0  0
  1  6  1  0  0  0  0
  1 21  1  0  0  0  0
  3  4  1  6  0  0  0
  3  8  1  0  0  0  0
  3 28  1  0  0  0  0
  5  9  1  0  0  0  0
  5 25  1  0  0  0  0
  5 29  1  1  0  0  0
  6  7  1  6  0  0  0
  6 11  1  0  0  0  0
  8 12  1  0  0  0  0
  9 10  1  1  0  0  0
  9 14  1  0  0  0  0
 11 16  1  0  0  0  0
 12 13  1  6  0  0  0
 12 17  1  0  0  0  0
 14 15  1  6  0  0  0
 14 18  1  0  0  0  0
 15 31  1  0  0  0  0
 16 20  1  0  0  0  0
 17  2  1  1  0  0  0
 17 22  1  0  0  0  0
 18 19  1  6  0  0  0
 18 24  1  0  0  0  0
 18 30  1  0  0  0  0
 20 21  1  0  0  0  0
 20 26  1  1  0  0  0
 22 23  1  6  0  0  0
 22 28  1  0  0  0  0
 24 25  1  0  0  0  0
 26 27  1  0  0  0  0
 28 29  1  1  0  0  0
M  END
>  <CHROM.1>
162.96180189,-122.08042085,47.91260562,37.78523956,-89.76695611,68.47844747
4.94136105,-0.89059715,39.27184876,0.47723918,0.55066217,2.61653249

>  <Name>
2et3_lig

>  <RI>
0

>  <Rbt.Current_Directory>
/home/itssahil/PROJECTS/Mol_Feturizer/New_Systems/rnas/2et3

>  <Rbt.Executable>
rbdock ($Id: //depot/dev/client3/rdock/2013.1/src/exe/rbdock.cxx#4 $)

>  <Rbt.Library>
libRbt.so (2013.1, Build901 2013/11/27)

>  <Rbt.Parameter_File>
/export/apps/rDock/src/rDock_2013.1_src/data/scripts/dock_solv.prm

>  <Rbt.Receptor>
prm/blind_docking_60.prm

>  <SCORE>
-1.94509

>  <SCORE.INTER>
-4.70113

>  <SCORE.INTER.CONST>
1

>  <SCORE.INTER.POLAR>
0

>  <SCORE.INTER.ROT>
6

>  <SCORE.INTER.SOLV>
19.0185

>  <SCORE.INTER.VDW>
-17.0736

>  <SCORE.INTER.norm>
-0.151649

>  <SCORE.INTRA>
-0.134287

>  <SCORE.INTRA.DIHEDRAL>
-8.49393

>  <SCORE.INTRA.DIHEDRAL.0>
22.2484

>  <SCORE.INTRA.POLAR>
0

>  <SCORE.INTRA.POLAR.0>
0

>  <SCORE.INTRA.REPUL>
0

>  <SCORE.INTRA.REPUL.0>
0

>  <SCORE.INTRA.SOLV>
2.15232

>  <SCORE.INTRA.SOLV.lig_0>
-75.7198

>  <SCORE.INTRA.VDW>
3.03652

>  <SCORE.INTRA.VDW.0>
-3.34171

>  <SCORE.INTRA.norm>
-0.00433184

>  <SCORE.RESTR>
2.89033

>  <SCORE.RESTR.CAVITY>
2.89033

>  <SCORE.RESTR.norm>
0.0932363

>  <SCORE.SYSTEM>
0

>  <SCORE.SYSTEM.CONST>
0

>  <SCORE.SYSTEM.DIHEDRAL>
0

>  <SCORE.SYSTEM.SOLV>
0

>  <SCORE.SYSTEM.norm>
0

>  <SCORE.heavy>
31

>  <SCORE.norm>
-0.0627448

>  <RMSD>
14.140

$$$$
2et3_lig
 OpenBabel11021811423D
libRbt.so/2013.1/901 2013/11/27
 31 33  0  0  0  0  0  0  0  0999 V2000
    0.0535   -1.9692   39.9745 C   0  0  2  0  0  0  0  0  0  0  0  0
    0.0361   -0.7291   39.2208 O   0  0  0  0  0  0  0  0  0  0  0  0
    4.0157   -0.4585   37.6731 C   0  0  2  0  0  0  0  0  0  0  0  0
    5.2435    0.1223   37.2247 N   0  0  0  0  0  0  0  0  0  0  0  0
    5.5554   -1.8380   39.6564 C   0  0  2  0  0  0  0  0  0  0  0  0
   -1.3098   -2.6605   39.8664 C   0  0  2  0  0  0  0  0  0  0  0  0
   -1.6121   -2.8590   38.4824 N   0  0  0  0  0  0  0  0  0  0  0  0
    2.8390    0.0560   36.7827 C   0  0  0  0  0  0  0  0  0  0  0  0
    6.1613   -2.3066   40.9976 C   0  0  2  0  0  0  0  0  0  0  0  0
    5.1200   -2.4884   41.9309 O   0  0  0  0  0  0  0  0  0  0  0  0
   -2.4117   -1.8123   40.5887 C   0  0  0  0  0  0  0  0  0  0  0  0
    1.4832   -0.5709   37.2742 C   0  0  2  0  0  0  0  0  0  0  0  0
    0.3715   -0.0890   36.4389 N   0  0  0  0  0  0  0  0  0  0  0  0
    7.1960   -1.2077   41.4761 C   0  0  1  0  0  0  0  0  0  0  0  0
    7.7997   -1.5631   42.8020 N   0  0  0  0  0  0  0  0  0  0  0  0
   -2.0091   -1.6765   42.0908 C   0  0  0  0  0  0  0  0  0  0  0  0
    1.2459   -0.1948   38.7871 C   0  0  2  0  0  0  0  0  0  0  0  0
    8.3633   -1.0179   40.3692 C   0  0  1  0  0  0  0  0  0  0  0  0
    9.1037   -2.2081   40.1941 O   0  0  0  0  0  0  0  0  0  0  0  0
   -0.5783   -0.9830   42.1717 C   0  0  2  0  0  0  0  0  0  0  0  0
    0.4289   -1.6974   41.3892 O   0  0  0  0  0  0  0  0  0  0  0  0
    2.4494   -0.7248   39.6580 C   0  0  2  0  0  0  0  0  0  0  0  0
    2.2532   -0.3986   41.0302 O   0  0  0  0  0  0  0  0  0  0  0  0
    7.7121   -0.6595   38.9977 C   0  0  0  0  0  0  0  0  0  0  0  0
    6.6379   -1.6476   38.6480 O   0  0  0  0  0  0  0  0  0  0  0  0
   -0.0720   -0.7731   43.5793 C   0  0  0  0  0  0  0  0  0  0  0  0
    0.2768   -2.0173   44.2136 N   0  0  0  0  0  0  0  0  0  0  0  0
    3.7923   -0.0903   39.1520 C   0  0  1  0  0  0  0  0  0  0  0  0
    4.8649   -0.5856   39.9443 O   0  0  0  0  0  0  0  0  0  0  0  0
    9.4444    0.0276   40.6754 C   0  0  0  0  0  0  0  0  0  0  0  0
    7.0133   -1.2427   44.0049 C   0  0  0  0  0  0  0  0  0  0  0  0
  1  2  1  6  0  0  0
  1  6  1  0  0  0  0
  1 21  1  0  0  0  0
  3  4  1  6  0  0  0
  3  8  1  0  0  0  0
  3 28  1  0  0  0  0
  5  9  1  0  0  0  0
  5 25  1  0  0  0  0
  5 29  1  1  0  0  0
  6  7  1  6  0  0  0
  6 11  1  0  0  0  0
  8 12  1  0  0  0  0
  9 10  1  1  0  0  0
  9 14  1  0  0  0  0
 11 16  1  0  0  0  0
 12 13  1  6  0  0  0
 12 17  1  0  0  0  0
 14 15  1  1  0  0  0
 14 18  1  0  0  0  0
 15 31  1  0  0  0  0
 16 20  1  0  0  0  0
 17  2  1  1  0  0  0
 17 22  1  0  0  0  0
 18 19  1  6  0  0  0
 18 24  1  0  0  0  0
 18 30  1  0  0  0  0
 20 21  1  0  0  0  0
 20 26  1  1  0  0  0
 22 23  1  1  0  0  0
 22 28  1  0  0  0  0
 24 25  1  0  0  0  0
 26 27  1  0  0  0  0
 28 29  1  1  0  0  0
M  END
>  <CHROM.1>
-157.38359161,-155.85314771,-81.82214463,99.09017686,70.08979387,-34.33353782
3.31136308,-1.17462664,40.19716490,-3.12465935,0.03901995,1.77135737

>  <Name>
2et3_lig

>  <RI>
1.07224e+07

>  <Rbt.Current_Directory>
/home/itssahil/PROJECTS/Mol_Feturizer/New_Systems/rnas/2et3

>  <Rbt.Executable>
rbdock ($Id: //depot/dev/client3/rdock/2013.1/src/exe/rbdock.cxx#4 $)

>  <Rbt.Library>
libRbt.so (2013.1, Build901 2013/11/27)

>  <Rbt.Parameter_File>
/export/apps/rDock/src/rDock_2013.1_src/data/scripts/dock_solv.prm

>  <Rbt.Receptor>
prm/blind_docking_80.prm

>  <SCORE>
-7.80505

>  <SCORE.INTER>
-10.3632

>  <SCORE.INTER.CONST>
1

>  <SCORE.INTER.POLAR>
0

>  <SCORE.INTER.ROT>
6

>  <SCORE.INTER.SOLV>
9.16583

>  <SCORE.INTER.VDW>
-17.5641

>  <SCORE.INTER.norm>
-0.334296

>  <SCORE.INTRA>
1.33036

>  <SCORE.INTRA.DIHEDRAL>
-8.60449

>  <SCORE.INTRA.DIHEDRAL.0>
22.2484

>  <SCORE.INTRA.POLAR>
0

>  <SCORE.INTRA.POLAR.0>
0

>  <SCORE.INTRA.REPUL>
0

>  <SCORE.INTRA.REPUL.0>
0

>  <SCORE.INTRA.SOLV>
0.70492

>  <SCORE.INTRA.SOLV.lig_0>
-75.7198

>  <SCORE.INTRA.VDW>
5.28014

>  <SCORE.INTRA.VDW.0>
-3.34171

>  <SCORE.INTRA.norm>
0.0429147

>  <SCORE.RESTR>
1.22776

>  <SCORE.RESTR.CAVITY>
1.22776

>  <SCORE.RESTR.norm>
0.039605

>  <SCORE.SYSTEM>
0

>  <SCORE.SYSTEM.CONST>
0

>  <SCORE.SYSTEM.DIHEDRAL>
0

>  <SCORE.SYSTEM.SOLV>
0

>  <SCORE.SYSTEM.norm>
0

>  <SCORE.heavy>
31

>  <SCORE.norm>
-0.251776

>  <RMSD>
14.155

$$$$
2et3_lig
 OpenBabel11021811423D
libRbt.so/2013.1/901 2013/11/27
 31 33  0  0  0  0  0  0  0  0999 V2000
    1.5820   -1.3348   39.4341 C   0  0  2  0  0  0  0  0  0  0  0  0
    1.2081   -0.1433   38.6949 O   0  0  0  0  0  0  0  0  0  0  0  0
    4.9376    1.3823   37.2560 C   0  0  2  0  0  0  0  0  0  0  0  0
    5.9403    2.3253   36.8677 N   0  0  0  0  0  0  0  0  0  0  0  0
    6.9160    0.5984   39.0821 C   0  0  2  0  0  0  0  0  0  0  0  0
    0.9352   -2.5671   38.7925 C   0  0  2  0  0  0  0  0  0  0  0  0
    1.3266   -2.6239   37.4178 N   0  0  0  0  0  0  0  0  0  0  0  0
    3.6667    1.5759   36.3674 C   0  0  0  0  0  0  0  0  0  0  0  0
    6.5055   -0.8824   39.2379 C   0  0  2  0  0  0  0  0  0  0  0  0
    5.3620   -1.1251   38.4492 O   0  0  0  0  0  0  0  0  0  0  0  0
   -0.6225   -2.5136   38.9542 C   0  0  0  0  0  0  0  0  0  0  0  0
    2.5551    0.5483   36.7934 C   0  0  2  0  0  0  0  0  0  0  0  0
    1.3557    0.7269   35.9595 N   0  0  0  0  0  0  0  0  0  0  0  0
    6.2304   -1.1537   40.7733 C   0  0  1  0  0  0  0  0  0  0  0  0
    5.7783   -2.5641   41.0088 N   0  0  0  0  0  0  0  0  0  0  0  0
   -0.9487   -2.4836   40.4805 C   0  0  0  0  0  0  0  0  0  0  0  0
    2.2074    0.7493   38.3182 C   0  0  2  0  0  0  0  0  0  0  0  0
    7.5615   -0.8463   41.6436 C   0  0  1  0  0  0  0  0  0  0  0  0
    8.6246   -1.7007   41.2757 O   0  0  0  0  0  0  0  0  0  0  0  0
   -0.2410   -1.2117   41.1255 C   0  0  2  0  0  0  0  0  0  0  0  0
    1.1972   -1.1857   40.8645 O   0  0  0  0  0  0  0  0  0  0  0  0
    3.5085    0.5501   39.1872 C   0  0  2  0  0  0  0  0  0  0  0  0
    3.2158    0.7238   40.5699 O   0  0  0  0  0  0  0  0  0  0  0  0
    8.0188    0.6207   41.3751 C   0  0  0  0  0  0  0  0  0  0  0  0
    8.1311    0.8782   39.9007 O   0  0  0  0  0  0  0  0  0  0  0  0
   -0.4906   -1.0504   42.6066 C   0  0  0  0  0  0  0  0  0  0  0  0
    0.4914   -1.7488   43.3938 N   0  0  0  0  0  0  0  0  0  0  0  0
    4.6057    1.5818   38.7469 C   0  0  1  0  0  0  0  0  0  0  0  0
    5.7719    1.3814   39.5363 O   0  0  0  0  0  0  0  0  0  0  0  0
    7.4578   -1.0468   43.1617 C   0  0  0  0  0  0  0  0  0  0  0  0
    4.7666   -2.7783   42.0570 C   0  0  0  0  0  0  0  0  0  0  0  0
  1  2  1  6  0  0  0
  1  6  1  0  0  0  0
  1 21  1  0  0  0  0
  3  4  1  6  0  0  0
  3  8  1  0  0  0  0
  3 28  1  0  0  0  0
  5  9  1  0  0  0  0
  5 25  1  0  0  0  0
  5 29  1  1  0  0  0
  6  7  1  6  0  0  0
  6 11  1  0  0  0  0
  8 12  1  0  0  0  0
  9 10  1  6  0  0  0
  9 14  1  0  0  0  0
 11 16  1  0  0  0  0
 12 13  1  6  0  0  0
 12 17  1  0  0  0  0
 14 15  1  6  0  0  0
 14 18  1  0  0  0  0
 15 31  1  0  0  0  0
 16 20  1  0  0  0  0
 17  2  1  1  0  0  0
 17 22  1  0  0  0  0
 18 19  1  6  0  0  0
 18 24  1  0  0  0  0
 18 30  1  0  0  0  0
 20 21  1  0  0  0  0
 20 26  1  1  0  0  0
 22 23  1  1  0  0  0
 22 28  1  0  0  0  0
 24 25  1  0  0  0  0
 26 27  1  0  0  0  0
 28 29  1  1  0  0  0
M  END
>  <CHROM.1>
-131.13305573,-77.31677362,-143.73165205,101.80551683,88.99531294,-22.65123725
3.82155970,-0.49717625,39.68536396,-3.12285185,-0.20322518,-1.05139011

>  <Name>
2et3_lig

>  <RI>
0

>  <Rbt.Current_Directory>
/home/itssahil/PROJECTS/Mol_Feturizer/New_Systems/rnas/2et3

>  <Rbt.Executable>
rbdock ($Id: //depot/dev/client3/rdock/2013.1/src/exe/rbdock.cxx#4 $)

>  <Rbt.Library>
libRbt.so (2013.1, Build901 2013/11/27)

>  <Rbt.Parameter_File>
/export/apps/rDock/src/rDock_2013.1_src/data/scripts/dock_solv.prm

>  <Rbt.Receptor>
prm/blind_docking_100.prm

>  <SCORE>
-8.37907

>  <SCORE.INTER>
-14.5094

>  <SCORE.INTER.CONST>
1

>  <SCORE.INTER.POLAR>
0

>  <SCORE.INTER.ROT>
6

>  <SCORE.INTER.SOLV>
14.1785

>  <SCORE.INTER.VDW>
-21.9991

>  <SCORE.INTER.norm>
-0.468044

>  <SCORE.INTRA>
4.21561

>  <SCORE.INTRA.DIHEDRAL>
-0.3201

>  <SCORE.INTRA.DIHEDRAL.0>
22.2484

>  <SCORE.INTRA.POLAR>
0

>  <SCORE.INTRA.POLAR.0>
0

>  <SCORE.INTRA.REPUL>
0

>  <SCORE.INTRA.REPUL.0>
0

>  <SCORE.INTRA.SOLV>
1.6401

>  <SCORE.INTRA.SOLV.lig_0>
-75.7198

>  <SCORE.INTRA.VDW>
3.55562

>  <SCORE.INTRA.VDW.0>
-3.34171

>  <SCORE.INTRA.norm>
0.135988

>  <SCORE.RESTR>
1.91468

>  <SCORE.RESTR.CAVITY>
1.91468

>  <SCORE.RESTR.norm>
0.061764

>  <SCORE.SYSTEM>
0

>  <SCORE.SYSTEM.CONST>
0

>  <SCORE.SYSTEM.DIHEDRAL>
0

>  <SCORE.SYSTEM.SOLV>
0

>  <SCORE.SYSTEM.norm>
0

>  <SCORE.heavy>
31

>  <SCORE.norm>
-0.270293

>  <RMSD>
14.160

$$$$
2et3_lig
 OpenBabel11021811423D
libRbt.so/2013.1/901 2013/11/27
 31 33  0  0  0  0  0  0  0  0999 V2000
    0.1286   -1.9220   39.9960 C   0  0  2  0  0  0  0  0  0  0  0  0
    0.0312   -0.6992   39.2204 O   0  0  0  0  0  0  0  0  0  0  0  0
    3.9210   -0.3100   37.4813 C   0  0  2  0  0  0  0  0  0  0  0  0
    5.1052    0.3073   36.9694 N   0  0  0  0  0  0  0  0  0  0  0  0
    5.5488   -1.6554   39.4538 C   0  0  2  0  0  0  0  0  0  0  0  0
   -1.1837   -2.7066   39.8936 C   0  0  2  0  0  0  0  0  0  0  0  0
   -1.4633   -2.9493   38.5119 N   0  0  0  0  0  0  0  0  0  0  0  0
    2.6862    0.1546   36.6437 C   0  0  0  0  0  0  0  0  0  0  0  0
    6.2000   -2.0702   40.7915 C   0  0  2  0  0  0  0  0  0  0  0  0
    5.1925   -2.1989   41.7697 O   0  0  0  0  0  0  0  0  0  0  0  0
   -2.3453   -1.9233   40.5953 C   0  0  0  0  0  0  0  0  0  0  0  0
    1.3777   -0.5128   37.2053 C   0  0  2  0  0  0  0  0  0  0  0  0
    0.2116   -0.0779   36.4199 N   0  0  0  0  0  0  0  0  0  0  0  0
    7.2618   -0.9624   41.1817 C   0  0  1  0  0  0  0  0  0  0  0  0
    7.9111   -1.2648   42.4992 N   0  0  0  0  0  0  0  0  0  0  0  0
   -1.9620   -1.7342   42.0967 C   0  0  0  0  0  0  0  0  0  0  0  0
    1.1998   -0.1288   38.7243 C   0  0  2  0  0  0  0  0  0  0  0  0
    8.3887   -0.8349   40.0253 C   0  0  1  0  0  0  0  0  0  0  0  0
    9.1112   -2.0397   39.8768 O   0  0  0  0  0  0  0  0  0  0  0  0
   -0.5824   -0.9432   42.1723 C   0  0  2  0  0  0  0  0  0  0  0  0
    0.4760   -1.6006   41.4075 O   0  0  0  0  0  0  0  0  0  0  0  0
    2.4609   -0.6082   39.5413 C   0  0  2  0  0  0  0  0  0  0  0  0
    2.3191   -0.2742   40.9183 O   0  0  0  0  0  0  0  0  0  0  0  0
    7.6904   -0.5309   38.6639 C   0  0  0  0  0  0  0  0  0  0  0  0
    6.5948   -1.5219   38.3988 O   0  0  0  0  0  0  0  0  0  0  0  0
   -0.1002   -0.6748   43.5784 C   0  0  0  0  0  0  0  0  0  0  0  0
    0.5273   -1.8328   44.1590 N   0  0  0  0  0  0  0  0  0  0  0  0
    3.7556    0.0661   38.9658 C   0  0  1  0  0  0  0  0  0  0  0  0
    4.8811   -0.3839   39.7103 O   0  0  0  0  0  0  0  0  0  0  0  0
    9.4901    0.2114   40.2441 C   0  0  0  0  0  0  0  0  0  0  0  0
    7.1156   -1.0142   43.7127 C   0  0  0  0  0  0  0  0  0  0  0  0
  1  2  1  6  0  0  0
  1  6  1  0  0  0  0
  1 21  1  0  0  0  0
  3  4  1  6  0  0  0
  3  8  1  0  0  0  0
  3 28  1  0  0  0  0
  5  9  1  0  0  0  0
  5 25  1  0  0  0  0
  5 29  1  1  0  0  0
  6  7  1  6  0  0  0
  6 11  1  0  0  0  0
  8 12  1  0  0  0  0
  9 10  1  1  0  0  0
  9 14  1  0  0  0  0
 11 16  1  0  0  0  0
 12 13  1  6  0  0  0
 12 17  1  0  0  0  0
 14 15  1  1  0  0  0
 14 18  1  0  0  0  0
 15 31  1  0  0  0  0
 16 20  1  0  0  0  0
 17  2  1  1  0  0  0
 17 22  1  0  0  0  0
 18 19  1  6  0  0  0
 18 24  1  0  0  0  0
 18 30  1  0  0  0  0
 20 21  1  0  0  0  0
 20 26  1  1  0  0  0
 22 23  1  1  0  0  0
 22 28  1  0  0  0  0
 24 25  1  0  0  0  0
 26 27  1  0  0  0  0
 28 29  1  1  0  0  0
M  END
>  <CHROM.1>
-154.10016499,-153.63191764,-75.53999629,99.75745315,79.46310130,-38.26074085
3.32769359,-1.05643604,40.05207541,-3.11473832,-0.05385833,-1.38096967

>  <Name>
2et3_lig

>  <RI>
0

>  <Rbt.Current_Directory>
/home/itssahil/PROJECTS/Mol_Feturizer/New_Systems/rnas/2et3

>  <Rbt.Executable>
rbdock ($Id: //depot/dev/client3/rdock/2013.1/src/exe/rbdock.cxx#4 $)

>  <Rbt.Library>
libRbt.so (2013.1, Build901 2013/11/27)

>  <Rbt.Parameter_File>
/export/apps/rDock/src/rDock_2013.1_src/data/scripts/dock_solv.prm

>  <Rbt.Receptor>
prm/blind_docking_60.prm

>  <SCORE>
-7.04323

>  <SCORE.INTER>
-9.90573

>  <SCORE.INTER.CONST>
1

>  <SCORE.INTER.POLAR>
0

>  <SCORE.INTER.ROT>
6

>  <SCORE.INTER.SOLV>
9.50464

>  <SCORE.INTER.VDW>
-17.372

>  <SCORE.INTER.norm>
-0.31954

>  <SCORE.INTRA>
1.02956

>  <SCORE.INTRA.DIHEDRAL>
-7.49444

>  <SCORE.INTRA.DIHEDRAL.0>
22.2484

>  <SCORE.INTRA.POLAR>
0

>  <SCORE.INTRA.POLAR.0>
0

>  <SCORE.INTRA.REPUL>
0

>  <SCORE.INTRA.REPUL.0>
0

>  <SCORE.INTRA.SOLV>
0.726324

>  <SCORE.INTRA.SOLV.lig_0>
-75.7198

>  <SCORE.INTRA.VDW>
4.41362

>  <SCORE.INTRA.VDW.0>
-3.34171

>  <SCORE.INTRA.norm>
0.0332117

>  <SCORE.RESTR>
1.83293

>  <SCORE.RESTR.CAVITY>
1.83293

>  <SCORE.RESTR.norm>
0.0591267

>  <SCORE.SYSTEM>
0

>  <SCORE.SYSTEM.CONST>
0

>  <SCORE.SYSTEM.DIHEDRAL>
0

>  <SCORE.SYSTEM.SOLV>
0

>  <SCORE.SYSTEM.norm>
0

>  <SCORE.heavy>
31

>  <SCORE.norm>
-0.227201

>  <RMSD>
14.171

$$$$
2et3_lig
 OpenBabel11021811423D
libRbt.so/2013.1/901 2013/11/27
 31 33  0  0  0  0  0  0  0  0999 V2000
    0.0493   -2.5538   39.9912 C   0  0  2  0  0  0  0  0  0  0  0  0
    0.2724   -1.5608   38.9565 O   0  0  0  0  0  0  0  0  0  0  0  0
    3.7522    0.8962   38.5558 C   0  0  2  0  0  0  0  0  0  0  0  0
    4.6889    1.9463   38.8117 N   0  0  0  0  0  0  0  0  0  0  0  0
    5.4910   -1.6777   39.3597 C   0  0  2  0  0  0  0  0  0  0  0  0
   -1.3602   -3.1390   39.8525 C   0  0  2  0  0  0  0  0  0  0  0  0
   -1.5045   -3.6731   38.5334 N   0  0  0  0  0  0  0  0  0  0  0  0
    2.3645    1.5129   38.1866 C   0  0  0  0  0  0  0  0  0  0  0  0
    6.3768   -2.4494   40.3625 C   0  0  2  0  0  0  0  0  0  0  0  0
    5.5728   -2.9005   41.4295 O   0  0  0  0  0  0  0  0  0  0  0  0
   -2.4391   -2.0452   40.1606 C   0  0  0  0  0  0  0  0  0  0  0  0
    1.3255    0.3649   37.9120 C   0  0  2  0  0  0  0  0  0  0  0  0
    0.0165    0.9406   37.5643 N   0  0  0  0  0  0  0  0  0  0  0  0
    7.5188   -1.4712   40.8582 C   0  0  1  0  0  0  0  0  0  0  0  0
    8.4016   -2.1297   41.8761 N   0  0  0  0  0  0  0  0  0  0  0  0
   -2.2183   -1.5479   41.6237 C   0  0  0  0  0  0  0  0  0  0  0  0
    1.2073   -0.5557   39.1867 C   0  0  2  0  0  0  0  0  0  0  0  0
    8.4059   -0.9636   39.6015 C   0  0  1  0  0  0  0  0  0  0  0  0
    9.0586   -2.0422   38.9643 O   0  0  0  0  0  0  0  0  0  0  0  0
   -0.7387   -0.9731   41.7462 C   0  0  2  0  0  0  0  0  0  0  0  0
    0.2702   -1.9468   41.3324 O   0  0  0  0  0  0  0  0  0  0  0  0
    2.6220   -1.1603   39.5345 C   0  0  2  0  0  0  0  0  0  0  0  0
    2.5371   -1.9991   40.6820 O   0  0  0  0  0  0  0  0  0  0  0  0
    7.4667   -0.2923   38.5524 C   0  0  0  0  0  0  0  0  0  0  0  0
    6.3181   -1.1976   38.2151 O   0  0  0  0  0  0  0  0  0  0  0  0
   -0.3951   -0.4379   43.1163 C   0  0  0  0  0  0  0  0  0  0  0  0
    0.3304   -1.4021   43.9009 N   0  0  0  0  0  0  0  0  0  0  0  0
    3.6446   -0.0009   39.8033 C   0  0  1  0  0  0  0  0  0  0  0  0
    4.9142   -0.5657   40.1075 O   0  0  0  0  0  0  0  0  0  0  0  0
    9.5525    0.0086   39.9111 C   0  0  0  0  0  0  0  0  0  0  0  0
    7.9923   -2.0262   43.2867 C   0  0  0  0  0  0  0  0  0  0  0  0
  1  2  1  6  0  0  0
  1  6  1  0  0  0  0
  1 21  1  0  0  0  0
  3  4  1  1  0  0  0
  3  8  1  0  0  0  0
  3 28  1  0  0  0  0
  5  9  1  0  0  0  0
  5 25  1  0  0  0  0
  5 29  1  1  0  0  0
  6  7  1  6  0  0  0
  6 11  1  0  0  0  0
  8 12  1  0  0  0  0
  9 10  1  1  0  0  0
  9 14  1  0  0  0  0
 11 16  1  0  0  0  0
 12 13  1  1  0  0  0
 12 17  1  0  0  0  0
 14 15  1  1  0  0  0
 14 18  1  0  0  0  0
 15 31  1  0  0  0  0
 16 20  1  0  0  0  0
 17  2  1  6  0  0  0
 17 22  1  0  0  0  0
 18 19  1  6  0  0  0
 18 24  1  0  0  0  0
 18 30  1  0  0  0  0
 20 21  1  0  0  0  0
 20 26  1  1  0  0  0
 22 23  1  1  0  0  0
 22 28  1  0  0  0  0
 24 25  1  0  0  0  0
 26 27  1  0  0  0  0
 28 29  1  6  0  0  0
M  END
>  <CHROM.1>
154.66233544,-150.20373337,-88.34923532,177.61213781,97.90183042,-76.36386450
3.31719705,-1.14939248,40.07763208,-3.09587030,-0.02005621,-1.02217528

>  <Name>
2et3_lig

>  <RI>
0

>  <Rbt.Current_Directory>
/home/itssahil/PROJECTS/Mol_Feturizer/New_Systems/rnas/2et3

>  <Rbt.Executable>
rbdock ($Id: //depot/dev/client3/rdock/2013.1/src/exe/rbdock.cxx#4 $)

>  <Rbt.Library>
libRbt.so (2013.1, Build901 2013/11/27)

>  <Rbt.Parameter_File>
/export/apps/rDock/src/rDock_2013.1_src/data/scripts/dock_solv.prm

>  <Rbt.Receptor>
prm/blind_docking_60.prm

>  <SCORE>
-10.5778

>  <SCORE.INTER>
-9.71063

>  <SCORE.INTER.CONST>
1

>  <SCORE.INTER.POLAR>
0

>  <SCORE.INTER.ROT>
6

>  <SCORE.INTER.SOLV>
14.703

>  <SCORE.INTER.VDW>
-18.9747

>  <SCORE.INTER.norm>
-0.313246

>  <SCORE.INTRA>
-2.93602

>  <SCORE.INTRA.DIHEDRAL>
-10.4278

>  <SCORE.INTRA.DIHEDRAL.0>
22.2484

>  <SCORE.INTRA.POLAR>
0

>  <SCORE.INTRA.POLAR.0>
0

>  <SCORE.INTRA.REPUL>
0

>  <SCORE.INTRA.REPUL.0>
0

>  <SCORE.INTRA.SOLV>
-1.52307

>  <SCORE.INTRA.SOLV.lig_0>
-75.7198

>  <SCORE.INTRA.VDW>
3.03943

>  <SCORE.INTRA.VDW.0>
-3.34171

>  <SCORE.INTRA.norm>
-0.0947103

>  <SCORE.RESTR>
2.06884

>  <SCORE.RESTR.CAVITY>
2.06884

>  <SCORE.RESTR.norm>
0.0667368

>  <SCORE.SYSTEM>
0

>  <SCORE.SYSTEM.CONST>
0

>  <SCORE.SYSTEM.DIHEDRAL>
0

>  <SCORE.SYSTEM.SOLV>
0

>  <SCORE.SYSTEM.norm>
0

>  <SCORE.heavy>
31

>  <SCORE.norm>
-0.34122

>  <RMSD>
14.255

$$$$
2et3_lig
 OpenBabel11021811423D
libRbt.so/2013.1/901 2013/11/27
 31 33  0  0  0  0  0  0  0  0999 V2000
    0.0648   -2.5115   39.9601 C   0  0  2  0  0  0  0  0  0  0  0  0
    0.2984   -1.4873   38.9588 O   0  0  0  0  0  0  0  0  0  0  0  0
    3.8312    0.9066   38.6503 C   0  0  2  0  0  0  0  0  0  0  0  0
    4.7838    1.9343   38.9368 N   0  0  0  0  0  0  0  0  0  0  0  0
    5.5194   -1.6942   39.4263 C   0  0  2  0  0  0  0  0  0  0  0  0
   -1.3185   -3.1363   39.7493 C   0  0  2  0  0  0  0  0  0  0  0  0
   -1.3917   -3.6424   38.4134 N   0  0  0  0  0  0  0  0  0  0  0  0
    2.4619    1.5558   38.2685 C   0  0  0  0  0  0  0  0  0  0  0  0
    6.4143   -2.4799   40.4100 C   0  0  2  0  0  0  0  0  0  0  0  0
    5.6178   -2.9565   41.4715 O   0  0  0  0  0  0  0  0  0  0  0  0
   -2.4433   -2.0841   40.0373 C   0  0  0  0  0  0  0  0  0  0  0  0
    1.4054    0.4326   37.9601 C   0  0  2  0  0  0  0  0  0  0  0  0
    0.1136    1.0389   37.6004 N   0  0  0  0  0  0  0  0  0  0  0  0
    7.5527   -1.5046   40.9196 C   0  0  1  0  0  0  0  0  0  0  0  0
    8.4440   -2.1774   41.9205 N   0  0  0  0  0  0  0  0  0  0  0  0
   -2.2985   -1.6159   41.5194 C   0  0  0  0  0  0  0  0  0  0  0  0
    1.2488   -0.5042   39.2189 C   0  0  2  0  0  0  0  0  0  0  0  0
    8.4310   -0.9673   39.6692 C   0  0  1  0  0  0  0  0  0  0  0  0
    9.0872   -2.0294   39.0081 O   0  0  0  0  0  0  0  0  0  0  0  0
   -0.8442   -0.9990   41.7166 C   0  0  2  0  0  0  0  0  0  0  0  0
    0.2113   -1.9309   41.3230 O   0  0  0  0  0  0  0  0  0  0  0  0
    2.6457   -1.1415   39.5799 C   0  0  2  0  0  0  0  0  0  0  0  0
    2.5260   -1.9952   40.7133 O   0  0  0  0  0  0  0  0  0  0  0  0
    7.4831   -0.2814   38.6374 C   0  0  0  0  0  0  0  0  0  0  0  0
    6.3384   -1.1870   38.2876 O   0  0  0  0  0  0  0  0  0  0  0  0
   -0.5741   -0.4869   43.1119 C   0  0  0  0  0  0  0  0  0  0  0  0
    0.7629    0.0299   43.2427 N   0  0  0  0  0  0  0  0  0  0  0  0
    3.6861   -0.0065   39.8823 C   0  0  1  0  0  0  0  0  0  0  0  0
    4.9394   -0.6005   40.1982 O   0  0  0  0  0  0  0  0  0  0  0  0
    9.5732    0.0055   39.9925 C   0  0  0  0  0  0  0  0  0  0  0  0
    8.0274   -2.1254   43.3319 C   0  0  0  0  0  0  0  0  0  0  0  0
  1  2  1  6  0  0  0
  1  6  1  0  0  0  0
  1 21  1  0  0  0  0
  3  4  1  1  0  0  0
  3  8  1  0  0  0  0
  3 28  1  0  0  0  0
  5  9  1  0  0  0  0
  5 25  1  0  0  0  0
  5 29  1  1  0  0  0
  6  7  1  6  0  0  0
  6 11  1  0  0  0  0
  8 12  1  0  0  0  0
  9 10  1  1  0  0  0
  9 14  1  0  0  0  0
 11 16  1  0  0  0  0
 12 13  1  1  0  0  0
 12 17  1  0  0  0  0
 14 15  1  1  0  0  0
 14 18  1  0  0  0  0
 15 31  1  0  0  0  0
 16 20  1  0  0  0  0
 17  2  1  6  0  0  0
 17 22  1  0  0  0  0
 18 19  1  6  0  0  0
 18 24  1  0  0  0  0
 18 30  1  0  0  0  0
 20 21  1  0  0  0  0
 20 26  1  1  0  0  0
 22 23  1  1  0  0  0
 22 28  1  0  0  0  0
 24 25  1  0  0  0  0
 26 27  1  0  0  0  0
 28 29  1  6  0  0  0
M  END
>  <CHROM.1>
158.40576079,-152.46166128,-87.24068501,175.99662124,178.62409873,-75.05884811
3.35214846,-1.10485121,40.08266472,-3.12146295,-0.01828124,-0.98237445

>  <Name>
2et3_lig

>  <RI>
0

>  <Rbt.Current_Directory>
/home/itssahil/PROJECTS/Mol_Feturizer/New_Systems/rnas/2et3

>  <Rbt.Executable>
rbdock ($Id: //depot/dev/client3/rdock/2013.1/src/exe/rbdock.cxx#4 $)

>  <Rbt.Library>
libRbt.so (2013.1, Build901 2013/11/27)

>  <Rbt.Parameter_File>
/export/apps/rDock/src/rDock_2013.1_src/data/scripts/dock_solv.prm

>  <Rbt.Receptor>
prm/blind_docking_60.prm

>  <SCORE>
-12.4027

>  <SCORE.INTER>
-8.96693

>  <SCORE.INTER.CONST>
1

>  <SCORE.INTER.POLAR>
0

>  <SCORE.INTER.ROT>
6

>  <SCORE.INTER.SOLV>
18.7015

>  <SCORE.INTER.VDW>
-19.8118

>  <SCORE.INTER.norm>
-0.289256

>  <SCORE.INTRA>
-5.66731

>  <SCORE.INTRA.DIHEDRAL>
-15.2447

>  <SCORE.INTRA.DIHEDRAL.0>
22.2484

>  <SCORE.INTRA.POLAR>
0

>  <SCORE.INTRA.POLAR.0>
0

>  <SCORE.INTRA.REPUL>
0

>  <SCORE.INTRA.REPUL.0>
0

>  <SCORE.INTRA.SOLV>
-1.21888

>  <SCORE.INTRA.SOLV.lig_0>
-75.7198

>  <SCORE.INTRA.VDW>
2.56447

>  <SCORE.INTRA.VDW.0>
-3.34171

>  <SCORE.INTRA.norm>
-0.182816

>  <SCORE.RESTR>
2.23152

>  <SCORE.RESTR.CAVITY>
2.23152

>  <SCORE.RESTR.norm>
0.0719844

>  <SCORE.SYSTEM>
0

>  <SCORE.SYSTEM.CONST>
0

>  <SCORE.SYSTEM.DIHEDRAL>
0

>  <SCORE.SYSTEM.SOLV>
0

>  <SCORE.SYSTEM.norm>
0

>  <SCORE.heavy>
31

>  <SCORE.norm>
-0.400088

>  <RMSD>
14.273

$$$$
