2et8_lig
 OpenBabel11021811433D
libRbt.so/2013.1/901 2013/11/27
 22 23  0  0  0  0  0  0  0  0999 V2000
   26.1869   17.2252   35.2897 N   0  0  0  0  0  0  0  0  0  0  0  0
   23.8661   14.9956   39.0647 N   0  0  0  0  0  0  0  0  0  0  0  0
   22.9915   10.9502   39.3104 N   0  0  0  0  0  0  0  0  0  0  0  0
   21.6904   15.2952   34.6712 O   0  0  0  0  0  0  0  0  0  0  0  0
   22.5467   15.9627   35.6306 C   0  0  2  0  0  0  0  0  0  0  0  0
   18.6453   15.3648   36.9069 N   0  0  0  0  0  0  0  0  0  0  0  0
   23.8187   17.0800   33.8037 O   0  0  0  0  0  0  0  0  0  0  0  0
   23.9470   16.2538   34.9677 C   0  0  1  0  0  0  0  0  0  0  0  0
   21.5276   14.8169   37.4470 O   0  0  0  0  0  0  0  0  0  0  0  0
   24.8576   16.9627   35.9400 C   0  0  1  0  0  0  0  0  0  0  0  0
   21.1410   12.5470   37.4267 O   0  0  0  0  0  0  0  0  0  0  0  0
   25.0316   16.0881   37.2029 C   0  0  0  0  0  0  0  0  0  0  0  0
   19.4932   12.5224   40.6833 O   0  0  0  0  0  0  0  0  0  0  0  0
   23.6246   15.8495   37.8248 C   0  0  1  0  0  0  0  0  0  0  0  0
   17.6823   14.0789   39.2222 O   0  0  0  0  0  0  0  0  0  0  0  0
   22.7654   15.0429   36.8968 C   0  0  2  0  0  0  0  0  0  0  0  0
   20.6541   13.8916   36.8881 C   0  0  1  0  0  0  0  0  0  0  0  0
   21.0295   12.4347   38.9134 C   0  0  2  0  0  0  0  0  0  0  0  0
   21.5086   11.0480   39.3905 C   0  0  0  0  0  0  0  0  0  0  0  0
   19.5923   12.6130   39.3027 C   0  0  2  0  0  0  0  0  0  0  0  0
   19.0624   13.9437   38.8534 C   0  0  1  0  0  0  0  0  0  0  0  0
   19.1835   14.0359   37.3710 C   0  0  1  0  0  0  0  0  0  0  0  0
  5  4  1  6  0  0  0
  5  8  1  0  0  0  0
  5 16  1  0  0  0  0
  8  7  1  6  0  0  0
  8 10  1  0  0  0  0
 10  1  1  6  0  0  0
 10 12  1  0  0  0  0
 11 18  1  0  0  0  0
 12 14  1  0  0  0  0
 14  2  1  1  0  0  0
 14 16  1  0  0  0  0
 16  9  1  1  0  0  0
 17  9  1  1  0  0  0
 17 11  1  0  0  0  0
 17 22  1  0  0  0  0
 18 19  1  6  0  0  0
 18 20  1  0  0  0  0
 19  3  1  0  0  0  0
 20 13  1  1  0  0  0
 20 21  1  0  0  0  0
 21 15  1  6  0  0  0
 21 22  1  0  0  0  0
 22  6  1  1  0  0  0
M  END
>  <CHROM.1>
77.88699656,81.22628236,73.64881150,21.82381521,14.48941761,37.40662885,-0.84690738
0.03454162,2.33778435

>  <Name>
2et8_lig

>  <RI>
3.42619e+07

>  <Rbt.Current_Directory>
/home/itssahil/PROJECTS/Mol_Feturizer/New_Systems/rnas/2et8

>  <Rbt.Executable>
rbdock ($Id: //depot/dev/client3/rdock/2013.1/src/exe/rbdock.cxx#4 $)

>  <Rbt.Library>
libRbt.so (2013.1, Build901 2013/11/27)

>  <Rbt.Parameter_File>
/export/apps/rDock/src/rDock_2013.1_src/data/scripts/dock_solv.prm

>  <Rbt.Receptor>
prm/pocket_docking_4.prm

>  <SCORE>
-15.2324

>  <SCORE.INTER>
-14.3338

>  <SCORE.INTER.CONST>
1

>  <SCORE.INTER.POLAR>
-0.959166

>  <SCORE.INTER.ROT>
3

>  <SCORE.INTER.SOLV>
18.91

>  <SCORE.INTER.VDW>
-18.262

>  <SCORE.INTER.norm>
-0.651537

>  <SCORE.INTRA>
-0.898559

>  <SCORE.INTRA.DIHEDRAL>
-0.773872

>  <SCORE.INTRA.DIHEDRAL.0>
4.99603

>  <SCORE.INTRA.POLAR>
0

>  <SCORE.INTRA.POLAR.0>
0

>  <SCORE.INTRA.REPUL>
0

>  <SCORE.INTRA.REPUL.0>
0

>  <SCORE.INTRA.SOLV>
0.161831

>  <SCORE.INTRA.SOLV.lig_0>
-74.884

>  <SCORE.INTRA.VDW>
-0.592538

>  <SCORE.INTRA.VDW.0>
-0.858933

>  <SCORE.INTRA.norm>
-0.0408436

>  <SCORE.RESTR>
0

>  <SCORE.RESTR.CAVITY>
0

>  <SCORE.RESTR.norm>
0

>  <SCORE.SYSTEM>
0

>  <SCORE.SYSTEM.CONST>
0

>  <SCORE.SYSTEM.DIHEDRAL>
0

>  <SCORE.SYSTEM.SOLV>
0

>  <SCORE.SYSTEM.norm>
0

>  <SCORE.heavy>
22

>  <SCORE.norm>
-0.692381

>  <RMSD>
0.428

$$$$
2et8_lig
 OpenBabel11021811433D
libRbt.so/2013.1/901 2013/11/27
 22 23  0  0  0  0  0  0  0  0999 V2000
   26.1643   17.2020   35.2659 N   0  0  0  0  0  0  0  0  0  0  0  0
   23.8422   15.0073   39.0606 N   0  0  0  0  0  0  0  0  0  0  0  0
   23.0148   10.9715   39.3168 N   0  0  0  0  0  0  0  0  0  0  0  0
   21.6720   15.2578   34.6613 O   0  0  0  0  0  0  0  0  0  0  0  0
   22.5258   15.9367   35.6149 C   0  0  2  0  0  0  0  0  0  0  0  0
   18.6163   15.3117   36.8992 N   0  0  0  0  0  0  0  0  0  0  0  0
   23.7984   17.0373   33.7783 O   0  0  0  0  0  0  0  0  0  0  0  0
   23.9266   16.2234   34.9509 C   0  0  1  0  0  0  0  0  0  0  0  0
   21.5063   14.8079   37.4416 O   0  0  0  0  0  0  0  0  0  0  0  0
   24.8345   16.9438   35.9171 C   0  0  1  0  0  0  0  0  0  0  0  0
   21.1464   12.5335   37.4640 O   0  0  0  0  0  0  0  0  0  0  0  0
   25.0083   16.0826   37.1891 C   0  0  0  0  0  0  0  0  0  0  0  0
   19.5071   12.5494   40.7249 O   0  0  0  0  0  0  0  0  0  0  0  0
   23.6009   15.8480   37.8116 C   0  0  1  0  0  0  0  0  0  0  0  0
   17.6743   14.0574   39.2403 O   0  0  0  0  0  0  0  0  0  0  0  0
   22.7444   15.0303   36.8908 C   0  0  2  0  0  0  0  0  0  0  0  0
   20.6423   13.8622   36.9022 C   0  0  1  0  0  0  0  0  0  0  0  0
   21.0400   12.4473   38.9529 C   0  0  2  0  0  0  0  0  0  0  0  0
   21.5366   11.0754   39.4541 C   0  0  0  0  0  0  0  0  0  0  0  0
   19.6017   12.6158   39.3426 C   0  0  2  0  0  0  0  0  0  0  0  0
   19.0550   13.9317   38.8703 C   0  0  1  0  0  0  0  0  0  0  0  0
   19.1713   13.9980   37.3862 C   0  0  1  0  0  0  0  0  0  0  0  0
  5  4  1  6  0  0  0
  5  8  1  0  0  0  0
  5 16  1  0  0  0  0
  8  7  1  6  0  0  0
  8 10  1  0  0  0  0
 10  1  1  6  0  0  0
 10 12  1  0  0  0  0
 11 18  1  0  0  0  0
 12 14  1  0  0  0  0
 14  2  1  1  0  0  0
 14 16  1  0  0  0  0
 16  9  1  1  0  0  0
 17  9  1  1  0  0  0
 17 11  1  0  0  0  0
 17 22  1  0  0  0  0
 18 19  1  6  0  0  0
 18 20  1  0  0  0  0
 19  3  1  0  0  0  0
 20 13  1  1  0  0  0
 20 21  1  0  0  0  0
 21 15  1  6  0  0  0
 21 22  1  0  0  0  0
 22  6  1  1  0  0  0
M  END
>  <CHROM.1>
78.78250151,80.67553271,71.19531755,21.81409755,14.47702579,37.41260619,-0.85043188
0.03766047,2.32423962

>  <Name>
2et8_lig

>  <RI>
3.42619e+07

>  <Rbt.Current_Directory>
/home/itssahil/PROJECTS/Mol_Feturizer/New_Systems/rnas/2et8

>  <Rbt.Executable>
rbdock ($Id: //depot/dev/client3/rdock/2013.1/src/exe/rbdock.cxx#4 $)

>  <Rbt.Library>
libRbt.so (2013.1, Build901 2013/11/27)

>  <Rbt.Parameter_File>
/export/apps/rDock/src/rDock_2013.1_src/data/scripts/dock_solv.prm

>  <Rbt.Receptor>
prm/pocket_docking_4.prm

>  <SCORE>
-15.2636

>  <SCORE.INTER>
-14.2777

>  <SCORE.INTER.CONST>
1

>  <SCORE.INTER.POLAR>
-0.959166

>  <SCORE.INTER.ROT>
3

>  <SCORE.INTER.SOLV>
18.9272

>  <SCORE.INTER.VDW>
-18.2303

>  <SCORE.INTER.norm>
-0.648985

>  <SCORE.INTRA>
-0.985898

>  <SCORE.INTRA.DIHEDRAL>
-0.935568

>  <SCORE.INTRA.DIHEDRAL.0>
4.99603

>  <SCORE.INTRA.POLAR>
0

>  <SCORE.INTRA.POLAR.0>
0

>  <SCORE.INTRA.REPUL>
0

>  <SCORE.INTRA.REPUL.0>
0

>  <SCORE.INTRA.SOLV>
0.232566

>  <SCORE.INTRA.SOLV.lig_0>
-74.884

>  <SCORE.INTRA.VDW>
-0.634396

>  <SCORE.INTRA.VDW.0>
-0.858933

>  <SCORE.INTRA.norm>
-0.0448135

>  <SCORE.RESTR>
0

>  <SCORE.RESTR.CAVITY>
0

>  <SCORE.RESTR.norm>
0

>  <SCORE.SYSTEM>
0

>  <SCORE.SYSTEM.CONST>
0

>  <SCORE.SYSTEM.DIHEDRAL>
0

>  <SCORE.SYSTEM.SOLV>
0

>  <SCORE.SYSTEM.norm>
0

>  <SCORE.heavy>
22

>  <SCORE.norm>
-0.693799

>  <RMSD>
0.444

$$$$
2et8_lig
 OpenBabel11021811433D
libRbt.so/2013.1/901 2013/11/27
 22 23  0  0  0  0  0  0  0  0999 V2000
   26.2338   17.1783   35.3653 N   0  0  0  0  0  0  0  0  0  0  0  0
   23.8396   14.9501   39.0951 N   0  0  0  0  0  0  0  0  0  0  0  0
   22.9966   10.9641   39.3103 N   0  0  0  0  0  0  0  0  0  0  0  0
   21.7164   15.3203   34.6813 O   0  0  0  0  0  0  0  0  0  0  0  0
   22.5720   15.9667   35.6558 C   0  0  2  0  0  0  0  0  0  0  0  0
   18.6321   15.3428   36.8965 N   0  0  0  0  0  0  0  0  0  0  0  0
   23.8800   17.0810   33.8527 O   0  0  0  0  0  0  0  0  0  0  0  0
   23.9835   16.2428   35.0106 C   0  0  1  0  0  0  0  0  0  0  0  0
   21.5165   14.8201   37.4508 O   0  0  0  0  0  0  0  0  0  0  0  0
   24.8937   16.9297   35.9989 C   0  0  1  0  0  0  0  0  0  0  0  0
   21.1454   12.5475   37.4521 O   0  0  0  0  0  0  0  0  0  0  0  0
   25.0411   16.0416   37.2557 C   0  0  0  0  0  0  0  0  0  0  0  0
   19.4878   12.5442   40.7038 O   0  0  0  0  0  0  0  0  0  0  0  0
   23.6241   15.8183   37.8603 C   0  0  1  0  0  0  0  0  0  0  0  0
   17.6708   14.0735   39.2216 O   0  0  0  0  0  0  0  0  0  0  0  0
   22.7634   15.0326   36.9160 C   0  0  2  0  0  0  0  0  0  0  0  0
   20.6510   13.8833   36.8986 C   0  0  1  0  0  0  0  0  0  0  0  0
   21.0301   12.4493   38.9395 C   0  0  2  0  0  0  0  0  0  0  0  0
   21.5172   11.0708   39.4320 C   0  0  0  0  0  0  0  0  0  0  0  0
   19.5906   12.6217   39.3226 C   0  0  2  0  0  0  0  0  0  0  0  0
   19.0529   13.9441   38.8583 C   0  0  1  0  0  0  0  0  0  0  0  0
   19.1780   14.0223   37.3755 C   0  0  1  0  0  0  0  0  0  0  0  0
  5  4  1  6  0  0  0
  5  8  1  0  0  0  0
  5 16  1  0  0  0  0
  8  7  1  6  0  0  0
  8 10  1  0  0  0  0
 10  1  1  6  0  0  0
 10 12  1  0  0  0  0
 11 18  1  0  0  0  0
 12 14  1  0  0  0  0
 14  2  1  1  0  0  0
 14 16  1  0  0  0  0
 16  9  1  1  0  0  0
 17  9  1  1  0  0  0
 17 11  1  0  0  0  0
 17 22  1  0  0  0  0
 18 19  1  6  0  0  0
 18 20  1  0  0  0  0
 19  3  1  0  0  0  0
 20 13  1  1  0  0  0
 20 21  1  0  0  0  0
 21 15  1  6  0  0  0
 21 22  1  0  0  0  0
 22  6  1  1  0  0  0
M  END
>  <CHROM.1>
79.86521869,80.09255327,71.56305475,21.83168249,14.48285807,37.43116736,-0.83668217
0.03722287,2.33401940

>  <Name>
2et8_lig

>  <RI>
0

>  <Rbt.Current_Directory>
/home/itssahil/PROJECTS/Mol_Feturizer/New_Systems/rnas/2et8

>  <Rbt.Executable>
rbdock ($Id: //depot/dev/client3/rdock/2013.1/src/exe/rbdock.cxx#4 $)

>  <Rbt.Library>
libRbt.so (2013.1, Build901 2013/11/27)

>  <Rbt.Parameter_File>
/export/apps/rDock/src/rDock_2013.1_src/data/scripts/dock_solv.prm

>  <Rbt.Receptor>
prm/pocket_docking_3.prm

>  <SCORE>
-15.3191

>  <SCORE.INTER>
-14.3865

>  <SCORE.INTER.CONST>
1

>  <SCORE.INTER.POLAR>
-0.959166

>  <SCORE.INTER.ROT>
3

>  <SCORE.INTER.SOLV>
18.8476

>  <SCORE.INTER.VDW>
-18.2763

>  <SCORE.INTER.norm>
-0.65393

>  <SCORE.INTRA>
-0.932688

>  <SCORE.INTRA.DIHEDRAL>
-0.833266

>  <SCORE.INTRA.DIHEDRAL.0>
4.99603

>  <SCORE.INTRA.POLAR>
0

>  <SCORE.INTRA.POLAR.0>
0

>  <SCORE.INTRA.REPUL>
0

>  <SCORE.INTRA.REPUL.0>
0

>  <SCORE.INTRA.SOLV>
0.335926

>  <SCORE.INTRA.SOLV.lig_0>
-74.884

>  <SCORE.INTRA.VDW>
-0.684018

>  <SCORE.INTRA.VDW.0>
-0.858933

>  <SCORE.INTRA.norm>
-0.0423949

>  <SCORE.RESTR>
0

>  <SCORE.RESTR.CAVITY>
0

>  <SCORE.RESTR.norm>
0

>  <SCORE.SYSTEM>
0

>  <SCORE.SYSTEM.CONST>
0

>  <SCORE.SYSTEM.DIHEDRAL>
0

>  <SCORE.SYSTEM.SOLV>
0

>  <SCORE.SYSTEM.norm>
0

>  <SCORE.heavy>
22

>  <SCORE.norm>
-0.696325

>  <RMSD>
0.445

$$$$
2et8_lig
 OpenBabel11021811433D
libRbt.so/2013.1/901 2013/11/27
 22 23  0  0  0  0  0  0  0  0999 V2000
   26.4286   17.2017   35.4911 N   0  0  0  0  0  0  0  0  0  0  0  0
   23.8992   15.0109   39.1531 N   0  0  0  0  0  0  0  0  0  0  0  0
   23.0666   10.9698   39.2518 N   0  0  0  0  0  0  0  0  0  0  0  0
   21.9406   15.3325   34.6601 O   0  0  0  0  0  0  0  0  0  0  0  0
   22.7592   15.9899   35.6586 C   0  0  2  0  0  0  0  0  0  0  0  0
   18.7695   15.4004   36.8108 N   0  0  0  0  0  0  0  0  0  0  0  0
   24.1325   17.0863   33.8934 O   0  0  0  0  0  0  0  0  0  0  0  0
   24.1935   16.2605   35.0632 C   0  0  1  0  0  0  0  0  0  0  0  0
   21.6386   14.8614   37.4254 O   0  0  0  0  0  0  0  0  0  0  0  0
   25.0661   16.9586   36.0772 C   0  0  1  0  0  0  0  0  0  0  0  0
   21.2637   12.5900   37.3758 O   0  0  0  0  0  0  0  0  0  0  0  0
   25.1674   16.0840   37.3480 C   0  0  0  0  0  0  0  0  0  0  0  0
   19.5274   12.5305   40.5856 O   0  0  0  0  0  0  0  0  0  0  0  0
   23.7291   15.8658   37.9020 C   0  0  1  0  0  0  0  0  0  0  0  0
   17.7496   14.0907   39.0881 O   0  0  0  0  0  0  0  0  0  0  0  0
   22.9043   15.0694   36.9349 C   0  0  2  0  0  0  0  0  0  0  0  0
   20.7852   13.9368   36.8352 C   0  0  1  0  0  0  0  0  0  0  0  0
   21.1120   12.4648   38.8579 C   0  0  2  0  0  0  0  0  0  0  0  0
   21.5847   11.0763   39.3366 C   0  0  0  0  0  0  0  0  0  0  0  0
   19.6639   12.6331   39.2091 C   0  0  2  0  0  0  0  0  0  0  0  0
   19.1400   13.9650   38.7563 C   0  0  1  0  0  0  0  0  0  0  0  0
   19.3012   14.0702   37.2786 C   0  0  1  0  0  0  0  0  0  0  0  0
  5  4  1  6  0  0  0
  5  8  1  0  0  0  0
  5 16  1  0  0  0  0
  8  7  1  6  0  0  0
  8 10  1  0  0  0  0
 10  1  1  6  0  0  0
 10 12  1  0  0  0  0
 11 18  1  0  0  0  0
 12 14  1  0  0  0  0
 14  2  1  1  0  0  0
 14 16  1  0  0  0  0
 16  9  1  1  0  0  0
 17  9  1  1  0  0  0
 17 11  1  0  0  0  0
 17 22  1  0  0  0  0
 18 19  1  6  0  0  0
 18 20  1  0  0  0  0
 19  3  1  0  0  0  0
 20 13  1  1  0  0  0
 20 21  1  0  0  0  0
 21 15  1  6  0  0  0
 21 22  1  0  0  0  0
 22  6  1  1  0  0  0
M  END
>  <CHROM.1>
78.58708812,79.29921589,71.68582287,21.95953587,14.50980843,37.40456346,-0.81122671
0.05364995,2.34169912

>  <Name>
2et8_lig

>  <RI>
0

>  <Rbt.Current_Directory>
/home/itssahil/PROJECTS/Mol_Feturizer/New_Systems/rnas/2et8

>  <Rbt.Executable>
rbdock ($Id: //depot/dev/client3/rdock/2013.1/src/exe/rbdock.cxx#4 $)

>  <Rbt.Library>
libRbt.so (2013.1, Build901 2013/11/27)

>  <Rbt.Parameter_File>
/export/apps/rDock/src/rDock_2013.1_src/data/scripts/dock_solv.prm

>  <Rbt.Receptor>
prm/pocket_docking_2.prm

>  <SCORE>
-15.1388

>  <SCORE.INTER>
-14.0398

>  <SCORE.INTER.CONST>
1

>  <SCORE.INTER.POLAR>
-0.959166

>  <SCORE.INTER.ROT>
3

>  <SCORE.INTER.SOLV>
19.2783

>  <SCORE.INTER.VDW>
-18.1888

>  <SCORE.INTER.norm>
-0.638174

>  <SCORE.INTRA>
-1.09895

>  <SCORE.INTRA.DIHEDRAL>
-1.14617

>  <SCORE.INTRA.DIHEDRAL.0>
4.99603

>  <SCORE.INTRA.POLAR>
0

>  <SCORE.INTRA.POLAR.0>
0

>  <SCORE.INTRA.REPUL>
0

>  <SCORE.INTRA.REPUL.0>
0

>  <SCORE.INTRA.SOLV>
0.186059

>  <SCORE.INTRA.SOLV.lig_0>
-74.884

>  <SCORE.INTRA.VDW>
-0.618896

>  <SCORE.INTRA.VDW.0>
-0.858933

>  <SCORE.INTRA.norm>
-0.0499523

>  <SCORE.RESTR>
0

>  <SCORE.RESTR.CAVITY>
0

>  <SCORE.RESTR.norm>
0

>  <SCORE.SYSTEM>
0

>  <SCORE.SYSTEM.CONST>
0

>  <SCORE.SYSTEM.DIHEDRAL>
0

>  <SCORE.SYSTEM.SOLV>
0

>  <SCORE.SYSTEM.norm>
0

>  <SCORE.heavy>
22

>  <SCORE.norm>
-0.688127

>  <RMSD>
0.446

$$$$
2et8_lig
 OpenBabel11021811433D
libRbt.so/2013.1/901 2013/11/27
 22 23  0  0  0  0  0  0  0  0999 V2000
   26.1597   17.2117   35.2666 N   0  0  0  0  0  0  0  0  0  0  0  0
   23.8449   15.0046   39.0584 N   0  0  0  0  0  0  0  0  0  0  0  0
   23.0080   10.9609   39.3188 N   0  0  0  0  0  0  0  0  0  0  0  0
   21.6721   15.2572   34.6606 O   0  0  0  0  0  0  0  0  0  0  0  0
   22.5246   15.9366   35.6150 C   0  0  2  0  0  0  0  0  0  0  0  0
   18.6208   15.3155   36.8960 N   0  0  0  0  0  0  0  0  0  0  0  0
   23.7936   17.0436   33.7797 O   0  0  0  0  0  0  0  0  0  0  0  0
   23.9243   16.2280   34.9509 C   0  0  1  0  0  0  0  0  0  0  0  0
   21.5087   14.8020   37.4401 O   0  0  0  0  0  0  0  0  0  0  0  0
   24.8309   16.9491   35.9179 C   0  0  1  0  0  0  0  0  0  0  0  0
   21.1437   12.5285   37.4496 O   0  0  0  0  0  0  0  0  0  0  0  0
   25.0074   16.0861   37.1884 C   0  0  0  0  0  0  0  0  0  0  0  0
   19.4991   12.5304   40.7080 O   0  0  0  0  0  0  0  0  0  0  0  0
   23.6009   15.8468   37.8110 C   0  0  1  0  0  0  0  0  0  0  0  0
   17.6722   14.0506   39.2287 O   0  0  0  0  0  0  0  0  0  0  0  0
   22.7461   15.0286   36.8892 C   0  0  2  0  0  0  0  0  0  0  0  0
   20.6435   13.8613   36.8942 C   0  0  1  0  0  0  0  0  0  0  0  0
   21.0346   12.4344   38.9378 C   0  0  2  0  0  0  0  0  0  0  0  0
   21.5273   11.0586   39.4324 C   0  0  0  0  0  0  0  0  0  0  0  0
   19.5962   12.6041   39.3262 C   0  0  2  0  0  0  0  0  0  0  0  0
   19.0532   13.9237   38.8602 C   0  0  1  0  0  0  0  0  0  0  0  0
   19.1721   13.9979   37.3767 C   0  0  1  0  0  0  0  0  0  0  0  0
  5  4  1  6  0  0  0
  5  8  1  0  0  0  0
  5 16  1  0  0  0  0
  8  7  1  6  0  0  0
  8 10  1  0  0  0  0
 10  1  1  6  0  0  0
 10 12  1  0  0  0  0
 11 18  1  0  0  0  0
 12 14  1  0  0  0  0
 14  2  1  1  0  0  0
 14 16  1  0  0  0  0
 16  9  1  1  0  0  0
 17  9  1  1  0  0  0
 17 11  1  0  0  0  0
 17 22  1  0  0  0  0
 18 19  1  6  0  0  0
 18 20  1  0  0  0  0
 19  3  1  0  0  0  0
 20 13  1  1  0  0  0
 20 21  1  0  0  0  0
 21 15  1  6  0  0  0
 21 22  1  0  0  0  0
 22  6  1  1  0  0  0
M  END
>  <CHROM.1>
78.35801009,80.94881401,72.17640028,21.81199050,14.47371381,37.40668051,-0.85083133
0.03861085,2.32775140

>  <Name>
2et8_lig

>  <RI>
3.14397e+07

>  <Rbt.Current_Directory>
/home/itssahil/PROJECTS/Mol_Feturizer/New_Systems/rnas/2et8

>  <Rbt.Executable>
rbdock ($Id: //depot/dev/client3/rdock/2013.1/src/exe/rbdock.cxx#4 $)

>  <Rbt.Library>
libRbt.so (2013.1, Build901 2013/11/27)

>  <Rbt.Parameter_File>
/export/apps/rDock/src/rDock_2013.1_src/data/scripts/dock_solv.prm

>  <Rbt.Receptor>
prm/pocket_docking_6.prm

>  <SCORE>
-15.2632

>  <SCORE.INTER>
-14.3091

>  <SCORE.INTER.CONST>
1

>  <SCORE.INTER.POLAR>
-0.959166

>  <SCORE.INTER.ROT>
3

>  <SCORE.INTER.SOLV>
18.9387

>  <SCORE.INTER.VDW>
-18.2551

>  <SCORE.INTER.norm>
-0.650413

>  <SCORE.INTRA>
-0.954104

>  <SCORE.INTRA.DIHEDRAL>
-0.877042

>  <SCORE.INTRA.DIHEDRAL.0>
4.99603

>  <SCORE.INTRA.POLAR>
0

>  <SCORE.INTRA.POLAR.0>
0

>  <SCORE.INTRA.REPUL>
0

>  <SCORE.INTRA.REPUL.0>
0

>  <SCORE.INTRA.SOLV>
0.198548

>  <SCORE.INTRA.SOLV.lig_0>
-74.884

>  <SCORE.INTRA.VDW>
-0.614857

>  <SCORE.INTRA.VDW.0>
-0.858933

>  <SCORE.INTRA.norm>
-0.0433684

>  <SCORE.RESTR>
0

>  <SCORE.RESTR.CAVITY>
0

>  <SCORE.RESTR.norm>
0

>  <SCORE.SYSTEM>
0

>  <SCORE.SYSTEM.CONST>
0

>  <SCORE.SYSTEM.DIHEDRAL>
0

>  <SCORE.SYSTEM.SOLV>
0

>  <SCORE.SYSTEM.norm>
0

>  <SCORE.heavy>
22

>  <SCORE.norm>
-0.693781

>  <RMSD>
0.446

$$$$
2et8_lig
 OpenBabel11021811433D
libRbt.so/2013.1/901 2013/11/27
 22 23  0  0  0  0  0  0  0  0999 V2000
   26.2300   17.1781   35.3661 N   0  0  0  0  0  0  0  0  0  0  0  0
   23.8331   14.9590   39.0994 N   0  0  0  0  0  0  0  0  0  0  0  0
   22.9983   10.9641   39.3096 N   0  0  0  0  0  0  0  0  0  0  0  0
   21.7172   15.3098   34.6806 O   0  0  0  0  0  0  0  0  0  0  0  0
   22.5699   15.9612   35.6543 C   0  0  2  0  0  0  0  0  0  0  0  0
   18.6281   15.3388   36.8978 N   0  0  0  0  0  0  0  0  0  0  0  0
   23.8792   17.0714   33.8496 O   0  0  0  0  0  0  0  0  0  0  0  0
   23.9821   16.2375   35.0107 C   0  0  1  0  0  0  0  0  0  0  0  0
   21.5132   14.8191   37.4514 O   0  0  0  0  0  0  0  0  0  0  0  0
   24.8893   16.9294   35.9982 C   0  0  1  0  0  0  0  0  0  0  0  0
   21.1448   12.5460   37.4508 O   0  0  0  0  0  0  0  0  0  0  0  0
   25.0360   16.0461   37.2584 C   0  0  0  0  0  0  0  0  0  0  0  0
   19.4875   12.5379   40.7027 O   0  0  0  0  0  0  0  0  0  0  0  0
   23.6183   15.8224   37.8612 C   0  0  1  0  0  0  0  0  0  0  0  0
   17.6685   14.0664   39.2219 O   0  0  0  0  0  0  0  0  0  0  0  0
   22.7606   15.0319   36.9181 C   0  0  2  0  0  0  0  0  0  0  0  0
   20.6487   13.8817   36.8985 C   0  0  1  0  0  0  0  0  0  0  0  0
   21.0298   12.4465   38.9382 C   0  0  2  0  0  0  0  0  0  0  0  0
   21.5186   11.0681   39.4294 C   0  0  0  0  0  0  0  0  0  0  0  0
   19.5900   12.6167   39.3216 C   0  0  2  0  0  0  0  0  0  0  0  0
   19.0508   13.9389   38.8585 C   0  0  1  0  0  0  0  0  0  0  0  0
   19.1756   14.0185   37.3757 C   0  0  1  0  0  0  0  0  0  0  0  0
  5  4  1  6  0  0  0
  5  8  1  0  0  0  0
  5 16  1  0  0  0  0
  8  7  1  6  0  0  0
  8 10  1  0  0  0  0
 10  1  1  6  0  0  0
 10 12  1  0  0  0  0
 11 18  1  0  0  0  0
 12 14  1  0  0  0  0
 14  2  1  1  0  0  0
 14 16  1  0  0  0  0
 16  9  1  1  0  0  0
 17  9  1  1  0  0  0
 17 11  1  0  0  0  0
 17 22  1  0  0  0  0
 18 19  1  6  0  0  0
 18 20  1  0  0  0  0
 19  3  1  0  0  0  0
 20 13  1  1  0  0  0
 20 21  1  0  0  0  0
 21 15  1  6  0  0  0
 21 22  1  0  0  0  0
 22  6  1  1  0  0  0
M  END
>  <CHROM.1>
79.66760752,79.97680832,71.65324465,21.82958321,14.48020840,37.43111277,-0.83666939
0.03830105,2.33330550

>  <Name>
2et8_lig

>  <RI>
0

>  <Rbt.Current_Directory>
/home/itssahil/PROJECTS/Mol_Feturizer/New_Systems/rnas/2et8

>  <Rbt.Executable>
rbdock ($Id: //depot/dev/client3/rdock/2013.1/src/exe/rbdock.cxx#4 $)

>  <Rbt.Library>
libRbt.so (2013.1, Build901 2013/11/27)

>  <Rbt.Parameter_File>
/export/apps/rDock/src/rDock_2013.1_src/data/scripts/dock_solv.prm

>  <Rbt.Receptor>
prm/pocket_docking_3.prm

>  <SCORE>
-15.318

>  <SCORE.INTER>
-14.3626

>  <SCORE.INTER.CONST>
1

>  <SCORE.INTER.POLAR>
-0.959166

>  <SCORE.INTER.ROT>
3

>  <SCORE.INTER.SOLV>
18.8698

>  <SCORE.INTER.VDW>
-18.2678

>  <SCORE.INTER.norm>
-0.652844

>  <SCORE.INTRA>
-0.955398

>  <SCORE.INTRA.DIHEDRAL>
-0.875655

>  <SCORE.INTRA.DIHEDRAL.0>
4.99603

>  <SCORE.INTRA.POLAR>
0

>  <SCORE.INTRA.POLAR.0>
0

>  <SCORE.INTRA.REPUL>
0

>  <SCORE.INTRA.REPUL.0>
0

>  <SCORE.INTRA.SOLV>
0.313449

>  <SCORE.INTRA.SOLV.lig_0>
-74.884

>  <SCORE.INTRA.VDW>
-0.674295

>  <SCORE.INTRA.VDW.0>
-0.858933

>  <SCORE.INTRA.norm>
-0.0434272

>  <SCORE.RESTR>
0

>  <SCORE.RESTR.CAVITY>
0

>  <SCORE.RESTR.norm>
0

>  <SCORE.SYSTEM>
0

>  <SCORE.SYSTEM.CONST>
0

>  <SCORE.SYSTEM.DIHEDRAL>
0

>  <SCORE.SYSTEM.SOLV>
0

>  <SCORE.SYSTEM.norm>
0

>  <SCORE.heavy>
22

>  <SCORE.norm>
-0.696271

>  <RMSD>
0.449

$$$$
2et8_lig
 OpenBabel11021811433D
libRbt.so/2013.1/901 2013/11/27
 22 23  0  0  0  0  0  0  0  0999 V2000
   26.2446   17.1711   35.3841 N   0  0  0  0  0  0  0  0  0  0  0  0
   23.8420   14.9332   39.1025 N   0  0  0  0  0  0  0  0  0  0  0  0
   22.9999   10.9618   39.3204 N   0  0  0  0  0  0  0  0  0  0  0  0
   21.7232   15.3273   34.6887 O   0  0  0  0  0  0  0  0  0  0  0  0
   22.5796   15.9675   35.6666 C   0  0  2  0  0  0  0  0  0  0  0  0
   18.6358   15.3380   36.8995 N   0  0  0  0  0  0  0  0  0  0  0  0
   23.8919   17.0861   33.8692 O   0  0  0  0  0  0  0  0  0  0  0  0
   23.9924   16.2428   35.0237 C   0  0  1  0  0  0  0  0  0  0  0  0
   21.5199   14.8159   37.4559 O   0  0  0  0  0  0  0  0  0  0  0  0
   24.9035   16.9232   36.0156 C   0  0  1  0  0  0  0  0  0  0  0  0
   21.1493   12.5432   37.4569 O   0  0  0  0  0  0  0  0  0  0  0  0
   25.0477   16.0294   37.2687 C   0  0  0  0  0  0  0  0  0  0  0  0
   19.4893   12.5395   40.7074 O   0  0  0  0  0  0  0  0  0  0  0  0
   23.6297   15.8071   37.8713 C   0  0  1  0  0  0  0  0  0  0  0  0
   17.6730   14.0685   39.2239 O   0  0  0  0  0  0  0  0  0  0  0  0
   22.7677   15.0276   36.9230 C   0  0  2  0  0  0  0  0  0  0  0  0
   20.6550   13.8789   36.9031 C   0  0  1  0  0  0  0  0  0  0  0  0
   21.0329   12.4451   38.9443 C   0  0  2  0  0  0  0  0  0  0  0  0
   21.5200   11.0666   39.4371 C   0  0  0  0  0  0  0  0  0  0  0  0
   19.5931   12.6171   39.3263 C   0  0  2  0  0  0  0  0  0  0  0  0
   19.0555   13.9394   38.8617 C   0  0  1  0  0  0  0  0  0  0  0  0
   19.1816   14.0176   37.3789 C   0  0  1  0  0  0  0  0  0  0  0  0
  5  4  1  6  0  0  0
  5  8  1  0  0  0  0
  5 16  1  0  0  0  0
  8  7  1  6  0  0  0
  8 10  1  0  0  0  0
 10  1  1  6  0  0  0
 10 12  1  0  0  0  0
 11 18  1  0  0  0  0
 12 14  1  0  0  0  0
 14  2  1  1  0  0  0
 14 16  1  0  0  0  0
 16  9  1  1  0  0  0
 17  9  1  1  0  0  0
 17 11  1  0  0  0  0
 17 22  1  0  0  0  0
 18 19  1  6  0  0  0
 18 20  1  0  0  0  0
 19  3  1  0  0  0  0
 20 13  1  1  0  0  0
 20 21  1  0  0  0  0
 21 15  1  6  0  0  0
 21 22  1  0  0  0  0
 22  6  1  1  0  0  0
M  END
>  <CHROM.1>
80.18701662,80.01384163,71.73463009,21.83670736,14.47852656,37.43909864,-0.83534819
0.03775445,2.33489057

>  <Name>
2et8_lig

>  <RI>
0

>  <Rbt.Current_Directory>
/home/itssahil/PROJECTS/Mol_Feturizer/New_Systems/rnas/2et8

>  <Rbt.Executable>
rbdock ($Id: //depot/dev/client3/rdock/2013.1/src/exe/rbdock.cxx#4 $)

>  <Rbt.Library>
libRbt.so (2013.1, Build901 2013/11/27)

>  <Rbt.Parameter_File>
/export/apps/rDock/src/rDock_2013.1_src/data/scripts/dock_solv.prm

>  <Rbt.Receptor>
prm/pocket_docking_3.prm

>  <SCORE>
-15.3117

>  <SCORE.INTER>
-14.4068

>  <SCORE.INTER.CONST>
1

>  <SCORE.INTER.POLAR>
-0.959166

>  <SCORE.INTER.ROT>
3

>  <SCORE.INTER.SOLV>
18.8233

>  <SCORE.INTER.VDW>
-18.2817

>  <SCORE.INTER.norm>
-0.654855

>  <SCORE.INTRA>
-0.904894

>  <SCORE.INTRA.DIHEDRAL>
-0.781259

>  <SCORE.INTRA.DIHEDRAL.0>
4.99603

>  <SCORE.INTRA.POLAR>
0

>  <SCORE.INTRA.POLAR.0>
0

>  <SCORE.INTRA.REPUL>
0

>  <SCORE.INTRA.REPUL.0>
0

>  <SCORE.INTRA.SOLV>
0.368786

>  <SCORE.INTRA.SOLV.lig_0>
-74.884

>  <SCORE.INTRA.VDW>
-0.698658

>  <SCORE.INTRA.VDW.0>
-0.858933

>  <SCORE.INTRA.norm>
-0.0411315

>  <SCORE.RESTR>
0

>  <SCORE.RESTR.CAVITY>
0

>  <SCORE.RESTR.norm>
0

>  <SCORE.SYSTEM>
0

>  <SCORE.SYSTEM.CONST>
0

>  <SCORE.SYSTEM.DIHEDRAL>
0

>  <SCORE.SYSTEM.SOLV>
0

>  <SCORE.SYSTEM.norm>
0

>  <SCORE.heavy>
22

>  <SCORE.norm>
-0.695986

>  <RMSD>
0.450

$$$$
2et8_lig
 OpenBabel11021811433D
libRbt.so/2013.1/901 2013/11/27
 22 23  0  0  0  0  0  0  0  0999 V2000
   26.2303   17.1718   35.3688 N   0  0  0  0  0  0  0  0  0  0  0  0
   23.8343   14.9497   39.1010 N   0  0  0  0  0  0  0  0  0  0  0  0
   23.0070   10.9679   39.3141 N   0  0  0  0  0  0  0  0  0  0  0  0
   21.7122   15.3151   34.6863 O   0  0  0  0  0  0  0  0  0  0  0  0
   22.5679   15.9624   35.6601 C   0  0  2  0  0  0  0  0  0  0  0  0
   18.6242   15.3330   36.9094 N   0  0  0  0  0  0  0  0  0  0  0  0
   23.8769   17.0737   33.8558 O   0  0  0  0  0  0  0  0  0  0  0  0
   23.9797   16.2370   35.0149 C   0  0  1  0  0  0  0  0  0  0  0  0
   21.5115   14.8187   37.4563 O   0  0  0  0  0  0  0  0  0  0  0  0
   24.8900   16.9247   36.0024 C   0  0  1  0  0  0  0  0  0  0  0  0
   21.1466   12.5451   37.4608 O   0  0  0  0  0  0  0  0  0  0  0  0
   25.0368   16.0382   37.2605 C   0  0  0  0  0  0  0  0  0  0  0  0
   19.4979   12.5403   40.7170 O   0  0  0  0  0  0  0  0  0  0  0  0
   23.6195   15.8164   37.8650 C   0  0  1  0  0  0  0  0  0  0  0  0
   17.6727   14.0633   39.2384 O   0  0  0  0  0  0  0  0  0  0  0  0
   22.7586   15.0299   36.9216 C   0  0  2  0  0  0  0  0  0  0  0  0
   20.6470   13.8790   36.9074 C   0  0  1  0  0  0  0  0  0  0  0  0
   21.0356   12.4480   38.9487 C   0  0  2  0  0  0  0  0  0  0  0  0
   21.5279   11.0713   39.4411 C   0  0  0  0  0  0  0  0  0  0  0  0
   19.5967   12.6168   39.3355 C   0  0  2  0  0  0  0  0  0  0  0  0
   19.0542   13.9373   38.8715 C   0  0  1  0  0  0  0  0  0  0  0  0
   19.1750   14.0144   37.3883 C   0  0  1  0  0  0  0  0  0  0  0  0
  5  4  1  6  0  0  0
  5  8  1  0  0  0  0
  5 16  1  0  0  0  0
  8  7  1  6  0  0  0
  8 10  1  0  0  0  0
 10  1  1  6  0  0  0
 10 12  1  0  0  0  0
 11 18  1  0  0  0  0
 12 14  1  0  0  0  0
 14  2  1  1  0  0  0
 14 16  1  0  0  0  0
 16  9  1  1  0  0  0
 17  9  1  1  0  0  0
 17 11  1  0  0  0  0
 17 22  1  0  0  0  0
 18 19  1  6  0  0  0
 18 20  1  0  0  0  0
 19  3  1  0  0  0  0
 20 13  1  1  0  0  0
 20 21  1  0  0  0  0
 21 15  1  6  0  0  0
 21 22  1  0  0  0  0
 22  6  1  1  0  0  0
M  END
>  <CHROM.1>
80.04325512,79.80115554,71.50057375,21.83108045,14.47869334,37.43899905,-0.83764112
0.03702981,2.33268489

>  <Name>
2et8_lig

>  <RI>
0

>  <Rbt.Current_Directory>
/home/itssahil/PROJECTS/Mol_Feturizer/New_Systems/rnas/2et8

>  <Rbt.Executable>
rbdock ($Id: //depot/dev/client3/rdock/2013.1/src/exe/rbdock.cxx#4 $)

>  <Rbt.Library>
libRbt.so (2013.1, Build901 2013/11/27)

>  <Rbt.Parameter_File>
/export/apps/rDock/src/rDock_2013.1_src/data/scripts/dock_solv.prm

>  <Rbt.Receptor>
prm/pocket_docking_3.prm

>  <SCORE>
-15.3156

>  <SCORE.INTER>
-14.3706

>  <SCORE.INTER.CONST>
1

>  <SCORE.INTER.POLAR>
-0.959166

>  <SCORE.INTER.ROT>
3

>  <SCORE.INTER.SOLV>
18.8507

>  <SCORE.INTER.VDW>
-18.2668

>  <SCORE.INTER.norm>
-0.653209

>  <SCORE.INTRA>
-0.945021

>  <SCORE.INTRA.DIHEDRAL>
-0.856419

>  <SCORE.INTRA.DIHEDRAL.0>
4.99603

>  <SCORE.INTRA.POLAR>
0

>  <SCORE.INTRA.POLAR.0>
0

>  <SCORE.INTRA.REPUL>
0

>  <SCORE.INTRA.REPUL.0>
0

>  <SCORE.INTRA.SOLV>
0.348387

>  <SCORE.INTRA.SOLV.lig_0>
-74.884

>  <SCORE.INTRA.VDW>
-0.691004

>  <SCORE.INTRA.VDW.0>
-0.858933

>  <SCORE.INTRA.norm>
-0.0429555

>  <SCORE.RESTR>
0

>  <SCORE.RESTR.CAVITY>
0

>  <SCORE.RESTR.norm>
0

>  <SCORE.SYSTEM>
0

>  <SCORE.SYSTEM.CONST>
0

>  <SCORE.SYSTEM.DIHEDRAL>
0

>  <SCORE.SYSTEM.SOLV>
0

>  <SCORE.SYSTEM.norm>
0

>  <SCORE.heavy>
22

>  <SCORE.norm>
-0.696164

>  <RMSD>
0.451

$$$$
2et8_lig
 OpenBabel11021811433D
libRbt.so/2013.1/901 2013/11/27
 22 23  0  0  0  0  0  0  0  0999 V2000
   26.2207   17.1790   35.3620 N   0  0  0  0  0  0  0  0  0  0  0  0
   23.8313   14.9490   39.0937 N   0  0  0  0  0  0  0  0  0  0  0  0
   23.0137   10.9763   39.3337 N   0  0  0  0  0  0  0  0  0  0  0  0
   21.7084   15.3085   34.6790 O   0  0  0  0  0  0  0  0  0  0  0  0
   22.5620   15.9582   35.6529 C   0  0  2  0  0  0  0  0  0  0  0  0
   18.6213   15.3131   36.8929 N   0  0  0  0  0  0  0  0  0  0  0  0
   23.8676   17.0738   33.8488 O   0  0  0  0  0  0  0  0  0  0  0  0
   23.9730   16.2373   35.0078 C   0  0  1  0  0  0  0  0  0  0  0  0
   21.5090   14.8110   37.4489 O   0  0  0  0  0  0  0  0  0  0  0  0
   24.8811   16.9277   35.9955 C   0  0  1  0  0  0  0  0  0  0  0  0
   21.1518   12.5362   37.4630 O   0  0  0  0  0  0  0  0  0  0  0  0
   25.0305   16.0414   37.2534 C   0  0  0  0  0  0  0  0  0  0  0  0
   19.4953   12.5408   40.7153 O   0  0  0  0  0  0  0  0  0  0  0  0
   23.6139   15.8152   37.8579 C   0  0  1  0  0  0  0  0  0  0  0  0
   17.6685   14.0508   39.2254 O   0  0  0  0  0  0  0  0  0  0  0  0
   22.7554   15.0262   36.9143 C   0  0  2  0  0  0  0  0  0  0  0  0
   20.6490   13.8659   36.9023 C   0  0  1  0  0  0  0  0  0  0  0  0
   21.0376   12.4456   38.9510 C   0  0  2  0  0  0  0  0  0  0  0  0
   21.5333   11.0728   39.4509 C   0  0  0  0  0  0  0  0  0  0  0  0
   19.5971   12.6113   39.3337 C   0  0  2  0  0  0  0  0  0  0  0  0
   19.0513   13.9278   38.8623 C   0  0  1  0  0  0  0  0  0  0  0  0
   19.1754   13.9986   37.3790 C   0  0  1  0  0  0  0  0  0  0  0  0
  5  4  1  6  0  0  0
  5  8  1  0  0  0  0
  5 16  1  0  0  0  0
  8  7  1  6  0  0  0
  8 10  1  0  0  0  0
 10  1  1  6  0  0  0
 10 12  1  0  0  0  0
 11 18  1  0  0  0  0
 12 14  1  0  0  0  0
 14  2  1  1  0  0  0
 14 16  1  0  0  0  0
 16  9  1  1  0  0  0
 17  9  1  1  0  0  0
 17 11  1  0  0  0  0
 17 22  1  0  0  0  0
 18 19  1  6  0  0  0
 18 20  1  0  0  0  0
 19  3  1  0  0  0  0
 20 13  1  1  0  0  0
 20 21  1  0  0  0  0
 21 15  1  6  0  0  0
 21 22  1  0  0  0  0
 22  6  1  1  0  0  0
M  END
>  <CHROM.1>
80.23719344,79.95190199,71.76316042,21.82855573,14.47469060,37.43440205,-0.83957765
0.04121627,2.32944460

>  <Name>
2et8_lig

>  <RI>
0

>  <Rbt.Current_Directory>
/home/itssahil/PROJECTS/Mol_Feturizer/New_Systems/rnas/2et8

>  <Rbt.Executable>
rbdock ($Id: //depot/dev/client3/rdock/2013.1/src/exe/rbdock.cxx#4 $)

>  <Rbt.Library>
libRbt.so (2013.1, Build901 2013/11/27)

>  <Rbt.Parameter_File>
/export/apps/rDock/src/rDock_2013.1_src/data/scripts/dock_solv.prm

>  <Rbt.Receptor>
prm/pocket_docking_3.prm

>  <SCORE>
-15.3073

>  <SCORE.INTER>
-14.4026

>  <SCORE.INTER.CONST>
1

>  <SCORE.INTER.POLAR>
-0.959166

>  <SCORE.INTER.ROT>
3

>  <SCORE.INTER.SOLV>
18.7862

>  <SCORE.INTER.VDW>
-18.2666

>  <SCORE.INTER.norm>
-0.654664

>  <SCORE.INTRA>
-0.904665

>  <SCORE.INTRA.DIHEDRAL>
-0.780856

>  <SCORE.INTRA.DIHEDRAL.0>
4.99603

>  <SCORE.INTRA.POLAR>
0

>  <SCORE.INTRA.POLAR.0>
0

>  <SCORE.INTRA.REPUL>
0

>  <SCORE.INTRA.REPUL.0>
0

>  <SCORE.INTRA.SOLV>
0.37294

>  <SCORE.INTRA.SOLV.lig_0>
-74.884

>  <SCORE.INTRA.VDW>
-0.700707

>  <SCORE.INTRA.VDW.0>
-0.858933

>  <SCORE.INTRA.norm>
-0.0411212

>  <SCORE.RESTR>
0

>  <SCORE.RESTR.CAVITY>
0

>  <SCORE.RESTR.norm>
0

>  <SCORE.SYSTEM>
0

>  <SCORE.SYSTEM.CONST>
0

>  <SCORE.SYSTEM.DIHEDRAL>
0

>  <SCORE.SYSTEM.SOLV>
0

>  <SCORE.SYSTEM.norm>
0

>  <SCORE.heavy>
22

>  <SCORE.norm>
-0.695785

>  <RMSD>
0.455

$$$$
2et8_lig
 OpenBabel11021811433D
libRbt.so/2013.1/901 2013/11/27
 22 23  0  0  0  0  0  0  0  0999 V2000
   26.1591   17.2100   35.2512 N   0  0  0  0  0  0  0  0  0  0  0  0
   23.9011   15.0069   39.0794 N   0  0  0  0  0  0  0  0  0  0  0  0
   23.0539   10.8986   39.2899 N   0  0  0  0  0  0  0  0  0  0  0  0
   21.6810   15.2171   34.7030 O   0  0  0  0  0  0  0  0  0  0  0  0
   22.5380   15.9086   35.6446 C   0  0  2  0  0  0  0  0  0  0  0  0
   18.6581   15.3172   36.9918 N   0  0  0  0  0  0  0  0  0  0  0  0
   23.7792   17.0148   33.7899 O   0  0  0  0  0  0  0  0  0  0  0  0
   23.9284   16.2070   34.9644 C   0  0  1  0  0  0  0  0  0  0  0  0
   21.5500   14.7767   37.4867 O   0  0  0  0  0  0  0  0  0  0  0  0
   24.8392   16.9408   35.9178 C   0  0  1  0  0  0  0  0  0  0  0  0
   21.1717   12.5055   37.4562 O   0  0  0  0  0  0  0  0  0  0  0  0
   25.0357   16.0866   37.1913 C   0  0  0  0  0  0  0  0  0  0  0  0
   19.5710   12.4520   40.7358 O   0  0  0  0  0  0  0  0  0  0  0  0
   23.6376   15.8399   37.8298 C   0  0  1  0  0  0  0  0  0  0  0  0
   17.7333   14.0116   39.3117 O   0  0  0  0  0  0  0  0  0  0  0  0
   22.7797   15.0097   36.9216 C   0  0  2  0  0  0  0  0  0  0  0  0
   20.6720   13.8519   36.9340 C   0  0  1  0  0  0  0  0  0  0  0  0
   21.0820   12.3825   38.9435 C   0  0  2  0  0  0  0  0  0  0  0  0
   21.5732   10.9944   39.4041 C   0  0  0  0  0  0  0  0  0  0  0  0
   19.6499   12.5526   39.3546 C   0  0  2  0  0  0  0  0  0  0  0  0
   19.1085   13.8843   38.9222 C   0  0  1  0  0  0  0  0  0  0  0  0
   19.2080   13.9872   37.4389 C   0  0  1  0  0  0  0  0  0  0  0  0
  5  4  1  6  0  0  0
  5  8  1  0  0  0  0
  5 16  1  0  0  0  0
  8  7  1  6  0  0  0
  8 10  1  0  0  0  0
 10  1  1  6  0  0  0
 10 12  1  0  0  0  0
 11 18  1  0  0  0  0
 12 14  1  0  0  0  0
 14  2  1  1  0  0  0
 14 16  1  0  0  0  0
 16  9  1  1  0  0  0
 17  9  1  1  0  0  0
 17 11  1  0  0  0  0
 17 22  1  0  0  0  0
 18 19  1  6  0  0  0
 18 20  1  0  0  0  0
 19  3  1  0  0  0  0
 20 13  1  1  0  0  0
 20 21  1  0  0  0  0
 21 15  1  6  0  0  0
 21 22  1  0  0  0  0
 22  6  1  1  0  0  0
M  END
>  <CHROM.1>
76.60691546,81.12151485,73.11609801,21.84505306,14.44570053,37.43225195,-0.85976837
0.02776331,2.33958234

>  <Name>
2et8_lig

>  <RI>
3.42619e+07

>  <Rbt.Current_Directory>
/home/itssahil/PROJECTS/Mol_Feturizer/New_Systems/rnas/2et8

>  <Rbt.Executable>
rbdock ($Id: //depot/dev/client3/rdock/2013.1/src/exe/rbdock.cxx#4 $)

>  <Rbt.Library>
libRbt.so (2013.1, Build901 2013/11/27)

>  <Rbt.Parameter_File>
/export/apps/rDock/src/rDock_2013.1_src/data/scripts/dock_solv.prm

>  <Rbt.Receptor>
prm/pocket_docking_4.prm

>  <SCORE>
-15.2685

>  <SCORE.INTER>
-14.2451

>  <SCORE.INTER.CONST>
1

>  <SCORE.INTER.POLAR>
-0.959166

>  <SCORE.INTER.ROT>
3

>  <SCORE.INTER.SOLV>
19.3484

>  <SCORE.INTER.VDW>
-18.349

>  <SCORE.INTER.norm>
-0.647504

>  <SCORE.INTRA>
-1.02341

>  <SCORE.INTRA.DIHEDRAL>
-1.02232

>  <SCORE.INTRA.DIHEDRAL.0>
4.99603

>  <SCORE.INTRA.POLAR>
0

>  <SCORE.INTRA.POLAR.0>
0

>  <SCORE.INTRA.REPUL>
0

>  <SCORE.INTRA.REPUL.0>
0

>  <SCORE.INTRA.SOLV>
0.0225987

>  <SCORE.INTRA.SOLV.lig_0>
-74.884

>  <SCORE.INTRA.VDW>
-0.523544

>  <SCORE.INTRA.VDW.0>
-0.858933

>  <SCORE.INTRA.norm>
-0.0465184

>  <SCORE.RESTR>
0

>  <SCORE.RESTR.CAVITY>
0

>  <SCORE.RESTR.norm>
0

>  <SCORE.SYSTEM>
0

>  <SCORE.SYSTEM.CONST>
0

>  <SCORE.SYSTEM.DIHEDRAL>
0

>  <SCORE.SYSTEM.SOLV>
0

>  <SCORE.SYSTEM.norm>
0

>  <SCORE.heavy>
22

>  <SCORE.norm>
-0.694022

>  <RMSD>
0.457

$$$$
2et8_lig
 OpenBabel11021811433D
libRbt.so/2013.1/901 2013/11/27
 22 23  0  0  0  0  0  0  0  0999 V2000
   26.2012   17.1483   35.3386 N   0  0  0  0  0  0  0  0  0  0  0  0
   23.7968   14.9310   39.0683 N   0  0  0  0  0  0  0  0  0  0  0  0
   22.9646   10.9882   39.3263 N   0  0  0  0  0  0  0  0  0  0  0  0
   21.6711   15.3205   34.6573 O   0  0  0  0  0  0  0  0  0  0  0  0
   22.5319   15.9601   35.6316 C   0  0  2  0  0  0  0  0  0  0  0  0
   18.5843   15.3248   36.8696 N   0  0  0  0  0  0  0  0  0  0  0  0
   23.8452   17.0682   33.8285 O   0  0  0  0  0  0  0  0  0  0  0  0
   23.9446   16.2279   34.9852 C   0  0  1  0  0  0  0  0  0  0  0  0
   21.4710   14.8182   37.4264 O   0  0  0  0  0  0  0  0  0  0  0  0
   24.8603   16.9076   35.9734 C   0  0  1  0  0  0  0  0  0  0  0  0
   21.1069   12.5447   37.4584 O   0  0  0  0  0  0  0  0  0  0  0  0
   25.0033   16.0170   37.2289 C   0  0  0  0  0  0  0  0  0  0  0  0
   19.4541   12.5795   40.7124 O   0  0  0  0  0  0  0  0  0  0  0  0
   23.5856   15.8021   37.8348 C   0  0  1  0  0  0  0  0  0  0  0  0
   17.6302   14.0836   39.2129 O   0  0  0  0  0  0  0  0  0  0  0  0
   22.7187   15.0233   36.8905 C   0  0  2  0  0  0  0  0  0  0  0  0
   20.6076   13.8715   36.8880 C   0  0  1  0  0  0  0  0  0  0  0  0
   20.9941   12.4659   38.9472 C   0  0  2  0  0  0  0  0  0  0  0  0
   21.4861   11.0955   39.4572 C   0  0  0  0  0  0  0  0  0  0  0  0
   19.5546   12.6390   39.3302 C   0  0  2  0  0  0  0  0  0  0  0  0
   19.0122   13.9535   38.8492 C   0  0  1  0  0  0  0  0  0  0  0  0
   19.1348   14.0124   37.3653 C   0  0  1  0  0  0  0  0  0  0  0  0
  5  4  1  6  0  0  0
  5  8  1  0  0  0  0
  5 16  1  0  0  0  0
  8  7  1  6  0  0  0
  8 10  1  0  0  0  0
 10  1  1  6  0  0  0
 10 12  1  0  0  0  0
 11 18  1  0  0  0  0
 12 14  1  0  0  0  0
 14  2  1  1  0  0  0
 14 16  1  0  0  0  0
 16  9  1  1  0  0  0
 17  9  1  1  0  0  0
 17 11  1  0  0  0  0
 17 22  1  0  0  0  0
 18 19  1  6  0  0  0
 18 20  1  0  0  0  0
 19  3  1  0  0  0  0
 20 13  1  1  0  0  0
 20 21  1  0  0  0  0
 21 15  1  6  0  0  0
 21 22  1  0  0  0  0
 22  6  1  1  0  0  0
M  END
>  <CHROM.1>
80.97677799,79.80817352,71.18893895,21.79267990,14.48036393,37.41886201,-0.83618138
0.03683975,2.32513626

>  <Name>
2et8_lig

>  <RI>
3.14397e+07

>  <Rbt.Current_Directory>
/home/itssahil/PROJECTS/Mol_Feturizer/New_Systems/rnas/2et8

>  <Rbt.Executable>
rbdock ($Id: //depot/dev/client3/rdock/2013.1/src/exe/rbdock.cxx#4 $)

>  <Rbt.Library>
libRbt.so (2013.1, Build901 2013/11/27)

>  <Rbt.Parameter_File>
/export/apps/rDock/src/rDock_2013.1_src/data/scripts/dock_solv.prm

>  <Rbt.Receptor>
prm/pocket_docking_6.prm

>  <SCORE>
-15.2566

>  <SCORE.INTER>
-14.3808

>  <SCORE.INTER.CONST>
1

>  <SCORE.INTER.POLAR>
-0.959166

>  <SCORE.INTER.ROT>
3

>  <SCORE.INTER.SOLV>
18.7098

>  <SCORE.INTER.VDW>
-18.2266

>  <SCORE.INTER.norm>
-0.653674

>  <SCORE.INTRA>
-0.875737

>  <SCORE.INTRA.DIHEDRAL>
-0.729511

>  <SCORE.INTRA.DIHEDRAL.0>
4.99603

>  <SCORE.INTRA.POLAR>
0

>  <SCORE.INTRA.POLAR.0>
0

>  <SCORE.INTRA.REPUL>
0

>  <SCORE.INTRA.REPUL.0>
0

>  <SCORE.INTRA.SOLV>
0.444087

>  <SCORE.INTRA.SOLV.lig_0>
-74.884

>  <SCORE.INTRA.VDW>
-0.733025

>  <SCORE.INTRA.VDW.0>
-0.858933

>  <SCORE.INTRA.norm>
-0.0398062

>  <SCORE.RESTR>
0

>  <SCORE.RESTR.CAVITY>
0

>  <SCORE.RESTR.norm>
0

>  <SCORE.SYSTEM>
0

>  <SCORE.SYSTEM.CONST>
0

>  <SCORE.SYSTEM.DIHEDRAL>
0

>  <SCORE.SYSTEM.SOLV>
0

>  <SCORE.SYSTEM.norm>
0

>  <SCORE.heavy>
22

>  <SCORE.norm>
-0.69348

>  <RMSD>
0.458

$$$$
2et8_lig
 OpenBabel11021811433D
libRbt.so/2013.1/901 2013/11/27
 22 23  0  0  0  0  0  0  0  0999 V2000
   26.1807   17.1926   35.2691 N   0  0  0  0  0  0  0  0  0  0  0  0
   23.8867   14.9922   39.0775 N   0  0  0  0  0  0  0  0  0  0  0  0
   23.0557   10.8976   39.2642 N   0  0  0  0  0  0  0  0  0  0  0  0
   21.6986   15.2186   34.6857 O   0  0  0  0  0  0  0  0  0  0  0  0
   22.5517   15.9051   35.6346 C   0  0  2  0  0  0  0  0  0  0  0  0
   18.6539   15.3037   36.9628 N   0  0  0  0  0  0  0  0  0  0  0  0
   23.8105   17.0094   33.7906 O   0  0  0  0  0  0  0  0  0  0  0  0
   23.9481   16.1991   34.9647 C   0  0  1  0  0  0  0  0  0  0  0  0
   21.5461   14.7741   37.4677 O   0  0  0  0  0  0  0  0  0  0  0  0
   24.8550   16.9275   35.9258 C   0  0  1  0  0  0  0  0  0  0  0  0
   21.1756   12.5016   37.4402 O   0  0  0  0  0  0  0  0  0  0  0  0
   25.0390   16.0705   37.1992 C   0  0  0  0  0  0  0  0  0  0  0  0
   19.5650   12.4487   40.7150 O   0  0  0  0  0  0  0  0  0  0  0  0
   23.6354   15.8284   37.8274 C   0  0  1  0  0  0  0  0  0  0  0  0
   17.7264   13.9993   39.2823 O   0  0  0  0  0  0  0  0  0  0  0  0
   22.7807   15.0032   36.9118 C   0  0  2  0  0  0  0  0  0  0  0  0
   20.6729   13.8453   36.9140 C   0  0  1  0  0  0  0  0  0  0  0  0
   21.0818   12.3811   38.9275 C   0  0  2  0  0  0  0  0  0  0  0  0
   21.5763   10.9955   39.3922 C   0  0  0  0  0  0  0  0  0  0  0  0
   19.6478   12.5470   39.3339 C   0  0  2  0  0  0  0  0  0  0  0  0
   19.1032   13.8760   38.8973 C   0  0  1  0  0  0  0  0  0  0  0  0
   19.2069   13.9765   37.4141 C   0  0  1  0  0  0  0  0  0  0  0  0
  5  4  1  6  0  0  0
  5  8  1  0  0  0  0
  5 16  1  0  0  0  0
  8  7  1  6  0  0  0
  8 10  1  0  0  0  0
 10  1  1  6  0  0  0
 10 12  1  0  0  0  0
 11 18  1  0  0  0  0
 12 14  1  0  0  0  0
 14  2  1  1  0  0  0
 14 16  1  0  0  0  0
 16  9  1  1  0  0  0
 17  9  1  1  0  0  0
 17 11  1  0  0  0  0
 17 22  1  0  0  0  0
 18 19  1  6  0  0  0
 18 20  1  0  0  0  0
 19  3  1  0  0  0  0
 20 13  1  1  0  0  0
 20 21  1  0  0  0  0
 21 15  1  6  0  0  0
 21 22  1  0  0  0  0
 22  6  1  1  0  0  0
M  END
>  <CHROM.1>
77.17623079,80.63273008,72.29735459,21.84911000,14.43841799,37.42002811,-0.85468386
0.03080252,2.33890391

>  <Name>
2et8_lig

>  <RI>
3.42619e+07

>  <Rbt.Current_Directory>
/home/itssahil/PROJECTS/Mol_Feturizer/New_Systems/rnas/2et8

>  <Rbt.Executable>
rbdock ($Id: //depot/dev/client3/rdock/2013.1/src/exe/rbdock.cxx#4 $)

>  <Rbt.Library>
libRbt.so (2013.1, Build901 2013/11/27)

>  <Rbt.Parameter_File>
/export/apps/rDock/src/rDock_2013.1_src/data/scripts/dock_solv.prm

>  <Rbt.Receptor>
prm/pocket_docking_4.prm

>  <SCORE>
-15.2671

>  <SCORE.INTER>
-14.2034

>  <SCORE.INTER.CONST>
1

>  <SCORE.INTER.POLAR>
-0.959166

>  <SCORE.INTER.ROT>
3

>  <SCORE.INTER.SOLV>
19.4821

>  <SCORE.INTER.VDW>
-18.3657

>  <SCORE.INTER.norm>
-0.645609

>  <SCORE.INTRA>
-1.06372

>  <SCORE.INTRA.DIHEDRAL>
-1.09171

>  <SCORE.INTRA.DIHEDRAL.0>
4.99603

>  <SCORE.INTRA.POLAR>
0

>  <SCORE.INTRA.POLAR.0>
0

>  <SCORE.INTRA.REPUL>
0

>  <SCORE.INTRA.REPUL.0>
0

>  <SCORE.INTRA.SOLV>
0.0684519

>  <SCORE.INTRA.SOLV.lig_0>
-74.884

>  <SCORE.INTRA.VDW>
-0.552091

>  <SCORE.INTRA.VDW.0>
-0.858933

>  <SCORE.INTRA.norm>
-0.0483508

>  <SCORE.RESTR>
0

>  <SCORE.RESTR.CAVITY>
0

>  <SCORE.RESTR.norm>
0

>  <SCORE.SYSTEM>
0

>  <SCORE.SYSTEM.CONST>
0

>  <SCORE.SYSTEM.DIHEDRAL>
0

>  <SCORE.SYSTEM.SOLV>
0

>  <SCORE.SYSTEM.norm>
0

>  <SCORE.heavy>
22

>  <SCORE.norm>
-0.69396

>  <RMSD>
0.465

$$$$
2et8_lig
 OpenBabel11021811433D
libRbt.so/2013.1/901 2013/11/27
 22 23  0  0  0  0  0  0  0  0999 V2000
   26.2463   17.1380   35.3934 N   0  0  0  0  0  0  0  0  0  0  0  0
   23.7791   14.9140   39.0777 N   0  0  0  0  0  0  0  0  0  0  0  0
   22.8891   10.9121   39.1917 N   0  0  0  0  0  0  0  0  0  0  0  0
   21.7136   15.3444   34.6421 O   0  0  0  0  0  0  0  0  0  0  0  0
   22.5658   15.9724   35.6314 C   0  0  2  0  0  0  0  0  0  0  0  0
   18.6008   15.4011   36.8454 N   0  0  0  0  0  0  0  0  0  0  0  0
   23.9097   17.0827   33.8523 O   0  0  0  0  0  0  0  0  0  0  0  0
   23.9885   16.2348   35.0051 C   0  0  1  0  0  0  0  0  0  0  0  0
   21.4743   14.8265   37.4051 O   0  0  0  0  0  0  0  0  0  0  0  0
   24.8956   16.9023   36.0092 C   0  0  1  0  0  0  0  0  0  0  0  0
   21.0715   12.5598   37.3573 O   0  0  0  0  0  0  0  0  0  0  0  0
   25.0165   16.0032   37.2610 C   0  0  0  0  0  0  0  0  0  0  0  0
   19.3946   12.5127   40.5987 O   0  0  0  0  0  0  0  0  0  0  0  0
   23.5897   15.7940   37.8471 C   0  0  1  0  0  0  0  0  0  0  0  0
   17.6080   14.0977   39.1382 O   0  0  0  0  0  0  0  0  0  0  0  0
   22.7301   15.0266   36.8868 C   0  0  2  0  0  0  0  0  0  0  0  0
   20.5991   13.9136   36.8288 C   0  0  1  0  0  0  0  0  0  0  0  0
   20.9460   12.4326   38.8417 C   0  0  2  0  0  0  0  0  0  0  0  0
   21.4108   11.0374   39.3082 C   0  0  0  0  0  0  0  0  0  0  0  0
   19.5067   12.6172   39.2201 C   0  0  2  0  0  0  0  0  0  0  0  0
   18.9903   13.9564   38.7802 C   0  0  1  0  0  0  0  0  0  0  0  0
   19.1253   14.0634   37.3001 C   0  0  1  0  0  0  0  0  0  0  0  0
  5  4  1  6  0  0  0
  5  8  1  0  0  0  0
  5 16  1  0  0  0  0
  8  7  1  6  0  0  0
  8 10  1  0  0  0  0
 10  1  1  6  0  0  0
 10 12  1  0  0  0  0
 11 18  1  0  0  0  0
 12 14  1  0  0  0  0
 14  2  1  1  0  0  0
 14 16  1  0  0  0  0
 16  9  1  1  0  0  0
 17  9  1  1  0  0  0
 17 11  1  0  0  0  0
 17 22  1  0  0  0  0
 18 19  1  6  0  0  0
 18 20  1  0  0  0  0
 19  3  1  0  0  0  0
 20 13  1  1  0  0  0
 20 21  1  0  0  0  0
 21 15  1  6  0  0  0
 21 22  1  0  0  0  0
 22  6  1  1  0  0  0
M  END
>  <CHROM.1>
79.30314820,79.69963292,71.51646772,21.78779822,14.47847318,37.37925258,-0.81946138
0.03158683,2.34977133

>  <Name>
2et8_lig

>  <RI>
0

>  <Rbt.Current_Directory>
/home/itssahil/PROJECTS/Mol_Feturizer/New_Systems/rnas/2et8

>  <Rbt.Executable>
rbdock ($Id: //depot/dev/client3/rdock/2013.1/src/exe/rbdock.cxx#4 $)

>  <Rbt.Library>
libRbt.so (2013.1, Build901 2013/11/27)

>  <Rbt.Parameter_File>
/export/apps/rDock/src/rDock_2013.1_src/data/scripts/dock_solv.prm

>  <Rbt.Receptor>
prm/pocket_docking_2.prm

>  <SCORE>
-15.1525

>  <SCORE.INTER>
-14.1377

>  <SCORE.INTER.CONST>
1

>  <SCORE.INTER.POLAR>
-0.959166

>  <SCORE.INTER.ROT>
3

>  <SCORE.INTER.SOLV>
19.2912

>  <SCORE.INTER.VDW>
-18.2583

>  <SCORE.INTER.norm>
-0.642623

>  <SCORE.INTRA>
-1.01479

>  <SCORE.INTRA.DIHEDRAL>
-0.987179

>  <SCORE.INTRA.DIHEDRAL.0>
4.99603

>  <SCORE.INTRA.POLAR>
0

>  <SCORE.INTRA.POLAR.0>
0

>  <SCORE.INTRA.REPUL>
0

>  <SCORE.INTRA.REPUL.0>
0

>  <SCORE.INTRA.SOLV>
0.268948

>  <SCORE.INTRA.SOLV.lig_0>
-74.884

>  <SCORE.INTRA.VDW>
-0.655671

>  <SCORE.INTRA.VDW.0>
-0.858933

>  <SCORE.INTRA.norm>
-0.0461266

>  <SCORE.RESTR>
0

>  <SCORE.RESTR.CAVITY>
0

>  <SCORE.RESTR.norm>
0

>  <SCORE.SYSTEM>
0

>  <SCORE.SYSTEM.CONST>
0

>  <SCORE.SYSTEM.DIHEDRAL>
0

>  <SCORE.SYSTEM.SOLV>
0

>  <SCORE.SYSTEM.norm>
0

>  <SCORE.heavy>
22

>  <SCORE.norm>
-0.688749

>  <RMSD>
0.470

$$$$
2et8_lig
 OpenBabel11021811433D
libRbt.so/2013.1/901 2013/11/27
 22 23  0  0  0  0  0  0  0  0999 V2000
   26.2646   17.1531   35.4029 N   0  0  0  0  0  0  0  0  0  0  0  0
   23.7938   14.9127   39.0748 N   0  0  0  0  0  0  0  0  0  0  0  0
   22.9681   10.9463   39.2208 N   0  0  0  0  0  0  0  0  0  0  0  0
   21.7358   15.3561   34.6370 O   0  0  0  0  0  0  0  0  0  0  0  0
   22.5853   15.9817   35.6301 C   0  0  2  0  0  0  0  0  0  0  0  0
   18.6088   15.3699   36.8563 N   0  0  0  0  0  0  0  0  0  0  0  0
   23.9309   17.1001   33.8574 O   0  0  0  0  0  0  0  0  0  0  0  0
   24.0087   16.2482   35.0073 C   0  0  1  0  0  0  0  0  0  0  0  0
   21.4921   14.8281   37.3978 O   0  0  0  0  0  0  0  0  0  0  0  0
   24.9132   16.9134   36.0154 C   0  0  1  0  0  0  0  0  0  0  0  0
   21.1156   12.5569   37.3480 O   0  0  0  0  0  0  0  0  0  0  0  0
   25.0330   16.0100   37.2642 C   0  0  0  0  0  0  0  0  0  0  0  0
   19.4588   12.4841   40.5992 O   0  0  0  0  0  0  0  0  0  0  0  0
   23.6054   15.7968   37.8469 C   0  0  1  0  0  0  0  0  0  0  0  0
   17.6450   14.0508   39.1525 O   0  0  0  0  0  0  0  0  0  0  0  0
   22.7486   15.0317   36.8824 C   0  0  2  0  0  0  0  0  0  0  0  0
   20.6242   13.9060   36.8249 C   0  0  1  0  0  0  0  0  0  0  0  0
   21.0004   12.4255   38.8328 C   0  0  2  0  0  0  0  0  0  0  0  0
   21.4844   11.0350   39.2939 C   0  0  0  0  0  0  0  0  0  0  0  0
   19.5614   12.5925   39.2202 C   0  0  2  0  0  0  0  0  0  0  0  0
   19.0268   13.9264   38.7860 C   0  0  1  0  0  0  0  0  0  0  0  0
   19.1517   14.0377   37.3053 C   0  0  1  0  0  0  0  0  0  0  0  0
  5  4  1  6  0  0  0
  5  8  1  0  0  0  0
  5 16  1  0  0  0  0
  8  7  1  6  0  0  0
  8 10  1  0  0  0  0
 10  1  1  6  0  0  0
 10 12  1  0  0  0  0
 11 18  1  0  0  0  0
 12 14  1  0  0  0  0
 14  2  1  1  0  0  0
 14 16  1  0  0  0  0
 16  9  1  1  0  0  0
 17  9  1  1  0  0  0
 17 11  1  0  0  0  0
 17 22  1  0  0  0  0
 18 19  1  6  0  0  0
 18 20  1  0  0  0  0
 19  3  1  0  0  0  0
 20 13  1  1  0  0  0
 20 21  1  0  0  0  0
 21 15  1  6  0  0  0
 21 22  1  0  0  0  0
 22  6  1  1  0  0  0
M  END
>  <CHROM.1>
79.97340409,78.87428293,73.82217461,21.82003951,14.47473012,37.38079356,-0.82416053
0.03742689,2.34819555

>  <Name>
2et8_lig

>  <RI>
0

>  <Rbt.Current_Directory>
/home/itssahil/PROJECTS/Mol_Feturizer/New_Systems/rnas/2et8

>  <Rbt.Executable>
rbdock ($Id: //depot/dev/client3/rdock/2013.1/src/exe/rbdock.cxx#4 $)

>  <Rbt.Library>
libRbt.so (2013.1, Build901 2013/11/27)

>  <Rbt.Parameter_File>
/export/apps/rDock/src/rDock_2013.1_src/data/scripts/dock_solv.prm

>  <Rbt.Receptor>
prm/pocket_docking_2.prm

>  <SCORE>
-15.1702

>  <SCORE.INTER>
-14.2453

>  <SCORE.INTER.CONST>
1

>  <SCORE.INTER.POLAR>
-0.959166

>  <SCORE.INTER.ROT>
3

>  <SCORE.INTER.SOLV>
19.2

>  <SCORE.INTER.VDW>
-18.2997

>  <SCORE.INTER.norm>
-0.647516

>  <SCORE.INTRA>
-0.92487

>  <SCORE.INTRA.DIHEDRAL>
-0.814495

>  <SCORE.INTRA.DIHEDRAL.0>
4.99603

>  <SCORE.INTRA.POLAR>
0

>  <SCORE.INTRA.POLAR.0>
0

>  <SCORE.INTRA.REPUL>
0

>  <SCORE.INTRA.REPUL.0>
0

>  <SCORE.INTRA.SOLV>
0.334076

>  <SCORE.INTRA.SOLV.lig_0>
-74.884

>  <SCORE.INTRA.VDW>
-0.68466

>  <SCORE.INTRA.VDW.0>
-0.858933

>  <SCORE.INTRA.norm>
-0.0420395

>  <SCORE.RESTR>
0

>  <SCORE.RESTR.CAVITY>
0

>  <SCORE.RESTR.norm>
0

>  <SCORE.SYSTEM>
0

>  <SCORE.SYSTEM.CONST>
0

>  <SCORE.SYSTEM.DIHEDRAL>
0

>  <SCORE.SYSTEM.SOLV>
0

>  <SCORE.SYSTEM.norm>
0

>  <SCORE.heavy>
22

>  <SCORE.norm>
-0.689555

>  <RMSD>
0.474

$$$$
2et8_lig
 OpenBabel11021811433D
libRbt.so/2013.1/901 2013/11/27
 22 23  0  0  0  0  0  0  0  0999 V2000
   26.1689   17.1887   35.2633 N   0  0  0  0  0  0  0  0  0  0  0  0
   23.8591   15.0117   39.0756 N   0  0  0  0  0  0  0  0  0  0  0  0
   23.0672   10.9137   39.2619 N   0  0  0  0  0  0  0  0  0  0  0  0
   21.6967   15.1956   34.6692 O   0  0  0  0  0  0  0  0  0  0  0  0
   22.5418   15.8925   35.6176 C   0  0  2  0  0  0  0  0  0  0  0  0
   18.6328   15.2791   36.9468 N   0  0  0  0  0  0  0  0  0  0  0  0
   23.8081   16.9859   33.7723 O   0  0  0  0  0  0  0  0  0  0  0  0
   23.9413   16.1855   34.9537 C   0  0  1  0  0  0  0  0  0  0  0  0
   21.5289   14.7731   37.4537 O   0  0  0  0  0  0  0  0  0  0  0  0
   24.8401   16.9247   35.9142 C   0  0  1  0  0  0  0  0  0  0  0  0
   21.1755   12.4977   37.4348 O   0  0  0  0  0  0  0  0  0  0  0  0
   25.0192   16.0785   37.1956 C   0  0  0  0  0  0  0  0  0  0  0  0
   19.5651   12.4450   40.7097 O   0  0  0  0  0  0  0  0  0  0  0  0
   23.6127   15.8369   37.8174 C   0  0  1  0  0  0  0  0  0  0  0  0
   17.7151   13.9764   39.2711 O   0  0  0  0  0  0  0  0  0  0  0  0
   22.7661   15.0016   36.9033 C   0  0  2  0  0  0  0  0  0  0  0  0
   20.6628   13.8357   36.9035 C   0  0  1  0  0  0  0  0  0  0  0  0
   21.0825   12.3821   38.9225 C   0  0  2  0  0  0  0  0  0  0  0  0
   21.5873   11.0020   39.3924 C   0  0  0  0  0  0  0  0  0  0  0  0
   19.6473   12.5387   39.3282 C   0  0  2  0  0  0  0  0  0  0  0  0
   19.0928   13.8620   38.8866 C   0  0  1  0  0  0  0  0  0  0  0  0
   19.1958   13.9577   37.4031 C   0  0  1  0  0  0  0  0  0  0  0  0
  5  4  1  6  0  0  0
  5  8  1  0  0  0  0
  5 16  1  0  0  0  0
  8  7  1  6  0  0  0
  8 10  1  0  0  0  0
 10  1  1  6  0  0  0
 10 12  1  0  0  0  0
 11 18  1  0  0  0  0
 12 14  1  0  0  0  0
 14  2  1  1  0  0  0
 14 16  1  0  0  0  0
 16  9  1  1  0  0  0
 17  9  1  1  0  0  0
 17 11  1  0  0  0  0
 17 22  1  0  0  0  0
 18 19  1  6  0  0  0
 18 20  1  0  0  0  0
 19  3  1  0  0  0  0
 20 13  1  1  0  0  0
 20 21  1  0  0  0  0
 21 15  1  6  0  0  0
 21 22  1  0  0  0  0
 22  6  1  1  0  0  0
M  END
>  <CHROM.1>
77.26700795,80.10496258,72.16770987,21.84059145,14.43236783,37.41079849,-0.85476120
0.03583427,2.33336030

>  <Name>
2et8_lig

>  <RI>
3.42619e+07

>  <Rbt.Current_Directory>
/home/itssahil/PROJECTS/Mol_Feturizer/New_Systems/rnas/2et8

>  <Rbt.Executable>
rbdock ($Id: //depot/dev/client3/rdock/2013.1/src/exe/rbdock.cxx#4 $)

>  <Rbt.Library>
libRbt.so (2013.1, Build901 2013/11/27)

>  <Rbt.Parameter_File>
/export/apps/rDock/src/rDock_2013.1_src/data/scripts/dock_solv.prm

>  <Rbt.Receptor>
prm/pocket_docking_4.prm

>  <SCORE>
-15.2568

>  <SCORE.INTER>
-14.1481

>  <SCORE.INTER.CONST>
1

>  <SCORE.INTER.POLAR>
-0.959166

>  <SCORE.INTER.ROT>
3

>  <SCORE.INTER.SOLV>
19.5156

>  <SCORE.INTER.VDW>
-18.34

>  <SCORE.INTER.norm>
-0.643096

>  <SCORE.INTRA>
-1.10869

>  <SCORE.INTRA.DIHEDRAL>
-1.17447

>  <SCORE.INTRA.DIHEDRAL.0>
4.99603

>  <SCORE.INTRA.POLAR>
0

>  <SCORE.INTRA.POLAR.0>
0

>  <SCORE.INTRA.REPUL>
0

>  <SCORE.INTRA.REPUL.0>
0

>  <SCORE.INTRA.SOLV>
0.06621

>  <SCORE.INTRA.SOLV.lig_0>
-74.884

>  <SCORE.INTRA.VDW>
-0.554562

>  <SCORE.INTRA.VDW.0>
-0.858933

>  <SCORE.INTRA.norm>
-0.0503952

>  <SCORE.RESTR>
0

>  <SCORE.RESTR.CAVITY>
0

>  <SCORE.RESTR.norm>
0

>  <SCORE.SYSTEM>
0

>  <SCORE.SYSTEM.CONST>
0

>  <SCORE.SYSTEM.DIHEDRAL>
0

>  <SCORE.SYSTEM.SOLV>
0

>  <SCORE.SYSTEM.norm>
0

>  <SCORE.heavy>
22

>  <SCORE.norm>
-0.693491

>  <RMSD>
0.478

$$$$
2et8_lig
 OpenBabel11021811433D
libRbt.so/2013.1/901 2013/11/27
 22 23  0  0  0  0  0  0  0  0999 V2000
   26.2903   17.1031   35.4419 N   0  0  0  0  0  0  0  0  0  0  0  0
   23.8057   14.8773   39.1134 N   0  0  0  0  0  0  0  0  0  0  0  0
   23.0293   10.9880   39.2978 N   0  0  0  0  0  0  0  0  0  0  0  0
   21.7384   15.3619   34.6842 O   0  0  0  0  0  0  0  0  0  0  0  0
   22.5984   15.9737   35.6768 C   0  0  2  0  0  0  0  0  0  0  0  0
   18.6038   15.3203   36.9134 N   0  0  0  0  0  0  0  0  0  0  0  0
   23.9511   17.0833   33.9040 O   0  0  0  0  0  0  0  0  0  0  0  0
   24.0228   16.2261   35.0503 C   0  0  1  0  0  0  0  0  0  0  0  0
   21.4976   14.8260   37.4437 O   0  0  0  0  0  0  0  0  0  0  0  0
   24.9383   16.8768   36.0580 C   0  0  1  0  0  0  0  0  0  0  0  0
   21.1476   12.5501   37.4552 O   0  0  0  0  0  0  0  0  0  0  0  0
   25.0517   15.9671   37.3028 C   0  0  0  0  0  0  0  0  0  0  0  0
   19.5190   12.5417   40.7215 O   0  0  0  0  0  0  0  0  0  0  0  0
   23.6235   15.7683   37.8895 C   0  0  1  0  0  0  0  0  0  0  0  0
   17.6748   14.0495   39.2509 O   0  0  0  0  0  0  0  0  0  0  0  0
   22.7547   15.0170   36.9249 C   0  0  2  0  0  0  0  0  0  0  0  0
   20.6360   13.8795   36.9021 C   0  0  1  0  0  0  0  0  0  0  0  0
   21.0464   12.4555   38.9439 C   0  0  2  0  0  0  0  0  0  0  0  0
   21.5506   11.0831   39.4362 C   0  0  0  0  0  0  0  0  0  0  0  0
   19.6088   12.6158   39.3393 C   0  0  2  0  0  0  0  0  0  0  0  0
   19.0548   13.9317   38.8757 C   0  0  1  0  0  0  0  0  0  0  0  0
   19.1660   14.0064   37.3917 C   0  0  1  0  0  0  0  0  0  0  0  0
  5  4  1  6  0  0  0
  5  8  1  0  0  0  0
  5 16  1  0  0  0  0
  8  7  1  6  0  0  0
  8 10  1  0  0  0  0
 10  1  1  6  0  0  0
 10 12  1  0  0  0  0
 11 18  1  0  0  0  0
 12 14  1  0  0  0  0
 14  2  1  1  0  0  0
 14 16  1  0  0  0  0
 16  9  1  1  0  0  0
 17  9  1  1  0  0  0
 17 11  1  0  0  0  0
 17 22  1  0  0  0  0
 18 19  1  6  0  0  0
 18 20  1  0  0  0  0
 19  3  1  0  0  0  0
 20 13  1  1  0  0  0
 20 21  1  0  0  0  0
 21 15  1  6  0  0  0
 21 22  1  0  0  0  0
 22  6  1  1  0  0  0
M  END
>  <CHROM.1>
82.48650557,77.89569201,71.38573242,21.84526759,14.46805069,37.45204540,-0.82655679
0.03495265,2.33318812

>  <Name>
2et8_lig

>  <RI>
0

>  <Rbt.Current_Directory>
/home/itssahil/PROJECTS/Mol_Feturizer/New_Systems/rnas/2et8

>  <Rbt.Executable>
rbdock ($Id: //depot/dev/client3/rdock/2013.1/src/exe/rbdock.cxx#4 $)

>  <Rbt.Library>
libRbt.so (2013.1, Build901 2013/11/27)

>  <Rbt.Parameter_File>
/export/apps/rDock/src/rDock_2013.1_src/data/scripts/dock_solv.prm

>  <Rbt.Receptor>
prm/pocket_docking_3.prm

>  <SCORE>
-15.2976

>  <SCORE.INTER>
-14.378

>  <SCORE.INTER.CONST>
1

>  <SCORE.INTER.POLAR>
-0.959166

>  <SCORE.INTER.ROT>
3

>  <SCORE.INTER.SOLV>
18.9

>  <SCORE.INTER.VDW>
-18.2881

>  <SCORE.INTER.norm>
-0.653545

>  <SCORE.INTRA>
-0.919628

>  <SCORE.INTRA.DIHEDRAL>
-0.757584

>  <SCORE.INTRA.DIHEDRAL.0>
4.99603

>  <SCORE.INTRA.POLAR>
0

>  <SCORE.INTRA.POLAR.0>
0

>  <SCORE.INTRA.REPUL>
0

>  <SCORE.INTRA.REPUL.0>
0

>  <SCORE.INTRA.SOLV>
0.56422

>  <SCORE.INTRA.SOLV.lig_0>
-74.884

>  <SCORE.INTRA.VDW>
-0.822946

>  <SCORE.INTRA.VDW.0>
-0.858933

>  <SCORE.INTRA.norm>
-0.0418013

>  <SCORE.RESTR>
0

>  <SCORE.RESTR.CAVITY>
0

>  <SCORE.RESTR.norm>
0

>  <SCORE.SYSTEM>
0

>  <SCORE.SYSTEM.CONST>
0

>  <SCORE.SYSTEM.DIHEDRAL>
0

>  <SCORE.SYSTEM.SOLV>
0

>  <SCORE.SYSTEM.norm>
0

>  <SCORE.heavy>
22

>  <SCORE.norm>
-0.695346

>  <RMSD>
0.479

$$$$
2et8_lig
 OpenBabel11021811433D
libRbt.so/2013.1/901 2013/11/27
 22 23  0  0  0  0  0  0  0  0999 V2000
   26.2487   17.1626   35.3952 N   0  0  0  0  0  0  0  0  0  0  0  0
   23.8719   14.9371   39.1376 N   0  0  0  0  0  0  0  0  0  0  0  0
   23.0472   10.8943   39.2713 N   0  0  0  0  0  0  0  0  0  0  0  0
   21.7407   15.2769   34.7252 O   0  0  0  0  0  0  0  0  0  0  0  0
   22.5940   15.9322   35.6958 C   0  0  2  0  0  0  0  0  0  0  0  0
   18.6574   15.3284   36.9915 N   0  0  0  0  0  0  0  0  0  0  0  0
   23.8936   17.0460   33.8862 O   0  0  0  0  0  0  0  0  0  0  0  0
   24.0032   16.2133   35.0475 C   0  0  1  0  0  0  0  0  0  0  0  0
   21.5473   14.7874   37.4970 O   0  0  0  0  0  0  0  0  0  0  0  0
   24.9109   16.9093   36.0316 C   0  0  1  0  0  0  0  0  0  0  0  0
   21.1726   12.5161   37.4423 O   0  0  0  0  0  0  0  0  0  0  0  0
   25.0649   16.0274   37.2920 C   0  0  0  0  0  0  0  0  0  0  0  0
   19.5539   12.4282   40.7123 O   0  0  0  0  0  0  0  0  0  0  0  0
   23.6500   15.7989   37.8995 C   0  0  1  0  0  0  0  0  0  0  0  0
   17.7218   13.9989   39.2933 O   0  0  0  0  0  0  0  0  0  0  0  0
   22.7923   15.0045   36.9597 C   0  0  2  0  0  0  0  0  0  0  0  0
   20.6738   13.8668   36.9305 C   0  0  1  0  0  0  0  0  0  0  0  0
   21.0749   12.3784   38.9278 C   0  0  2  0  0  0  0  0  0  0  0  0
   21.5656   10.9866   39.3775 C   0  0  0  0  0  0  0  0  0  0  0  0
   19.6403   12.5424   39.3326 C   0  0  2  0  0  0  0  0  0  0  0  0
   19.0993   13.8774   38.9102 C   0  0  1  0  0  0  0  0  0  0  0  0
   19.2068   13.9949   37.4286 C   0  0  1  0  0  0  0  0  0  0  0  0
  5  4  1  6  0  0  0
  5  8  1  0  0  0  0
  5 16  1  0  0  0  0
  8  7  1  6  0  0  0
  8 10  1  0  0  0  0
 10  1  1  6  0  0  0
 10 12  1  0  0  0  0
 11 18  1  0  0  0  0
 12 14  1  0  0  0  0
 14  2  1  1  0  0  0
 14 16  1  0  0  0  0
 16  9  1  1  0  0  0
 17  9  1  1  0  0  0
 17 11  1  0  0  0  0
 17 22  1  0  0  0  0
 18 19  1  6  0  0  0
 18 20  1  0  0  0  0
 19  3  1  0  0  0  0
 20 13  1  1  0  0  0
 20 21  1  0  0  0  0
 21 15  1  6  0  0  0
 21 22  1  0  0  0  0
 22  6  1  1  0  0  0
M  END
>  <CHROM.1>
78.28833473,79.55194263,73.14244573,21.86432671,14.43965860,37.45989921,-0.84076153
0.03080626,2.34909490

>  <Name>
2et8_lig

>  <RI>
2.82936e+07

>  <Rbt.Current_Directory>
/home/itssahil/PROJECTS/Mol_Feturizer/New_Systems/rnas/2et8

>  <Rbt.Executable>
rbdock ($Id: //depot/dev/client3/rdock/2013.1/src/exe/rbdock.cxx#4 $)

>  <Rbt.Library>
libRbt.so (2013.1, Build901 2013/11/27)

>  <Rbt.Parameter_File>
/export/apps/rDock/src/rDock_2013.1_src/data/scripts/dock_solv.prm

>  <Rbt.Receptor>
prm/pocket_docking_8.prm

>  <SCORE>
-15.308

>  <SCORE.INTER>
-14.2713

>  <SCORE.INTER.CONST>
1

>  <SCORE.INTER.POLAR>
-0.959166

>  <SCORE.INTER.ROT>
3

>  <SCORE.INTER.SOLV>
19.359

>  <SCORE.INTER.VDW>
-18.37

>  <SCORE.INTER.norm>
-0.648697

>  <SCORE.INTRA>
-1.03664

>  <SCORE.INTRA.DIHEDRAL>
-1.02948

>  <SCORE.INTRA.DIHEDRAL.0>
4.99603

>  <SCORE.INTRA.POLAR>
0

>  <SCORE.INTRA.POLAR.0>
0

>  <SCORE.INTRA.REPUL>
0

>  <SCORE.INTRA.REPUL.0>
0

>  <SCORE.INTRA.SOLV>
0.16739

>  <SCORE.INTRA.SOLV.lig_0>
-74.884

>  <SCORE.INTRA.VDW>
-0.6056

>  <SCORE.INTRA.VDW.0>
-0.858933

>  <SCORE.INTRA.norm>
-0.0471202

>  <SCORE.RESTR>
0

>  <SCORE.RESTR.CAVITY>
0

>  <SCORE.RESTR.norm>
0

>  <SCORE.SYSTEM>
0

>  <SCORE.SYSTEM.CONST>
0

>  <SCORE.SYSTEM.DIHEDRAL>
0

>  <SCORE.SYSTEM.SOLV>
0

>  <SCORE.SYSTEM.norm>
0

>  <SCORE.heavy>
22

>  <SCORE.norm>
-0.695817

>  <RMSD>
0.479

$$$$
2et8_lig
 OpenBabel11021811433D
libRbt.so/2013.1/901 2013/11/27
 22 23  0  0  0  0  0  0  0  0999 V2000
   26.4717   17.1257   35.5828 N   0  0  0  0  0  0  0  0  0  0  0  0
   23.8458   14.9071   39.1591 N   0  0  0  0  0  0  0  0  0  0  0  0
   23.0560   11.0112   39.2853 N   0  0  0  0  0  0  0  0  0  0  0  0
   21.9415   15.4080   34.6592 O   0  0  0  0  0  0  0  0  0  0  0  0
   22.7683   16.0141   35.6831 C   0  0  2  0  0  0  0  0  0  0  0  0
   18.7254   15.3847   36.7939 N   0  0  0  0  0  0  0  0  0  0  0  0
   24.1892   17.1195   33.9618 O   0  0  0  0  0  0  0  0  0  0  0  0
   24.2154   16.2604   35.1086 C   0  0  1  0  0  0  0  0  0  0  0  0
   21.5991   14.8695   37.4074 O   0  0  0  0  0  0  0  0  0  0  0  0
   25.0972   16.9052   36.1495 C   0  0  1  0  0  0  0  0  0  0  0  0
   21.2380   12.5954   37.3818 O   0  0  0  0  0  0  0  0  0  0  0  0
   25.1614   15.9933   37.3963 C   0  0  0  0  0  0  0  0  0  0  0  0
   19.5090   12.5579   40.5958 O   0  0  0  0  0  0  0  0  0  0  0  0
   23.7121   15.8007   37.9309 C   0  0  1  0  0  0  0  0  0  0  0  0
   17.7185   14.0919   39.0866 O   0  0  0  0  0  0  0  0  0  0  0  0
   22.8749   15.0550   36.9345 C   0  0  2  0  0  0  0  0  0  0  0  0
   20.7501   13.9337   36.8285 C   0  0  1  0  0  0  0  0  0  0  0  0
   21.0903   12.4843   38.8654 C   0  0  2  0  0  0  0  0  0  0  0  0
   21.5725   11.1037   39.3571 C   0  0  0  0  0  0  0  0  0  0  0  0
   19.6419   12.6474   39.2180 C   0  0  2  0  0  0  0  0  0  0  0  0
   19.1089   13.9714   38.7529 C   0  0  1  0  0  0  0  0  0  0  0  0
   19.2663   14.0625   37.2739 C   0  0  1  0  0  0  0  0  0  0  0  0
  5  4  1  6  0  0  0
  5  8  1  0  0  0  0
  5 16  1  0  0  0  0
  8  7  1  6  0  0  0
  8 10  1  0  0  0  0
 10  1  1  6  0  0  0
 10 12  1  0  0  0  0
 11 18  1  0  0  0  0
 12 14  1  0  0  0  0
 14  2  1  1  0  0  0
 14 16  1  0  0  0  0
 16  9  1  1  0  0  0
 17  9  1  1  0  0  0
 17 11  1  0  0  0  0
 17 22  1  0  0  0  0
 18 19  1  6  0  0  0
 18 20  1  0  0  0  0
 19  3  1  0  0  0  0
 20 13  1  1  0  0  0
 20 21  1  0  0  0  0
 21 15  1  6  0  0  0
 21 22  1  0  0  0  0
 22  6  1  1  0  0  0
M  END
>  <CHROM.1>
82.09217467,77.54909780,72.35947225,21.94742674,14.50442848,37.42337526,-0.79803020
0.05417021,2.33878272

>  <Name>
2et8_lig

>  <RI>
0

>  <Rbt.Current_Directory>
/home/itssahil/PROJECTS/Mol_Feturizer/New_Systems/rnas/2et8

>  <Rbt.Executable>
rbdock ($Id: //depot/dev/client3/rdock/2013.1/src/exe/rbdock.cxx#4 $)

>  <Rbt.Library>
libRbt.so (2013.1, Build901 2013/11/27)

>  <Rbt.Parameter_File>
/export/apps/rDock/src/rDock_2013.1_src/data/scripts/dock_solv.prm

>  <Rbt.Receptor>
prm/pocket_docking_2.prm

>  <SCORE>
-15.1734

>  <SCORE.INTER>
-14.2303

>  <SCORE.INTER.CONST>
1

>  <SCORE.INTER.POLAR>
-0.959166

>  <SCORE.INTER.ROT>
3

>  <SCORE.INTER.SOLV>
18.9314

>  <SCORE.INTER.VDW>
-18.2001

>  <SCORE.INTER.norm>
-0.646832

>  <SCORE.INTRA>
-0.943121

>  <SCORE.INTRA.DIHEDRAL>
-0.796405

>  <SCORE.INTRA.DIHEDRAL.0>
4.99603

>  <SCORE.INTRA.POLAR>
0

>  <SCORE.INTRA.POLAR.0>
0

>  <SCORE.INTRA.REPUL>
0

>  <SCORE.INTRA.REPUL.0>
0

>  <SCORE.INTRA.SOLV>
0.521233

>  <SCORE.INTRA.SOLV.lig_0>
-74.884

>  <SCORE.INTRA.VDW>
-0.805535

>  <SCORE.INTRA.VDW.0>
-0.858933

>  <SCORE.INTRA.norm>
-0.0428692

>  <SCORE.RESTR>
0

>  <SCORE.RESTR.CAVITY>
0

>  <SCORE.RESTR.norm>
0

>  <SCORE.SYSTEM>
0

>  <SCORE.SYSTEM.CONST>
0

>  <SCORE.SYSTEM.DIHEDRAL>
0

>  <SCORE.SYSTEM.SOLV>
0

>  <SCORE.SYSTEM.norm>
0

>  <SCORE.heavy>
22

>  <SCORE.norm>
-0.689701

>  <RMSD>
0.480

$$$$
2et8_lig
 OpenBabel11021811433D
libRbt.so/2013.1/901 2013/11/27
 22 23  0  0  0  0  0  0  0  0999 V2000
   26.3014   17.1056   35.4563 N   0  0  0  0  0  0  0  0  0  0  0  0
   23.7608   14.8651   39.0803 N   0  0  0  0  0  0  0  0  0  0  0  0
   22.9264   10.9883   39.2825 N   0  0  0  0  0  0  0  0  0  0  0  0
   21.7458   15.4039   34.6333 O   0  0  0  0  0  0  0  0  0  0  0  0
   22.5992   16.0006   35.6407 C   0  0  2  0  0  0  0  0  0  0  0  0
   18.5925   15.3887   36.8199 N   0  0  0  0  0  0  0  0  0  0  0  0
   23.9791   17.1162   33.8928 O   0  0  0  0  0  0  0  0  0  0  0  0
   24.0321   16.2483   35.0321 C   0  0  1  0  0  0  0  0  0  0  0  0
   21.4710   14.8452   37.3851 O   0  0  0  0  0  0  0  0  0  0  0  0
   24.9410   16.8835   36.0555 C   0  0  1  0  0  0  0  0  0  0  0  0
   21.0885   12.5746   37.3589 O   0  0  0  0  0  0  0  0  0  0  0  0
   25.0343   15.9620   37.2933 C   0  0  0  0  0  0  0  0  0  0  0  0
   19.4118   12.5435   40.6006 O   0  0  0  0  0  0  0  0  0  0  0  0
   23.5984   15.7683   37.8626 C   0  0  1  0  0  0  0  0  0  0  0  0
   17.6112   14.0985   39.1251 O   0  0  0  0  0  0  0  0  0  0  0  0
   22.7350   15.0318   36.8818 C   0  0  2  0  0  0  0  0  0  0  0  0
   20.6040   13.9190   36.8175 C   0  0  1  0  0  0  0  0  0  0  0  0
   20.9640   12.4605   38.8444 C   0  0  2  0  0  0  0  0  0  0  0  0
   21.4413   11.0741   39.3243 C   0  0  0  0  0  0  0  0  0  0  0  0
   19.5231   12.6359   39.2211 C   0  0  2  0  0  0  0  0  0  0  0  0
   18.9948   13.9661   38.7685 C   0  0  1  0  0  0  0  0  0  0  0  0
   19.1290   14.0602   37.2874 C   0  0  1  0  0  0  0  0  0  0  0  0
  5  4  1  6  0  0  0
  5  8  1  0  0  0  0
  5 16  1  0  0  0  0
  8  7  1  6  0  0  0
  8 10  1  0  0  0  0
 10  1  1  6  0  0  0
 10 12  1  0  0  0  0
 11 18  1  0  0  0  0
 12 14  1  0  0  0  0
 14  2  1  1  0  0  0
 14 16  1  0  0  0  0
 16  9  1  1  0  0  0
 17  9  1  1  0  0  0
 17 11  1  0  0  0  0
 17 22  1  0  0  0  0
 18 19  1  6  0  0  0
 18 20  1  0  0  0  0
 19  3  1  0  0  0  0
 20 13  1  1  0  0  0
 20 21  1  0  0  0  0
 21 15  1  6  0  0  0
 21 22  1  0  0  0  0
 22  6  1  1  0  0  0
M  END
>  <CHROM.1>
81.85343553,78.33899241,74.75749200,21.80764661,14.48819209,37.39000640,-0.81154024
0.03892836,2.34157601

>  <Name>
2et8_lig

>  <RI>
0

>  <Rbt.Current_Directory>
/home/itssahil/PROJECTS/Mol_Feturizer/New_Systems/rnas/2et8

>  <Rbt.Executable>
rbdock ($Id: //depot/dev/client3/rdock/2013.1/src/exe/rbdock.cxx#4 $)

>  <Rbt.Library>
libRbt.so (2013.1, Build901 2013/11/27)

>  <Rbt.Parameter_File>
/export/apps/rDock/src/rDock_2013.1_src/data/scripts/dock_solv.prm

>  <Rbt.Receptor>
prm/pocket_docking_2.prm

>  <SCORE>
-15.1283

>  <SCORE.INTER>
-14.3731

>  <SCORE.INTER.CONST>
1

>  <SCORE.INTER.POLAR>
-0.959166

>  <SCORE.INTER.ROT>
3

>  <SCORE.INTER.SOLV>
18.7904

>  <SCORE.INTER.VDW>
-18.2483

>  <SCORE.INTER.norm>
-0.653324

>  <SCORE.INTRA>
-0.755206

>  <SCORE.INTRA.DIHEDRAL>
-0.502672

>  <SCORE.INTRA.DIHEDRAL.0>
4.99603

>  <SCORE.INTRA.POLAR>
0

>  <SCORE.INTRA.POLAR.0>
0

>  <SCORE.INTRA.REPUL>
0

>  <SCORE.INTRA.REPUL.0>
0

>  <SCORE.INTRA.SOLV>
0.524351

>  <SCORE.INTRA.SOLV.lig_0>
-74.884

>  <SCORE.INTRA.VDW>
-0.766046

>  <SCORE.INTRA.VDW.0>
-0.858933

>  <SCORE.INTRA.norm>
-0.0343275

>  <SCORE.RESTR>
0

>  <SCORE.RESTR.CAVITY>
0

>  <SCORE.RESTR.norm>
0

>  <SCORE.SYSTEM>
0

>  <SCORE.SYSTEM.CONST>
0

>  <SCORE.SYSTEM.DIHEDRAL>
0

>  <SCORE.SYSTEM.SOLV>
0

>  <SCORE.SYSTEM.norm>
0

>  <SCORE.heavy>
22

>  <SCORE.norm>
-0.687651

>  <RMSD>
0.481

$$$$
2et8_lig
 OpenBabel11021811433D
libRbt.so/2013.1/901 2013/11/27
 22 23  0  0  0  0  0  0  0  0999 V2000
   26.4051   17.0840   35.4777 N   0  0  0  0  0  0  0  0  0  0  0  0
   23.8132   14.9257   39.1152 N   0  0  0  0  0  0  0  0  0  0  0  0
   23.0645   10.9943   39.2116 N   0  0  0  0  0  0  0  0  0  0  0  0
   21.8661   15.3525   34.6260 O   0  0  0  0  0  0  0  0  0  0  0  0
   22.7027   15.9753   35.6318 C   0  0  2  0  0  0  0  0  0  0  0  0
   18.6605   15.3756   36.8518 N   0  0  0  0  0  0  0  0  0  0  0  0
   24.1072   17.0517   33.8789 O   0  0  0  0  0  0  0  0  0  0  0  0
   24.1443   16.2116   35.0395 C   0  0  1  0  0  0  0  0  0  0  0  0
   21.5499   14.8597   37.3860 O   0  0  0  0  0  0  0  0  0  0  0  0
   25.0361   16.8733   36.0611 C   0  0  1  0  0  0  0  0  0  0  0  0
   21.1928   12.5853   37.3423 O   0  0  0  0  0  0  0  0  0  0  0  0
   25.1120   15.9822   37.3221 C   0  0  0  0  0  0  0  0  0  0  0  0
   19.5462   12.5057   40.5987 O   0  0  0  0  0  0  0  0  0  0  0  0
   23.6679   15.7989   37.8737 C   0  0  1  0  0  0  0  0  0  0  0  0
   17.7148   14.0534   39.1538 O   0  0  0  0  0  0  0  0  0  0  0  0
   22.8211   15.0370   36.8978 C   0  0  2  0  0  0  0  0  0  0  0  0
   20.6883   13.9289   36.8177 C   0  0  1  0  0  0  0  0  0  0  0  0
   21.0831   12.4562   38.8278 C   0  0  2  0  0  0  0  0  0  0  0  0
   21.5804   11.0710   39.2906 C   0  0  0  0  0  0  0  0  0  0  0  0
   19.6438   12.6118   39.2191 C   0  0  2  0  0  0  0  0  0  0  0  0
   19.0965   13.9400   38.7835 C   0  0  1  0  0  0  0  0  0  0  0  0
   19.2161   14.0491   37.3022 C   0  0  1  0  0  0  0  0  0  0  0  0
  5  4  1  6  0  0  0
  5  8  1  0  0  0  0
  5 16  1  0  0  0  0
  8  7  1  6  0  0  0
  8 10  1  0  0  0  0
 10  1  1  6  0  0  0
 10 12  1  0  0  0  0
 11 18  1  0  0  0  0
 12 14  1  0  0  0  0
 14  2  1  1  0  0  0
 14 16  1  0  0  0  0
 16  9  1  1  0  0  0
 17  9  1  1  0  0  0
 17 11  1  0  0  0  0
 17 22  1  0  0  0  0
 18 19  1  6  0  0  0
 18 20  1  0  0  0  0
 19  3  1  0  0  0  0
 20 13  1  1  0  0  0
 20 21  1  0  0  0  0
 21 15  1  6  0  0  0
 21 22  1  0  0  0  0
 22  6  1  1  0  0  0
M  END
>  <CHROM.1>
81.10372237,76.38838879,73.74725344,21.90940556,14.47759241,37.39184432,-0.80778559
0.04008861,2.33960903

>  <Name>
2et8_lig

>  <RI>
0

>  <Rbt.Current_Directory>
/home/itssahil/PROJECTS/Mol_Feturizer/New_Systems/rnas/2et8

>  <Rbt.Executable>
rbdock ($Id: //depot/dev/client3/rdock/2013.1/src/exe/rbdock.cxx#4 $)

>  <Rbt.Library>
libRbt.so (2013.1, Build901 2013/11/27)

>  <Rbt.Parameter_File>
/export/apps/rDock/src/rDock_2013.1_src/data/scripts/dock_solv.prm

>  <Rbt.Receptor>
prm/pocket_docking_2.prm

>  <SCORE>
-15.129

>  <SCORE.INTER>
-14.0687

>  <SCORE.INTER.CONST>
1

>  <SCORE.INTER.POLAR>
-0.959166

>  <SCORE.INTER.ROT>
3

>  <SCORE.INTER.SOLV>
19.4209

>  <SCORE.INTER.VDW>
-18.2555

>  <SCORE.INTER.norm>
-0.639485

>  <SCORE.INTRA>
-1.06035

>  <SCORE.INTRA.DIHEDRAL>
-1.00433

>  <SCORE.INTRA.DIHEDRAL.0>
4.99603

>  <SCORE.INTRA.POLAR>
0

>  <SCORE.INTRA.POLAR.0>
0

>  <SCORE.INTRA.REPUL>
0

>  <SCORE.INTRA.REPUL.0>
0

>  <SCORE.INTRA.SOLV>
0.39983

>  <SCORE.INTRA.SOLV.lig_0>
-74.884

>  <SCORE.INTRA.VDW>
-0.758095

>  <SCORE.INTRA.VDW.0>
-0.858933

>  <SCORE.INTRA.norm>
-0.0481975

>  <SCORE.RESTR>
0

>  <SCORE.RESTR.CAVITY>
0

>  <SCORE.RESTR.norm>
0

>  <SCORE.SYSTEM>
0

>  <SCORE.SYSTEM.CONST>
0

>  <SCORE.SYSTEM.DIHEDRAL>
0

>  <SCORE.SYSTEM.SOLV>
0

>  <SCORE.SYSTEM.norm>
0

>  <SCORE.heavy>
22

>  <SCORE.norm>
-0.687683

>  <RMSD>
0.485

$$$$
2et8_lig
 OpenBabel11021811433D
libRbt.so/2013.1/901 2013/11/27
 22 23  0  0  0  0  0  0  0  0999 V2000
   26.3219   17.0891   35.4756 N   0  0  0  0  0  0  0  0  0  0  0  0
   23.7959   14.8709   39.1234 N   0  0  0  0  0  0  0  0  0  0  0  0
   23.0126   10.9846   39.3084 N   0  0  0  0  0  0  0  0  0  0  0  0
   21.7753   15.3543   34.6726 O   0  0  0  0  0  0  0  0  0  0  0  0
   22.6260   15.9658   35.6735 C   0  0  2  0  0  0  0  0  0  0  0  0
   18.6176   15.3210   36.8711 N   0  0  0  0  0  0  0  0  0  0  0  0
   23.9987   17.0715   33.9136 O   0  0  0  0  0  0  0  0  0  0  0  0
   24.0572   16.2153   35.0615 C   0  0  1  0  0  0  0  0  0  0  0  0
   21.5052   14.8216   37.4300 O   0  0  0  0  0  0  0  0  0  0  0  0
   24.9632   16.8655   36.0779 C   0  0  1  0  0  0  0  0  0  0  0  0
   21.1511   12.5463   37.4378 O   0  0  0  0  0  0  0  0  0  0  0  0
   25.0623   15.9570   37.3248 C   0  0  0  0  0  0  0  0  0  0  0  0
   19.4901   12.5404   40.6878 O   0  0  0  0  0  0  0  0  0  0  0  0
   23.6278   15.7610   37.8969 C   0  0  1  0  0  0  0  0  0  0  0  0
   17.6632   14.0516   39.1991 O   0  0  0  0  0  0  0  0  0  0  0  0
   22.7678   15.0101   36.9240 C   0  0  2  0  0  0  0  0  0  0  0  0
   20.6473   13.8766   36.8798 C   0  0  1  0  0  0  0  0  0  0  0  0
   21.0349   12.4518   38.9255 C   0  0  2  0  0  0  0  0  0  0  0  0
   21.5318   11.0784   39.4226 C   0  0  0  0  0  0  0  0  0  0  0  0
   19.5937   12.6145   39.3065 C   0  0  2  0  0  0  0  0  0  0  0  0
   19.0467   13.9315   38.8376 C   0  0  1  0  0  0  0  0  0  0  0  0
   19.1728   14.0061   37.3547 C   0  0  1  0  0  0  0  0  0  0  0  0
  5  4  1  6  0  0  0
  5  8  1  0  0  0  0
  5 16  1  0  0  0  0
  8  7  1  6  0  0  0
  8 10  1  0  0  0  0
 10  1  1  6  0  0  0
 10 12  1  0  0  0  0
 11 18  1  0  0  0  0
 12 14  1  0  0  0  0
 14  2  1  1  0  0  0
 14 16  1  0  0  0  0
 16  9  1  1  0  0  0
 17  9  1  1  0  0  0
 17 11  1  0  0  0  0
 17 22  1  0  0  0  0
 18 19  1  6  0  0  0
 18 20  1  0  0  0  0
 19  3  1  0  0  0  0
 20 13  1  1  0  0  0
 20 21  1  0  0  0  0
 21 15  1  6  0  0  0
 21 22  1  0  0  0  0
 22  6  1  1  0  0  0
M  END
>  <CHROM.1>
82.43609483,77.87133797,71.81212150,21.85226890,14.46274723,37.44206238,-0.81806615
0.04103935,2.33205873

>  <Name>
2et8_lig

>  <RI>
0

>  <Rbt.Current_Directory>
/home/itssahil/PROJECTS/Mol_Feturizer/New_Systems/rnas/2et8

>  <Rbt.Executable>
rbdock ($Id: //depot/dev/client3/rdock/2013.1/src/exe/rbdock.cxx#4 $)

>  <Rbt.Library>
libRbt.so (2013.1, Build901 2013/11/27)

>  <Rbt.Parameter_File>
/export/apps/rDock/src/rDock_2013.1_src/data/scripts/dock_solv.prm

>  <Rbt.Receptor>
prm/pocket_docking_3.prm

>  <SCORE>
-15.2763

>  <SCORE.INTER>
-14.3677

>  <SCORE.INTER.CONST>
1

>  <SCORE.INTER.POLAR>
-0.959166

>  <SCORE.INTER.ROT>
3

>  <SCORE.INTER.SOLV>
18.9043

>  <SCORE.INTER.VDW>
-18.2827

>  <SCORE.INTER.norm>
-0.653076

>  <SCORE.INTRA>
-0.908628

>  <SCORE.INTRA.DIHEDRAL>
-0.736007

>  <SCORE.INTRA.DIHEDRAL.0>
4.99603

>  <SCORE.INTRA.POLAR>
0

>  <SCORE.INTRA.POLAR.0>
0

>  <SCORE.INTRA.REPUL>
0

>  <SCORE.INTRA.REPUL.0>
0

>  <SCORE.INTRA.SOLV>
0.560768

>  <SCORE.INTRA.SOLV.lig_0>
-74.884

>  <SCORE.INTRA.VDW>
-0.821009

>  <SCORE.INTRA.VDW.0>
-0.858933

>  <SCORE.INTRA.norm>
-0.0413013

>  <SCORE.RESTR>
0

>  <SCORE.RESTR.CAVITY>
0

>  <SCORE.RESTR.norm>
0

>  <SCORE.SYSTEM>
0

>  <SCORE.SYSTEM.CONST>
0

>  <SCORE.SYSTEM.DIHEDRAL>
0

>  <SCORE.SYSTEM.SOLV>
0

>  <SCORE.SYSTEM.norm>
0

>  <SCORE.heavy>
22

>  <SCORE.norm>
-0.694378

>  <RMSD>
0.487

$$$$
2et8_lig
 OpenBabel11021811433D
libRbt.so/2013.1/901 2013/11/27
 22 23  0  0  0  0  0  0  0  0999 V2000
   26.4394   17.1265   35.5769 N   0  0  0  0  0  0  0  0  0  0  0  0
   23.8545   14.8956   39.1753 N   0  0  0  0  0  0  0  0  0  0  0  0
   23.0563   10.9505   39.2438 N   0  0  0  0  0  0  0  0  0  0  0  0
   21.9104   15.3859   34.6913 O   0  0  0  0  0  0  0  0  0  0  0  0
   22.7426   15.9965   35.7082 C   0  0  2  0  0  0  0  0  0  0  0  0
   18.7155   15.3869   36.8722 N   0  0  0  0  0  0  0  0  0  0  0  0
   24.1436   17.1085   33.9749 O   0  0  0  0  0  0  0  0  0  0  0  0
   24.1837   16.2498   35.1216 C   0  0  1  0  0  0  0  0  0  0  0  0
   21.5935   14.8464   37.4424 O   0  0  0  0  0  0  0  0  0  0  0  0
   25.0709   16.8992   36.1550 C   0  0  1  0  0  0  0  0  0  0  0  0
   21.2224   12.5749   37.3700 O   0  0  0  0  0  0  0  0  0  0  0  0
   25.1499   15.9880   37.4014 C   0  0  0  0  0  0  0  0  0  0  0  0
   19.5286   12.4726   40.6014 O   0  0  0  0  0  0  0  0  0  0  0  0
   23.7061   15.7883   37.9481 C   0  0  1  0  0  0  0  0  0  0  0  0
   17.7282   14.0473   39.1466 O   0  0  0  0  0  0  0  0  0  0  0  0
   22.8644   15.0382   36.9588 C   0  0  2  0  0  0  0  0  0  0  0  0
   20.7342   13.9272   36.8522 C   0  0  1  0  0  0  0  0  0  0  0  0
   21.0905   12.4313   38.8523 C   0  0  2  0  0  0  0  0  0  0  0  0
   21.5720   11.0381   39.3078 C   0  0  0  0  0  0  0  0  0  0  0  0
   19.6467   12.5923   39.2245 C   0  0  2  0  0  0  0  0  0  0  0  0
   19.1144   13.9286   38.7949 C   0  0  1  0  0  0  0  0  0  0  0  0
   19.2559   14.0521   37.3167 C   0  0  1  0  0  0  0  0  0  0  0  0
  5  4  1  6  0  0  0
  5  8  1  0  0  0  0
  5 16  1  0  0  0  0
  8  7  1  6  0  0  0
  8 10  1  0  0  0  0
 10  1  1  6  0  0  0
 10 12  1  0  0  0  0
 11 18  1  0  0  0  0
 12 14  1  0  0  0  0
 14  2  1  1  0  0  0
 14 16  1  0  0  0  0
 16  9  1  1  0  0  0
 17  9  1  1  0  0  0
 17 11  1  0  0  0  0
 17 22  1  0  0  0  0
 18 19  1  6  0  0  0
 18 20  1  0  0  0  0
 19  3  1  0  0  0  0
 20 13  1  1  0  0  0
 20 21  1  0  0  0  0
 21 15  1  6  0  0  0
 21 22  1  0  0  0  0
 22  6  1  1  0  0  0
M  END
>  <CHROM.1>
80.65720703,77.61296629,73.50840845,21.93697531,14.47776435,37.43824560,-0.80487306
0.04579460,2.35344374

>  <Name>
2et8_lig

>  <RI>
0

>  <Rbt.Current_Directory>
/home/itssahil/PROJECTS/Mol_Feturizer/New_Systems/rnas/2et8

>  <Rbt.Executable>
rbdock ($Id: //depot/dev/client3/rdock/2013.1/src/exe/rbdock.cxx#4 $)

>  <Rbt.Library>
libRbt.so (2013.1, Build901 2013/11/27)

>  <Rbt.Parameter_File>
/export/apps/rDock/src/rDock_2013.1_src/data/scripts/dock_solv.prm

>  <Rbt.Receptor>
prm/pocket_docking_2.prm

>  <SCORE>
-15.1373

>  <SCORE.INTER>
-14.156

>  <SCORE.INTER.CONST>
1

>  <SCORE.INTER.POLAR>
-0.959166

>  <SCORE.INTER.ROT>
3

>  <SCORE.INTER.SOLV>
19.2654

>  <SCORE.INTER.VDW>
-18.2619

>  <SCORE.INTER.norm>
-0.643455

>  <SCORE.INTRA>
-0.982683

>  <SCORE.INTRA.DIHEDRAL>
-0.923282

>  <SCORE.INTRA.DIHEDRAL.0>
4.99603

>  <SCORE.INTRA.POLAR>
0

>  <SCORE.INTRA.POLAR.0>
0

>  <SCORE.INTRA.REPUL>
0

>  <SCORE.INTRA.REPUL.0>
0

>  <SCORE.INTRA.SOLV>
0.378036

>  <SCORE.INTRA.SOLV.lig_0>
-74.884

>  <SCORE.INTRA.VDW>
-0.71006

>  <SCORE.INTRA.VDW.0>
-0.858933

>  <SCORE.INTRA.norm>
-0.0446674

>  <SCORE.RESTR>
0.00135208

>  <SCORE.RESTR.CAVITY>
0.00135208

>  <SCORE.RESTR.norm>
6.14583e-05

>  <SCORE.SYSTEM>
0

>  <SCORE.SYSTEM.CONST>
0

>  <SCORE.SYSTEM.DIHEDRAL>
0

>  <SCORE.SYSTEM.SOLV>
0

>  <SCORE.SYSTEM.norm>
0

>  <SCORE.heavy>
22

>  <SCORE.norm>
-0.688061

>  <RMSD>
0.492

$$$$
2et8_lig
 OpenBabel11021811433D
libRbt.so/2013.1/901 2013/11/27
 22 23  0  0  0  0  0  0  0  0999 V2000
   26.3169   17.1077   35.4588 N   0  0  0  0  0  0  0  0  0  0  0  0
   23.7874   14.8842   39.1009 N   0  0  0  0  0  0  0  0  0  0  0  0
   22.9646   10.9660   39.3195 N   0  0  0  0  0  0  0  0  0  0  0  0
   21.7895   15.3322   34.6362 O   0  0  0  0  0  0  0  0  0  0  0  0
   22.6292   15.9548   35.6395 C   0  0  2  0  0  0  0  0  0  0  0  0
   18.6312   15.3376   36.8041 N   0  0  0  0  0  0  0  0  0  0  0  0
   24.0033   17.0643   33.8831 O   0  0  0  0  0  0  0  0  0  0  0  0
   24.0619   16.2135   35.0349 C   0  0  1  0  0  0  0  0  0  0  0  0
   21.5073   14.8089   37.3941 O   0  0  0  0  0  0  0  0  0  0  0  0
   24.9565   16.8755   36.0539 C   0  0  1  0  0  0  0  0  0  0  0  0
   21.1351   12.5366   37.3725 O   0  0  0  0  0  0  0  0  0  0  0  0
   25.0555   15.9730   37.3052 C   0  0  0  0  0  0  0  0  0  0  0  0
   19.4326   12.5088   40.6008 O   0  0  0  0  0  0  0  0  0  0  0  0
   23.6194   15.7677   37.8696 C   0  0  1  0  0  0  0  0  0  0  0  0
   17.6371   14.0508   39.1057 O   0  0  0  0  0  0  0  0  0  0  0  0
   22.7714   15.0056   36.8949 C   0  0  2  0  0  0  0  0  0  0  0  0
   20.6491   13.8769   36.8227 C   0  0  1  0  0  0  0  0  0  0  0  0
   20.9992   12.4268   38.8574 C   0  0  2  0  0  0  0  0  0  0  0  0
   21.4787   11.0442   39.3457 C   0  0  0  0  0  0  0  0  0  0  0  0
   19.5545   12.5970   39.2219 C   0  0  2  0  0  0  0  0  0  0  0  0
   19.0241   13.9234   38.7606 C   0  0  1  0  0  0  0  0  0  0  0  0
   19.1697   14.0131   37.2803 C   0  0  1  0  0  0  0  0  0  0  0  0
  5  4  1  6  0  0  0
  5  8  1  0  0  0  0
  5 16  1  0  0  0  0
  8  7  1  6  0  0  0
  8 10  1  0  0  0  0
 10  1  1  6  0  0  0
 10 12  1  0  0  0  0
 11 18  1  0  0  0  0
 12 14  1  0  0  0  0
 14  2  1  1  0  0  0
 14 16  1  0  0  0  0
 16  9  1  1  0  0  0
 17  9  1  1  0  0  0
 17 11  1  0  0  0  0
 17 22  1  0  0  0  0
 18 19  1  6  0  0  0
 18 20  1  0  0  0  0
 19  3  1  0  0  0  0
 20 13  1  1  0  0  0
 20 21  1  0  0  0  0
 21 15  1  6  0  0  0
 21 22  1  0  0  0  0
 22  6  1  1  0  0  0
M  END
>  <CHROM.1>
80.88703296,78.76947589,74.89929357,21.83904395,14.45709633,37.39435562,-0.81372830
0.04879199,2.33544229

>  <Name>
2et8_lig

>  <RI>
0

>  <Rbt.Current_Directory>
/home/itssahil/PROJECTS/Mol_Feturizer/New_Systems/rnas/2et8

>  <Rbt.Executable>
rbdock ($Id: //depot/dev/client3/rdock/2013.1/src/exe/rbdock.cxx#4 $)

>  <Rbt.Library>
libRbt.so (2013.1, Build901 2013/11/27)

>  <Rbt.Parameter_File>
/export/apps/rDock/src/rDock_2013.1_src/data/scripts/dock_solv.prm

>  <Rbt.Receptor>
prm/pocket_docking_2.prm

>  <SCORE>
-15.148

>  <SCORE.INTER>
-14.3477

>  <SCORE.INTER.CONST>
1

>  <SCORE.INTER.POLAR>
-0.959166

>  <SCORE.INTER.ROT>
3

>  <SCORE.INTER.SOLV>
18.94

>  <SCORE.INTER.VDW>
-18.2812

>  <SCORE.INTER.norm>
-0.652167

>  <SCORE.INTRA>
-0.800845

>  <SCORE.INTRA.DIHEDRAL>
-0.582351

>  <SCORE.INTRA.DIHEDRAL.0>
4.99603

>  <SCORE.INTRA.POLAR>
0

>  <SCORE.INTRA.POLAR.0>
0

>  <SCORE.INTRA.REPUL>
0

>  <SCORE.INTRA.REPUL.0>
0

>  <SCORE.INTRA.SOLV>
0.432808

>  <SCORE.INTRA.SOLV.lig_0>
-74.884

>  <SCORE.INTRA.VDW>
-0.726074

>  <SCORE.INTRA.VDW.0>
-0.858933

>  <SCORE.INTRA.norm>
-0.0364021

>  <SCORE.RESTR>
0.000567699

>  <SCORE.RESTR.CAVITY>
0.000567699

>  <SCORE.RESTR.norm>
2.58045e-05

>  <SCORE.SYSTEM>
0

>  <SCORE.SYSTEM.CONST>
0

>  <SCORE.SYSTEM.DIHEDRAL>
0

>  <SCORE.SYSTEM.SOLV>
0

>  <SCORE.SYSTEM.norm>
0

>  <SCORE.heavy>
22

>  <SCORE.norm>
-0.688544

>  <RMSD>
0.492

$$$$
2et8_lig
 OpenBabel11021811433D
libRbt.so/2013.1/901 2013/11/27
 22 23  0  0  0  0  0  0  0  0999 V2000
   26.4529   17.1121   35.5771 N   0  0  0  0  0  0  0  0  0  0  0  0
   23.8394   14.8685   39.1469 N   0  0  0  0  0  0  0  0  0  0  0  0
   23.0802   10.9984   39.2393 N   0  0  0  0  0  0  0  0  0  0  0  0
   21.8981   15.4502   34.6726 O   0  0  0  0  0  0  0  0  0  0  0  0
   22.7402   16.0342   35.6970 C   0  0  2  0  0  0  0  0  0  0  0  0
   18.6891   15.4074   36.8842 N   0  0  0  0  0  0  0  0  0  0  0  0
   24.1555   17.1501   33.9778 O   0  0  0  0  0  0  0  0  0  0  0  0
   24.1842   16.2748   35.1123 C   0  0  1  0  0  0  0  0  0  0  0  0
   21.5762   14.8765   37.4162 O   0  0  0  0  0  0  0  0  0  0  0  0
   25.0818   16.8966   36.1537 C   0  0  1  0  0  0  0  0  0  0  0  0
   21.2135   12.6039   37.3393 O   0  0  0  0  0  0  0  0  0  0  0  0
   25.1488   15.9668   37.3870 C   0  0  0  0  0  0  0  0  0  0  0  0
   19.5606   12.4818   40.5911 O   0  0  0  0  0  0  0  0  0  0  0  0
   23.7028   15.7804   37.9326 C   0  0  1  0  0  0  0  0  0  0  0  0
   17.7358   14.0548   39.1653 O   0  0  0  0  0  0  0  0  0  0  0  0
   22.8493   15.0566   36.9338 C   0  0  2  0  0  0  0  0  0  0  0  0
   20.7133   13.9562   36.8331 C   0  0  1  0  0  0  0  0  0  0  0  0
   21.1007   12.4538   38.8226 C   0  0  2  0  0  0  0  0  0  0  0  0
   21.5936   11.0609   39.2664 C   0  0  0  0  0  0  0  0  0  0  0  0
   19.6611   12.6074   39.2134 C   0  0  2  0  0  0  0  0  0  0  0  0
   19.1179   13.9431   38.7959 C   0  0  1  0  0  0  0  0  0  0  0  0
   19.2405   14.0731   37.3165 C   0  0  1  0  0  0  0  0  0  0  0  0
  5  4  1  6  0  0  0
  5  8  1  0  0  0  0
  5 16  1  0  0  0  0
  8  7  1  6  0  0  0
  8 10  1  0  0  0  0
 10  1  1  6  0  0  0
 10 12  1  0  0  0  0
 11 18  1  0  0  0  0
 12 14  1  0  0  0  0
 14  2  1  1  0  0  0
 14 16  1  0  0  0  0
 16  9  1  1  0  0  0
 17  9  1  1  0  0  0
 17 11  1  0  0  0  0
 17 22  1  0  0  0  0
 18 19  1  6  0  0  0
 18 20  1  0  0  0  0
 19  3  1  0  0  0  0
 20 13  1  1  0  0  0
 20 21  1  0  0  0  0
 21 15  1  6  0  0  0
 21 22  1  0  0  0  0
 22  6  1  1  0  0  0
M  END
>  <CHROM.1>
82.14452393,76.32295064,75.93216472,21.93766631,14.49565463,37.42639434,-0.80378816
0.04105563,2.35558317

>  <Name>
2et8_lig

>  <RI>
0

>  <Rbt.Current_Directory>
/home/itssahil/PROJECTS/Mol_Feturizer/New_Systems/rnas/2et8

>  <Rbt.Executable>
rbdock ($Id: //depot/dev/client3/rdock/2013.1/src/exe/rbdock.cxx#4 $)

>  <Rbt.Library>
libRbt.so (2013.1, Build901 2013/11/27)

>  <Rbt.Parameter_File>
/export/apps/rDock/src/rDock_2013.1_src/data/scripts/dock_solv.prm

>  <Rbt.Receptor>
prm/pocket_docking_2.prm

>  <SCORE>
-15.1891

>  <SCORE.INTER>
-14.3123

>  <SCORE.INTER.CONST>
1

>  <SCORE.INTER.POLAR>
-0.959166

>  <SCORE.INTER.ROT>
3

>  <SCORE.INTER.SOLV>
19.1091

>  <SCORE.INTER.VDW>
-18.314

>  <SCORE.INTER.norm>
-0.650559

>  <SCORE.INTRA>
-0.876781

>  <SCORE.INTRA.DIHEDRAL>
-0.629374

>  <SCORE.INTRA.DIHEDRAL.0>
4.99603

>  <SCORE.INTRA.POLAR>
0

>  <SCORE.INTRA.POLAR.0>
0

>  <SCORE.INTRA.REPUL>
0

>  <SCORE.INTRA.REPUL.0>
0

>  <SCORE.INTRA.SOLV>
0.519508

>  <SCORE.INTRA.SOLV.lig_0>
-74.884

>  <SCORE.INTRA.VDW>
-0.821849

>  <SCORE.INTRA.VDW.0>
-0.858933

>  <SCORE.INTRA.norm>
-0.0398537

>  <SCORE.RESTR>
0

>  <SCORE.RESTR.CAVITY>
0

>  <SCORE.RESTR.norm>
0

>  <SCORE.SYSTEM>
0

>  <SCORE.SYSTEM.CONST>
0

>  <SCORE.SYSTEM.DIHEDRAL>
0

>  <SCORE.SYSTEM.SOLV>
0

>  <SCORE.SYSTEM.norm>
0

>  <SCORE.heavy>
22

>  <SCORE.norm>
-0.690413

>  <RMSD>
0.493

$$$$
2et8_lig
 OpenBabel11021811433D
libRbt.so/2013.1/901 2013/11/27
 22 23  0  0  0  0  0  0  0  0999 V2000
   26.4506   17.1204   35.5865 N   0  0  0  0  0  0  0  0  0  0  0  0
   23.8336   14.8743   39.1521 N   0  0  0  0  0  0  0  0  0  0  0  0
   23.0829   10.9953   39.2179 N   0  0  0  0  0  0  0  0  0  0  0  0
   21.9031   15.4442   34.6716 O   0  0  0  0  0  0  0  0  0  0  0  0
   22.7406   16.0320   35.6975 C   0  0  2  0  0  0  0  0  0  0  0  0
   18.6886   15.3894   36.8659 N   0  0  0  0  0  0  0  0  0  0  0  0
   24.1575   17.1496   33.9807 O   0  0  0  0  0  0  0  0  0  0  0  0
   24.1855   16.2760   35.1165 C   0  0  1  0  0  0  0  0  0  0  0  0
   21.5752   14.8735   37.4151 O   0  0  0  0  0  0  0  0  0  0  0  0
   25.0784   16.9018   36.1595 C   0  0  1  0  0  0  0  0  0  0  0  0
   21.2215   12.5989   37.3528 O   0  0  0  0  0  0  0  0  0  0  0  0
   25.1447   15.9739   37.3943 C   0  0  0  0  0  0  0  0  0  0  0  0
   19.5540   12.4936   40.5977 O   0  0  0  0  0  0  0  0  0  0  0  0
   23.6978   15.7841   37.9361 C   0  0  1  0  0  0  0  0  0  0  0  0
   17.7299   14.0494   39.1522 O   0  0  0  0  0  0  0  0  0  0  0  0
   22.8491   15.0565   36.9360 C   0  0  2  0  0  0  0  0  0  0  0  0
   20.7186   13.9457   36.8346 C   0  0  1  0  0  0  0  0  0  0  0  0
   21.1024   12.4590   38.8366 C   0  0  2  0  0  0  0  0  0  0  0  0
   21.5985   11.0712   39.2926 C   0  0  0  0  0  0  0  0  0  0  0  0
   19.6604   12.6098   39.2196 C   0  0  2  0  0  0  0  0  0  0  0  0
   19.1141   13.9405   38.7900 C   0  0  1  0  0  0  0  0  0  0  0  0
   19.2431   14.0603   37.3103 C   0  0  1  0  0  0  0  0  0  0  0  0
  5  4  1  6  0  0  0
  5  8  1  0  0  0  0
  5 16  1  0  0  0  0
  8  7  1  6  0  0  0
  8 10  1  0  0  0  0
 10  1  1  6  0  0  0
 10 12  1  0  0  0  0
 11 18  1  0  0  0  0
 12 14  1  0  0  0  0
 14  2  1  1  0  0  0
 14 16  1  0  0  0  0
 16  9  1  1  0  0  0
 17  9  1  1  0  0  0
 17 11  1  0  0  0  0
 17 22  1  0  0  0  0
 18 19  1  6  0  0  0
 18 20  1  0  0  0  0
 19  3  1  0  0  0  0
 20 13  1  1  0  0  0
 20 21  1  0  0  0  0
 21 15  1  6  0  0  0
 21 22  1  0  0  0  0
 22  6  1  1  0  0  0
M  END
>  <CHROM.1>
82.43046211,76.42745327,73.53922850,21.93741025,14.49527766,37.42826038,-0.80342081
0.04435334,2.35332342

>  <Name>
2et8_lig

>  <RI>
0

>  <Rbt.Current_Directory>
/home/itssahil/PROJECTS/Mol_Feturizer/New_Systems/rnas/2et8

>  <Rbt.Executable>
rbdock ($Id: //depot/dev/client3/rdock/2013.1/src/exe/rbdock.cxx#4 $)

>  <Rbt.Library>
libRbt.so (2013.1, Build901 2013/11/27)

>  <Rbt.Parameter_File>
/export/apps/rDock/src/rDock_2013.1_src/data/scripts/dock_solv.prm

>  <Rbt.Receptor>
prm/pocket_docking_2.prm

>  <SCORE>
-15.215

>  <SCORE.INTER>
-14.2525

>  <SCORE.INTER.CONST>
1

>  <SCORE.INTER.POLAR>
-0.959166

>  <SCORE.INTER.ROT>
3

>  <SCORE.INTER.SOLV>
19.1527

>  <SCORE.INTER.VDW>
-18.2887

>  <SCORE.INTER.norm>
-0.647839

>  <SCORE.INTRA>
-0.962562

>  <SCORE.INTRA.DIHEDRAL>
-0.797523

>  <SCORE.INTRA.DIHEDRAL.0>
4.99603

>  <SCORE.INTRA.POLAR>
0

>  <SCORE.INTRA.POLAR.0>
0

>  <SCORE.INTRA.REPUL>
0

>  <SCORE.INTRA.REPUL.0>
0

>  <SCORE.INTRA.SOLV>
0.53942

>  <SCORE.INTRA.SOLV.lig_0>
-74.884

>  <SCORE.INTRA.VDW>
-0.833511

>  <SCORE.INTRA.VDW.0>
-0.858933

>  <SCORE.INTRA.norm>
-0.0437528

>  <SCORE.RESTR>
0

>  <SCORE.RESTR.CAVITY>
0

>  <SCORE.RESTR.norm>
0

>  <SCORE.SYSTEM>
0

>  <SCORE.SYSTEM.CONST>
0

>  <SCORE.SYSTEM.DIHEDRAL>
0

>  <SCORE.SYSTEM.SOLV>
0

>  <SCORE.SYSTEM.norm>
0

>  <SCORE.heavy>
22

>  <SCORE.norm>
-0.691592

>  <RMSD>
0.493

$$$$
2et8_lig
 OpenBabel11021811433D
libRbt.so/2013.1/901 2013/11/27
 22 23  0  0  0  0  0  0  0  0999 V2000
   26.4324   17.0666   35.5296 N   0  0  0  0  0  0  0  0  0  0  0  0
   23.8162   14.8991   39.1442 N   0  0  0  0  0  0  0  0  0  0  0  0
   23.0488   10.9738   39.2221 N   0  0  0  0  0  0  0  0  0  0  0  0
   21.8892   15.3602   34.6498 O   0  0  0  0  0  0  0  0  0  0  0  0
   22.7245   15.9735   35.6625 C   0  0  2  0  0  0  0  0  0  0  0  0
   18.6751   15.3831   36.8593 N   0  0  0  0  0  0  0  0  0  0  0  0
   24.1409   17.0536   33.9214 O   0  0  0  0  0  0  0  0  0  0  0  0
   24.1695   16.2068   35.0773 C   0  0  1  0  0  0  0  0  0  0  0  0
   21.5596   14.8531   37.4055 O   0  0  0  0  0  0  0  0  0  0  0  0
   25.0601   16.8586   36.1063 C   0  0  1  0  0  0  0  0  0  0  0  0
   21.1931   12.5803   37.3519 O   0  0  0  0  0  0  0  0  0  0  0  0
   25.1270   15.9600   37.3625 C   0  0  0  0  0  0  0  0  0  0  0  0
   19.5305   12.4959   40.5999 O   0  0  0  0  0  0  0  0  0  0  0  0
   23.6798   15.7800   37.9072 C   0  0  1  0  0  0  0  0  0  0  0  0
   17.7127   14.0567   39.1518 O   0  0  0  0  0  0  0  0  0  0  0  0
   22.8336   15.0275   36.9235 C   0  0  2  0  0  0  0  0  0  0  0  0
   20.6969   13.9280   36.8297 C   0  0  1  0  0  0  0  0  0  0  0  0
   21.0757   12.4464   38.8364 C   0  0  2  0  0  0  0  0  0  0  0  0
   21.5649   11.0574   39.2965 C   0  0  0  0  0  0  0  0  0  0  0  0
   19.6352   12.6066   39.2212 C   0  0  2  0  0  0  0  0  0  0  0  0
   19.0956   13.9387   38.7878 C   0  0  1  0  0  0  0  0  0  0  0  0
   19.2228   14.0526   37.3075 C   0  0  1  0  0  0  0  0  0  0  0  0
  5  4  1  6  0  0  0
  5  8  1  0  0  0  0
  5 16  1  0  0  0  0
  8  7  1  6  0  0  0
  8 10  1  0  0  0  0
 10  1  1  6  0  0  0
 10 12  1  0  0  0  0
 11 18  1  0  0  0  0
 12 14  1  0  0  0  0
 14  2  1  1  0  0  0
 14 16  1  0  0  0  0
 16  9  1  1  0  0  0
 17  9  1  1  0  0  0
 17 11  1  0  0  0  0
 17 22  1  0  0  0  0
 18 19  1  6  0  0  0
 18 20  1  0  0  0  0
 19  3  1  0  0  0  0
 20 13  1  1  0  0  0
 20 21  1  0  0  0  0
 21 15  1  6  0  0  0
 21 22  1  0  0  0  0
 22  6  1  1  0  0  0
M  END
>  <CHROM.1>
81.19954862,76.43913936,73.64603559,21.91717674,14.47029092,37.41188980,-0.80174581
0.04026319,2.34380146

>  <Name>
2et8_lig

>  <RI>
0

>  <Rbt.Current_Directory>
/home/itssahil/PROJECTS/Mol_Feturizer/New_Systems/rnas/2et8

>  <Rbt.Executable>
rbdock ($Id: //depot/dev/client3/rdock/2013.1/src/exe/rbdock.cxx#4 $)

>  <Rbt.Library>
libRbt.so (2013.1, Build901 2013/11/27)

>  <Rbt.Parameter_File>
/export/apps/rDock/src/rDock_2013.1_src/data/scripts/dock_solv.prm

>  <Rbt.Receptor>
prm/pocket_docking_2.prm

>  <SCORE>
-15.1571

>  <SCORE.INTER>
-14.1044

>  <SCORE.INTER.CONST>
1

>  <SCORE.INTER.POLAR>
-0.959166

>  <SCORE.INTER.ROT>
3

>  <SCORE.INTER.SOLV>
19.4164

>  <SCORE.INTER.VDW>
-18.2779

>  <SCORE.INTER.norm>
-0.641109

>  <SCORE.INTRA>
-1.05268

>  <SCORE.INTRA.DIHEDRAL>
-0.990797

>  <SCORE.INTRA.DIHEDRAL.0>
4.99603

>  <SCORE.INTRA.POLAR>
0

>  <SCORE.INTRA.POLAR.0>
0

>  <SCORE.INTRA.REPUL>
0

>  <SCORE.INTRA.REPUL.0>
0

>  <SCORE.INTRA.SOLV>
0.410546

>  <SCORE.INTRA.SOLV.lig_0>
-74.884

>  <SCORE.INTRA.VDW>
-0.762552

>  <SCORE.INTRA.VDW.0>
-0.858933

>  <SCORE.INTRA.norm>
-0.047849

>  <SCORE.RESTR>
0

>  <SCORE.RESTR.CAVITY>
0

>  <SCORE.RESTR.norm>
0

>  <SCORE.SYSTEM>
0

>  <SCORE.SYSTEM.CONST>
0

>  <SCORE.SYSTEM.DIHEDRAL>
0

>  <SCORE.SYSTEM.SOLV>
0

>  <SCORE.SYSTEM.norm>
0

>  <SCORE.heavy>
22

>  <SCORE.norm>
-0.688958

>  <RMSD>
0.496

$$$$
2et8_lig
 OpenBabel11021811433D
libRbt.so/2013.1/901 2013/11/27
 22 23  0  0  0  0  0  0  0  0999 V2000
   25.9720   17.2174   35.1230 N   0  0  0  0  0  0  0  0  0  0  0  0
   23.8115   15.0083   39.0037 N   0  0  0  0  0  0  0  0  0  0  0  0
   22.9580   10.9267   39.3359 N   0  0  0  0  0  0  0  0  0  0  0  0
   21.4999   15.1864   34.6735 O   0  0  0  0  0  0  0  0  0  0  0  0
   22.3705   15.8879   35.5951 C   0  0  2  0  0  0  0  0  0  0  0  0
   18.5334   15.2577   36.9546 N   0  0  0  0  0  0  0  0  0  0  0  0
   23.5640   16.9982   33.7118 O   0  0  0  0  0  0  0  0  0  0  0  0
   23.7441   16.1955   34.8853 C   0  0  1  0  0  0  0  0  0  0  0  0
   21.4300   14.7539   37.4606 O   0  0  0  0  0  0  0  0  0  0  0  0
   24.6683   16.9396   35.8175 C   0  0  1  0  0  0  0  0  0  0  0  0
   21.0674   12.4804   37.5068 O   0  0  0  0  0  0  0  0  0  0  0  0
   24.8980   16.0911   37.0892 C   0  0  0  0  0  0  0  0  0  0  0  0
   19.4740   12.5255   40.7901 O   0  0  0  0  0  0  0  0  0  0  0  0
   23.5155   15.8352   37.7573 C   0  0  1  0  0  0  0  0  0  0  0  0
   17.6226   14.0239   39.3189 O   0  0  0  0  0  0  0  0  0  0  0  0
   22.6459   14.9951   36.8695 C   0  0  2  0  0  0  0  0  0  0  0  0
   20.5573   13.8052   36.9411 C   0  0  1  0  0  0  0  0  0  0  0  0
   20.9817   12.4066   38.9976 C   0  0  2  0  0  0  0  0  0  0  0  0
   21.4835   11.0380   39.5031 C   0  0  0  0  0  0  0  0  0  0  0  0
   19.5493   12.5804   39.4061 C   0  0  2  0  0  0  0  0  0  0  0  0
   18.9978   13.8931   38.9307 C   0  0  1  0  0  0  0  0  0  0  0  0
   19.0934   13.9471   37.4446 C   0  0  1  0  0  0  0  0  0  0  0  0
  5  4  1  6  0  0  0
  5  8  1  0  0  0  0
  5 16  1  0  0  0  0
  8  7  1  6  0  0  0
  8 10  1  0  0  0  0
 10  1  1  6  0  0  0
 10 12  1  0  0  0  0
 11 18  1  0  0  0  0
 12 14  1  0  0  0  0
 14  2  1  1  0  0  0
 14 16  1  0  0  0  0
 16  9  1  1  0  0  0
 17  9  1  1  0  0  0
 17 11  1  0  0  0  0
 17 22  1  0  0  0  0
 18 19  1  6  0  0  0
 18 20  1  0  0  0  0
 19  3  1  0  0  0  0
 20 13  1  1  0  0  0
 20 21  1  0  0  0  0
 21 15  1  6  0  0  0
 21 22  1  0  0  0  0
 22  6  1  1  0  0  0
M  END
>  <CHROM.1>
77.63158853,82.42671931,70.74819634,21.71425195,14.44307454,37.41267136,-0.87698764
0.02803985,2.32029247

>  <Name>
2et8_lig

>  <RI>
3.14397e+07

>  <Rbt.Current_Directory>
/home/itssahil/PROJECTS/Mol_Feturizer/New_Systems/rnas/2et8

>  <Rbt.Executable>
rbdock ($Id: //depot/dev/client3/rdock/2013.1/src/exe/rbdock.cxx#4 $)

>  <Rbt.Library>
libRbt.so (2013.1, Build901 2013/11/27)

>  <Rbt.Parameter_File>
/export/apps/rDock/src/rDock_2013.1_src/data/scripts/dock_solv.prm

>  <Rbt.Receptor>
prm/pocket_docking_6.prm

>  <SCORE>
-15.2057

>  <SCORE.INTER>
-14.2701

>  <SCORE.INTER.CONST>
1

>  <SCORE.INTER.POLAR>
-0.959166

>  <SCORE.INTER.ROT>
3

>  <SCORE.INTER.SOLV>
18.8639

>  <SCORE.INTER.VDW>
-18.2042

>  <SCORE.INTER.norm>
-0.648643

>  <SCORE.INTRA>
-0.935538

>  <SCORE.INTRA.DIHEDRAL>
-0.849454

>  <SCORE.INTRA.DIHEDRAL.0>
4.99603

>  <SCORE.INTRA.POLAR>
0

>  <SCORE.INTRA.POLAR.0>
0

>  <SCORE.INTRA.REPUL>
0

>  <SCORE.INTRA.REPUL.0>
0

>  <SCORE.INTRA.SOLV>
0.144714

>  <SCORE.INTRA.SOLV.lig_0>
-74.884

>  <SCORE.INTRA.VDW>
-0.583168

>  <SCORE.INTRA.VDW.0>
-0.858933

>  <SCORE.INTRA.norm>
-0.0425244

>  <SCORE.RESTR>
0

>  <SCORE.RESTR.CAVITY>
0

>  <SCORE.RESTR.norm>
0

>  <SCORE.SYSTEM>
0

>  <SCORE.SYSTEM.CONST>
0

>  <SCORE.SYSTEM.DIHEDRAL>
0

>  <SCORE.SYSTEM.SOLV>
0

>  <SCORE.SYSTEM.norm>
0

>  <SCORE.heavy>
22

>  <SCORE.norm>
-0.691167

>  <RMSD>
0.496

$$$$
2et8_lig
 OpenBabel11021811433D
libRbt.so/2013.1/901 2013/11/27
 22 23  0  0  0  0  0  0  0  0999 V2000
   26.4716   17.1261   35.6084 N   0  0  0  0  0  0  0  0  0  0  0  0
   23.8331   14.8821   39.1595 N   0  0  0  0  0  0  0  0  0  0  0  0
   23.0892   11.0071   39.2427 N   0  0  0  0  0  0  0  0  0  0  0  0
   21.9401   15.4254   34.6598 O   0  0  0  0  0  0  0  0  0  0  0  0
   22.7658   16.0211   35.6907 C   0  0  2  0  0  0  0  0  0  0  0  0
   18.7093   15.3531   36.8021 N   0  0  0  0  0  0  0  0  0  0  0  0
   24.1928   17.1384   33.9822 O   0  0  0  0  0  0  0  0  0  0  0  0
   24.2147   16.2694   35.1216 C   0  0  1  0  0  0  0  0  0  0  0  0
   21.5904   14.8640   37.4025 O   0  0  0  0  0  0  0  0  0  0  0  0
   25.0954   16.9034   36.1700 C   0  0  1  0  0  0  0  0  0  0  0  0
   21.2503   12.5867   37.3760 O   0  0  0  0  0  0  0  0  0  0  0  0
   25.1549   15.9807   37.4090 C   0  0  0  0  0  0  0  0  0  0  0  0
   19.5360   12.5298   40.5976 O   0  0  0  0  0  0  0  0  0  0  0  0
   23.7041   15.7865   37.9387 C   0  0  1  0  0  0  0  0  0  0  0  0
   17.7246   14.0487   39.0979 O   0  0  0  0  0  0  0  0  0  0  0  0
   22.8676   15.0511   36.9340 C   0  0  2  0  0  0  0  0  0  0  0  0
   20.7475   13.9210   36.8264 C   0  0  1  0  0  0  0  0  0  0  0  0
   21.1103   12.4727   38.8602 C   0  0  2  0  0  0  0  0  0  0  0  0
   21.6074   11.0962   39.3483 C   0  0  0  0  0  0  0  0  0  0  0  0
   19.6620   12.6220   39.2193 C   0  0  2  0  0  0  0  0  0  0  0  0
   19.1146   13.9414   38.7580 C   0  0  1  0  0  0  0  0  0  0  0  0
   19.2646   14.0355   37.2784 C   0  0  1  0  0  0  0  0  0  0  0  0
  5  4  1  6  0  0  0
  5  8  1  0  0  0  0
  5 16  1  0  0  0  0
  8  7  1  6  0  0  0
  8 10  1  0  0  0  0
 10  1  1  6  0  0  0
 10 12  1  0  0  0  0
 11 18  1  0  0  0  0
 12 14  1  0  0  0  0
 14  2  1  1  0  0  0
 14 16  1  0  0  0  0
 16  9  1  1  0  0  0
 17  9  1  1  0  0  0
 17 11  1  0  0  0  0
 17 22  1  0  0  0  0
 18 19  1  6  0  0  0
 18 20  1  0  0  0  0
 19  3  1  0  0  0  0
 20 13  1  1  0  0  0
 20 21  1  0  0  0  0
 21 15  1  6  0  0  0
 21 22  1  0  0  0  0
 22  6  1  1  0  0  0
M  END
>  <CHROM.1>
83.05638382,76.78785412,71.16100488,21.95180699,14.49363846,37.42656558,-0.79948086
0.05572527,2.34278732

>  <Name>
2et8_lig

>  <RI>
0

>  <Rbt.Current_Directory>
/home/itssahil/PROJECTS/Mol_Feturizer/New_Systems/rnas/2et8

>  <Rbt.Executable>
rbdock ($Id: //depot/dev/client3/rdock/2013.1/src/exe/rbdock.cxx#4 $)

>  <Rbt.Library>
libRbt.so (2013.1, Build901 2013/11/27)

>  <Rbt.Parameter_File>
/export/apps/rDock/src/rDock_2013.1_src/data/scripts/dock_solv.prm

>  <Rbt.Receptor>
prm/pocket_docking_2.prm

>  <SCORE>
-15.2064

>  <SCORE.INTER>
-14.2273

>  <SCORE.INTER.CONST>
1

>  <SCORE.INTER.POLAR>
-0.959166

>  <SCORE.INTER.ROT>
3

>  <SCORE.INTER.SOLV>
19.0418

>  <SCORE.INTER.VDW>
-18.2349

>  <SCORE.INTER.norm>
-0.646693

>  <SCORE.INTRA>
-0.979154

>  <SCORE.INTRA.DIHEDRAL>
-0.838867

>  <SCORE.INTRA.DIHEDRAL.0>
4.99603

>  <SCORE.INTRA.POLAR>
0

>  <SCORE.INTRA.POLAR.0>
0

>  <SCORE.INTRA.REPUL>
0

>  <SCORE.INTRA.REPUL.0>
0

>  <SCORE.INTRA.SOLV>
0.599595

>  <SCORE.INTRA.SOLV.lig_0>
-74.884

>  <SCORE.INTRA.VDW>
-0.859518

>  <SCORE.INTRA.VDW.0>
-0.858933

>  <SCORE.INTRA.norm>
-0.044507

>  <SCORE.RESTR>
0

>  <SCORE.RESTR.CAVITY>
0

>  <SCORE.RESTR.norm>
0

>  <SCORE.SYSTEM>
0

>  <SCORE.SYSTEM.CONST>
0

>  <SCORE.SYSTEM.DIHEDRAL>
0

>  <SCORE.SYSTEM.SOLV>
0

>  <SCORE.SYSTEM.norm>
0

>  <SCORE.heavy>
22

>  <SCORE.norm>
-0.6912

>  <RMSD>
0.498

$$$$
2et8_lig
 OpenBabel11021811433D
libRbt.so/2013.1/901 2013/11/27
 22 23  0  0  0  0  0  0  0  0999 V2000
   26.3019   17.1023   35.4331 N   0  0  0  0  0  0  0  0  0  0  0  0
   23.8514   14.9074   39.1460 N   0  0  0  0  0  0  0  0  0  0  0  0
   23.0440   10.8961   39.2774 N   0  0  0  0  0  0  0  0  0  0  0  0
   21.7906   15.2482   34.7004 O   0  0  0  0  0  0  0  0  0  0  0  0
   22.6339   15.9003   35.6818 C   0  0  2  0  0  0  0  0  0  0  0  0
   18.6648   15.2850   36.9197 N   0  0  0  0  0  0  0  0  0  0  0  0
   23.9692   16.9982   33.8886 O   0  0  0  0  0  0  0  0  0  0  0  0
   24.0548   16.1687   35.0542 C   0  0  1  0  0  0  0  0  0  0  0  0
   21.5511   14.7696   37.4705 O   0  0  0  0  0  0  0  0  0  0  0  0
   24.9526   16.8612   36.0498 C   0  0  1  0  0  0  0  0  0  0  0  0
   21.1893   12.4955   37.4531 O   0  0  0  0  0  0  0  0  0  0  0  0
   25.0807   15.9824   37.3153 C   0  0  0  0  0  0  0  0  0  0  0  0
   19.5309   12.4588   40.7042 O   0  0  0  0  0  0  0  0  0  0  0  0
   23.6550   15.7666   37.9018 C   0  0  1  0  0  0  0  0  0  0  0  0
   17.7080   13.9928   39.2341 O   0  0  0  0  0  0  0  0  0  0  0  0
   22.8058   14.9755   36.9516 C   0  0  2  0  0  0  0  0  0  0  0  0
   20.6896   13.8338   36.9105 C   0  0  1  0  0  0  0  0  0  0  0  0
   21.0740   12.3847   38.9397 C   0  0  2  0  0  0  0  0  0  0  0  0
   21.5666   11.0041   39.4210 C   0  0  0  0  0  0  0  0  0  0  0  0
   19.6337   12.5480   39.3238 C   0  0  2  0  0  0  0  0  0  0  0  0
   19.0908   13.8720   38.8702 C   0  0  1  0  0  0  0  0  0  0  0  0
   19.2159   13.9628   37.3881 C   0  0  1  0  0  0  0  0  0  0  0  0
  5  4  1  6  0  0  0
  5  8  1  0  0  0  0
  5 16  1  0  0  0  0
  8  7  1  6  0  0  0
  8 10  1  0  0  0  0
 10  1  1  6  0  0  0
 10 12  1  0  0  0  0
 11 18  1  0  0  0  0
 12 14  1  0  0  0  0
 14  2  1  1  0  0  0
 14 16  1  0  0  0  0
 16  9  1  1  0  0  0
 17  9  1  1  0  0  0
 17 11  1  0  0  0  0
 17 22  1  0  0  0  0
 18 19  1  6  0  0  0
 18 20  1  0  0  0  0
 19  3  1  0  0  0  0
 20 13  1  1  0  0  0
 20 21  1  0  0  0  0
 21 15  1  6  0  0  0
 21 22  1  0  0  0  0
 22  6  1  1  0  0  0
M  END
>  <CHROM.1>
79.62711009,78.98548220,70.61295280,21.87912601,14.41755232,37.45273092,-0.82881861
0.03934582,2.33703350

>  <Name>
2et8_lig

>  <RI>
0

>  <Rbt.Current_Directory>
/home/itssahil/PROJECTS/Mol_Feturizer/New_Systems/rnas/2et8

>  <Rbt.Executable>
rbdock ($Id: //depot/dev/client3/rdock/2013.1/src/exe/rbdock.cxx#4 $)

>  <Rbt.Library>
libRbt.so (2013.1, Build901 2013/11/27)

>  <Rbt.Parameter_File>
/export/apps/rDock/src/rDock_2013.1_src/data/scripts/dock_solv.prm

>  <Rbt.Receptor>
prm/pocket_docking_5.prm

>  <SCORE>
-15.2997

>  <SCORE.INTER>
-14.2155

>  <SCORE.INTER.CONST>
1

>  <SCORE.INTER.POLAR>
-0.959166

>  <SCORE.INTER.ROT>
3

>  <SCORE.INTER.SOLV>
19.495

>  <SCORE.INTER.VDW>
-18.3781

>  <SCORE.INTER.norm>
-0.646158

>  <SCORE.INTRA>
-1.08421

>  <SCORE.INTRA.DIHEDRAL>
-1.11676

>  <SCORE.INTRA.DIHEDRAL.0>
4.99603

>  <SCORE.INTRA.POLAR>
0

>  <SCORE.INTRA.POLAR.0>
0

>  <SCORE.INTRA.REPUL>
0

>  <SCORE.INTRA.REPUL.0>
0

>  <SCORE.INTRA.SOLV>
0.283268

>  <SCORE.INTRA.SOLV.lig_0>
-74.884

>  <SCORE.INTRA.VDW>
-0.667463

>  <SCORE.INTRA.VDW.0>
-0.858933

>  <SCORE.INTRA.norm>
-0.0492823

>  <SCORE.RESTR>
0

>  <SCORE.RESTR.CAVITY>
0

>  <SCORE.RESTR.norm>
0

>  <SCORE.SYSTEM>
0

>  <SCORE.SYSTEM.CONST>
0

>  <SCORE.SYSTEM.DIHEDRAL>
0

>  <SCORE.SYSTEM.SOLV>
0

>  <SCORE.SYSTEM.norm>
0

>  <SCORE.heavy>
22

>  <SCORE.norm>
-0.69544

>  <RMSD>
0.500

$$$$
2et8_lig
 OpenBabel11021811433D
libRbt.so/2013.1/901 2013/11/27
 22 23  0  0  0  0  0  0  0  0999 V2000
   26.5245   17.0882   35.6343 N   0  0  0  0  0  0  0  0  0  0  0  0
   23.8396   14.8862   39.1769 N   0  0  0  0  0  0  0  0  0  0  0  0
   23.0755   11.0048   39.2350 N   0  0  0  0  0  0  0  0  0  0  0  0
   21.9837   15.4266   34.6614 O   0  0  0  0  0  0  0  0  0  0  0  0
   22.8078   16.0191   35.6954 C   0  0  2  0  0  0  0  0  0  0  0  0
   18.7328   15.4005   36.8069 N   0  0  0  0  0  0  0  0  0  0  0  0
   24.2575   17.1147   33.9919 O   0  0  0  0  0  0  0  0  0  0  0  0
   24.2630   16.2508   35.1355 C   0  0  1  0  0  0  0  0  0  0  0  0
   21.6092   14.8814   37.4041 O   0  0  0  0  0  0  0  0  0  0  0  0
   25.1423   16.8814   36.1872 C   0  0  1  0  0  0  0  0  0  0  0  0
   21.2493   12.6074   37.3591 O   0  0  0  0  0  0  0  0  0  0  0  0
   25.1842   15.9639   37.4308 C   0  0  0  0  0  0  0  0  0  0  0  0
   19.5334   12.5396   40.5797 O   0  0  0  0  0  0  0  0  0  0  0  0
   23.7279   15.7860   37.9511 C   0  0  1  0  0  0  0  0  0  0  0  0
   17.7360   14.0863   39.0918 O   0  0  0  0  0  0  0  0  0  0  0  0
   22.8915   15.0540   36.9439 C   0  0  2  0  0  0  0  0  0  0  0  0
   20.7584   13.9504   36.8201 C   0  0  1  0  0  0  0  0  0  0  0  0
   21.1077   12.4827   38.8423 C   0  0  2  0  0  0  0  0  0  0  0  0
   21.5926   11.0979   39.3194 C   0  0  0  0  0  0  0  0  0  0  0  0
   19.6607   12.6417   39.2022 C   0  0  2  0  0  0  0  0  0  0  0  0
   19.1250   13.9696   38.7514 C   0  0  1  0  0  0  0  0  0  0  0  0
   19.2764   14.0743   37.2727 C   0  0  1  0  0  0  0  0  0  0  0  0
  5  4  1  6  0  0  0
  5  8  1  0  0  0  0
  5 16  1  0  0  0  0
  8  7  1  6  0  0  0
  8 10  1  0  0  0  0
 10  1  1  6  0  0  0
 10 12  1  0  0  0  0
 11 18  1  0  0  0  0
 12 14  1  0  0  0  0
 14  2  1  1  0  0  0
 14 16  1  0  0  0  0
 16  9  1  1  0  0  0
 17  9  1  1  0  0  0
 17 11  1  0  0  0  0
 17 22  1  0  0  0  0
 18 19  1  6  0  0  0
 18 20  1  0  0  0  0
 19  3  1  0  0  0  0
 20 13  1  1  0  0  0
 20 21  1  0  0  0  0
 21 15  1  6  0  0  0
 21 22  1  0  0  0  0
 22  6  1  1  0  0  0
M  END
>  <CHROM.1>
82.59311922,76.30068392,72.10898007,21.97152575,14.50031484,37.42680931,-0.78900313
0.05097812,2.34474929

>  <Name>
2et8_lig

>  <RI>
0

>  <Rbt.Current_Directory>
/home/itssahil/PROJECTS/Mol_Feturizer/New_Systems/rnas/2et8

>  <Rbt.Executable>
rbdock ($Id: //depot/dev/client3/rdock/2013.1/src/exe/rbdock.cxx#4 $)

>  <Rbt.Library>
libRbt.so (2013.1, Build901 2013/11/27)

>  <Rbt.Parameter_File>
/export/apps/rDock/src/rDock_2013.1_src/data/scripts/dock_solv.prm

>  <Rbt.Receptor>
prm/pocket_docking_2.prm

>  <SCORE>
-15.194

>  <SCORE.INTER>
-14.1725

>  <SCORE.INTER.CONST>
1

>  <SCORE.INTER.POLAR>
-0.959166

>  <SCORE.INTER.ROT>
3

>  <SCORE.INTER.SOLV>
19.1506

>  <SCORE.INTER.VDW>
-18.2346

>  <SCORE.INTER.norm>
-0.644203

>  <SCORE.INTRA>
-1.02148

>  <SCORE.INTRA.DIHEDRAL>
-0.910838

>  <SCORE.INTRA.DIHEDRAL.0>
4.99603

>  <SCORE.INTRA.POLAR>
0

>  <SCORE.INTRA.POLAR.0>
0

>  <SCORE.INTRA.REPUL>
0

>  <SCORE.INTRA.REPUL.0>
0

>  <SCORE.INTRA.SOLV>
0.545977

>  <SCORE.INTRA.SOLV.lig_0>
-74.884

>  <SCORE.INTRA.VDW>
-0.839053

>  <SCORE.INTRA.VDW.0>
-0.858933

>  <SCORE.INTRA.norm>
-0.0464311

>  <SCORE.RESTR>
0

>  <SCORE.RESTR.CAVITY>
0

>  <SCORE.RESTR.norm>
0

>  <SCORE.SYSTEM>
0

>  <SCORE.SYSTEM.CONST>
0

>  <SCORE.SYSTEM.DIHEDRAL>
0

>  <SCORE.SYSTEM.SOLV>
0

>  <SCORE.SYSTEM.norm>
0

>  <SCORE.heavy>
22

>  <SCORE.norm>
-0.690634

>  <RMSD>
0.503

$$$$
2et8_lig
 OpenBabel11021811433D
libRbt.so/2013.1/901 2013/11/27
 22 23  0  0  0  0  0  0  0  0999 V2000
   26.3687   17.0744   35.4911 N   0  0  0  0  0  0  0  0  0  0  0  0
   23.8276   14.9064   39.1586 N   0  0  0  0  0  0  0  0  0  0  0  0
   23.0874   10.9536   39.2619 N   0  0  0  0  0  0  0  0  0  0  0  0
   21.8420   15.2909   34.6824 O   0  0  0  0  0  0  0  0  0  0  0  0
   22.6796   15.9274   35.6788 C   0  0  2  0  0  0  0  0  0  0  0  0
   18.6591   15.2978   36.9071 N   0  0  0  0  0  0  0  0  0  0  0  0
   24.0593   17.0100   33.9100 O   0  0  0  0  0  0  0  0  0  0  0  0
   24.1141   16.1760   35.0743 C   0  0  1  0  0  0  0  0  0  0  0  0
   21.5520   14.8081   37.4469 O   0  0  0  0  0  0  0  0  0  0  0  0
   25.0065   16.8521   36.0859 C   0  0  1  0  0  0  0  0  0  0  0  0
   21.2102   12.5310   37.4321 O   0  0  0  0  0  0  0  0  0  0  0  0
   25.1015   15.9679   37.3506 C   0  0  0  0  0  0  0  0  0  0  0  0
   19.5648   12.4814   40.6896 O   0  0  0  0  0  0  0  0  0  0  0  0
   23.6636   15.7720   37.9140 C   0  0  1  0  0  0  0  0  0  0  0  0
   17.7228   13.9985   39.2258 O   0  0  0  0  0  0  0  0  0  0  0  0
   22.8176   14.9965   36.9483 C   0  0  2  0  0  0  0  0  0  0  0  0
   20.6966   13.8645   36.8907 C   0  0  1  0  0  0  0  0  0  0  0  0
   21.1017   12.4199   38.9192 C   0  0  2  0  0  0  0  0  0  0  0  0
   21.6083   11.0441   39.3992 C   0  0  0  0  0  0  0  0  0  0  0  0
   19.6614   12.5707   39.3087 C   0  0  2  0  0  0  0  0  0  0  0  0
   19.1051   13.8897   38.8566 C   0  0  1  0  0  0  0  0  0  0  0  0
   19.2237   13.9808   37.3740 C   0  0  1  0  0  0  0  0  0  0  0  0
  5  4  1  6  0  0  0
  5  8  1  0  0  0  0
  5 16  1  0  0  0  0
  8  7  1  6  0  0  0
  8 10  1  0  0  0  0
 10  1  1  6  0  0  0
 10 12  1  0  0  0  0
 11 18  1  0  0  0  0
 12 14  1  0  0  0  0
 14  2  1  1  0  0  0
 14 16  1  0  0  0  0
 16  9  1  1  0  0  0
 17  9  1  1  0  0  0
 17 11  1  0  0  0  0
 17 22  1  0  0  0  0
 18 19  1  6  0  0  0
 18 20  1  0  0  0  0
 19  3  1  0  0  0  0
 20 13  1  1  0  0  0
 20 21  1  0  0  0  0
 21 15  1  6  0  0  0
 21 22  1  0  0  0  0
 22  6  1  1  0  0  0
M  END
>  <CHROM.1>
81.17730536,77.00286461,71.13815277,21.90758765,14.43603869,37.45107534,-0.81782507
0.04206828,2.33379250

>  <Name>
2et8_lig

>  <RI>
0

>  <Rbt.Current_Directory>
/home/itssahil/PROJECTS/Mol_Feturizer/New_Systems/rnas/2et8

>  <Rbt.Executable>
rbdock ($Id: //depot/dev/client3/rdock/2013.1/src/exe/rbdock.cxx#4 $)

>  <Rbt.Library>
libRbt.so (2013.1, Build901 2013/11/27)

>  <Rbt.Parameter_File>
/export/apps/rDock/src/rDock_2013.1_src/data/scripts/dock_solv.prm

>  <Rbt.Receptor>
prm/pocket_docking_3.prm

>  <SCORE>
-15.2297

>  <SCORE.INTER>
-14.1248

>  <SCORE.INTER.CONST>
1

>  <SCORE.INTER.POLAR>
-0.959166

>  <SCORE.INTER.ROT>
3

>  <SCORE.INTER.SOLV>
19.422

>  <SCORE.INTER.VDW>
-18.2933

>  <SCORE.INTER.norm>
-0.642038

>  <SCORE.INTRA>
-1.1049

>  <SCORE.INTRA.DIHEDRAL>
-1.12441

>  <SCORE.INTRA.DIHEDRAL.0>
4.99603

>  <SCORE.INTRA.POLAR>
0

>  <SCORE.INTRA.POLAR.0>
0

>  <SCORE.INTRA.REPUL>
0

>  <SCORE.INTRA.REPUL.0>
0

>  <SCORE.INTRA.SOLV>
0.406781

>  <SCORE.INTRA.SOLV.lig_0>
-74.884

>  <SCORE.INTRA.VDW>
-0.746091

>  <SCORE.INTRA.VDW.0>
-0.858933

>  <SCORE.INTRA.norm>
-0.0502229

>  <SCORE.RESTR>
0

>  <SCORE.RESTR.CAVITY>
0

>  <SCORE.RESTR.norm>
0

>  <SCORE.SYSTEM>
0

>  <SCORE.SYSTEM.CONST>
0

>  <SCORE.SYSTEM.DIHEDRAL>
0

>  <SCORE.SYSTEM.SOLV>
0

>  <SCORE.SYSTEM.norm>
0

>  <SCORE.heavy>
22

>  <SCORE.norm>
-0.692261

>  <RMSD>
0.505

$$$$
2et8_lig
 OpenBabel11021811433D
libRbt.so/2013.1/901 2013/11/27
 22 23  0  0  0  0  0  0  0  0999 V2000
   26.4140   17.0736   35.5170 N   0  0  0  0  0  0  0  0  0  0  0  0
   23.8295   14.9175   39.1612 N   0  0  0  0  0  0  0  0  0  0  0  0
   23.1241   10.9879   39.2493 N   0  0  0  0  0  0  0  0  0  0  0  0
   21.8822   15.3209   34.6699 O   0  0  0  0  0  0  0  0  0  0  0  0
   22.7160   15.9506   35.6738 C   0  0  2  0  0  0  0  0  0  0  0  0
   18.6708   15.3203   36.9044 N   0  0  0  0  0  0  0  0  0  0  0  0
   24.1168   17.0264   33.9176 O   0  0  0  0  0  0  0  0  0  0  0  0
   24.1568   16.1906   35.0811 C   0  0  1  0  0  0  0  0  0  0  0  0
   21.5670   14.8364   37.4314 O   0  0  0  0  0  0  0  0  0  0  0  0
   25.0456   16.8594   36.1007 C   0  0  1  0  0  0  0  0  0  0  0  0
   21.2324   12.5584   37.4037 O   0  0  0  0  0  0  0  0  0  0  0  0
   25.1247   15.9730   37.3649 C   0  0  0  0  0  0  0  0  0  0  0  0
   19.5983   12.4835   40.6664 O   0  0  0  0  0  0  0  0  0  0  0  0
   23.6812   15.7858   37.9166 C   0  0  1  0  0  0  0  0  0  0  0  0
   17.7465   14.0037   39.2183 O   0  0  0  0  0  0  0  0  0  0  0  0
   22.8378   15.0172   36.9431 C   0  0  2  0  0  0  0  0  0  0  0  0
   20.7127   13.8935   36.8723 C   0  0  1  0  0  0  0  0  0  0  0  0
   21.1293   12.4378   38.8904 C   0  0  2  0  0  0  0  0  0  0  0  0
   21.6419   11.0606   39.3602 C   0  0  0  0  0  0  0  0  0  0  0  0
   19.6899   12.5817   39.2858 C   0  0  2  0  0  0  0  0  0  0  0  0
   19.1279   13.9016   38.8437 C   0  0  1  0  0  0  0  0  0  0  0  0
   19.2411   14.0022   37.3613 C   0  0  1  0  0  0  0  0  0  0  0  0
  5  4  1  6  0  0  0
  5  8  1  0  0  0  0
  5 16  1  0  0  0  0
  8  7  1  6  0  0  0
  8 10  1  0  0  0  0
 10  1  1  6  0  0  0
 10 12  1  0  0  0  0
 11 18  1  0  0  0  0
 12 14  1  0  0  0  0
 14  2  1  1  0  0  0
 14 16  1  0  0  0  0
 16  9  1  1  0  0  0
 17  9  1  1  0  0  0
 17 11  1  0  0  0  0
 17 22  1  0  0  0  0
 18 19  1  6  0  0  0
 18 20  1  0  0  0  0
 19  3  1  0  0  0  0
 20 13  1  1  0  0  0
 20 21  1  0  0  0  0
 21 15  1  6  0  0  0
 21 22  1  0  0  0  0
 22  6  1  1  0  0  0
M  END
>  <CHROM.1>
81.56950870,75.96471046,72.55477826,21.93563317,14.45286753,37.44303831,-0.81259203
0.04308675,2.33522379

>  <Name>
2et8_lig

>  <RI>
0

>  <Rbt.Current_Directory>
/home/itssahil/PROJECTS/Mol_Feturizer/New_Systems/rnas/2et8

>  <Rbt.Executable>
rbdock ($Id: //depot/dev/client3/rdock/2013.1/src/exe/rbdock.cxx#4 $)

>  <Rbt.Library>
libRbt.so (2013.1, Build901 2013/11/27)

>  <Rbt.Parameter_File>
/export/apps/rDock/src/rDock_2013.1_src/data/scripts/dock_solv.prm

>  <Rbt.Receptor>
prm/pocket_docking_5.prm

>  <SCORE>
-15.2255

>  <SCORE.INTER>
-14.1024

>  <SCORE.INTER.CONST>
1

>  <SCORE.INTER.POLAR>
-0.959166

>  <SCORE.INTER.ROT>
3

>  <SCORE.INTER.SOLV>
19.3964

>  <SCORE.INTER.VDW>
-18.2698

>  <SCORE.INTER.norm>
-0.641018

>  <SCORE.INTRA>
-1.12313

>  <SCORE.INTRA.DIHEDRAL>
-1.09113

>  <SCORE.INTRA.DIHEDRAL.0>
4.99603

>  <SCORE.INTRA.POLAR>
0

>  <SCORE.INTRA.POLAR.0>
0

>  <SCORE.INTRA.REPUL>
0

>  <SCORE.INTRA.REPUL.0>
0

>  <SCORE.INTRA.SOLV>
0.433107

>  <SCORE.INTRA.SOLV.lig_0>
-74.884

>  <SCORE.INTRA.VDW>
-0.794116

>  <SCORE.INTRA.VDW.0>
-0.858933

>  <SCORE.INTRA.norm>
-0.0510513

>  <SCORE.RESTR>
0

>  <SCORE.RESTR.CAVITY>
0

>  <SCORE.RESTR.norm>
0

>  <SCORE.SYSTEM>
0

>  <SCORE.SYSTEM.CONST>
0

>  <SCORE.SYSTEM.DIHEDRAL>
0

>  <SCORE.SYSTEM.SOLV>
0

>  <SCORE.SYSTEM.norm>
0

>  <SCORE.heavy>
22

>  <SCORE.norm>
-0.692069

>  <RMSD>
0.505

$$$$
2et8_lig
 OpenBabel11021811433D
libRbt.so/2013.1/901 2013/11/27
 22 23  0  0  0  0  0  0  0  0999 V2000
   26.5143   17.0805   35.6158 N   0  0  0  0  0  0  0  0  0  0  0  0
   23.8390   14.8873   39.1711 N   0  0  0  0  0  0  0  0  0  0  0  0
   23.0815   11.0170   39.3033 N   0  0  0  0  0  0  0  0  0  0  0  0
   21.9819   15.3910   34.6518 O   0  0  0  0  0  0  0  0  0  0  0  0
   22.8027   15.9939   35.6824 C   0  0  2  0  0  0  0  0  0  0  0  0
   18.7334   15.3687   36.7879 N   0  0  0  0  0  0  0  0  0  0  0  0
   24.2477   17.0860   33.9726 O   0  0  0  0  0  0  0  0  0  0  0  0
   24.2570   16.2292   35.1215 C   0  0  1  0  0  0  0  0  0  0  0  0
   21.6092   14.8609   37.3977 O   0  0  0  0  0  0  0  0  0  0  0  0
   25.1329   16.8704   36.1696 C   0  0  1  0  0  0  0  0  0  0  0  0
   21.2548   12.5858   37.3683 O   0  0  0  0  0  0  0  0  0  0  0  0
   25.1789   15.9609   37.4188 C   0  0  0  0  0  0  0  0  0  0  0  0
   19.5292   12.5374   40.5841 O   0  0  0  0  0  0  0  0  0  0  0  0
   23.7232   15.7791   37.9397 C   0  0  1  0  0  0  0  0  0  0  0  0
   17.7326   14.0689   39.0793 O   0  0  0  0  0  0  0  0  0  0  0  0
   22.8908   15.0368   36.9368 C   0  0  2  0  0  0  0  0  0  0  0  0
   20.7624   13.9236   36.8180 C   0  0  1  0  0  0  0  0  0  0  0  0
   21.1089   12.4716   38.8519 C   0  0  2  0  0  0  0  0  0  0  0  0
   21.5957   11.0916   39.3407 C   0  0  0  0  0  0  0  0  0  0  0  0
   19.6604   12.6297   39.2063 C   0  0  2  0  0  0  0  0  0  0  0  0
   19.1230   13.9530   38.7441 C   0  0  1  0  0  0  0  0  0  0  0  0
   19.2787   14.0472   37.2651 C   0  0  1  0  0  0  0  0  0  0  0  0
  5  4  1  6  0  0  0
  5  8  1  0  0  0  0
  5 16  1  0  0  0  0
  8  7  1  6  0  0  0
  8 10  1  0  0  0  0
 10  1  1  6  0  0  0
 10 12  1  0  0  0  0
 11 18  1  0  0  0  0
 12 14  1  0  0  0  0
 14  2  1  1  0  0  0
 14 16  1  0  0  0  0
 16  9  1  1  0  0  0
 17  9  1  1  0  0  0
 17 11  1  0  0  0  0
 17 22  1  0  0  0  0
 18 19  1  6  0  0  0
 18 20  1  0  0  0  0
 19  3  1  0  0  0  0
 20 13  1  1  0  0  0
 20 21  1  0  0  0  0
 21 15  1  6  0  0  0
 21 22  1  0  0  0  0
 22  6  1  1  0  0  0
M  END
>  <CHROM.1>
82.49839614,76.55811846,73.94736768,21.96965774,14.48486407,37.42379516,-0.79136028
0.05680553,2.33580948

>  <Name>
2et8_lig

>  <RI>
0

>  <Rbt.Current_Directory>
/home/itssahil/PROJECTS/Mol_Feturizer/New_Systems/rnas/2et8

>  <Rbt.Executable>
rbdock ($Id: //depot/dev/client3/rdock/2013.1/src/exe/rbdock.cxx#4 $)

>  <Rbt.Library>
libRbt.so (2013.1, Build901 2013/11/27)

>  <Rbt.Parameter_File>
/export/apps/rDock/src/rDock_2013.1_src/data/scripts/dock_solv.prm

>  <Rbt.Receptor>
prm/pocket_docking_2.prm

>  <SCORE>
-15.1738

>  <SCORE.INTER>
-14.2472

>  <SCORE.INTER.CONST>
1

>  <SCORE.INTER.POLAR>
-0.959166

>  <SCORE.INTER.ROT>
3

>  <SCORE.INTER.SOLV>
19.0224

>  <SCORE.INTER.VDW>
-18.2417

>  <SCORE.INTER.norm>
-0.647598

>  <SCORE.INTRA>
-0.926612

>  <SCORE.INTRA.DIHEDRAL>
-0.730548

>  <SCORE.INTRA.DIHEDRAL.0>
4.99603

>  <SCORE.INTRA.POLAR>
0

>  <SCORE.INTRA.POLAR.0>
0

>  <SCORE.INTRA.REPUL>
0

>  <SCORE.INTRA.REPUL.0>
0

>  <SCORE.INTRA.SOLV>
0.551476

>  <SCORE.INTRA.SOLV.lig_0>
-74.884

>  <SCORE.INTRA.VDW>
-0.837076

>  <SCORE.INTRA.VDW.0>
-0.858933

>  <SCORE.INTRA.norm>
-0.0421187

>  <SCORE.RESTR>
0

>  <SCORE.RESTR.CAVITY>
0

>  <SCORE.RESTR.norm>
0

>  <SCORE.SYSTEM>
0

>  <SCORE.SYSTEM.CONST>
0

>  <SCORE.SYSTEM.DIHEDRAL>
0

>  <SCORE.SYSTEM.SOLV>
0

>  <SCORE.SYSTEM.norm>
0

>  <SCORE.heavy>
22

>  <SCORE.norm>
-0.689717

>  <RMSD>
0.508

$$$$
2et8_lig
 OpenBabel11021811433D
libRbt.so/2013.1/901 2013/11/27
 22 23  0  0  0  0  0  0  0  0999 V2000
   26.4655   17.0948   35.5672 N   0  0  0  0  0  0  0  0  0  0  0  0
   23.8582   14.8816   39.1605 N   0  0  0  0  0  0  0  0  0  0  0  0
   23.1100   10.9567   39.2016 N   0  0  0  0  0  0  0  0  0  0  0  0
   21.9287   15.3802   34.6711 O   0  0  0  0  0  0  0  0  0  0  0  0
   22.7618   15.9866   35.6897 C   0  0  2  0  0  0  0  0  0  0  0  0
   18.7142   15.3639   36.8796 N   0  0  0  0  0  0  0  0  0  0  0  0
   24.1738   17.0892   33.9593 O   0  0  0  0  0  0  0  0  0  0  0  0
   24.2059   16.2311   35.1067 C   0  0  1  0  0  0  0  0  0  0  0  0
   21.6015   14.8444   37.4217 O   0  0  0  0  0  0  0  0  0  0  0  0
   25.0942   16.8760   36.1420 C   0  0  1  0  0  0  0  0  0  0  0  0
   21.2465   12.5703   37.3513 O   0  0  0  0  0  0  0  0  0  0  0  0
   25.1646   15.9651   37.3892 C   0  0  0  0  0  0  0  0  0  0  0  0
   19.5847   12.4535   40.5987 O   0  0  0  0  0  0  0  0  0  0  0  0
   23.7183   15.7743   37.9323 C   0  0  1  0  0  0  0  0  0  0  0  0
   17.7588   14.0157   39.1623 O   0  0  0  0  0  0  0  0  0  0  0  0
   22.8747   15.0284   36.9413 C   0  0  2  0  0  0  0  0  0  0  0  0
   20.7434   13.9193   36.8391 C   0  0  1  0  0  0  0  0  0  0  0  0
   21.1299   12.4248   38.8347 C   0  0  2  0  0  0  0  0  0  0  0  0
   21.6262   11.0350   39.2845 C   0  0  0  0  0  0  0  0  0  0  0  0
   19.6887   12.5749   39.2208 C   0  0  2  0  0  0  0  0  0  0  0  0
   19.1423   13.9074   38.7973 C   0  0  1  0  0  0  0  0  0  0  0  0
   19.2688   14.0329   37.3179 C   0  0  1  0  0  0  0  0  0  0  0  0
  5  4  1  6  0  0  0
  5  8  1  0  0  0  0
  5 16  1  0  0  0  0
  8  7  1  6  0  0  0
  8 10  1  0  0  0  0
 10  1  1  6  0  0  0
 10 12  1  0  0  0  0
 11 18  1  0  0  0  0
 12 14  1  0  0  0  0
 14  2  1  1  0  0  0
 14 16  1  0  0  0  0
 16  9  1  1  0  0  0
 17  9  1  1  0  0  0
 17 11  1  0  0  0  0
 17 22  1  0  0  0  0
 18 19  1  6  0  0  0
 18 20  1  0  0  0  0
 19  3  1  0  0  0  0
 20 13  1  1  0  0  0
 20 21  1  0  0  0  0
 21 15  1  6  0  0  0
 21 22  1  0  0  0  0
 22  6  1  1  0  0  0
M  END
>  <CHROM.1>
81.37689689,76.41012440,73.30791640,21.96160817,14.46331763,37.42612466,-0.80488025
0.04332732,2.35246790

>  <Name>
2et8_lig

>  <RI>
0

>  <Rbt.Current_Directory>
/home/itssahil/PROJECTS/Mol_Feturizer/New_Systems/rnas/2et8

>  <Rbt.Executable>
rbdock ($Id: //depot/dev/client3/rdock/2013.1/src/exe/rbdock.cxx#4 $)

>  <Rbt.Library>
libRbt.so (2013.1, Build901 2013/11/27)

>  <Rbt.Parameter_File>
/export/apps/rDock/src/rDock_2013.1_src/data/scripts/dock_solv.prm

>  <Rbt.Receptor>
prm/pocket_docking_2.prm

>  <SCORE>
-15.1464

>  <SCORE.INTER>
-14.0917

>  <SCORE.INTER.CONST>
1

>  <SCORE.INTER.POLAR>
-0.959166

>  <SCORE.INTER.ROT>
3

>  <SCORE.INTER.SOLV>
19.5331

>  <SCORE.INTER.VDW>
-18.3083

>  <SCORE.INTER.norm>
-0.640531

>  <SCORE.INTRA>
-1.05475

>  <SCORE.INTRA.DIHEDRAL>
-0.9961

>  <SCORE.INTRA.DIHEDRAL.0>
4.99603

>  <SCORE.INTRA.POLAR>
0

>  <SCORE.INTRA.POLAR.0>
0

>  <SCORE.INTRA.REPUL>
0

>  <SCORE.INTRA.REPUL.0>
0

>  <SCORE.INTRA.SOLV>
0.426826

>  <SCORE.INTRA.SOLV.lig_0>
-74.884

>  <SCORE.INTRA.VDW>
-0.770114

>  <SCORE.INTRA.VDW.0>
-0.858933

>  <SCORE.INTRA.norm>
-0.0479432

>  <SCORE.RESTR>
0

>  <SCORE.RESTR.CAVITY>
0

>  <SCORE.RESTR.norm>
0

>  <SCORE.SYSTEM>
0

>  <SCORE.SYSTEM.CONST>
0

>  <SCORE.SYSTEM.DIHEDRAL>
0

>  <SCORE.SYSTEM.SOLV>
0

>  <SCORE.SYSTEM.norm>
0

>  <SCORE.heavy>
22

>  <SCORE.norm>
-0.688474

>  <RMSD>
0.509

$$$$
2et8_lig
 OpenBabel11021811433D
libRbt.so/2013.1/901 2013/11/27
 22 23  0  0  0  0  0  0  0  0999 V2000
   26.5283   17.0888   35.6495 N   0  0  0  0  0  0  0  0  0  0  0  0
   23.8274   14.8849   39.1787 N   0  0  0  0  0  0  0  0  0  0  0  0
   23.0848   11.0174   39.2392 N   0  0  0  0  0  0  0  0  0  0  0  0
   21.9924   15.4270   34.6549 O   0  0  0  0  0  0  0  0  0  0  0  0
   22.8115   16.0192   35.6930 C   0  0  2  0  0  0  0  0  0  0  0  0
   18.7280   15.3802   36.7859 N   0  0  0  0  0  0  0  0  0  0  0  0
   24.2689   17.1158   33.9967 O   0  0  0  0  0  0  0  0  0  0  0  0
   24.2693   16.2514   35.1399 C   0  0  1  0  0  0  0  0  0  0  0  0
   21.6053   14.8805   37.3956 O   0  0  0  0  0  0  0  0  0  0  0  0
   25.1436   16.8816   36.1959 C   0  0  1  0  0  0  0  0  0  0  0  0
   21.2576   12.6044   37.3650 O   0  0  0  0  0  0  0  0  0  0  0  0
   25.1799   15.9636   37.4394 C   0  0  0  0  0  0  0  0  0  0  0  0
   19.5319   12.5493   40.5806 O   0  0  0  0  0  0  0  0  0  0  0  0
   23.7212   15.7853   37.9528 C   0  0  1  0  0  0  0  0  0  0  0  0
   17.7309   14.0763   39.0766 O   0  0  0  0  0  0  0  0  0  0  0  0
   22.8896   15.0535   36.9414 C   0  0  2  0  0  0  0  0  0  0  0  0
   20.7613   13.9411   36.8154 C   0  0  1  0  0  0  0  0  0  0  0  0
   21.1120   12.4890   38.8486 C   0  0  2  0  0  0  0  0  0  0  0  0
   21.6027   11.1102   39.3366 C   0  0  0  0  0  0  0  0  0  0  0  0
   19.6630   12.6427   39.2029 C   0  0  2  0  0  0  0  0  0  0  0  0
   19.1217   13.9647   38.7414 C   0  0  1  0  0  0  0  0  0  0  0  0
   19.2772   14.0601   37.2624 C   0  0  1  0  0  0  0  0  0  0  0  0
  5  4  1  6  0  0  0
  5  8  1  0  0  0  0
  5 16  1  0  0  0  0
  8  7  1  6  0  0  0
  8 10  1  0  0  0  0
 10  1  1  6  0  0  0
 10 12  1  0  0  0  0
 11 18  1  0  0  0  0
 12 14  1  0  0  0  0
 14  2  1  1  0  0  0
 14 16  1  0  0  0  0
 16  9  1  1  0  0  0
 17  9  1  1  0  0  0
 17 11  1  0  0  0  0
 17 22  1  0  0  0  0
 18 19  1  6  0  0  0
 18 20  1  0  0  0  0
 19  3  1  0  0  0  0
 20 13  1  1  0  0  0
 20 21  1  0  0  0  0
 21 15  1  6  0  0  0
 21 22  1  0  0  0  0
 22  6  1  1  0  0  0
M  END
>  <CHROM.1>
83.19073633,76.06496579,71.29964320,21.97294200,14.49944481,37.42668276,-0.78762685
0.05574563,2.34076427

>  <Name>
2et8_lig

>  <RI>
0

>  <Rbt.Current_Directory>
/home/itssahil/PROJECTS/Mol_Feturizer/New_Systems/rnas/2et8

>  <Rbt.Executable>
rbdock ($Id: //depot/dev/client3/rdock/2013.1/src/exe/rbdock.cxx#4 $)

>  <Rbt.Library>
libRbt.so (2013.1, Build901 2013/11/27)

>  <Rbt.Parameter_File>
/export/apps/rDock/src/rDock_2013.1_src/data/scripts/dock_solv.prm

>  <Rbt.Receptor>
prm/pocket_docking_2.prm

>  <SCORE>
-15.1874

>  <SCORE.INTER>
-14.1718

>  <SCORE.INTER.CONST>
1

>  <SCORE.INTER.POLAR>
-0.959166

>  <SCORE.INTER.ROT>
3

>  <SCORE.INTER.SOLV>
19.0815

>  <SCORE.INTER.VDW>
-18.2111

>  <SCORE.INTER.norm>
-0.644172

>  <SCORE.INTRA>
-1.01564

>  <SCORE.INTRA.DIHEDRAL>
-0.906084

>  <SCORE.INTRA.DIHEDRAL.0>
4.99603

>  <SCORE.INTRA.POLAR>
0

>  <SCORE.INTRA.POLAR.0>
0

>  <SCORE.INTRA.REPUL>
0

>  <SCORE.INTRA.REPUL.0>
0

>  <SCORE.INTRA.SOLV>
0.599031

>  <SCORE.INTRA.SOLV.lig_0>
-74.884

>  <SCORE.INTRA.VDW>
-0.862113

>  <SCORE.INTRA.VDW.0>
-0.858933

>  <SCORE.INTRA.norm>
-0.0461655

>  <SCORE.RESTR>
0

>  <SCORE.RESTR.CAVITY>
0

>  <SCORE.RESTR.norm>
0

>  <SCORE.SYSTEM>
0

>  <SCORE.SYSTEM.CONST>
0

>  <SCORE.SYSTEM.DIHEDRAL>
0

>  <SCORE.SYSTEM.SOLV>
0

>  <SCORE.SYSTEM.norm>
0

>  <SCORE.heavy>
22

>  <SCORE.norm>
-0.690337

>  <RMSD>
0.510

$$$$
2et8_lig
 OpenBabel11021811433D
libRbt.so/2013.1/901 2013/11/27
 22 23  0  0  0  0  0  0  0  0999 V2000
   26.4637   17.1004   35.6166 N   0  0  0  0  0  0  0  0  0  0  0  0
   23.8189   14.8751   39.1748 N   0  0  0  0  0  0  0  0  0  0  0  0
   23.0945   10.9906   39.2314 N   0  0  0  0  0  0  0  0  0  0  0  0
   21.9277   15.4091   34.6732 O   0  0  0  0  0  0  0  0  0  0  0  0
   22.7549   16.0058   35.7023 C   0  0  2  0  0  0  0  0  0  0  0  0
   18.6896   15.3555   36.8521 N   0  0  0  0  0  0  0  0  0  0  0  0
   24.1851   17.1137   33.9902 O   0  0  0  0  0  0  0  0  0  0  0  0
   24.2045   16.2483   35.1324 C   0  0  1  0  0  0  0  0  0  0  0  0
   21.5762   14.8575   37.4176 O   0  0  0  0  0  0  0  0  0  0  0  0
   25.0869   16.8833   36.1789 C   0  0  1  0  0  0  0  0  0  0  0  0
   21.2347   12.5808   37.3648 O   0  0  0  0  0  0  0  0  0  0  0  0
   25.1438   15.9645   37.4209 C   0  0  0  0  0  0  0  0  0  0  0  0
   19.5522   12.4827   40.6022 O   0  0  0  0  0  0  0  0  0  0  0  0
   23.6924   15.7759   37.9511 C   0  0  1  0  0  0  0  0  0  0  0  0
   17.7269   14.0217   39.1403 O   0  0  0  0  0  0  0  0  0  0  0  0
   22.8540   15.0395   36.9487 C   0  0  2  0  0  0  0  0  0  0  0  0
   20.7273   13.9223   36.8376 C   0  0  1  0  0  0  0  0  0  0  0  0
   21.1092   12.4476   38.8487 C   0  0  2  0  0  0  0  0  0  0  0  0
   21.6104   11.0646   39.3139 C   0  0  0  0  0  0  0  0  0  0  0  0
   19.6646   12.5927   39.2240 C   0  0  2  0  0  0  0  0  0  0  0  0
   19.1134   13.9183   38.7853 C   0  0  1  0  0  0  0  0  0  0  0  0
   19.2489   14.0316   37.3057 C   0  0  1  0  0  0  0  0  0  0  0  0
  5  4  1  6  0  0  0
  5  8  1  0  0  0  0
  5 16  1  0  0  0  0
  8  7  1  6  0  0  0
  8 10  1  0  0  0  0
 10  1  1  6  0  0  0
 10 12  1  0  0  0  0
 11 18  1  0  0  0  0
 12 14  1  0  0  0  0
 14  2  1  1  0  0  0
 14 16  1  0  0  0  0
 16  9  1  1  0  0  0
 17  9  1  1  0  0  0
 17 11  1  0  0  0  0
 17 22  1  0  0  0  0
 18 19  1  6  0  0  0
 18 20  1  0  0  0  0
 19  3  1  0  0  0  0
 20 13  1  1  0  0  0
 20 21  1  0  0  0  0
 21 15  1  6  0  0  0
 21 22  1  0  0  0  0
 22  6  1  1  0  0  0
M  END
>  <CHROM.1>
82.53733604,76.05062986,72.86565489,21.94436551,14.47611922,37.43699730,-0.79987149
0.05067870,2.34797133

>  <Name>
2et8_lig

>  <RI>
0

>  <Rbt.Current_Directory>
/home/itssahil/PROJECTS/Mol_Feturizer/New_Systems/rnas/2et8

>  <Rbt.Executable>
rbdock ($Id: //depot/dev/client3/rdock/2013.1/src/exe/rbdock.cxx#4 $)

>  <Rbt.Library>
libRbt.so (2013.1, Build901 2013/11/27)

>  <Rbt.Parameter_File>
/export/apps/rDock/src/rDock_2013.1_src/data/scripts/dock_solv.prm

>  <Rbt.Receptor>
prm/pocket_docking_2.prm

>  <SCORE>
-15.1637

>  <SCORE.INTER>
-14.1537

>  <SCORE.INTER.CONST>
1

>  <SCORE.INTER.POLAR>
-0.959166

>  <SCORE.INTER.ROT>
3

>  <SCORE.INTER.SOLV>
19.1903

>  <SCORE.INTER.VDW>
-18.2354

>  <SCORE.INTER.norm>
-0.64335

>  <SCORE.INTRA>
-1.01217

>  <SCORE.INTRA.DIHEDRAL>
-0.891046

>  <SCORE.INTRA.DIHEDRAL.0>
4.99603

>  <SCORE.INTRA.POLAR>
0

>  <SCORE.INTRA.POLAR.0>
0

>  <SCORE.INTRA.REPUL>
0

>  <SCORE.INTRA.REPUL.0>
0

>  <SCORE.INTRA.SOLV>
0.538876

>  <SCORE.INTRA.SOLV.lig_0>
-74.884

>  <SCORE.INTRA.VDW>
-0.836088

>  <SCORE.INTRA.VDW.0>
-0.858933

>  <SCORE.INTRA.norm>
-0.0460079

>  <SCORE.RESTR>
0.00219496

>  <SCORE.RESTR.CAVITY>
0.00219496

>  <SCORE.RESTR.norm>
9.97709e-05

>  <SCORE.SYSTEM>
0

>  <SCORE.SYSTEM.CONST>
0

>  <SCORE.SYSTEM.DIHEDRAL>
0

>  <SCORE.SYSTEM.SOLV>
0

>  <SCORE.SYSTEM.norm>
0

>  <SCORE.heavy>
22

>  <SCORE.norm>
-0.689259

>  <RMSD>
0.514

$$$$
2et8_lig
 OpenBabel11021811433D
libRbt.so/2013.1/901 2013/11/27
 22 23  0  0  0  0  0  0  0  0999 V2000
   25.9623   17.1369   35.2125 N   0  0  0  0  0  0  0  0  0  0  0  0
   23.7534   14.8787   39.0373 N   0  0  0  0  0  0  0  0  0  0  0  0
   22.8293   10.8885   39.3550 N   0  0  0  0  0  0  0  0  0  0  0  0
   21.4315   15.2500   34.7249 O   0  0  0  0  0  0  0  0  0  0  0  0
   22.3256   15.8988   35.6624 C   0  0  2  0  0  0  0  0  0  0  0  0
   18.4702   15.2606   36.9708 N   0  0  0  0  0  0  0  0  0  0  0  0
   23.5437   17.0287   33.8067 O   0  0  0  0  0  0  0  0  0  0  0  0
   23.7048   16.1871   34.9556 C   0  0  1  0  0  0  0  0  0  0  0  0
   21.3596   14.7385   37.4985 O   0  0  0  0  0  0  0  0  0  0  0  0
   24.6538   16.8767   35.9047 C   0  0  1  0  0  0  0  0  0  0  0  0
   20.9764   12.4692   37.5756 O   0  0  0  0  0  0  0  0  0  0  0  0
   24.8636   15.9851   37.1501 C   0  0  0  0  0  0  0  0  0  0  0  0
   19.3674   12.5758   40.8498 O   0  0  0  0  0  0  0  0  0  0  0  0
   23.4767   15.7498   37.8169 C   0  0  1  0  0  0  0  0  0  0  0  0
   17.5367   14.0693   39.3480 O   0  0  0  0  0  0  0  0  0  0  0  0
   22.5798   14.9616   36.9091 C   0  0  2  0  0  0  0  0  0  0  0  0
   20.4810   13.7901   36.9884 C   0  0  1  0  0  0  0  0  0  0  0  0
   20.8827   12.4176   39.0669 C   0  0  2  0  0  0  0  0  0  0  0  0
   21.3697   11.0521   39.5945 C   0  0  0  0  0  0  0  0  0  0  0  0
   19.4500   12.6101   39.4656 C   0  0  2  0  0  0  0  0  0  0  0  0
   18.9126   13.9207   38.9686 C   0  0  1  0  0  0  0  0  0  0  0  0
   19.0160   13.9524   37.4824 C   0  0  1  0  0  0  0  0  0  0  0  0
  5  4  1  6  0  0  0
  5  8  1  0  0  0  0
  5 16  1  0  0  0  0
  8  7  1  6  0  0  0
  8 10  1  0  0  0  0
 10  1  1  6  0  0  0
 10 12  1  0  0  0  0
 11 18  1  0  0  0  0
 12 14  1  0  0  0  0
 14  2  1  1  0  0  0
 14 16  1  0  0  0  0
 16  9  1  1  0  0  0
 17  9  1  1  0  0  0
 17 11  1  0  0  0  0
 17 22  1  0  0  0  0
 18 19  1  6  0  0  0
 18 20  1  0  0  0  0
 19  3  1  0  0  0  0
 20 13  1  1  0  0  0
 20 21  1  0  0  0  0
 21 15  1  6  0  0  0
 21 22  1  0  0  0  0
 22  6  1  1  0  0  0
M  END
>  <CHROM.1>
80.38194325,82.51790520,67.02408841,21.64610667,14.43119057,37.46847966,-0.86476276
0.01765847,2.32340751

>  <Name>
2et8_lig

>  <RI>
0

>  <Rbt.Current_Directory>
/home/itssahil/PROJECTS/Mol_Feturizer/New_Systems/rnas/2et8

>  <Rbt.Executable>
rbdock ($Id: //depot/dev/client3/rdock/2013.1/src/exe/rbdock.cxx#4 $)

>  <Rbt.Library>
libRbt.so (2013.1, Build901 2013/11/27)

>  <Rbt.Parameter_File>
/export/apps/rDock/src/rDock_2013.1_src/data/scripts/dock_solv.prm

>  <Rbt.Receptor>
prm/pocket_docking_5.prm

>  <SCORE>
-15.2128

>  <SCORE.INTER>
-14.382

>  <SCORE.INTER.CONST>
1

>  <SCORE.INTER.POLAR>
-0.959166

>  <SCORE.INTER.ROT>
3

>  <SCORE.INTER.SOLV>
18.5948

>  <SCORE.INTER.VDW>
-18.189

>  <SCORE.INTER.norm>
-0.653727

>  <SCORE.INTRA>
-0.830807

>  <SCORE.INTRA.DIHEDRAL>
-0.643883

>  <SCORE.INTRA.DIHEDRAL.0>
4.99603

>  <SCORE.INTRA.POLAR>
0

>  <SCORE.INTRA.POLAR.0>
0

>  <SCORE.INTRA.REPUL>
0

>  <SCORE.INTRA.REPUL.0>
0

>  <SCORE.INTRA.SOLV>
0.411366

>  <SCORE.INTRA.SOLV.lig_0>
-74.884

>  <SCORE.INTRA.VDW>
-0.714548

>  <SCORE.INTRA.VDW.0>
-0.858933

>  <SCORE.INTRA.norm>
-0.037764

>  <SCORE.RESTR>
0

>  <SCORE.RESTR.CAVITY>
0

>  <SCORE.RESTR.norm>
0

>  <SCORE.SYSTEM>
0

>  <SCORE.SYSTEM.CONST>
0

>  <SCORE.SYSTEM.DIHEDRAL>
0

>  <SCORE.SYSTEM.SOLV>
0

>  <SCORE.SYSTEM.norm>
0

>  <SCORE.heavy>
22

>  <SCORE.norm>
-0.691491

>  <RMSD>
0.536

$$$$
2et8_lig
 OpenBabel11021811433D
libRbt.so/2013.1/901 2013/11/27
 22 23  0  0  0  0  0  0  0  0999 V2000
   25.8424   17.1830   35.0324 N   0  0  0  0  0  0  0  0  0  0  0  0
   23.7915   15.0073   38.9907 N   0  0  0  0  0  0  0  0  0  0  0  0
   22.8668   10.8993   39.4205 N   0  0  0  0  0  0  0  0  0  0  0  0
   21.3776   15.1115   34.7142 O   0  0  0  0  0  0  0  0  0  0  0  0
   22.2639   15.8316   35.6060 C   0  0  2  0  0  0  0  0  0  0  0  0
   18.4830   15.2237   36.9899 N   0  0  0  0  0  0  0  0  0  0  0  0
   23.4039   16.9268   33.6812 O   0  0  0  0  0  0  0  0  0  0  0  0
   23.6179   16.1407   34.8603 C   0  0  1  0  0  0  0  0  0  0  0  0
   21.3766   14.7145   37.5074 O   0  0  0  0  0  0  0  0  0  0  0  0
   24.5577   16.9040   35.7609 C   0  0  1  0  0  0  0  0  0  0  0  0
   20.9981   12.4459   37.6204 O   0  0  0  0  0  0  0  0  0  0  0  0
   24.8240   16.0738   37.0376 C   0  0  0  0  0  0  0  0  0  0  0  0
   19.4090   12.5981   40.9025 O   0  0  0  0  0  0  0  0  0  0  0  0
   23.4596   15.8157   37.7412 C   0  0  1  0  0  0  0  0  0  0  0  0
   17.5664   14.0660   39.3901 O   0  0  0  0  0  0  0  0  0  0  0  0
   22.5763   14.9575   36.8849 C   0  0  2  0  0  0  0  0  0  0  0  0
   20.4966   13.7572   37.0168 C   0  0  1  0  0  0  0  0  0  0  0  0
   20.9136   12.4162   39.1128 C   0  0  2  0  0  0  0  0  0  0  0  0
   21.4064   11.0595   39.6576 C   0  0  0  0  0  0  0  0  0  0  0  0
   19.4830   12.6120   39.5175 C   0  0  2  0  0  0  0  0  0  0  0  0
   18.9402   13.9142   39.0045 C   0  0  1  0  0  0  0  0  0  0  0  0
   19.0344   13.9241   37.5174 C   0  0  1  0  0  0  0  0  0  0  0  0
  5  4  1  6  0  0  0
  5  8  1  0  0  0  0
  5 16  1  0  0  0  0
  8  7  1  6  0  0  0
  8 10  1  0  0  0  0
 10  1  1  6  0  0  0
 10 12  1  0  0  0  0
 11 18  1  0  0  0  0
 12 14  1  0  0  0  0
 14  2  1  1  0  0  0
 14 16  1  0  0  0  0
 16  9  1  1  0  0  0
 17  9  1  1  0  0  0
 17 11  1  0  0  0  0
 17 22  1  0  0  0  0
 18 19  1  6  0  0  0
 18 20  1  0  0  0  0
 19  3  1  0  0  0  0
 20 13  1  1  0  0  0
 20 21  1  0  0  0  0
 21 15  1  6  0  0  0
 21 22  1  0  0  0  0
 22  6  1  1  0  0  0
M  END
>  <CHROM.1>
77.29715955,84.38426799,67.44490275,21.63437654,14.42453672,37.45215314,-0.89079214
0.01911501,2.30330130

>  <Name>
2et8_lig

>  <RI>
0

>  <Rbt.Current_Directory>
/home/itssahil/PROJECTS/Mol_Feturizer/New_Systems/rnas/2et8

>  <Rbt.Executable>
rbdock ($Id: //depot/dev/client3/rdock/2013.1/src/exe/rbdock.cxx#4 $)

>  <Rbt.Library>
libRbt.so (2013.1, Build901 2013/11/27)

>  <Rbt.Parameter_File>
/export/apps/rDock/src/rDock_2013.1_src/data/scripts/dock_solv.prm

>  <Rbt.Receptor>
prm/pocket_docking_3.prm

>  <SCORE>
-15.1755

>  <SCORE.INTER>
-14.303

>  <SCORE.INTER.CONST>
1

>  <SCORE.INTER.POLAR>
-0.959166

>  <SCORE.INTER.ROT>
3

>  <SCORE.INTER.SOLV>
18.5716

>  <SCORE.INTER.VDW>
-18.1286

>  <SCORE.INTER.norm>
-0.650136

>  <SCORE.INTRA>
-0.872463

>  <SCORE.INTRA.DIHEDRAL>
-0.768547

>  <SCORE.INTRA.DIHEDRAL.0>
4.99603

>  <SCORE.INTRA.POLAR>
0

>  <SCORE.INTRA.POLAR.0>
0

>  <SCORE.INTRA.REPUL>
0

>  <SCORE.INTRA.REPUL.0>
0

>  <SCORE.INTRA.SOLV>
0.131004

>  <SCORE.INTRA.SOLV.lig_0>
-74.884

>  <SCORE.INTRA.VDW>
-0.553692

>  <SCORE.INTRA.VDW.0>
-0.858933

>  <SCORE.INTRA.norm>
-0.0396574

>  <SCORE.RESTR>
0

>  <SCORE.RESTR.CAVITY>
0

>  <SCORE.RESTR.norm>
0

>  <SCORE.SYSTEM>
0

>  <SCORE.SYSTEM.CONST>
0

>  <SCORE.SYSTEM.DIHEDRAL>
0

>  <SCORE.SYSTEM.SOLV>
0

>  <SCORE.SYSTEM.norm>
0

>  <SCORE.heavy>
22

>  <SCORE.norm>
-0.689794

>  <RMSD>
0.547

$$$$
2et8_lig
 OpenBabel11021811433D
libRbt.so/2013.1/901 2013/11/27
 22 23  0  0  0  0  0  0  0  0999 V2000
   25.8696   17.1385   35.0366 N   0  0  0  0  0  0  0  0  0  0  0  0
   23.7514   14.9656   38.9608 N   0  0  0  0  0  0  0  0  0  0  0  0
   22.8354   10.8844   39.3470 N   0  0  0  0  0  0  0  0  0  0  0  0
   21.3793   15.1325   34.6629 O   0  0  0  0  0  0  0  0  0  0  0  0
   22.2673   15.8340   35.5678 C   0  0  2  0  0  0  0  0  0  0  0  0
   18.4536   15.2531   36.9605 N   0  0  0  0  0  0  0  0  0  0  0  0
   23.4405   16.9258   33.6611 O   0  0  0  0  0  0  0  0  0  0  0  0
   23.6324   16.1289   34.8368 C   0  0  1  0  0  0  0  0  0  0  0  0
   21.3466   14.7168   37.4533 O   0  0  0  0  0  0  0  0  0  0  0  0
   24.5744   16.8728   35.7512 C   0  0  1  0  0  0  0  0  0  0  0  0
   20.9550   12.4488   37.5243 O   0  0  0  0  0  0  0  0  0  0  0  0
   24.8170   16.0304   37.0246 C   0  0  0  0  0  0  0  0  0  0  0  0
   19.3833   12.5469   40.8169 O   0  0  0  0  0  0  0  0  0  0  0  0
   23.4426   15.7869   37.7138 C   0  0  1  0  0  0  0  0  0  0  0  0
   17.5420   14.0546   39.3426 O   0  0  0  0  0  0  0  0  0  0  0  0
   22.5554   14.9470   36.8436 C   0  0  2  0  0  0  0  0  0  0  0  0
   20.4584   13.7744   36.9487 C   0  0  1  0  0  0  0  0  0  0  0  0
   20.8778   12.3907   39.0163 C   0  0  2  0  0  0  0  0  0  0  0  0
   21.3651   11.0208   39.5322 C   0  0  0  0  0  0  0  0  0  0  0  0
   19.4505   12.5871   39.4320 C   0  0  2  0  0  0  0  0  0  0  0  0
   18.9129   13.9022   38.9471 C   0  0  1  0  0  0  0  0  0  0  0  0
   18.9997   13.9403   37.4600 C   0  0  1  0  0  0  0  0  0  0  0  0
  5  4  1  6  0  0  0
  5  8  1  0  0  0  0
  5 16  1  0  0  0  0
  8  7  1  6  0  0  0
  8 10  1  0  0  0  0
 10  1  1  6  0  0  0
 10 12  1  0  0  0  0
 11 18  1  0  0  0  0
 12 14  1  0  0  0  0
 14  2  1  1  0  0  0
 14 16  1  0  0  0  0
 16  9  1  1  0  0  0
 17  9  1  1  0  0  0
 17 11  1  0  0  0  0
 17 22  1  0  0  0  0
 18 19  1  6  0  0  0
 18 20  1  0  0  0  0
 19  3  1  0  0  0  0
 20 13  1  1  0  0  0
 20 21  1  0  0  0  0
 21 15  1  6  0  0  0
 21 22  1  0  0  0  0
 22  6  1  1  0  0  0
M  END
>  <CHROM.1>
77.35972893,83.16350206,70.29734631,21.61728333,14.41108406,37.40060753,-0.87983295
0.01417760,2.31330694

>  <Name>
2et8_lig

>  <RI>
0

>  <Rbt.Current_Directory>
/home/itssahil/PROJECTS/Mol_Feturizer/New_Systems/rnas/2et8

>  <Rbt.Executable>
rbdock ($Id: //depot/dev/client3/rdock/2013.1/src/exe/rbdock.cxx#4 $)

>  <Rbt.Library>
libRbt.so (2013.1, Build901 2013/11/27)

>  <Rbt.Parameter_File>
/export/apps/rDock/src/rDock_2013.1_src/data/scripts/dock_solv.prm

>  <Rbt.Receptor>
prm/pocket_docking_5.prm

>  <SCORE>
-15.2662

>  <SCORE.INTER>
-14.361

>  <SCORE.INTER.CONST>
1

>  <SCORE.INTER.POLAR>
-0.959166

>  <SCORE.INTER.ROT>
3

>  <SCORE.INTER.SOLV>
18.9386

>  <SCORE.INTER.VDW>
-18.2897

>  <SCORE.INTER.norm>
-0.652772

>  <SCORE.INTRA>
-0.905201

>  <SCORE.INTRA.DIHEDRAL>
-0.795472

>  <SCORE.INTRA.DIHEDRAL.0>
4.99603

>  <SCORE.INTRA.POLAR>
0

>  <SCORE.INTRA.POLAR.0>
0

>  <SCORE.INTRA.REPUL>
0

>  <SCORE.INTRA.REPUL.0>
0

>  <SCORE.INTRA.SOLV>
0.128489

>  <SCORE.INTRA.SOLV.lig_0>
-74.884

>  <SCORE.INTRA.VDW>
-0.57171

>  <SCORE.INTRA.VDW.0>
-0.858933

>  <SCORE.INTRA.norm>
-0.0411455

>  <SCORE.RESTR>
0

>  <SCORE.RESTR.CAVITY>
0

>  <SCORE.RESTR.norm>
0

>  <SCORE.SYSTEM>
0

>  <SCORE.SYSTEM.CONST>
0

>  <SCORE.SYSTEM.DIHEDRAL>
0

>  <SCORE.SYSTEM.SOLV>
0

>  <SCORE.SYSTEM.norm>
0

>  <SCORE.heavy>
22

>  <SCORE.norm>
-0.693918

>  <RMSD>
0.560

$$$$
2et8_lig
 OpenBabel11021811433D
libRbt.so/2013.1/901 2013/11/27
 22 23  0  0  0  0  0  0  0  0999 V2000
   26.5175   17.3538   35.4275 N   0  0  0  0  0  0  0  0  0  0  0  0
   23.8868   15.2149   39.0486 N   0  0  0  0  0  0  0  0  0  0  0  0
   21.3957   10.1939   38.6534 N   0  0  0  0  0  0  0  0  0  0  0  0
   22.0564   15.4670   34.4976 O   0  0  0  0  0  0  0  0  0  0  0  0
   22.8458   16.1402   35.5090 C   0  0  2  0  0  0  0  0  0  0  0  0
   18.7538   15.3063   36.7249 N   0  0  0  0  0  0  0  0  0  0  0  0
   24.2678   17.2118   33.7673 O   0  0  0  0  0  0  0  0  0  0  0  0
   24.2962   16.4036   34.9506 C   0  0  1  0  0  0  0  0  0  0  0  0
   21.6763   15.0369   37.2599 O   0  0  0  0  0  0  0  0  0  0  0  0
   25.1391   17.1178   35.9783 C   0  0  1  0  0  0  0  0  0  0  0  0
   21.4922   12.7427   37.3319 O   0  0  0  0  0  0  0  0  0  0  0  0
   25.2050   16.2624   37.2644 C   0  0  0  0  0  0  0  0  0  0  0  0
   19.8711   12.7021   40.6017 O   0  0  0  0  0  0  0  0  0  0  0  0
   23.7517   16.0508   37.7806 C   0  0  1  0  0  0  0  0  0  0  0  0
   17.9213   14.0334   39.0972 O   0  0  0  0  0  0  0  0  0  0  0  0
   22.9553   15.2391   36.8025 C   0  0  2  0  0  0  0  0  0  0  0  0
   20.8851   14.0167   36.7456 C   0  0  1  0  0  0  0  0  0  0  0  0
   21.3993   12.6802   38.8228 C   0  0  2  0  0  0  0  0  0  0  0  0
   22.0020   11.3612   39.3494 C   0  0  0  0  0  0  0  0  0  0  0  0
   19.9542   12.7462   39.2178 C   0  0  2  0  0  0  0  0  0  0  0  0
   19.3059   14.0060   38.7215 C   0  0  1  0  0  0  0  0  0  0  0  0
   19.4102   14.0496   37.2357 C   0  0  1  0  0  0  0  0  0  0  0  0
  5  4  1  6  0  0  0
  5  8  1  0  0  0  0
  5 16  1  0  0  0  0
  8  7  1  6  0  0  0
  8 10  1  0  0  0  0
 10  1  1  6  0  0  0
 10 12  1  0  0  0  0
 11 18  1  0  0  0  0
 12 14  1  0  0  0  0
 14  2  1  1  0  0  0
 14 16  1  0  0  0  0
 16  9  1  1  0  0  0
 17  9  1  1  0  0  0
 17 11  1  0  0  0  0
 17 22  1  0  0  0  0
 18 19  1  6  0  0  0
 18 20  1  0  0  0  0
 19  3  1  0  0  0  0
 20 13  1  1  0  0  0
 20 21  1  0  0  0  0
 21 15  1  6  0  0  0
 21 22  1  0  0  0  0
 22  6  1  1  0  0  0
M  END
>  <CHROM.1>
84.81078092,72.85437021,-52.61160343,22.01473179,14.59565319,37.30456743
-0.83833589,0.09928052,2.33085627

>  <Name>
2et8_lig

>  <RI>
0

>  <Rbt.Current_Directory>
/home/itssahil/PROJECTS/Mol_Feturizer/New_Systems/rnas/2et8

>  <Rbt.Executable>
rbdock ($Id: //depot/dev/client3/rdock/2013.1/src/exe/rbdock.cxx#4 $)

>  <Rbt.Library>
libRbt.so (2013.1, Build901 2013/11/27)

>  <Rbt.Parameter_File>
/export/apps/rDock/src/rDock_2013.1_src/data/scripts/dock_solv.prm

>  <Rbt.Receptor>
prm/pocket_docking_3.prm

>  <SCORE>
-12.0602

>  <SCORE.INTER>
-11.3803

>  <SCORE.INTER.CONST>
1

>  <SCORE.INTER.POLAR>
-0.959166

>  <SCORE.INTER.ROT>
3

>  <SCORE.INTER.SOLV>
22.9206

>  <SCORE.INTER.VDW>
-17.6298

>  <SCORE.INTER.norm>
-0.517286

>  <SCORE.INTRA>
-0.679931

>  <SCORE.INTRA.DIHEDRAL>
-1.28427

>  <SCORE.INTRA.DIHEDRAL.0>
4.99603

>  <SCORE.INTRA.POLAR>
0

>  <SCORE.INTRA.POLAR.0>
0

>  <SCORE.INTRA.REPUL>
0

>  <SCORE.INTRA.REPUL.0>
0

>  <SCORE.INTRA.SOLV>
1.5523

>  <SCORE.INTRA.SOLV.lig_0>
-74.884

>  <SCORE.INTRA.VDW>
-0.813946

>  <SCORE.INTRA.VDW.0>
-0.858933

>  <SCORE.INTRA.norm>
-0.030906

>  <SCORE.RESTR>
0

>  <SCORE.RESTR.CAVITY>
0

>  <SCORE.RESTR.norm>
0

>  <SCORE.SYSTEM>
0

>  <SCORE.SYSTEM.CONST>
0

>  <SCORE.SYSTEM.DIHEDRAL>
0

>  <SCORE.SYSTEM.SOLV>
0

>  <SCORE.SYSTEM.norm>
0

>  <SCORE.heavy>
22

>  <SCORE.norm>
-0.548192

>  <RMSD>
0.568

$$$$
2et8_lig
 OpenBabel11021811433D
libRbt.so/2013.1/901 2013/11/27
 22 23  0  0  0  0  0  0  0  0999 V2000
   26.3371   17.1996   35.4041 N   0  0  0  0  0  0  0  0  0  0  0  0
   23.8445   14.9622   39.0631 N   0  0  0  0  0  0  0  0  0  0  0  0
   22.0195   10.9883   40.5761 N   0  0  0  0  0  0  0  0  0  0  0  0
   21.7851   15.4648   34.6322 O   0  0  0  0  0  0  0  0  0  0  0  0
   22.6440   16.0723   35.6286 C   0  0  2  0  0  0  0  0  0  0  0  0
   18.6220   15.4142   37.0094 N   0  0  0  0  0  0  0  0  0  0  0  0
   24.0005   17.1874   33.8621 O   0  0  0  0  0  0  0  0  0  0  0  0
   24.0696   16.3258   35.0054 C   0  0  1  0  0  0  0  0  0  0  0  0
   21.5393   14.9189   37.3893 O   0  0  0  0  0  0  0  0  0  0  0  0
   24.9838   16.9721   36.0170 C   0  0  1  0  0  0  0  0  0  0  0  0
   21.2101   12.6434   37.2622 O   0  0  0  0  0  0  0  0  0  0  0  0
   25.0944   16.0578   37.2587 C   0  0  0  0  0  0  0  0  0  0  0  0
   19.7156   12.3986   40.5830 O   0  0  0  0  0  0  0  0  0  0  0  0
   23.6652   15.8579   37.8423 C   0  0  1  0  0  0  0  0  0  0  0  0
   17.8000   13.9798   39.2916 O   0  0  0  0  0  0  0  0  0  0  0  0
   22.7974   15.1109   36.8734 C   0  0  2  0  0  0  0  0  0  0  0  0
   20.6647   14.0008   36.8203 C   0  0  1  0  0  0  0  0  0  0  0  0
   21.1702   12.4487   38.7441 C   0  0  2  0  0  0  0  0  0  0  0  0
   21.7061   11.0524   39.1227 C   0  0  0  0  0  0  0  0  0  0  0  0
   19.7485   12.5657   39.2064 C   0  0  2  0  0  0  0  0  0  0  0  0
   19.1646   13.9032   38.8546 C   0  0  1  0  0  0  0  0  0  0  0  0
   19.2148   14.0779   37.3756 C   0  0  1  0  0  0  0  0  0  0  0  0
  5  4  1  6  0  0  0
  5  8  1  0  0  0  0
  5 16  1  0  0  0  0
  8  7  1  6  0  0  0
  8 10  1  0  0  0  0
 10  1  1  6  0  0  0
 10 12  1  0  0  0  0
 11 18  1  0  0  0  0
 12 14  1  0  0  0  0
 14  2  1  1  0  0  0
 14 16  1  0  0  0  0
 16  9  1  1  0  0  0
 17  9  1  1  0  0  0
 17 11  1  0  0  0  0
 17 22  1  0  0  0  0
 18 19  1  6  0  0  0
 18 20  1  0  0  0  0
 19  3  1  0  0  0  0
 20 13  1  1  0  0  0
 20 21  1  0  0  0  0
 21 15  1  6  0  0  0
 21 22  1  0  0  0  0
 22  6  1  1  0  0  0
M  END
>  <CHROM.1>
80.72901821,74.67275995,164.45639078,21.86849436,14.51703360,37.44258952
-0.86598644,0.08865924,2.30001600

>  <Name>
2et8_lig

>  <RI>
3.42619e+07

>  <Rbt.Current_Directory>
/home/itssahil/PROJECTS/Mol_Feturizer/New_Systems/rnas/2et8

>  <Rbt.Executable>
rbdock ($Id: //depot/dev/client3/rdock/2013.1/src/exe/rbdock.cxx#4 $)

>  <Rbt.Library>
libRbt.so (2013.1, Build901 2013/11/27)

>  <Rbt.Parameter_File>
/export/apps/rDock/src/rDock_2013.1_src/data/scripts/dock_solv.prm

>  <Rbt.Receptor>
prm/pocket_docking_4.prm

>  <SCORE>
-15.5854

>  <SCORE.INTER>
-14.9833

>  <SCORE.INTER.CONST>
1

>  <SCORE.INTER.POLAR>
-0.959166

>  <SCORE.INTER.ROT>
3

>  <SCORE.INTER.SOLV>
16.2574

>  <SCORE.INTER.VDW>
-17.8108

>  <SCORE.INTER.norm>
-0.68106

>  <SCORE.INTRA>
-0.602112

>  <SCORE.INTRA.DIHEDRAL>
-1.12757

>  <SCORE.INTRA.DIHEDRAL.0>
4.99603

>  <SCORE.INTRA.POLAR>
0

>  <SCORE.INTRA.POLAR.0>
0

>  <SCORE.INTRA.REPUL>
0

>  <SCORE.INTRA.REPUL.0>
0

>  <SCORE.INTRA.SOLV>
0.986009

>  <SCORE.INTRA.SOLV.lig_0>
-74.884

>  <SCORE.INTRA.VDW>
-0.531332

>  <SCORE.INTRA.VDW.0>
-0.858933

>  <SCORE.INTRA.norm>
-0.0273687

>  <SCORE.RESTR>
0

>  <SCORE.RESTR.CAVITY>
0

>  <SCORE.RESTR.norm>
0

>  <SCORE.SYSTEM>
0

>  <SCORE.SYSTEM.CONST>
0

>  <SCORE.SYSTEM.DIHEDRAL>
0

>  <SCORE.SYSTEM.SOLV>
0

>  <SCORE.SYSTEM.norm>
0

>  <SCORE.heavy>
22

>  <SCORE.norm>
-0.708429

>  <RMSD>
0.569

$$$$
2et8_lig
 OpenBabel11021811433D
libRbt.so/2013.1/901 2013/11/27
 22 23  0  0  0  0  0  0  0  0999 V2000
   26.3337   17.1766   35.4443 N   0  0  0  0  0  0  0  0  0  0  0  0
   23.8050   14.9013   39.0550 N   0  0  0  0  0  0  0  0  0  0  0  0
   22.0312   11.0044   40.5305 N   0  0  0  0  0  0  0  0  0  0  0  0
   21.7524   15.5372   34.6381 O   0  0  0  0  0  0  0  0  0  0  0  0
   22.6219   16.1076   35.6470 C   0  0  2  0  0  0  0  0  0  0  0  0
   18.5832   15.4481   37.0121 N   0  0  0  0  0  0  0  0  0  0  0  0
   23.9964   17.2384   33.9045 O   0  0  0  0  0  0  0  0  0  0  0  0
   24.0514   16.3506   35.0283 C   0  0  1  0  0  0  0  0  0  0  0  0
   21.4985   14.9345   37.3826 O   0  0  0  0  0  0  0  0  0  0  0  0
   24.9770   16.9586   36.0533 C   0  0  1  0  0  0  0  0  0  0  0  0
   21.1564   12.6616   37.2433 O   0  0  0  0  0  0  0  0  0  0  0  0
   25.0725   16.0152   37.2743 C   0  0  0  0  0  0  0  0  0  0  0  0
   19.6680   12.4062   40.5660 O   0  0  0  0  0  0  0  0  0  0  0  0
   23.6403   15.8268   37.8544 C   0  0  1  0  0  0  0  0  0  0  0  0
   17.7584   14.0053   39.2880 O   0  0  0  0  0  0  0  0  0  0  0  0
   22.7595   15.1164   36.8700 C   0  0  2  0  0  0  0  0  0  0  0  0
   20.6176   14.0245   36.8104 C   0  0  1  0  0  0  0  0  0  0  0  0
   21.1188   12.4587   38.7241 C   0  0  2  0  0  0  0  0  0  0  0  0
   21.6477   11.0572   39.0936 C   0  0  0  0  0  0  0  0  0  0  0  0
   19.6988   12.5809   39.1903 C   0  0  2  0  0  0  0  0  0  0  0  0
   19.1216   13.9236   38.8475 C   0  0  1  0  0  0  0  0  0  0  0  0
   19.1694   14.1064   37.3694 C   0  0  1  0  0  0  0  0  0  0  0  0
  5  4  1  6  0  0  0
  5  8  1  0  0  0  0
  5 16  1  0  0  0  0
  8  7  1  6  0  0  0
  8 10  1  0  0  0  0
 10  1  1  6  0  0  0
 10 12  1  0  0  0  0
 11 18  1  0  0  0  0
 12 14  1  0  0  0  0
 14  2  1  1  0  0  0
 14 16  1  0  0  0  0
 16  9  1  1  0  0  0
 17  9  1  1  0  0  0
 17 11  1  0  0  0  0
 17 22  1  0  0  0  0
 18 19  1  6  0  0  0
 18 20  1  0  0  0  0
 19  3  1  0  0  0  0
 20 13  1  1  0  0  0
 20 21  1  0  0  0  0
 21 15  1  6  0  0  0
 21 22  1  0  0  0  0
 22  6  1  1  0  0  0
M  END
>  <CHROM.1>
82.04160269,74.26351031,161.48724002,21.83578662,14.52859582,37.44271669
-0.85881456,0.08011982,2.31031079

>  <Name>
2et8_lig

>  <RI>
0

>  <Rbt.Current_Directory>
/home/itssahil/PROJECTS/Mol_Feturizer/New_Systems/rnas/2et8

>  <Rbt.Executable>
rbdock ($Id: //depot/dev/client3/rdock/2013.1/src/exe/rbdock.cxx#4 $)

>  <Rbt.Library>
libRbt.so (2013.1, Build901 2013/11/27)

>  <Rbt.Parameter_File>
/export/apps/rDock/src/rDock_2013.1_src/data/scripts/dock_solv.prm

>  <Rbt.Receptor>
prm/pocket_docking_2.prm

>  <SCORE>
-15.5679

>  <SCORE.INTER>
-15.0897

>  <SCORE.INTER.CONST>
1

>  <SCORE.INTER.POLAR>
-0.959166

>  <SCORE.INTER.ROT>
3

>  <SCORE.INTER.SOLV>
16.1287

>  <SCORE.INTER.VDW>
-17.8388

>  <SCORE.INTER.norm>
-0.685896

>  <SCORE.INTRA>
-0.478131

>  <SCORE.INTRA.DIHEDRAL>
-0.644954

>  <SCORE.INTRA.DIHEDRAL.0>
4.99603

>  <SCORE.INTRA.POLAR>
0

>  <SCORE.INTRA.POLAR.0>
0

>  <SCORE.INTRA.REPUL>
0

>  <SCORE.INTRA.REPUL.0>
0

>  <SCORE.INTRA.SOLV>
0.976449

>  <SCORE.INTRA.SOLV.lig_0>
-74.884

>  <SCORE.INTRA.VDW>
-0.643879

>  <SCORE.INTRA.VDW.0>
-0.858933

>  <SCORE.INTRA.norm>
-0.0217332

>  <SCORE.RESTR>
0

>  <SCORE.RESTR.CAVITY>
0

>  <SCORE.RESTR.norm>
0

>  <SCORE.SYSTEM>
0

>  <SCORE.SYSTEM.CONST>
0

>  <SCORE.SYSTEM.DIHEDRAL>
0

>  <SCORE.SYSTEM.SOLV>
0

>  <SCORE.SYSTEM.norm>
0

>  <SCORE.heavy>
22

>  <SCORE.norm>
-0.70763

>  <RMSD>
0.571

$$$$
2et8_lig
 OpenBabel11021811433D
libRbt.so/2013.1/901 2013/11/27
 22 23  0  0  0  0  0  0  0  0999 V2000
   26.3332   17.1484   35.4062 N   0  0  0  0  0  0  0  0  0  0  0  0
   23.7993   14.9408   39.0550 N   0  0  0  0  0  0  0  0  0  0  0  0
   22.0345   10.9975   40.5272 N   0  0  0  0  0  0  0  0  0  0  0  0
   21.7614   15.4740   34.6178 O   0  0  0  0  0  0  0  0  0  0  0  0
   22.6248   16.0693   35.6175 C   0  0  2  0  0  0  0  0  0  0  0  0
   18.5816   15.4375   37.0147 N   0  0  0  0  0  0  0  0  0  0  0  0
   24.0017   17.1681   33.8566 O   0  0  0  0  0  0  0  0  0  0  0  0
   24.0557   16.3047   34.9993 C   0  0  1  0  0  0  0  0  0  0  0  0
   21.4993   14.9291   37.3735 O   0  0  0  0  0  0  0  0  0  0  0  0
   24.9749   16.9381   36.0145 C   0  0  1  0  0  0  0  0  0  0  0  0
   21.1603   12.6555   37.2378 O   0  0  0  0  0  0  0  0  0  0  0  0
   25.0694   16.0214   37.2557 C   0  0  0  0  0  0  0  0  0  0  0  0
   19.6861   12.4007   40.5669 O   0  0  0  0  0  0  0  0  0  0  0  0
   23.6357   15.8398   37.8344 C   0  0  1  0  0  0  0  0  0  0  0  0
   17.7686   13.9955   39.2953 O   0  0  0  0  0  0  0  0  0  0  0  0
   22.7615   15.1050   36.8619 C   0  0  2  0  0  0  0  0  0  0  0  0
   20.6175   14.0171   36.8058 C   0  0  1  0  0  0  0  0  0  0  0  0
   21.1292   12.4539   38.7189 C   0  0  2  0  0  0  0  0  0  0  0  0
   21.6619   11.0537   39.0875 C   0  0  0  0  0  0  0  0  0  0  0  0
   19.7109   12.5742   39.1909 C   0  0  2  0  0  0  0  0  0  0  0  0
   19.1301   13.9156   38.8492 C   0  0  1  0  0  0  0  0  0  0  0  0
   19.1715   14.0972   37.3708 C   0  0  1  0  0  0  0  0  0  0  0  0
  5  4  1  6  0  0  0
  5  8  1  0  0  0  0
  5 16  1  0  0  0  0
  8  7  1  6  0  0  0
  8 10  1  0  0  0  0
 10  1  1  6  0  0  0
 10 12  1  0  0  0  0
 11 18  1  0  0  0  0
 12 14  1  0  0  0  0
 14  2  1  1  0  0  0
 14 16  1  0  0  0  0
 16  9  1  1  0  0  0
 17  9  1  1  0  0  0
 17 11  1  0  0  0  0
 17 22  1  0  0  0  0
 18 19  1  6  0  0  0
 18 20  1  0  0  0  0
 19  3  1  0  0  0  0
 20 13  1  1  0  0  0
 20 21  1  0  0  0  0
 21 15  1  6  0  0  0
 21 22  1  0  0  0  0
 22  6  1  1  0  0  0
M  END
>  <CHROM.1>
81.12449590,73.74672695,162.24172810,21.84001122,14.51432696,37.43049792
-0.85923446,0.08007208,2.30242588

>  <Name>
2et8_lig

>  <RI>
0

>  <Rbt.Current_Directory>
/home/itssahil/PROJECTS/Mol_Feturizer/New_Systems/rnas/2et8

>  <Rbt.Executable>
rbdock ($Id: //depot/dev/client3/rdock/2013.1/src/exe/rbdock.cxx#4 $)

>  <Rbt.Library>
libRbt.so (2013.1, Build901 2013/11/27)

>  <Rbt.Parameter_File>
/export/apps/rDock/src/rDock_2013.1_src/data/scripts/dock_solv.prm

>  <Rbt.Receptor>
prm/pocket_docking_2.prm

>  <SCORE>
-15.5771

>  <SCORE.INTER>
-14.9813

>  <SCORE.INTER.CONST>
1

>  <SCORE.INTER.POLAR>
-0.959166

>  <SCORE.INTER.ROT>
3

>  <SCORE.INTER.SOLV>
16.3052

>  <SCORE.INTER.VDW>
-17.8254

>  <SCORE.INTER.norm>
-0.680969

>  <SCORE.INTRA>
-0.595764

>  <SCORE.INTRA.DIHEDRAL>
-0.944875

>  <SCORE.INTRA.DIHEDRAL.0>
4.99603

>  <SCORE.INTRA.POLAR>
0

>  <SCORE.INTRA.POLAR.0>
0

>  <SCORE.INTRA.REPUL>
0

>  <SCORE.INTRA.REPUL.0>
0

>  <SCORE.INTRA.SOLV>
0.930902

>  <SCORE.INTRA.SOLV.lig_0>
-74.884

>  <SCORE.INTRA.VDW>
-0.588777

>  <SCORE.INTRA.VDW.0>
-0.858933

>  <SCORE.INTRA.norm>
-0.0270802

>  <SCORE.RESTR>
0

>  <SCORE.RESTR.CAVITY>
0

>  <SCORE.RESTR.norm>
0

>  <SCORE.SYSTEM>
0

>  <SCORE.SYSTEM.CONST>
0

>  <SCORE.SYSTEM.DIHEDRAL>
0

>  <SCORE.SYSTEM.SOLV>
0

>  <SCORE.SYSTEM.norm>
0

>  <SCORE.heavy>
22

>  <SCORE.norm>
-0.708049

>  <RMSD>
0.573

$$$$
2et8_lig
 OpenBabel11021811433D
libRbt.so/2013.1/901 2013/11/27
 22 23  0  0  0  0  0  0  0  0999 V2000
   26.3209   17.1316   35.3883 N   0  0  0  0  0  0  0  0  0  0  0  0
   23.7873   14.9375   39.0454 N   0  0  0  0  0  0  0  0  0  0  0  0
   22.0313   10.9945   40.5101 N   0  0  0  0  0  0  0  0  0  0  0  0
   21.7423   15.4704   34.6114 O   0  0  0  0  0  0  0  0  0  0  0  0
   22.6096   16.0645   35.6086 C   0  0  2  0  0  0  0  0  0  0  0  0
   18.5662   15.4472   37.0225 N   0  0  0  0  0  0  0  0  0  0  0  0
   23.9864   17.1562   33.8432 O   0  0  0  0  0  0  0  0  0  0  0  0
   24.0400   16.2945   34.9871 C   0  0  1  0  0  0  0  0  0  0  0  0
   21.4840   14.9305   37.3685 O   0  0  0  0  0  0  0  0  0  0  0  0
   24.9632   16.9265   35.9996 C   0  0  1  0  0  0  0  0  0  0  0  0
   21.1385   12.6580   37.2298 O   0  0  0  0  0  0  0  0  0  0  0  0
   25.0573   16.0114   37.2420 C   0  0  0  0  0  0  0  0  0  0  0  0
   19.6772   12.4008   40.5644 O   0  0  0  0  0  0  0  0  0  0  0  0
   23.6242   15.8351   37.8238 C   0  0  1  0  0  0  0  0  0  0  0  0
   17.7587   14.0030   39.3037 O   0  0  0  0  0  0  0  0  0  0  0  0
   22.7457   15.1016   36.8542 C   0  0  2  0  0  0  0  0  0  0  0  0
   20.5975   14.0218   36.8027 C   0  0  1  0  0  0  0  0  0  0  0  0
   21.1129   12.4537   38.7107 C   0  0  2  0  0  0  0  0  0  0  0  0
   21.6434   11.0514   39.0745 C   0  0  0  0  0  0  0  0  0  0  0  0
   19.6968   12.5768   39.1887 C   0  0  2  0  0  0  0  0  0  0  0  0
   19.1181   13.9204   38.8519 C   0  0  1  0  0  0  0  0  0  0  0  0
   19.1540   14.1046   37.3737 C   0  0  1  0  0  0  0  0  0  0  0  0
  5  4  1  6  0  0  0
  5  8  1  0  0  0  0
  5 16  1  0  0  0  0
  8  7  1  6  0  0  0
  8 10  1  0  0  0  0
 10  1  1  6  0  0  0
 10 12  1  0  0  0  0
 11 18  1  0  0  0  0
 12 14  1  0  0  0  0
 14  2  1  1  0  0  0
 14 16  1  0  0  0  0
 16  9  1  1  0  0  0
 17  9  1  1  0  0  0
 17 11  1  0  0  0  0
 17 22  1  0  0  0  0
 18 19  1  6  0  0  0
 18 20  1  0  0  0  0
 19  3  1  0  0  0  0
 20 13  1  1  0  0  0
 20 21  1  0  0  0  0
 21 15  1  6  0  0  0
 21 22  1  0  0  0  0
 22  6  1  1  0  0  0
M  END
>  <CHROM.1>
81.02512802,73.58236483,161.81599833,21.82575022,14.51231448,37.42364103
-0.85903482,0.07542293,2.30313491

>  <Name>
2et8_lig

>  <RI>
0

>  <Rbt.Current_Directory>
/home/itssahil/PROJECTS/Mol_Feturizer/New_Systems/rnas/2et8

>  <Rbt.Executable>
rbdock ($Id: //depot/dev/client3/rdock/2013.1/src/exe/rbdock.cxx#4 $)

>  <Rbt.Library>
libRbt.so (2013.1, Build901 2013/11/27)

>  <Rbt.Parameter_File>
/export/apps/rDock/src/rDock_2013.1_src/data/scripts/dock_solv.prm

>  <Rbt.Receptor>
prm/pocket_docking_2.prm

>  <SCORE>
-15.5764

>  <SCORE.INTER>
-14.9738

>  <SCORE.INTER.CONST>
1

>  <SCORE.INTER.POLAR>
-0.959166

>  <SCORE.INTER.ROT>
3

>  <SCORE.INTER.SOLV>
16.3631

>  <SCORE.INTER.VDW>
-17.8397

>  <SCORE.INTER.norm>
-0.680627

>  <SCORE.INTRA>
-0.602572

>  <SCORE.INTRA.DIHEDRAL>
-0.933442

>  <SCORE.INTRA.DIHEDRAL.0>
4.99603

>  <SCORE.INTRA.POLAR>
0

>  <SCORE.INTRA.POLAR.0>
0

>  <SCORE.INTRA.REPUL>
0

>  <SCORE.INTRA.REPUL.0>
0

>  <SCORE.INTRA.SOLV>
0.910722

>  <SCORE.INTRA.SOLV.lig_0>
-74.884

>  <SCORE.INTRA.VDW>
-0.591212

>  <SCORE.INTRA.VDW.0>
-0.858933

>  <SCORE.INTRA.norm>
-0.0273897

>  <SCORE.RESTR>
0

>  <SCORE.RESTR.CAVITY>
0

>  <SCORE.RESTR.norm>
0

>  <SCORE.SYSTEM>
0

>  <SCORE.SYSTEM.CONST>
0

>  <SCORE.SYSTEM.DIHEDRAL>
0

>  <SCORE.SYSTEM.SOLV>
0

>  <SCORE.SYSTEM.norm>
0

>  <SCORE.heavy>
22

>  <SCORE.norm>
-0.708017

>  <RMSD>
0.574

$$$$
2et8_lig
 OpenBabel11021811433D
libRbt.so/2013.1/901 2013/11/27
 22 23  0  0  0  0  0  0  0  0999 V2000
   26.3219   17.1274   35.3642 N   0  0  0  0  0  0  0  0  0  0  0  0
   23.7786   14.9469   39.0227 N   0  0  0  0  0  0  0  0  0  0  0  0
   22.0166   10.9932   40.4892 N   0  0  0  0  0  0  0  0  0  0  0  0
   21.7395   15.4775   34.5857 O   0  0  0  0  0  0  0  0  0  0  0  0
   22.6074   16.0710   35.5827 C   0  0  2  0  0  0  0  0  0  0  0  0
   18.5548   15.4481   37.0162 N   0  0  0  0  0  0  0  0  0  0  0  0
   23.9890   17.1557   33.8168 O   0  0  0  0  0  0  0  0  0  0  0  0
   24.0390   16.2959   34.9623 C   0  0  1  0  0  0  0  0  0  0  0  0
   21.4768   14.9433   37.3436 O   0  0  0  0  0  0  0  0  0  0  0  0
   24.9630   16.9272   35.9745 C   0  0  1  0  0  0  0  0  0  0  0  0
   21.1400   12.6695   37.2052 O   0  0  0  0  0  0  0  0  0  0  0  0
   25.0533   16.0140   37.2187 C   0  0  0  0  0  0  0  0  0  0  0  0
   19.7006   12.4035   40.5486 O   0  0  0  0  0  0  0  0  0  0  0  0
   23.6191   15.8428   37.7993 C   0  0  1  0  0  0  0  0  0  0  0  0
   17.7676   13.9987   39.3011 O   0  0  0  0  0  0  0  0  0  0  0  0
   22.7396   15.1100   36.8302 C   0  0  2  0  0  0  0  0  0  0  0  0
   20.5907   14.0314   36.7825 C   0  0  1  0  0  0  0  0  0  0  0  0
   21.1245   12.4639   38.6860 C   0  0  2  0  0  0  0  0  0  0  0  0
   21.6632   11.0636   39.0453 C   0  0  0  0  0  0  0  0  0  0  0  0
   19.7110   12.5807   39.1729 C   0  0  2  0  0  0  0  0  0  0  0  0
   19.1245   13.9221   38.8408 C   0  0  1  0  0  0  0  0  0  0  0  0
   19.1504   14.1077   37.3625 C   0  0  1  0  0  0  0  0  0  0  0  0
  5  4  1  6  0  0  0
  5  8  1  0  0  0  0
  5 16  1  0  0  0  0
  8  7  1  6  0  0  0
  8 10  1  0  0  0  0
 10  1  1  6  0  0  0
 10 12  1  0  0  0  0
 11 18  1  0  0  0  0
 12 14  1  0  0  0  0
 14  2  1  1  0  0  0
 14 16  1  0  0  0  0
 16  9  1  1  0  0  0
 17  9  1  1  0  0  0
 17 11  1  0  0  0  0
 17 22  1  0  0  0  0
 18 19  1  6  0  0  0
 18 20  1  0  0  0  0
 19  3  1  0  0  0  0
 20 13  1  1  0  0  0
 20 21  1  0  0  0  0
 21 15  1  6  0  0  0
 21 22  1  0  0  0  0
 22  6  1  1  0  0  0
M  END
>  <CHROM.1>
81.34237300,72.89019441,163.75183960,21.82660857,14.51694288,37.40302059
-0.86048534,0.07391762,2.30255179

>  <Name>
2et8_lig

>  <RI>
0

>  <Rbt.Current_Directory>
/home/itssahil/PROJECTS/Mol_Feturizer/New_Systems/rnas/2et8

>  <Rbt.Executable>
rbdock ($Id: //depot/dev/client3/rdock/2013.1/src/exe/rbdock.cxx#4 $)

>  <Rbt.Library>
libRbt.so (2013.1, Build901 2013/11/27)

>  <Rbt.Parameter_File>
/export/apps/rDock/src/rDock_2013.1_src/data/scripts/dock_solv.prm

>  <Rbt.Receptor>
prm/pocket_docking_2.prm

>  <SCORE>
-15.5759

>  <SCORE.INTER>
-14.9061

>  <SCORE.INTER.CONST>
1

>  <SCORE.INTER.POLAR>
-0.959166

>  <SCORE.INTER.ROT>
3

>  <SCORE.INTER.SOLV>
16.3969

>  <SCORE.INTER.VDW>
-17.8058

>  <SCORE.INTER.norm>
-0.677551

>  <SCORE.INTRA>
-0.669766

>  <SCORE.INTRA.DIHEDRAL>
-1.17239

>  <SCORE.INTRA.DIHEDRAL.0>
4.99603

>  <SCORE.INTRA.POLAR>
0

>  <SCORE.INTRA.POLAR.0>
0

>  <SCORE.INTRA.REPUL>
0

>  <SCORE.INTRA.REPUL.0>
0

>  <SCORE.INTRA.SOLV>
0.95924

>  <SCORE.INTRA.SOLV.lig_0>
-74.884

>  <SCORE.INTRA.VDW>
-0.563192

>  <SCORE.INTRA.VDW.0>
-0.858933

>  <SCORE.INTRA.norm>
-0.0304439

>  <SCORE.RESTR>
0

>  <SCORE.RESTR.CAVITY>
0

>  <SCORE.RESTR.norm>
0

>  <SCORE.SYSTEM>
0

>  <SCORE.SYSTEM.CONST>
0

>  <SCORE.SYSTEM.DIHEDRAL>
0

>  <SCORE.SYSTEM.SOLV>
0

>  <SCORE.SYSTEM.norm>
0

>  <SCORE.heavy>
22

>  <SCORE.norm>
-0.707995

>  <RMSD>
0.576

$$$$
2et8_lig
 OpenBabel11021811433D
libRbt.so/2013.1/901 2013/11/27
 22 23  0  0  0  0  0  0  0  0999 V2000
   26.3403   17.1776   35.4242 N   0  0  0  0  0  0  0  0  0  0  0  0
   23.8064   14.9668   39.0711 N   0  0  0  0  0  0  0  0  0  0  0  0
   21.9931   10.9731   40.5398 N   0  0  0  0  0  0  0  0  0  0  0  0
   21.7879   15.4583   34.6202 O   0  0  0  0  0  0  0  0  0  0  0  0
   22.6406   16.0666   35.6214 C   0  0  2  0  0  0  0  0  0  0  0  0
   18.5982   15.4225   37.0017 N   0  0  0  0  0  0  0  0  0  0  0  0
   24.0172   17.1682   33.8620 O   0  0  0  0  0  0  0  0  0  0  0  0
   24.0726   16.3115   35.0096 C   0  0  1  0  0  0  0  0  0  0  0  0
   21.5157   14.9256   37.3774 O   0  0  0  0  0  0  0  0  0  0  0  0
   24.9807   16.9584   36.0263 C   0  0  1  0  0  0  0  0  0  0  0  0
   21.1871   12.6509   37.2358 O   0  0  0  0  0  0  0  0  0  0  0  0
   25.0766   16.0491   37.2729 C   0  0  0  0  0  0  0  0  0  0  0  0
   19.6938   12.3844   40.5555 O   0  0  0  0  0  0  0  0  0  0  0  0
   23.6415   15.8578   37.8448 C   0  0  1  0  0  0  0  0  0  0  0  0
   17.7774   13.9734   39.2749 O   0  0  0  0  0  0  0  0  0  0  0  0
   22.7791   15.1101   36.8716 C   0  0  2  0  0  0  0  0  0  0  0  0
   20.6412   14.0109   36.8028 C   0  0  1  0  0  0  0  0  0  0  0  0
   21.1478   12.4467   38.7164 C   0  0  2  0  0  0  0  0  0  0  0  0
   21.6841   11.0481   39.0860 C   0  0  0  0  0  0  0  0  0  0  0  0
   19.7262   12.5603   39.1800 C   0  0  2  0  0  0  0  0  0  0  0  0
   19.1419   13.8999   38.8370 C   0  0  1  0  0  0  0  0  0  0  0  0
   19.1915   14.0840   37.3591 C   0  0  1  0  0  0  0  0  0  0  0  0
  5  4  1  6  0  0  0
  5  8  1  0  0  0  0
  5 16  1  0  0  0  0
  8  7  1  6  0  0  0
  8 10  1  0  0  0  0
 10  1  1  6  0  0  0
 10 12  1  0  0  0  0
 11 18  1  0  0  0  0
 12 14  1  0  0  0  0
 14  2  1  1  0  0  0
 14 16  1  0  0  0  0
 16  9  1  1  0  0  0
 17  9  1  1  0  0  0
 17 11  1  0  0  0  0
 17 22  1  0  0  0  0
 18 19  1  6  0  0  0
 18 20  1  0  0  0  0
 19  3  1  0  0  0  0
 20 13  1  1  0  0  0
 20 21  1  0  0  0  0
 21 15  1  6  0  0  0
 21 22  1  0  0  0  0
 22  6  1  1  0  0  0
M  END
>  <CHROM.1>
80.57428308,73.91487846,164.67764585,21.85245723,14.51247764,37.43182932
-0.85980536,0.08859835,2.30188109

>  <Name>
2et8_lig

>  <RI>
0

>  <Rbt.Current_Directory>
/home/itssahil/PROJECTS/Mol_Feturizer/New_Systems/rnas/2et8

>  <Rbt.Executable>
rbdock ($Id: //depot/dev/client3/rdock/2013.1/src/exe/rbdock.cxx#4 $)

>  <Rbt.Library>
libRbt.so (2013.1, Build901 2013/11/27)

>  <Rbt.Parameter_File>
/export/apps/rDock/src/rDock_2013.1_src/data/scripts/dock_solv.prm

>  <Rbt.Receptor>
prm/pocket_docking_2.prm

>  <SCORE>
-15.5781

>  <SCORE.INTER>
-14.9101

>  <SCORE.INTER.CONST>
1

>  <SCORE.INTER.POLAR>
-0.959166

>  <SCORE.INTER.ROT>
3

>  <SCORE.INTER.SOLV>
16.3949

>  <SCORE.INTER.VDW>
-17.8078

>  <SCORE.INTER.norm>
-0.677731

>  <SCORE.INTRA>
-0.667971

>  <SCORE.INTRA.DIHEDRAL>
-1.26952

>  <SCORE.INTRA.DIHEDRAL.0>
4.99603

>  <SCORE.INTRA.POLAR>
0

>  <SCORE.INTRA.POLAR.0>
0

>  <SCORE.INTRA.REPUL>
0

>  <SCORE.INTRA.REPUL.0>
0

>  <SCORE.INTRA.SOLV>
0.963979

>  <SCORE.INTRA.SOLV.lig_0>
-74.884

>  <SCORE.INTRA.VDW>
-0.515198

>  <SCORE.INTRA.VDW.0>
-0.858933

>  <SCORE.INTRA.norm>
-0.0303623

>  <SCORE.RESTR>
0

>  <SCORE.RESTR.CAVITY>
0

>  <SCORE.RESTR.norm>
0

>  <SCORE.SYSTEM>
0

>  <SCORE.SYSTEM.CONST>
0

>  <SCORE.SYSTEM.DIHEDRAL>
0

>  <SCORE.SYSTEM.SOLV>
0

>  <SCORE.SYSTEM.norm>
0

>  <SCORE.heavy>
22

>  <SCORE.norm>
-0.708093

>  <RMSD>
0.578

$$$$
2et8_lig
 OpenBabel11021811433D
libRbt.so/2013.1/901 2013/11/27
 22 23  0  0  0  0  0  0  0  0999 V2000
   26.3449   17.1655   35.4346 N   0  0  0  0  0  0  0  0  0  0  0  0
   23.8221   14.9297   39.0739 N   0  0  0  0  0  0  0  0  0  0  0  0
   21.9821   10.9816   40.5807 N   0  0  0  0  0  0  0  0  0  0  0  0
   21.7819   15.4709   34.6386 O   0  0  0  0  0  0  0  0  0  0  0  0
   22.6422   16.0665   35.6410 C   0  0  2  0  0  0  0  0  0  0  0  0
   18.6076   15.4184   37.0057 N   0  0  0  0  0  0  0  0  0  0  0  0
   24.0136   17.1796   33.8848 O   0  0  0  0  0  0  0  0  0  0  0  0
   24.0719   16.3118   35.0239 C   0  0  1  0  0  0  0  0  0  0  0  0
   21.5223   14.9131   37.3921 O   0  0  0  0  0  0  0  0  0  0  0  0
   24.9878   16.9457   36.0419 C   0  0  1  0  0  0  0  0  0  0  0  0
   21.1855   12.6388   37.2647 O   0  0  0  0  0  0  0  0  0  0  0  0
   25.0868   16.0243   37.2793 C   0  0  0  0  0  0  0  0  0  0  0  0
   19.6829   12.3998   40.5823 O   0  0  0  0  0  0  0  0  0  0  0  0
   23.6540   15.8329   37.8570 C   0  0  1  0  0  0  0  0  0  0  0  0
   17.7757   13.9874   39.2864 O   0  0  0  0  0  0  0  0  0  0  0  0
   22.7837   15.0976   36.8814 C   0  0  2  0  0  0  0  0  0  0  0  0
   20.6458   13.9979   36.8214 C   0  0  1  0  0  0  0  0  0  0  0  0
   21.1418   12.4445   38.7465 C   0  0  2  0  0  0  0  0  0  0  0  0
   21.6719   11.0464   39.1266 C   0  0  0  0  0  0  0  0  0  0  0  0
   19.7194   12.5665   39.2057 C   0  0  2  0  0  0  0  0  0  0  0  0
   19.1410   13.9059   38.8524 C   0  0  1  0  0  0  0  0  0  0  0  0
   19.1950   14.0801   37.3735 C   0  0  1  0  0  0  0  0  0  0  0  0
  5  4  1  6  0  0  0
  5  8  1  0  0  0  0
  5 16  1  0  0  0  0
  8  7  1  6  0  0  0
  8 10  1  0  0  0  0
 10  1  1  6  0  0  0
 10 12  1  0  0  0  0
 11 18  1  0  0  0  0
 12 14  1  0  0  0  0
 14  2  1  1  0  0  0
 14 16  1  0  0  0  0
 16  9  1  1  0  0  0
 17  9  1  1  0  0  0
 17 11  1  0  0  0  0
 17 22  1  0  0  0  0
 18 19  1  6  0  0  0
 18 20  1  0  0  0  0
 19  3  1  0  0  0  0
 20 13  1  1  0  0  0
 20 21  1  0  0  0  0
 21 15  1  6  0  0  0
 21 22  1  0  0  0  0
 22  6  1  1  0  0  0
M  END
>  <CHROM.1>
81.19672977,74.46954286,164.45147446,21.85313963,14.50836545,37.45028959
-0.85991146,0.08665715,2.30080156

>  <Name>
2et8_lig

>  <RI>
0

>  <Rbt.Current_Directory>
/home/itssahil/PROJECTS/Mol_Feturizer/New_Systems/rnas/2et8

>  <Rbt.Executable>
rbdock ($Id: //depot/dev/client3/rdock/2013.1/src/exe/rbdock.cxx#4 $)

>  <Rbt.Library>
libRbt.so (2013.1, Build901 2013/11/27)

>  <Rbt.Parameter_File>
/export/apps/rDock/src/rDock_2013.1_src/data/scripts/dock_solv.prm

>  <Rbt.Receptor>
prm/pocket_docking_3.prm

>  <SCORE>
-15.5751

>  <SCORE.INTER>
-14.9895

>  <SCORE.INTER.CONST>
1

>  <SCORE.INTER.POLAR>
-0.959166

>  <SCORE.INTER.ROT>
3

>  <SCORE.INTER.SOLV>
16.3487

>  <SCORE.INTER.VDW>
-17.8453

>  <SCORE.INTER.norm>
-0.681341

>  <SCORE.INTRA>
-0.585556

>  <SCORE.INTRA.DIHEDRAL>
-1.07685

>  <SCORE.INTRA.DIHEDRAL.0>
4.99603

>  <SCORE.INTRA.POLAR>
0

>  <SCORE.INTRA.POLAR.0>
0

>  <SCORE.INTRA.REPUL>
0

>  <SCORE.INTRA.REPUL.0>
0

>  <SCORE.INTRA.SOLV>
1.00717

>  <SCORE.INTRA.SOLV.lig_0>
-74.884

>  <SCORE.INTRA.VDW>
-0.550717

>  <SCORE.INTRA.VDW.0>
-0.858933

>  <SCORE.INTRA.norm>
-0.0266162

>  <SCORE.RESTR>
0

>  <SCORE.RESTR.CAVITY>
0

>  <SCORE.RESTR.norm>
0

>  <SCORE.SYSTEM>
0

>  <SCORE.SYSTEM.CONST>
0

>  <SCORE.SYSTEM.DIHEDRAL>
0

>  <SCORE.SYSTEM.SOLV>
0

>  <SCORE.SYSTEM.norm>
0

>  <SCORE.heavy>
22

>  <SCORE.norm>
-0.707957

>  <RMSD>
0.580

$$$$
2et8_lig
 OpenBabel11021811433D
libRbt.so/2013.1/901 2013/11/27
 22 23  0  0  0  0  0  0  0  0999 V2000
   26.3920   17.2022   35.3860 N   0  0  0  0  0  0  0  0  0  0  0  0
   23.8985   15.0877   39.1168 N   0  0  0  0  0  0  0  0  0  0  0  0
   22.1928   10.9794   40.5904 N   0  0  0  0  0  0  0  0  0  0  0  0
   21.8964   15.3166   34.6374 O   0  0  0  0  0  0  0  0  0  0  0  0
   22.7245   15.9945   35.6142 C   0  0  2  0  0  0  0  0  0  0  0  0
   18.6944   15.3489   37.0483 N   0  0  0  0  0  0  0  0  0  0  0  0
   24.0805   17.0541   33.8135 O   0  0  0  0  0  0  0  0  0  0  0  0
   24.1530   16.2526   34.9994 C   0  0  1  0  0  0  0  0  0  0  0  0
   21.6213   14.9028   37.4146 O   0  0  0  0  0  0  0  0  0  0  0  0
   25.0353   16.9714   35.9902 C   0  0  1  0  0  0  0  0  0  0  0  0
   21.3303   12.6222   37.2851 O   0  0  0  0  0  0  0  0  0  0  0  0
   25.1490   16.1231   37.2777 C   0  0  0  0  0  0  0  0  0  0  0  0
   19.8548   12.3466   40.6120 O   0  0  0  0  0  0  0  0  0  0  0  0
   23.7162   15.9166   37.8501 C   0  0  1  0  0  0  0  0  0  0  0  0
   17.9069   13.8971   39.3317 O   0  0  0  0  0  0  0  0  0  0  0  0
   22.8821   15.1005   36.9077 C   0  0  2  0  0  0  0  0  0  0  0  0
   20.7599   13.9708   36.8479 C   0  0  1  0  0  0  0  0  0  0  0  0
   21.3003   12.4245   38.7668 C   0  0  2  0  0  0  0  0  0  0  0  0
   21.8615   11.0368   39.1407 C   0  0  0  0  0  0  0  0  0  0  0  0
   19.8788   12.5165   39.2355 C   0  0  2  0  0  0  0  0  0  0  0  0
   19.2707   13.8444   38.8886 C   0  0  1  0  0  0  0  0  0  0  0  0
   19.3114   14.0223   37.4097 C   0  0  1  0  0  0  0  0  0  0  0  0
  5  4  1  6  0  0  0
  5  8  1  0  0  0  0
  5 16  1  0  0  0  0
  8  7  1  6  0  0  0
  8 10  1  0  0  0  0
 10  1  1  6  0  0  0
 10 12  1  0  0  0  0
 11 18  1  0  0  0  0
 12 14  1  0  0  0  0
 14  2  1  1  0  0  0
 14 16  1  0  0  0  0
 16  9  1  1  0  0  0
 17  9  1  1  0  0  0
 17 11  1  0  0  0  0
 17 22  1  0  0  0  0
 18 19  1  6  0  0  0
 18 20  1  0  0  0  0
 19  3  1  0  0  0  0
 20 13  1  1  0  0  0
 20 21  1  0  0  0  0
 21 15  1  6  0  0  0
 21 22  1  0  0  0  0
 22  6  1  1  0  0  0
M  END
>  <CHROM.1>
78.27245502,73.53724704,163.99319040,21.96513548,14.48485263,37.45805195
-0.87172845,0.10179874,2.28534114

>  <Name>
2et8_lig

>  <RI>
3.42619e+07

>  <Rbt.Current_Directory>
/home/itssahil/PROJECTS/Mol_Feturizer/New_Systems/rnas/2et8

>  <Rbt.Executable>
rbdock ($Id: //depot/dev/client3/rdock/2013.1/src/exe/rbdock.cxx#4 $)

>  <Rbt.Library>
libRbt.so (2013.1, Build901 2013/11/27)

>  <Rbt.Parameter_File>
/export/apps/rDock/src/rDock_2013.1_src/data/scripts/dock_solv.prm

>  <Rbt.Receptor>
prm/pocket_docking_4.prm

>  <SCORE>
-15.489

>  <SCORE.INTER>
-14.6869

>  <SCORE.INTER.CONST>
1

>  <SCORE.INTER.POLAR>
-0.959166

>  <SCORE.INTER.ROT>
3

>  <SCORE.INTER.SOLV>
16.3984

>  <SCORE.INTER.VDW>
-17.6602

>  <SCORE.INTER.norm>
-0.667588

>  <SCORE.INTRA>
-0.80251

>  <SCORE.INTRA.DIHEDRAL>
-1.60377

>  <SCORE.INTRA.DIHEDRAL.0>
4.99603

>  <SCORE.INTRA.POLAR>
0

>  <SCORE.INTRA.POLAR.0>
0

>  <SCORE.INTRA.REPUL>
0

>  <SCORE.INTRA.REPUL.0>
0

>  <SCORE.INTRA.SOLV>
0.806733

>  <SCORE.INTRA.SOLV.lig_0>
-74.884

>  <SCORE.INTRA.VDW>
-0.40399

>  <SCORE.INTRA.VDW.0>
-0.858933

>  <SCORE.INTRA.norm>
-0.0364777

>  <SCORE.RESTR>
0.000486834

>  <SCORE.RESTR.CAVITY>
0.000486834

>  <SCORE.RESTR.norm>
2.21288e-05

>  <SCORE.SYSTEM>
0

>  <SCORE.SYSTEM.CONST>
0

>  <SCORE.SYSTEM.DIHEDRAL>
0

>  <SCORE.SYSTEM.SOLV>
0

>  <SCORE.SYSTEM.norm>
0

>  <SCORE.heavy>
22

>  <SCORE.norm>
-0.704044

>  <RMSD>
0.585

$$$$
2et8_lig
 OpenBabel11021811433D
libRbt.so/2013.1/901 2013/11/27
 22 23  0  0  0  0  0  0  0  0999 V2000
   26.3001   17.2007   35.3900 N   0  0  0  0  0  0  0  0  0  0  0  0
   23.8432   14.9593   39.0706 N   0  0  0  0  0  0  0  0  0  0  0  0
   22.1198   10.9714   40.5820 N   0  0  0  0  0  0  0  0  0  0  0  0
   21.7581   15.4269   34.6479 O   0  0  0  0  0  0  0  0  0  0  0  0
   22.6171   16.0453   35.6375 C   0  0  2  0  0  0  0  0  0  0  0  0
   18.6022   15.3475   37.0641 N   0  0  0  0  0  0  0  0  0  0  0  0
   23.9561   17.1635   33.8597 O   0  0  0  0  0  0  0  0  0  0  0  0
   24.0376   16.3074   35.0062 C   0  0  1  0  0  0  0  0  0  0  0  0
   21.5302   14.8908   37.4085 O   0  0  0  0  0  0  0  0  0  0  0  0
   24.9517   16.9651   36.0105 C   0  0  1  0  0  0  0  0  0  0  0  0
   21.2296   12.6112   37.2835 O   0  0  0  0  0  0  0  0  0  0  0  0
   25.0755   16.0570   37.2555 C   0  0  0  0  0  0  0  0  0  0  0  0
   19.7786   12.3445   40.6219 O   0  0  0  0  0  0  0  0  0  0  0  0
   23.6508   15.8484   37.8469 C   0  0  1  0  0  0  0  0  0  0  0  0
   17.8268   13.9010   39.3549 O   0  0  0  0  0  0  0  0  0  0  0  0
   22.7842   15.0904   36.8855 C   0  0  2  0  0  0  0  0  0  0  0  0
   20.6610   13.9615   36.8493 C   0  0  1  0  0  0  0  0  0  0  0  0
   21.2102   12.4150   38.7656 C   0  0  2  0  0  0  0  0  0  0  0  0
   21.7690   11.0257   39.1367 C   0  0  0  0  0  0  0  0  0  0  0  0
   19.7927   12.5129   39.2451 C   0  0  2  0  0  0  0  0  0  0  0  0
   19.1870   13.8427   38.9014 C   0  0  1  0  0  0  0  0  0  0  0  0
   19.2170   14.0190   37.4221 C   0  0  1  0  0  0  0  0  0  0  0  0
  5  4  1  6  0  0  0
  5  8  1  0  0  0  0
  5 16  1  0  0  0  0
  8  7  1  6  0  0  0
  8 10  1  0  0  0  0
 10  1  1  6  0  0  0
 10 12  1  0  0  0  0
 11 18  1  0  0  0  0
 12 14  1  0  0  0  0
 14  2  1  1  0  0  0
 14 16  1  0  0  0  0
 16  9  1  1  0  0  0
 17  9  1  1  0  0  0
 17 11  1  0  0  0  0
 17 22  1  0  0  0  0
 18 19  1  6  0  0  0
 18 20  1  0  0  0  0
 19  3  1  0  0  0  0
 20 13  1  1  0  0  0
 20 21  1  0  0  0  0
 21 15  1  6  0  0  0
 21 22  1  0  0  0  0
 22  6  1  1  0  0  0
M  END
>  <CHROM.1>
80.86009866,74.03220668,163.61205913,21.87330924,14.48504154,37.46205224
-0.87792320,0.08993840,2.29979578

>  <Name>
2et8_lig

>  <RI>
0

>  <Rbt.Current_Directory>
/home/itssahil/PROJECTS/Mol_Feturizer/New_Systems/rnas/2et8

>  <Rbt.Executable>
rbdock ($Id: //depot/dev/client3/rdock/2013.1/src/exe/rbdock.cxx#4 $)

>  <Rbt.Library>
libRbt.so (2013.1, Build901 2013/11/27)

>  <Rbt.Parameter_File>
/export/apps/rDock/src/rDock_2013.1_src/data/scripts/dock_solv.prm

>  <Rbt.Receptor>
prm/pocket_docking_3.prm

>  <SCORE>
-15.5924

>  <SCORE.INTER>
-14.9687

>  <SCORE.INTER.CONST>
1

>  <SCORE.INTER.POLAR>
-0.959166

>  <SCORE.INTER.ROT>
3

>  <SCORE.INTER.SOLV>
16.2084

>  <SCORE.INTER.VDW>
-17.7847

>  <SCORE.INTER.norm>
-0.680394

>  <SCORE.INTRA>
-0.6237

>  <SCORE.INTRA.DIHEDRAL>
-1.10039

>  <SCORE.INTRA.DIHEDRAL.0>
4.99603

>  <SCORE.INTRA.POLAR>
0

>  <SCORE.INTRA.POLAR.0>
0

>  <SCORE.INTRA.REPUL>
0

>  <SCORE.INTRA.REPUL.0>
0

>  <SCORE.INTRA.SOLV>
0.956819

>  <SCORE.INTRA.SOLV.lig_0>
-74.884

>  <SCORE.INTRA.VDW>
-0.551912

>  <SCORE.INTRA.VDW.0>
-0.858933

>  <SCORE.INTRA.norm>
-0.02835

>  <SCORE.RESTR>
0

>  <SCORE.RESTR.CAVITY>
0

>  <SCORE.RESTR.norm>
0

>  <SCORE.SYSTEM>
0

>  <SCORE.SYSTEM.CONST>
0

>  <SCORE.SYSTEM.DIHEDRAL>
0

>  <SCORE.SYSTEM.SOLV>
0

>  <SCORE.SYSTEM.norm>
0

>  <SCORE.heavy>
22

>  <SCORE.norm>
-0.708744

>  <RMSD>
0.587

$$$$
2et8_lig
 OpenBabel11021811433D
libRbt.so/2013.1/901 2013/11/27
 22 23  0  0  0  0  0  0  0  0999 V2000
   26.5910   17.2675   35.4958 N   0  0  0  0  0  0  0  0  0  0  0  0
   23.8964   15.1796   39.0996 N   0  0  0  0  0  0  0  0  0  0  0  0
   21.4151   10.1750   38.6681 N   0  0  0  0  0  0  0  0  0  0  0  0
   22.1242   15.4153   34.5247 O   0  0  0  0  0  0  0  0  0  0  0  0
   22.9074   16.0886   35.5409 C   0  0  2  0  0  0  0  0  0  0  0  0
   18.7893   15.2943   36.7292 N   0  0  0  0  0  0  0  0  0  0  0  0
   24.3605   17.1342   33.8091 O   0  0  0  0  0  0  0  0  0  0  0  0
   24.3669   16.3345   34.9984 C   0  0  1  0  0  0  0  0  0  0  0  0
   21.7064   15.0090   37.2852 O   0  0  0  0  0  0  0  0  0  0  0  0
   25.2039   17.0484   36.0313 C   0  0  1  0  0  0  0  0  0  0  0  0
   21.5076   12.7162   37.3646 O   0  0  0  0  0  0  0  0  0  0  0  0
   25.2460   16.2018   37.3242 C   0  0  0  0  0  0  0  0  0  0  0  0
   19.8641   12.6981   40.6234 O   0  0  0  0  0  0  0  0  0  0  0  0
   23.7846   16.0074   37.8241 C   0  0  1  0  0  0  0  0  0  0  0  0
   17.9329   14.0356   39.1006 O   0  0  0  0  0  0  0  0  0  0  0  0
   22.9927   15.1960   36.8421 C   0  0  2  0  0  0  0  0  0  0  0  0
   20.9124   13.9916   36.7694 C   0  0  1  0  0  0  0  0  0  0  0  0
   21.4042   12.6600   38.8551 C   0  0  2  0  0  0  0  0  0  0  0  0
   21.9952   11.3394   39.3908 C   0  0  0  0  0  0  0  0  0  0  0  0
   19.9568   12.7364   39.2399 C   0  0  2  0  0  0  0  0  0  0  0  0
   19.3198   13.9982   38.7345 C   0  0  1  0  0  0  0  0  0  0  0  0
   19.4344   14.0355   37.2493 C   0  0  1  0  0  0  0  0  0  0  0  0
  5  4  1  6  0  0  0
  5  8  1  0  0  0  0
  5 16  1  0  0  0  0
  8  7  1  6  0  0  0
  8 10  1  0  0  0  0
 10  1  1  6  0  0  0
 10 12  1  0  0  0  0
 11 18  1  0  0  0  0
 12 14  1  0  0  0  0
 14  2  1  1  0  0  0
 14 16  1  0  0  0  0
 16  9  1  1  0  0  0
 17  9  1  1  0  0  0
 17 11  1  0  0  0  0
 17 22  1  0  0  0  0
 18 19  1  6  0  0  0
 18 20  1  0  0  0  0
 19  3  1  0  0  0  0
 20 13  1  1  0  0  0
 20 21  1  0  0  0  0
 21 15  1  6  0  0  0
 21 22  1  0  0  0  0
 22  6  1  1  0  0  0
M  END
>  <CHROM.1>
84.86548153,72.41865168,-50.99025083,22.04764939,14.56063900,37.33667849
-0.82497142,0.09815262,2.32581483

>  <Name>
2et8_lig

>  <RI>
0

>  <Rbt.Current_Directory>
/home/itssahil/PROJECTS/Mol_Feturizer/New_Systems/rnas/2et8

>  <Rbt.Executable>
rbdock ($Id: //depot/dev/client3/rdock/2013.1/src/exe/rbdock.cxx#4 $)

>  <Rbt.Library>
libRbt.so (2013.1, Build901 2013/11/27)

>  <Rbt.Parameter_File>
/export/apps/rDock/src/rDock_2013.1_src/data/scripts/dock_solv.prm

>  <Rbt.Receptor>
prm/pocket_docking_3.prm

>  <SCORE>
-12.1236

>  <SCORE.INTER>
-11.4495

>  <SCORE.INTER.CONST>
1

>  <SCORE.INTER.POLAR>
-0.959166

>  <SCORE.INTER.ROT>
3

>  <SCORE.INTER.SOLV>
23.1957

>  <SCORE.INTER.VDW>
-17.7677

>  <SCORE.INTER.norm>
-0.520431

>  <SCORE.INTRA>
-0.67414

>  <SCORE.INTRA.DIHEDRAL>
-1.2304

>  <SCORE.INTRA.DIHEDRAL.0>
4.99603

>  <SCORE.INTRA.POLAR>
0

>  <SCORE.INTRA.POLAR.0>
0

>  <SCORE.INTRA.REPUL>
0

>  <SCORE.INTRA.REPUL.0>
0

>  <SCORE.INTRA.SOLV>
1.51981

>  <SCORE.INTRA.SOLV.lig_0>
-74.884

>  <SCORE.INTRA.VDW>
-0.818848

>  <SCORE.INTRA.VDW.0>
-0.858933

>  <SCORE.INTRA.norm>
-0.0306427

>  <SCORE.RESTR>
0

>  <SCORE.RESTR.CAVITY>
0

>  <SCORE.RESTR.norm>
0

>  <SCORE.SYSTEM>
0

>  <SCORE.SYSTEM.CONST>
0

>  <SCORE.SYSTEM.DIHEDRAL>
0

>  <SCORE.SYSTEM.SOLV>
0

>  <SCORE.SYSTEM.norm>
0

>  <SCORE.heavy>
22

>  <SCORE.norm>
-0.551074

>  <RMSD>
0.589

$$$$
2et8_lig
 OpenBabel11021811433D
libRbt.so/2013.1/901 2013/11/27
 22 23  0  0  0  0  0  0  0  0999 V2000
   26.2711   17.1577   35.3716 N   0  0  0  0  0  0  0  0  0  0  0  0
   23.7882   14.9351   39.0462 N   0  0  0  0  0  0  0  0  0  0  0  0
   22.0038   10.9661   40.5556 N   0  0  0  0  0  0  0  0  0  0  0  0
   21.7123   15.4308   34.6223 O   0  0  0  0  0  0  0  0  0  0  0  0
   22.5764   16.0390   35.6137 C   0  0  2  0  0  0  0  0  0  0  0  0
   18.5562   15.3883   37.0246 N   0  0  0  0  0  0  0  0  0  0  0  0
   23.9283   17.1466   33.8390 O   0  0  0  0  0  0  0  0  0  0  0  0
   24.0001   16.2878   34.9842 C   0  0  1  0  0  0  0  0  0  0  0  0
   21.4763   14.8925   37.3817 O   0  0  0  0  0  0  0  0  0  0  0  0
   24.9198   16.9347   35.9905 C   0  0  1  0  0  0  0  0  0  0  0  0
   21.1460   12.6172   37.2547 O   0  0  0  0  0  0  0  0  0  0  0  0
   25.0333   16.0233   37.2341 C   0  0  0  0  0  0  0  0  0  0  0  0
   19.6768   12.3689   40.5865 O   0  0  0  0  0  0  0  0  0  0  0  0
   23.6060   15.8281   37.8238 C   0  0  1  0  0  0  0  0  0  0  0  0
   17.7515   13.9516   39.3115 O   0  0  0  0  0  0  0  0  0  0  0  0
   22.7327   15.0804   36.8603 C   0  0  2  0  0  0  0  0  0  0  0  0
   20.5974   13.9750   36.8184 C   0  0  1  0  0  0  0  0  0  0  0  0
   21.1175   12.4209   38.7366 C   0  0  2  0  0  0  0  0  0  0  0  0
   21.6561   11.0241   39.1097 C   0  0  0  0  0  0  0  0  0  0  0  0
   19.6993   12.5374   39.2099 C   0  0  2  0  0  0  0  0  0  0  0  0
   19.1128   13.8753   38.8640 C   0  0  1  0  0  0  0  0  0  0  0  0
   19.1517   14.0516   37.3849 C   0  0  1  0  0  0  0  0  0  0  0  0
  5  4  1  6  0  0  0
  5  8  1  0  0  0  0
  5 16  1  0  0  0  0
  8  7  1  6  0  0  0
  8 10  1  0  0  0  0
 10  1  1  6  0  0  0
 10 12  1  0  0  0  0
 11 18  1  0  0  0  0
 12 14  1  0  0  0  0
 14  2  1  1  0  0  0
 14 16  1  0  0  0  0
 16  9  1  1  0  0  0
 17  9  1  1  0  0  0
 17 11  1  0  0  0  0
 17 22  1  0  0  0  0
 18 19  1  6  0  0  0
 18 20  1  0  0  0  0
 19  3  1  0  0  0  0
 20 13  1  1  0  0  0
 20 21  1  0  0  0  0
 21 15  1  6  0  0  0
 21 22  1  0  0  0  0
 22  6  1  1  0  0  0
M  END
>  <CHROM.1>
80.71735482,74.36057469,163.42648774,21.81018056,14.48655488,37.43373184
-0.86871036,0.08330322,2.29997882

>  <Name>
2et8_lig

>  <RI>
0

>  <Rbt.Current_Directory>
/home/itssahil/PROJECTS/Mol_Feturizer/New_Systems/rnas/2et8

>  <Rbt.Executable>
rbdock ($Id: //depot/dev/client3/rdock/2013.1/src/exe/rbdock.cxx#4 $)

>  <Rbt.Library>
libRbt.so (2013.1, Build901 2013/11/27)

>  <Rbt.Parameter_File>
/export/apps/rDock/src/rDock_2013.1_src/data/scripts/dock_solv.prm

>  <Rbt.Receptor>
prm/pocket_docking_3.prm

>  <SCORE>
-15.5884

>  <SCORE.INTER>
-14.9816

>  <SCORE.INTER.CONST>
1

>  <SCORE.INTER.POLAR>
-0.959166

>  <SCORE.INTER.ROT>
3

>  <SCORE.INTER.SOLV>
16.4473

>  <SCORE.INTER.VDW>
-17.873

>  <SCORE.INTER.norm>
-0.680983

>  <SCORE.INTRA>
-0.606731

>  <SCORE.INTRA.DIHEDRAL>
-1.06314

>  <SCORE.INTRA.DIHEDRAL.0>
4.99603

>  <SCORE.INTRA.POLAR>
0

>  <SCORE.INTRA.POLAR.0>
0

>  <SCORE.INTRA.REPUL>
0

>  <SCORE.INTRA.REPUL.0>
0

>  <SCORE.INTRA.SOLV>
0.952318

>  <SCORE.INTRA.SOLV.lig_0>
-74.884

>  <SCORE.INTRA.VDW>
-0.551319

>  <SCORE.INTRA.VDW.0>
-0.858933

>  <SCORE.INTRA.norm>
-0.0275787

>  <SCORE.RESTR>
0

>  <SCORE.RESTR.CAVITY>
0

>  <SCORE.RESTR.norm>
0

>  <SCORE.SYSTEM>
0

>  <SCORE.SYSTEM.CONST>
0

>  <SCORE.SYSTEM.DIHEDRAL>
0

>  <SCORE.SYSTEM.SOLV>
0

>  <SCORE.SYSTEM.norm>
0

>  <SCORE.heavy>
22

>  <SCORE.norm>
-0.708562

>  <RMSD>
0.590

$$$$
2et8_lig
 OpenBabel11021811433D
libRbt.so/2013.1/901 2013/11/27
 22 23  0  0  0  0  0  0  0  0999 V2000
   26.6242   17.2721   35.5083 N   0  0  0  0  0  0  0  0  0  0  0  0
   23.9059   15.1863   39.0955 N   0  0  0  0  0  0  0  0  0  0  0  0
   21.3858   10.1941   38.6418 N   0  0  0  0  0  0  0  0  0  0  0  0
   22.1534   15.4420   34.5141 O   0  0  0  0  0  0  0  0  0  0  0  0
   22.9353   16.1091   35.5352 C   0  0  2  0  0  0  0  0  0  0  0  0
   18.8113   15.3368   36.6968 N   0  0  0  0  0  0  0  0  0  0  0  0
   24.4001   17.1530   33.8122 O   0  0  0  0  0  0  0  0  0  0  0  0
   24.3982   16.3501   34.9994 C   0  0  1  0  0  0  0  0  0  0  0  0
   21.7226   15.0301   37.2717 O   0  0  0  0  0  0  0  0  0  0  0  0
   25.2340   17.0575   36.0376 C   0  0  1  0  0  0  0  0  0  0  0  0
   21.5077   12.7385   37.3432 O   0  0  0  0  0  0  0  0  0  0  0  0
   25.2671   16.2073   37.3283 C   0  0  0  0  0  0  0  0  0  0  0  0
   19.8420   12.7224   40.5908 O   0  0  0  0  0  0  0  0  0  0  0  0
   23.8029   16.0180   37.8217 C   0  0  1  0  0  0  0  0  0  0  0  0
   17.9303   14.0773   39.0588 O   0  0  0  0  0  0  0  0  0  0  0  0
   23.0114   15.2126   36.8343 C   0  0  2  0  0  0  0  0  0  0  0  0
   20.9252   14.0196   36.7476 C   0  0  1  0  0  0  0  0  0  0  0  0
   21.3938   12.6788   38.8328 C   0  0  2  0  0  0  0  0  0  0  0  0
   21.9721   11.3527   39.3687 C   0  0  0  0  0  0  0  0  0  0  0  0
   19.9444   12.7640   39.2080 C   0  0  2  0  0  0  0  0  0  0  0  0
   19.3194   14.0316   38.7020 C   0  0  1  0  0  0  0  0  0  0  0  0
   19.4443   14.0722   37.2176 C   0  0  1  0  0  0  0  0  0  0  0  0
  5  4  1  6  0  0  0
  5  8  1  0  0  0  0
  5 16  1  0  0  0  0
  8  7  1  6  0  0  0
  8 10  1  0  0  0  0
 10  1  1  6  0  0  0
 10 12  1  0  0  0  0
 11 18  1  0  0  0  0
 12 14  1  0  0  0  0
 14  2  1  1  0  0  0
 14 16  1  0  0  0  0
 16  9  1  1  0  0  0
 17  9  1  1  0  0  0
 17 11  1  0  0  0  0
 17 22  1  0  0  0  0
 18 19  1  6  0  0  0
 18 20  1  0  0  0  0
 19  3  1  0  0  0  0
 20 13  1  1  0  0  0
 20 21  1  0  0  0  0
 21 15  1  6  0  0  0
 21 22  1  0  0  0  0
 22  6  1  1  0  0  0
M  END
>  <CHROM.1>
84.70936054,72.65919788,-51.17556826,22.05755076,14.58186986,37.32132286
-0.81756599,0.09813563,2.32780528

>  <Name>
2et8_lig

>  <RI>
3.42619e+07

>  <Rbt.Current_Directory>
/home/itssahil/PROJECTS/Mol_Feturizer/New_Systems/rnas/2et8

>  <Rbt.Executable>
rbdock ($Id: //depot/dev/client3/rdock/2013.1/src/exe/rbdock.cxx#4 $)

>  <Rbt.Library>
libRbt.so (2013.1, Build901 2013/11/27)

>  <Rbt.Parameter_File>
/export/apps/rDock/src/rDock_2013.1_src/data/scripts/dock_solv.prm

>  <Rbt.Receptor>
prm/pocket_docking_4.prm

>  <SCORE>
-12.1254

>  <SCORE.INTER>
-11.4498

>  <SCORE.INTER.CONST>
1

>  <SCORE.INTER.POLAR>
-0.959166

>  <SCORE.INTER.ROT>
3

>  <SCORE.INTER.SOLV>
23.207

>  <SCORE.INTER.VDW>
-17.7717

>  <SCORE.INTER.norm>
-0.520447

>  <SCORE.INTRA>
-0.67561

>  <SCORE.INTRA.DIHEDRAL>
-1.2424

>  <SCORE.INTRA.DIHEDRAL.0>
4.99603

>  <SCORE.INTRA.POLAR>
0

>  <SCORE.INTRA.POLAR.0>
0

>  <SCORE.INTRA.REPUL>
0

>  <SCORE.INTRA.REPUL.0>
0

>  <SCORE.INTRA.SOLV>
1.51975

>  <SCORE.INTRA.SOLV.lig_0>
-74.884

>  <SCORE.INTRA.VDW>
-0.814283

>  <SCORE.INTRA.VDW.0>
-0.858933

>  <SCORE.INTRA.norm>
-0.0307095

>  <SCORE.RESTR>
0

>  <SCORE.RESTR.CAVITY>
0

>  <SCORE.RESTR.norm>
0

>  <SCORE.SYSTEM>
0

>  <SCORE.SYSTEM.CONST>
0

>  <SCORE.SYSTEM.DIHEDRAL>
0

>  <SCORE.SYSTEM.SOLV>
0

>  <SCORE.SYSTEM.norm>
0

>  <SCORE.heavy>
22

>  <SCORE.norm>
-0.551156

>  <RMSD>
0.590

$$$$
2et8_lig
 OpenBabel11021811433D
libRbt.so/2013.1/901 2013/11/27
 22 23  0  0  0  0  0  0  0  0999 V2000
   26.3660   17.1011   35.4582 N   0  0  0  0  0  0  0  0  0  0  0  0
   23.7881   14.9056   39.0834 N   0  0  0  0  0  0  0  0  0  0  0  0
   22.0337   10.9623   40.5072 N   0  0  0  0  0  0  0  0  0  0  0  0
   21.7819   15.4772   34.6365 O   0  0  0  0  0  0  0  0  0  0  0  0
   22.6455   16.0596   35.6437 C   0  0  2  0  0  0  0  0  0  0  0  0
   18.5796   15.4397   37.0462 N   0  0  0  0  0  0  0  0  0  0  0  0
   24.0440   17.1509   33.8951 O   0  0  0  0  0  0  0  0  0  0  0  0
   24.0824   16.2826   35.0347 C   0  0  1  0  0  0  0  0  0  0  0  0
   21.4980   14.9243   37.3885 O   0  0  0  0  0  0  0  0  0  0  0  0
   25.0022   16.9025   36.0577 C   0  0  1  0  0  0  0  0  0  0  0  0
   21.1554   12.6524   37.2343 O   0  0  0  0  0  0  0  0  0  0  0  0
   25.0799   15.9800   37.2959 C   0  0  0  0  0  0  0  0  0  0  0  0
   19.6945   12.3705   40.5671 O   0  0  0  0  0  0  0  0  0  0  0  0
   23.6410   15.8110   37.8654 C   0  0  1  0  0  0  0  0  0  0  0  0
   17.7740   13.9789   39.3175 O   0  0  0  0  0  0  0  0  0  0  0  0
   22.7649   15.0891   36.8850 C   0  0  2  0  0  0  0  0  0  0  0  0
   20.6126   14.0185   36.8165 C   0  0  1  0  0  0  0  0  0  0  0  0
   21.1301   12.4379   38.7137 C   0  0  2  0  0  0  0  0  0  0  0  0
   21.6624   11.0338   39.0679 C   0  0  0  0  0  0  0  0  0  0  0  0
   19.7139   12.5560   39.1926 C   0  0  2  0  0  0  0  0  0  0  0  0
   19.1335   13.9011   38.8651 C   0  0  1  0  0  0  0  0  0  0  0  0
   19.1690   14.0955   37.3881 C   0  0  1  0  0  0  0  0  0  0  0  0
  5  4  1  6  0  0  0
  5  8  1  0  0  0  0
  5 16  1  0  0  0  0
  8  7  1  6  0  0  0
  8 10  1  0  0  0  0
 10  1  1  6  0  0  0
 10 12  1  0  0  0  0
 11 18  1  0  0  0  0
 12 14  1  0  0  0  0
 14  2  1  1  0  0  0
 14 16  1  0  0  0  0
 16  9  1  1  0  0  0
 17  9  1  1  0  0  0
 17 11  1  0  0  0  0
 17 22  1  0  0  0  0
 18 19  1  6  0  0  0
 18 20  1  0  0  0  0
 19  3  1  0  0  0  0
 20 13  1  1  0  0  0
 20 21  1  0  0  0  0
 21 15  1  6  0  0  0
 21 22  1  0  0  0  0
 22  6  1  1  0  0  0
M  END
>  <CHROM.1>
81.47386603,72.80572342,162.55904898,21.84849125,14.49605024,37.44865060
-0.85282267,0.07541475,2.30840774

>  <Name>
2et8_lig

>  <RI>
0

>  <Rbt.Current_Directory>
/home/itssahil/PROJECTS/Mol_Feturizer/New_Systems/rnas/2et8

>  <Rbt.Executable>
rbdock ($Id: //depot/dev/client3/rdock/2013.1/src/exe/rbdock.cxx#4 $)

>  <Rbt.Library>
libRbt.so (2013.1, Build901 2013/11/27)

>  <Rbt.Parameter_File>
/export/apps/rDock/src/rDock_2013.1_src/data/scripts/dock_solv.prm

>  <Rbt.Receptor>
prm/pocket_docking_2.prm

>  <SCORE>
-15.5828

>  <SCORE.INTER>
-14.9415

>  <SCORE.INTER.CONST>
1

>  <SCORE.INTER.POLAR>
-0.959166

>  <SCORE.INTER.ROT>
3

>  <SCORE.INTER.SOLV>
16.4977

>  <SCORE.INTER.VDW>
-17.863

>  <SCORE.INTER.norm>
-0.679157

>  <SCORE.INTRA>
-0.641362

>  <SCORE.INTRA.DIHEDRAL>
-1.03336

>  <SCORE.INTRA.DIHEDRAL.0>
4.99603

>  <SCORE.INTRA.POLAR>
0

>  <SCORE.INTRA.POLAR.0>
0

>  <SCORE.INTRA.REPUL>
0

>  <SCORE.INTRA.REPUL.0>
0

>  <SCORE.INTRA.SOLV>
0.935202

>  <SCORE.INTRA.SOLV.lig_0>
-74.884

>  <SCORE.INTRA.VDW>
-0.592281

>  <SCORE.INTRA.VDW.0>
-0.858933

>  <SCORE.INTRA.norm>
-0.0291528

>  <SCORE.RESTR>
0

>  <SCORE.RESTR.CAVITY>
0

>  <SCORE.RESTR.norm>
0

>  <SCORE.SYSTEM>
0

>  <SCORE.SYSTEM.CONST>
0

>  <SCORE.SYSTEM.DIHEDRAL>
0

>  <SCORE.SYSTEM.SOLV>
0

>  <SCORE.SYSTEM.norm>
0

>  <SCORE.heavy>
22

>  <SCORE.norm>
-0.70831

>  <RMSD>
0.591

$$$$
2et8_lig
 OpenBabel11021811433D
libRbt.so/2013.1/901 2013/11/27
 22 23  0  0  0  0  0  0  0  0999 V2000
   26.2440   17.1663   35.3737 N   0  0  0  0  0  0  0  0  0  0  0  0
   23.7945   14.9208   39.0567 N   0  0  0  0  0  0  0  0  0  0  0  0
   21.9968   10.9561   40.5906 N   0  0  0  0  0  0  0  0  0  0  0  0
   21.6735   15.4559   34.6588 O   0  0  0  0  0  0  0  0  0  0  0  0
   22.5494   16.0542   35.6458 C   0  0  2  0  0  0  0  0  0  0  0  0
   18.5401   15.3852   37.0914 N   0  0  0  0  0  0  0  0  0  0  0  0
   23.8853   17.1726   33.8657 O   0  0  0  0  0  0  0  0  0  0  0  0
   23.9670   16.3048   35.0033 C   0  0  1  0  0  0  0  0  0  0  0  0
   21.4651   14.8966   37.4163 O   0  0  0  0  0  0  0  0  0  0  0  0
   24.8987   16.9416   36.0050 C   0  0  1  0  0  0  0  0  0  0  0  0
   21.1392   12.6205   37.2914 O   0  0  0  0  0  0  0  0  0  0  0  0
   25.0231   16.0203   37.2401 C   0  0  0  0  0  0  0  0  0  0  0  0
   19.7071   12.3664   40.6390 O   0  0  0  0  0  0  0  0  0  0  0  0
   23.6016   15.8237   37.8433 C   0  0  1  0  0  0  0  0  0  0  0  0
   17.7641   13.9451   39.3860 O   0  0  0  0  0  0  0  0  0  0  0  0
   22.7165   15.0856   36.8832 C   0  0  2  0  0  0  0  0  0  0  0  0
   20.5824   13.9772   36.8621 C   0  0  1  0  0  0  0  0  0  0  0  0
   21.1273   12.4232   38.7734 C   0  0  2  0  0  0  0  0  0  0  0  0
   21.6735   11.0276   39.1397 C   0  0  0  0  0  0  0  0  0  0  0  0
   19.7141   12.5359   39.2622 C   0  0  2  0  0  0  0  0  0  0  0  0
   19.1206   13.8725   38.9237 C   0  0  1  0  0  0  0  0  0  0  0  0
   19.1428   14.0498   37.4443 C   0  0  1  0  0  0  0  0  0  0  0  0
  5  4  1  6  0  0  0
  5  8  1  0  0  0  0
  5 16  1  0  0  0  0
  8  7  1  6  0  0  0
  8 10  1  0  0  0  0
 10  1  1  6  0  0  0
 10 12  1  0  0  0  0
 11 18  1  0  0  0  0
 12 14  1  0  0  0  0
 14  2  1  1  0  0  0
 14 16  1  0  0  0  0
 16  9  1  1  0  0  0
 17  9  1  1  0  0  0
 17 11  1  0  0  0  0
 17 22  1  0  0  0  0
 18 19  1  6  0  0  0
 18 20  1  0  0  0  0
 19  3  1  0  0  0  0
 20 13  1  1  0  0  0
 20 21  1  0  0  0  0
 21 15  1  6  0  0  0
 21 22  1  0  0  0  0
 22  6  1  1  0  0  0
M  END
>  <CHROM.1>
81.27646832,74.20409153,165.21681916,21.80168119,14.48988461,37.46910961
-0.87708620,0.07708501,2.30337727

>  <Name>
2et8_lig

>  <RI>
2.82936e+07

>  <Rbt.Current_Directory>
/home/itssahil/PROJECTS/Mol_Feturizer/New_Systems/rnas/2et8

>  <Rbt.Executable>
rbdock ($Id: //depot/dev/client3/rdock/2013.1/src/exe/rbdock.cxx#4 $)

>  <Rbt.Library>
libRbt.so (2013.1, Build901 2013/11/27)

>  <Rbt.Parameter_File>
/export/apps/rDock/src/rDock_2013.1_src/data/scripts/dock_solv.prm

>  <Rbt.Receptor>
prm/pocket_docking_8.prm

>  <SCORE>
-15.6172

>  <SCORE.INTER>
-15.0081

>  <SCORE.INTER.CONST>
1

>  <SCORE.INTER.POLAR>
-0.959166

>  <SCORE.INTER.ROT>
3

>  <SCORE.INTER.SOLV>
16.3276

>  <SCORE.INTER.VDW>
-17.8507

>  <SCORE.INTER.norm>
-0.682187

>  <SCORE.INTRA>
-0.609053

>  <SCORE.INTRA.DIHEDRAL>
-1.17243

>  <SCORE.INTRA.DIHEDRAL.0>
4.99603

>  <SCORE.INTRA.POLAR>
0

>  <SCORE.INTRA.POLAR.0>
0

>  <SCORE.INTRA.REPUL>
0

>  <SCORE.INTRA.REPUL.0>
0

>  <SCORE.INTRA.SOLV>
1.02392

>  <SCORE.INTRA.SOLV.lig_0>
-74.884

>  <SCORE.INTRA.VDW>
-0.534798

>  <SCORE.INTRA.VDW.0>
-0.858933

>  <SCORE.INTRA.norm>
-0.0276842

>  <SCORE.RESTR>
0

>  <SCORE.RESTR.CAVITY>
0

>  <SCORE.RESTR.norm>
0

>  <SCORE.SYSTEM>
0

>  <SCORE.SYSTEM.CONST>
0

>  <SCORE.SYSTEM.DIHEDRAL>
0

>  <SCORE.SYSTEM.SOLV>
0

>  <SCORE.SYSTEM.norm>
0

>  <SCORE.heavy>
22

>  <SCORE.norm>
-0.709872

>  <RMSD>
0.593

$$$$
2et8_lig
 OpenBabel11021811433D
libRbt.so/2013.1/901 2013/11/27
 22 23  0  0  0  0  0  0  0  0999 V2000
   26.3943   17.1143   35.5004 N   0  0  0  0  0  0  0  0  0  0  0  0
   23.7826   14.9097   39.0958 N   0  0  0  0  0  0  0  0  0  0  0  0
   22.0344   10.9948   40.5365 N   0  0  0  0  0  0  0  0  0  0  0  0
   21.8139   15.5027   34.6349 O   0  0  0  0  0  0  0  0  0  0  0  0
   22.6704   16.0794   35.6514 C   0  0  2  0  0  0  0  0  0  0  0  0
   18.5854   15.4286   37.0238 N   0  0  0  0  0  0  0  0  0  0  0  0
   24.0853   17.1748   33.9186 O   0  0  0  0  0  0  0  0  0  0  0  0
   24.1126   16.3020   35.0550 C   0  0  1  0  0  0  0  0  0  0  0  0
   21.5064   14.9395   37.3823 O   0  0  0  0  0  0  0  0  0  0  0  0
   25.0252   16.9160   36.0880 C   0  0  1  0  0  0  0  0  0  0  0  0
   21.1831   12.6639   37.2422 O   0  0  0  0  0  0  0  0  0  0  0  0
   25.0910   15.9885   37.3231 C   0  0  0  0  0  0  0  0  0  0  0  0
   19.7100   12.3927   40.5705 O   0  0  0  0  0  0  0  0  0  0  0  0
   23.6472   15.8201   37.8802 C   0  0  1  0  0  0  0  0  0  0  0  0
   17.7818   13.9767   39.3015 O   0  0  0  0  0  0  0  0  0  0  0  0
   22.7778   15.1038   36.8898 C   0  0  2  0  0  0  0  0  0  0  0  0
   20.6311   14.0226   36.8127 C   0  0  1  0  0  0  0  0  0  0  0  0
   21.1531   12.4593   38.7229 C   0  0  2  0  0  0  0  0  0  0  0  0
   21.6954   11.0621   39.0890 C   0  0  0  0  0  0  0  0  0  0  0  0
   19.7339   12.5690   39.1948 C   0  0  2  0  0  0  0  0  0  0  0  0
   19.1439   13.9070   38.8556 C   0  0  1  0  0  0  0  0  0  0  0  0
   19.1844   14.0917   37.3775 C   0  0  1  0  0  0  0  0  0  0  0  0
  5  4  1  6  0  0  0
  5  8  1  0  0  0  0
  5 16  1  0  0  0  0
  8  7  1  6  0  0  0
  8 10  1  0  0  0  0
 10  1  1  6  0  0  0
 10 12  1  0  0  0  0
 11 18  1  0  0  0  0
 12 14  1  0  0  0  0
 14  2  1  1  0  0  0
 14 16  1  0  0  0  0
 16  9  1  1  0  0  0
 17  9  1  1  0  0  0
 17 11  1  0  0  0  0
 17 22  1  0  0  0  0
 18 19  1  6  0  0  0
 18 20  1  0  0  0  0
 19  3  1  0  0  0  0
 20 13  1  1  0  0  0
 20 21  1  0  0  0  0
 21 15  1  6  0  0  0
 21 22  1  0  0  0  0
 22  6  1  1  0  0  0
M  END
>  <CHROM.1>
82.49594772,72.28851675,163.73130440,21.86639536,14.50932249,37.45691458
-0.84999557,0.08284227,2.30428274

>  <Name>
2et8_lig

>  <RI>
0

>  <Rbt.Current_Directory>
/home/itssahil/PROJECTS/Mol_Feturizer/New_Systems/rnas/2et8

>  <Rbt.Executable>
rbdock ($Id: //depot/dev/client3/rdock/2013.1/src/exe/rbdock.cxx#4 $)

>  <Rbt.Library>
libRbt.so (2013.1, Build901 2013/11/27)

>  <Rbt.Parameter_File>
/export/apps/rDock/src/rDock_2013.1_src/data/scripts/dock_solv.prm

>  <Rbt.Receptor>
prm/pocket_docking_3.prm

>  <SCORE>
-15.5889

>  <SCORE.INTER>
-14.9626

>  <SCORE.INTER.CONST>
1

>  <SCORE.INTER.POLAR>
-0.959166

>  <SCORE.INTER.ROT>
3

>  <SCORE.INTER.SOLV>
16.2796

>  <SCORE.INTER.VDW>
-17.8044

>  <SCORE.INTER.norm>
-0.680119

>  <SCORE.INTRA>
-0.626326

>  <SCORE.INTRA.DIHEDRAL>
-1.0459

>  <SCORE.INTRA.DIHEDRAL.0>
4.99603

>  <SCORE.INTRA.POLAR>
0

>  <SCORE.INTRA.POLAR.0>
0

>  <SCORE.INTRA.REPUL>
0

>  <SCORE.INTRA.REPUL.0>
0

>  <SCORE.INTRA.SOLV>
1.00911

>  <SCORE.INTRA.SOLV.lig_0>
-74.884

>  <SCORE.INTRA.VDW>
-0.60793

>  <SCORE.INTRA.VDW.0>
-0.858933

>  <SCORE.INTRA.norm>
-0.0284694

>  <SCORE.RESTR>
0

>  <SCORE.RESTR.CAVITY>
0

>  <SCORE.RESTR.norm>
0

>  <SCORE.SYSTEM>
0

>  <SCORE.SYSTEM.CONST>
0

>  <SCORE.SYSTEM.DIHEDRAL>
0

>  <SCORE.SYSTEM.SOLV>
0

>  <SCORE.SYSTEM.norm>
0

>  <SCORE.heavy>
22

>  <SCORE.norm>
-0.708588

>  <RMSD>
0.594

$$$$
2et8_lig
 OpenBabel11021811433D
libRbt.so/2013.1/901 2013/11/27
 22 23  0  0  0  0  0  0  0  0999 V2000
   26.3390   17.1092   35.4684 N   0  0  0  0  0  0  0  0  0  0  0  0
   23.7798   14.8659   39.0775 N   0  0  0  0  0  0  0  0  0  0  0  0
   21.9655   10.9812   40.5746 N   0  0  0  0  0  0  0  0  0  0  0  0
   21.7426   15.5159   34.6555 O   0  0  0  0  0  0  0  0  0  0  0  0
   22.6160   16.0789   35.6653 C   0  0  2  0  0  0  0  0  0  0  0  0
   18.5594   15.4316   37.0459 N   0  0  0  0  0  0  0  0  0  0  0  0
   24.0056   17.1927   33.9238 O   0  0  0  0  0  0  0  0  0  0  0  0
   24.0491   16.3062   35.0491 C   0  0  1  0  0  0  0  0  0  0  0  0
   21.4771   14.9202   37.4004 O   0  0  0  0  0  0  0  0  0  0  0  0
   24.9789   16.9062   36.0749 C   0  0  1  0  0  0  0  0  0  0  0  0
   21.1349   12.6467   37.2714 O   0  0  0  0  0  0  0  0  0  0  0  0
   25.0623   15.9638   37.2976 C   0  0  0  0  0  0  0  0  0  0  0  0
   19.6668   12.4028   40.6040 O   0  0  0  0  0  0  0  0  0  0  0  0
   23.6271   15.7912   37.8752 C   0  0  1  0  0  0  0  0  0  0  0  0
   17.7489   13.9968   39.3319 O   0  0  0  0  0  0  0  0  0  0  0  0
   22.7409   15.0882   36.8901 C   0  0  2  0  0  0  0  0  0  0  0  0
   20.5930   14.0079   36.8369 C   0  0  1  0  0  0  0  0  0  0  0  0
   21.1064   12.4491   38.7531 C   0  0  2  0  0  0  0  0  0  0  0  0
   21.6380   11.0492   39.1245 C   0  0  0  0  0  0  0  0  0  0  0  0
   19.6891   12.5726   39.2275 C   0  0  2  0  0  0  0  0  0  0  0  0
   19.1094   13.9138   38.8834 C   0  0  1  0  0  0  0  0  0  0  0  0
   19.1482   14.0914   37.4044 C   0  0  1  0  0  0  0  0  0  0  0  0
  5  4  1  6  0  0  0
  5  8  1  0  0  0  0
  5 16  1  0  0  0  0
  8  7  1  6  0  0  0
  8 10  1  0  0  0  0
 10  1  1  6  0  0  0
 10 12  1  0  0  0  0
 11 18  1  0  0  0  0
 12 14  1  0  0  0  0
 14  2  1  1  0  0  0
 14 16  1  0  0  0  0
 16  9  1  1  0  0  0
 17  9  1  1  0  0  0
 17 11  1  0  0  0  0
 17 22  1  0  0  0  0
 18 19  1  6  0  0  0
 18 20  1  0  0  0  0
 19  3  1  0  0  0  0
 20 13  1  1  0  0  0
 20 21  1  0  0  0  0
 21 15  1  6  0  0  0
 21 22  1  0  0  0  0
 22  6  1  1  0  0  0
M  END
>  <CHROM.1>
82.75136240,73.41922459,164.35186405,21.82218539,14.50347381,37.47040537
-0.85607854,0.07528518,2.30629615

>  <Name>
2et8_lig

>  <RI>
0

>  <Rbt.Current_Directory>
/home/itssahil/PROJECTS/Mol_Feturizer/New_Systems/rnas/2et8

>  <Rbt.Executable>
rbdock ($Id: //depot/dev/client3/rdock/2013.1/src/exe/rbdock.cxx#4 $)

>  <Rbt.Library>
libRbt.so (2013.1, Build901 2013/11/27)

>  <Rbt.Parameter_File>
/export/apps/rDock/src/rDock_2013.1_src/data/scripts/dock_solv.prm

>  <Rbt.Receptor>
prm/pocket_docking_3.prm

>  <SCORE>
-15.5916

>  <SCORE.INTER>
-15.0452

>  <SCORE.INTER.CONST>
1

>  <SCORE.INTER.POLAR>
-0.959166

>  <SCORE.INTER.ROT>
3

>  <SCORE.INTER.SOLV>
16.3311

>  <SCORE.INTER.VDW>
-17.8766

>  <SCORE.INTER.norm>
-0.683871

>  <SCORE.INTRA>
-0.546473

>  <SCORE.INTRA.DIHEDRAL>
-0.936458

>  <SCORE.INTRA.DIHEDRAL.0>
4.99603

>  <SCORE.INTRA.POLAR>
0

>  <SCORE.INTRA.POLAR.0>
0

>  <SCORE.INTRA.REPUL>
0

>  <SCORE.INTRA.REPUL.0>
0

>  <SCORE.INTRA.SOLV>
1.06631

>  <SCORE.INTRA.SOLV.lig_0>
-74.884

>  <SCORE.INTRA.VDW>
-0.611399

>  <SCORE.INTRA.VDW.0>
-0.858933

>  <SCORE.INTRA.norm>
-0.0248397

>  <SCORE.RESTR>
0

>  <SCORE.RESTR.CAVITY>
0

>  <SCORE.RESTR.norm>
0

>  <SCORE.SYSTEM>
0

>  <SCORE.SYSTEM.CONST>
0

>  <SCORE.SYSTEM.DIHEDRAL>
0

>  <SCORE.SYSTEM.SOLV>
0

>  <SCORE.SYSTEM.norm>
0

>  <SCORE.heavy>
22

>  <SCORE.norm>
-0.708711

>  <RMSD>
0.596

$$$$
2et8_lig
 OpenBabel11021811433D
libRbt.so/2013.1/901 2013/11/27
 22 23  0  0  0  0  0  0  0  0999 V2000
   26.3867   17.0915   35.4829 N   0  0  0  0  0  0  0  0  0  0  0  0
   23.7600   14.9036   39.0776 N   0  0  0  0  0  0  0  0  0  0  0  0
   22.0255   10.9940   40.5081 N   0  0  0  0  0  0  0  0  0  0  0  0
   21.7995   15.5013   34.6139 O   0  0  0  0  0  0  0  0  0  0  0  0
   22.6576   16.0750   35.6307 C   0  0  2  0  0  0  0  0  0  0  0  0
   18.5639   15.4337   37.0149 N   0  0  0  0  0  0  0  0  0  0  0  0
   24.0798   17.1615   33.8984 O   0  0  0  0  0  0  0  0  0  0  0  0
   24.1015   16.2899   35.0358 C   0  0  1  0  0  0  0  0  0  0  0  0
   21.4860   14.9427   37.3615 O   0  0  0  0  0  0  0  0  0  0  0  0
   25.0159   16.9006   36.0691 C   0  0  1  0  0  0  0  0  0  0  0  0
   21.1611   12.6675   37.2196 O   0  0  0  0  0  0  0  0  0  0  0  0
   25.0758   15.9741   37.3053 C   0  0  0  0  0  0  0  0  0  0  0  0
   19.7007   12.3926   40.5532 O   0  0  0  0  0  0  0  0  0  0  0  0
   23.6305   15.8134   37.8609 C   0  0  1  0  0  0  0  0  0  0  0  0
   17.7684   13.9792   39.2938 O   0  0  0  0  0  0  0  0  0  0  0  0
   22.7587   15.1002   36.8703 C   0  0  2  0  0  0  0  0  0  0  0  0
   20.6080   14.0270   36.7941 C   0  0  1  0  0  0  0  0  0  0  0  0
   21.1366   12.4609   38.7002 C   0  0  2  0  0  0  0  0  0  0  0  0
   21.6796   11.0630   39.0623 C   0  0  0  0  0  0  0  0  0  0  0  0
   19.7193   12.5707   39.1777 C   0  0  2  0  0  0  0  0  0  0  0  0
   19.1287   13.9094   38.8425 C   0  0  1  0  0  0  0  0  0  0  0  0
   19.1636   14.0960   37.3645 C   0  0  1  0  0  0  0  0  0  0  0  0
  5  4  1  6  0  0  0
  5  8  1  0  0  0  0
  5 16  1  0  0  0  0
  8  7  1  6  0  0  0
  8 10  1  0  0  0  0
 10  1  1  6  0  0  0
 10 12  1  0  0  0  0
 11 18  1  0  0  0  0
 12 14  1  0  0  0  0
 14  2  1  1  0  0  0
 14 16  1  0  0  0  0
 16  9  1  1  0  0  0
 17  9  1  1  0  0  0
 17 11  1  0  0  0  0
 17 22  1  0  0  0  0
 18 19  1  6  0  0  0
 18 20  1  0  0  0  0
 19  3  1  0  0  0  0
 20 13  1  1  0  0  0
 20 21  1  0  0  0  0
 21 15  1  6  0  0  0
 21 22  1  0  0  0  0
 22  6  1  1  0  0  0
M  END
>  <CHROM.1>
82.66450834,71.82100422,163.67469231,21.85118810,14.50614981,37.43831162
-0.84823459,0.07947270,2.30436732

>  <Name>
2et8_lig

>  <RI>
0

>  <Rbt.Current_Directory>
/home/itssahil/PROJECTS/Mol_Feturizer/New_Systems/rnas/2et8

>  <Rbt.Executable>
rbdock ($Id: //depot/dev/client3/rdock/2013.1/src/exe/rbdock.cxx#4 $)

>  <Rbt.Library>
libRbt.so (2013.1, Build901 2013/11/27)

>  <Rbt.Parameter_File>
/export/apps/rDock/src/rDock_2013.1_src/data/scripts/dock_solv.prm

>  <Rbt.Receptor>
prm/pocket_docking_2.prm

>  <SCORE>
-15.6146

>  <SCORE.INTER>
-14.9546

>  <SCORE.INTER.CONST>
1

>  <SCORE.INTER.POLAR>
-0.959166

>  <SCORE.INTER.ROT>
3

>  <SCORE.INTER.SOLV>
16.3602

>  <SCORE.INTER.VDW>
-17.8259

>  <SCORE.INTER.norm>
-0.679754

>  <SCORE.INTRA>
-0.66002

>  <SCORE.INTRA.DIHEDRAL>
-1.06229

>  <SCORE.INTRA.DIHEDRAL.0>
4.99603

>  <SCORE.INTRA.POLAR>
0

>  <SCORE.INTRA.POLAR.0>
0

>  <SCORE.INTRA.REPUL>
0

>  <SCORE.INTRA.REPUL.0>
0

>  <SCORE.INTRA.SOLV>
1.00575

>  <SCORE.INTRA.SOLV.lig_0>
-74.884

>  <SCORE.INTRA.VDW>
-0.631753

>  <SCORE.INTRA.VDW.0>
-0.858933

>  <SCORE.INTRA.norm>
-0.0300009

>  <SCORE.RESTR>
0

>  <SCORE.RESTR.CAVITY>
0

>  <SCORE.RESTR.norm>
0

>  <SCORE.SYSTEM>
0

>  <SCORE.SYSTEM.CONST>
0

>  <SCORE.SYSTEM.DIHEDRAL>
0

>  <SCORE.SYSTEM.SOLV>
0

>  <SCORE.SYSTEM.norm>
0

>  <SCORE.heavy>
22

>  <SCORE.norm>
-0.709755

>  <RMSD>
0.597

$$$$
2et8_lig
 OpenBabel11021811433D
libRbt.so/2013.1/901 2013/11/27
 22 23  0  0  0  0  0  0  0  0999 V2000
   26.4110   17.0803   35.5009 N   0  0  0  0  0  0  0  0  0  0  0  0
   23.7777   14.8726   39.0786 N   0  0  0  0  0  0  0  0  0  0  0  0
   22.0356   10.9932   40.5102 N   0  0  0  0  0  0  0  0  0  0  0  0
   21.8174   15.5147   34.6209 O   0  0  0  0  0  0  0  0  0  0  0  0
   22.6782   16.0767   35.6420 C   0  0  2  0  0  0  0  0  0  0  0  0
   18.5847   15.4379   37.0048 N   0  0  0  0  0  0  0  0  0  0  0  0
   24.1036   17.1722   33.9181 O   0  0  0  0  0  0  0  0  0  0  0  0
   24.1226   16.2910   35.0483 C   0  0  1  0  0  0  0  0  0  0  0  0
   21.5031   14.9345   37.3640 O   0  0  0  0  0  0  0  0  0  0  0  0
   25.0398   16.8897   36.0862 C   0  0  1  0  0  0  0  0  0  0  0  0
   21.1689   12.6606   37.2223 O   0  0  0  0  0  0  0  0  0  0  0  0
   25.0967   15.9528   37.3146 C   0  0  0  0  0  0  0  0  0  0  0  0
   19.6933   12.3943   40.5499 O   0  0  0  0  0  0  0  0  0  0  0  0
   23.6511   15.7929   37.8696 C   0  0  1  0  0  0  0  0  0  0  0  0
   17.7732   13.9885   39.2812 O   0  0  0  0  0  0  0  0  0  0  0  0
   22.7762   15.0913   36.8735 C   0  0  2  0  0  0  0  0  0  0  0  0
   20.6235   14.0221   36.7935 C   0  0  1  0  0  0  0  0  0  0  0  0
   21.1373   12.4551   38.7029 C   0  0  2  0  0  0  0  0  0  0  0  0
   21.6727   11.0551   39.0682 C   0  0  0  0  0  0  0  0  0  0  0  0
   19.7185   12.5714   39.1743 C   0  0  2  0  0  0  0  0  0  0  0  0
   19.1351   13.9125   38.8357 C   0  0  1  0  0  0  0  0  0  0  0  0
   19.1770   14.0979   37.3578 C   0  0  1  0  0  0  0  0  0  0  0  0
  5  4  1  6  0  0  0
  5  8  1  0  0  0  0
  5 16  1  0  0  0  0
  8  7  1  6  0  0  0
  8 10  1  0  0  0  0
 10  1  1  6  0  0  0
 10 12  1  0  0  0  0
 11 18  1  0  0  0  0
 12 14  1  0  0  0  0
 14  2  1  1  0  0  0
 14 16  1  0  0  0  0
 16  9  1  1  0  0  0
 17  9  1  1  0  0  0
 17 11  1  0  0  0  0
 17 22  1  0  0  0  0
 18 19  1  6  0  0  0
 18 20  1  0  0  0  0
 19  3  1  0  0  0  0
 20 13  1  1  0  0  0
 20 21  1  0  0  0  0
 21 15  1  6  0  0  0
 21 22  1  0  0  0  0
 22  6  1  1  0  0  0
M  END
>  <CHROM.1>
82.97864429,72.17538681,162.63892688,21.86424383,14.50232460,37.44191299
-0.84489846,0.07852025,2.30658465

>  <Name>
2et8_lig

>  <RI>
0

>  <Rbt.Current_Directory>
/home/itssahil/PROJECTS/Mol_Feturizer/New_Systems/rnas/2et8

>  <Rbt.Executable>
rbdock ($Id: //depot/dev/client3/rdock/2013.1/src/exe/rbdock.cxx#4 $)

>  <Rbt.Library>
libRbt.so (2013.1, Build901 2013/11/27)

>  <Rbt.Parameter_File>
/export/apps/rDock/src/rDock_2013.1_src/data/scripts/dock_solv.prm

>  <Rbt.Receptor>
prm/pocket_docking_2.prm

>  <SCORE>
-15.6083

>  <SCORE.INTER>
-15.0142

>  <SCORE.INTER.CONST>
1

>  <SCORE.INTER.POLAR>
-0.959166

>  <SCORE.INTER.ROT>
3

>  <SCORE.INTER.SOLV>
16.3751

>  <SCORE.INTER.VDW>
-17.8706

>  <SCORE.INTER.norm>
-0.682462

>  <SCORE.INTRA>
-0.594105

>  <SCORE.INTRA.DIHEDRAL>
-0.860209

>  <SCORE.INTRA.DIHEDRAL.0>
4.99603

>  <SCORE.INTRA.POLAR>
0

>  <SCORE.INTRA.POLAR.0>
0

>  <SCORE.INTRA.REPUL>
0

>  <SCORE.INTRA.REPUL.0>
0

>  <SCORE.INTRA.SOLV>
1.00666

>  <SCORE.INTRA.SOLV.lig_0>
-74.884

>  <SCORE.INTRA.VDW>
-0.66733

>  <SCORE.INTRA.VDW.0>
-0.858933

>  <SCORE.INTRA.norm>
-0.0270048

>  <SCORE.RESTR>
0

>  <SCORE.RESTR.CAVITY>
0

>  <SCORE.RESTR.norm>
0

>  <SCORE.SYSTEM>
0

>  <SCORE.SYSTEM.CONST>
0

>  <SCORE.SYSTEM.DIHEDRAL>
0

>  <SCORE.SYSTEM.SOLV>
0

>  <SCORE.SYSTEM.norm>
0

>  <SCORE.heavy>
22

>  <SCORE.norm>
-0.709467

>  <RMSD>
0.598

$$$$
2et8_lig
 OpenBabel11021811433D
libRbt.so/2013.1/901 2013/11/27
 22 23  0  0  0  0  0  0  0  0999 V2000
   26.3247   17.1887   35.4454 N   0  0  0  0  0  0  0  0  0  0  0  0
   23.8247   14.9362   39.0902 N   0  0  0  0  0  0  0  0  0  0  0  0
   22.0823   10.9695   40.5954 N   0  0  0  0  0  0  0  0  0  0  0  0
   21.7774   15.4498   34.6550 O   0  0  0  0  0  0  0  0  0  0  0  0
   22.6325   16.0553   35.6558 C   0  0  2  0  0  0  0  0  0  0  0  0
   18.5966   15.3430   37.0530 N   0  0  0  0  0  0  0  0  0  0  0  0
   23.9925   17.1780   33.8968 O   0  0  0  0  0  0  0  0  0  0  0  0
   24.0595   16.3129   35.0375 C   0  0  1  0  0  0  0  0  0  0  0  0
   21.5244   14.8949   37.4096 O   0  0  0  0  0  0  0  0  0  0  0  0
   24.9699   16.9573   36.0538 C   0  0  1  0  0  0  0  0  0  0  0  0
   21.2308   12.6143   37.2855 O   0  0  0  0  0  0  0  0  0  0  0  0
   25.0783   16.0392   37.2929 C   0  0  0  0  0  0  0  0  0  0  0  0
   19.7671   12.3465   40.6183 O   0  0  0  0  0  0  0  0  0  0  0  0
   23.6476   15.8355   37.8717 C   0  0  1  0  0  0  0  0  0  0  0  0
   17.8161   13.8963   39.3420 O   0  0  0  0  0  0  0  0  0  0  0  0
   22.7837   15.0902   36.8979 C   0  0  2  0  0  0  0  0  0  0  0  0
   20.6602   13.9626   36.8478 C   0  0  1  0  0  0  0  0  0  0  0  0
   21.2060   12.4194   38.7677 C   0  0  2  0  0  0  0  0  0  0  0  0
   21.7673   11.0320   39.1423 C   0  0  0  0  0  0  0  0  0  0  0  0
   19.7863   12.5136   39.2414 C   0  0  2  0  0  0  0  0  0  0  0  0
   19.1782   13.8415   38.8941 C   0  0  1  0  0  0  0  0  0  0  0  0
   19.2137   14.0165   37.4147 C   0  0  1  0  0  0  0  0  0  0  0  0
  5  4  1  6  0  0  0
  5  8  1  0  0  0  0
  5 16  1  0  0  0  0
  8  7  1  6  0  0  0
  8 10  1  0  0  0  0
 10  1  1  6  0  0  0
 10 12  1  0  0  0  0
 11 18  1  0  0  0  0
 12 14  1  0  0  0  0
 14  2  1  1  0  0  0
 14 16  1  0  0  0  0
 16  9  1  1  0  0  0
 17  9  1  1  0  0  0
 17 11  1  0  0  0  0
 17 22  1  0  0  0  0
 18 19  1  6  0  0  0
 18 20  1  0  0  0  0
 19  3  1  0  0  0  0
 20 13  1  1  0  0  0
 20 21  1  0  0  0  0
 21 15  1  6  0  0  0
 21 22  1  0  0  0  0
 22  6  1  1  0  0  0
M  END
>  <CHROM.1>
81.72580474,73.52372148,164.94748607,21.87436022,14.48467904,37.47377806
-0.87193969,0.09326452,2.30057038

>  <Name>
2et8_lig

>  <RI>
0

>  <Rbt.Current_Directory>
/home/itssahil/PROJECTS/Mol_Feturizer/New_Systems/rnas/2et8

>  <Rbt.Executable>
rbdock ($Id: //depot/dev/client3/rdock/2013.1/src/exe/rbdock.cxx#4 $)

>  <Rbt.Library>
libRbt.so (2013.1, Build901 2013/11/27)

>  <Rbt.Parameter_File>
/export/apps/rDock/src/rDock_2013.1_src/data/scripts/dock_solv.prm

>  <Rbt.Receptor>
prm/pocket_docking_3.prm

>  <SCORE>
-15.5853

>  <SCORE.INTER>
-14.9641

>  <SCORE.INTER.CONST>
1

>  <SCORE.INTER.POLAR>
-0.959166

>  <SCORE.INTER.ROT>
3

>  <SCORE.INTER.SOLV>
16.2007

>  <SCORE.INTER.VDW>
-17.7791

>  <SCORE.INTER.norm>
-0.680188

>  <SCORE.INTRA>
-0.621118

>  <SCORE.INTRA.DIHEDRAL>
-1.15529

>  <SCORE.INTRA.DIHEDRAL.0>
4.99603

>  <SCORE.INTRA.POLAR>
0

>  <SCORE.INTRA.POLAR.0>
0

>  <SCORE.INTRA.REPUL>
0

>  <SCORE.INTRA.REPUL.0>
0

>  <SCORE.INTRA.SOLV>
1.02589

>  <SCORE.INTRA.SOLV.lig_0>
-74.884

>  <SCORE.INTRA.VDW>
-0.556422

>  <SCORE.INTRA.VDW.0>
-0.858933

>  <SCORE.INTRA.norm>
-0.0282326

>  <SCORE.RESTR>
0

>  <SCORE.RESTR.CAVITY>
0

>  <SCORE.RESTR.norm>
0

>  <SCORE.SYSTEM>
0

>  <SCORE.SYSTEM.CONST>
0

>  <SCORE.SYSTEM.DIHEDRAL>
0

>  <SCORE.SYSTEM.SOLV>
0

>  <SCORE.SYSTEM.norm>
0

>  <SCORE.heavy>
22

>  <SCORE.norm>
-0.708421

>  <RMSD>
0.598

$$$$
2et8_lig
 OpenBabel11021811433D
libRbt.so/2013.1/901 2013/11/27
 22 23  0  0  0  0  0  0  0  0999 V2000
   26.4465   17.0905   35.5226 N   0  0  0  0  0  0  0  0  0  0  0  0
   23.7833   14.8975   39.0872 N   0  0  0  0  0  0  0  0  0  0  0  0
   22.0329   11.0086   40.5139 N   0  0  0  0  0  0  0  0  0  0  0  0
   21.8687   15.5008   34.6042 O   0  0  0  0  0  0  0  0  0  0  0  0
   22.7162   16.0733   35.6306 C   0  0  2  0  0  0  0  0  0  0  0  0
   18.6114   15.4336   36.9561 N   0  0  0  0  0  0  0  0  0  0  0  0
   24.1560   17.1623   33.9144 O   0  0  0  0  0  0  0  0  0  0  0  0
   24.1662   16.2891   35.0509 C   0  0  1  0  0  0  0  0  0  0  0  0
   21.5271   14.9385   37.3478 O   0  0  0  0  0  0  0  0  0  0  0  0
   25.0698   16.8986   36.0944 C   0  0  1  0  0  0  0  0  0  0  0  0
   21.1998   12.6633   37.2106 O   0  0  0  0  0  0  0  0  0  0  0  0
   25.1170   15.9705   37.3299 C   0  0  0  0  0  0  0  0  0  0  0  0
   19.6899   12.4051   40.5234 O   0  0  0  0  0  0  0  0  0  0  0  0
   23.6662   15.8089   37.8704 C   0  0  1  0  0  0  0  0  0  0  0  0
   17.7795   13.9902   39.2291 O   0  0  0  0  0  0  0  0  0  0  0  0
   22.8048   15.0968   36.8699 C   0  0  2  0  0  0  0  0  0  0  0  0
   20.6557   14.0220   36.7713 C   0  0  1  0  0  0  0  0  0  0  0  0
   21.1532   12.4630   38.6915 C   0  0  2  0  0  0  0  0  0  0  0  0
   21.6880   11.0655   39.0674 C   0  0  0  0  0  0  0  0  0  0  0  0
   19.7292   12.5774   39.1476 C   0  0  2  0  0  0  0  0  0  0  0  0
   19.1462   13.9159   38.7982 C   0  0  1  0  0  0  0  0  0  0  0  0
   19.2032   14.0962   37.3201 C   0  0  1  0  0  0  0  0  0  0  0  0
  5  4  1  6  0  0  0
  5  8  1  0  0  0  0
  5 16  1  0  0  0  0
  8  7  1  6  0  0  0
  8 10  1  0  0  0  0
 10  1  1  6  0  0  0
 10 12  1  0  0  0  0
 11 18  1  0  0  0  0
 12 14  1  0  0  0  0
 14  2  1  1  0  0  0
 14 16  1  0  0  0  0
 16  9  1  1  0  0  0
 17  9  1  1  0  0  0
 17 11  1  0  0  0  0
 17 22  1  0  0  0  0
 18 19  1  6  0  0  0
 18 20  1  0  0  0  0
 19  3  1  0  0  0  0
 20 13  1  1  0  0  0
 20 21  1  0  0  0  0
 21 15  1  6  0  0  0
 21 22  1  0  0  0  0
 22  6  1  1  0  0  0
M  END
>  <CHROM.1>
82.75285288,72.19029246,162.77115293,21.88767030,14.50714630,37.42952223
-0.83899905,0.08771504,2.30146730

>  <Name>
2et8_lig

>  <RI>
0

>  <Rbt.Current_Directory>
/home/itssahil/PROJECTS/Mol_Feturizer/New_Systems/rnas/2et8

>  <Rbt.Executable>
rbdock ($Id: //depot/dev/client3/rdock/2013.1/src/exe/rbdock.cxx#4 $)

>  <Rbt.Library>
libRbt.so (2013.1, Build901 2013/11/27)

>  <Rbt.Parameter_File>
/export/apps/rDock/src/rDock_2013.1_src/data/scripts/dock_solv.prm

>  <Rbt.Receptor>
prm/pocket_docking_2.prm

>  <SCORE>
-15.6063

>  <SCORE.INTER>
-14.9935

>  <SCORE.INTER.CONST>
1

>  <SCORE.INTER.POLAR>
-0.959166

>  <SCORE.INTER.ROT>
3

>  <SCORE.INTER.SOLV>
16.38

>  <SCORE.INTER.VDW>
-17.8584

>  <SCORE.INTER.norm>
-0.681523

>  <SCORE.INTRA>
-0.612772

>  <SCORE.INTRA.DIHEDRAL>
-0.91135

>  <SCORE.INTRA.DIHEDRAL.0>
4.99603

>  <SCORE.INTRA.POLAR>
0

>  <SCORE.INTRA.POLAR.0>
0

>  <SCORE.INTRA.REPUL>
0

>  <SCORE.INTRA.REPUL.0>
0

>  <SCORE.INTRA.SOLV>
0.997548

>  <SCORE.INTRA.SOLV.lig_0>
-74.884

>  <SCORE.INTRA.VDW>
-0.655872

>  <SCORE.INTRA.VDW.0>
-0.858933

>  <SCORE.INTRA.norm>
-0.0278533

>  <SCORE.RESTR>
0

>  <SCORE.RESTR.CAVITY>
0

>  <SCORE.RESTR.norm>
0

>  <SCORE.SYSTEM>
0

>  <SCORE.SYSTEM.CONST>
0

>  <SCORE.SYSTEM.DIHEDRAL>
0

>  <SCORE.SYSTEM.SOLV>
0

>  <SCORE.SYSTEM.norm>
0

>  <SCORE.heavy>
22

>  <SCORE.norm>
-0.709376

>  <RMSD>
0.599

$$$$
2et8_lig
 OpenBabel11021811433D
libRbt.so/2013.1/901 2013/11/27
 22 23  0  0  0  0  0  0  0  0999 V2000
   26.4460   17.0599   35.5000 N   0  0  0  0  0  0  0  0  0  0  0  0
   23.7881   14.9106   39.0950 N   0  0  0  0  0  0  0  0  0  0  0  0
   22.0270   11.0011   40.5295 N   0  0  0  0  0  0  0  0  0  0  0  0
   21.8629   15.4690   34.6108 O   0  0  0  0  0  0  0  0  0  0  0  0
   22.7142   16.0510   35.6287 C   0  0  2  0  0  0  0  0  0  0  0  0
   18.6102   15.4390   36.9896 N   0  0  0  0  0  0  0  0  0  0  0  0
   24.1515   17.1186   33.8971 O   0  0  0  0  0  0  0  0  0  0  0  0
   24.1630   16.2578   35.0429 C   0  0  1  0  0  0  0  0  0  0  0  0
   21.5274   14.9371   37.3611 O   0  0  0  0  0  0  0  0  0  0  0  0
   25.0705   16.8768   36.0774 C   0  0  1  0  0  0  0  0  0  0  0  0
   21.1937   12.6626   37.2271 O   0  0  0  0  0  0  0  0  0  0  0  0
   25.1192   15.9620   37.3228 C   0  0  0  0  0  0  0  0  0  0  0  0
   19.7063   12.4093   40.5504 O   0  0  0  0  0  0  0  0  0  0  0  0
   23.6695   15.8090   37.8687 C   0  0  1  0  0  0  0  0  0  0  0  0
   17.7907   13.9984   39.2688 O   0  0  0  0  0  0  0  0  0  0  0  0
   22.8041   15.0878   36.8783 C   0  0  2  0  0  0  0  0  0  0  0  0
   20.6498   14.0225   36.7910 C   0  0  1  0  0  0  0  0  0  0  0  0
   21.1569   12.4630   38.7084 C   0  0  2  0  0  0  0  0  0  0  0  0
   21.6910   11.0644   39.0811 C   0  0  0  0  0  0  0  0  0  0  0  0
   19.7364   12.5810   39.1743 C   0  0  2  0  0  0  0  0  0  0  0  0
   19.1542   13.9207   38.8284 C   0  0  1  0  0  0  0  0  0  0  0  0
   19.2014   14.1003   37.3499 C   0  0  1  0  0  0  0  0  0  0  0  0
  5  4  1  6  0  0  0
  5  8  1  0  0  0  0
  5 16  1  0  0  0  0
  8  7  1  6  0  0  0
  8 10  1  0  0  0  0
 10  1  1  6  0  0  0
 10 12  1  0  0  0  0
 11 18  1  0  0  0  0
 12 14  1  0  0  0  0
 14  2  1  1  0  0  0
 14 16  1  0  0  0  0
 16  9  1  1  0  0  0
 17  9  1  1  0  0  0
 17 11  1  0  0  0  0
 17 22  1  0  0  0  0
 18 19  1  6  0  0  0
 18 20  1  0  0  0  0
 19  3  1  0  0  0  0
 20 13  1  1  0  0  0
 20 21  1  0  0  0  0
 21 15  1  6  0  0  0
 21 22  1  0  0  0  0
 22  6  1  1  0  0  0
M  END
>  <CHROM.1>
82.31540657,71.88791534,163.59828468,21.88875399,14.49947944,37.44013473
-0.84036089,0.08200284,2.29765333

>  <Name>
2et8_lig

>  <RI>
0

>  <Rbt.Current_Directory>
/home/itssahil/PROJECTS/Mol_Feturizer/New_Systems/rnas/2et8

>  <Rbt.Executable>
rbdock ($Id: //depot/dev/client3/rdock/2013.1/src/exe/rbdock.cxx#4 $)

>  <Rbt.Library>
libRbt.so (2013.1, Build901 2013/11/27)

>  <Rbt.Parameter_File>
/export/apps/rDock/src/rDock_2013.1_src/data/scripts/dock_solv.prm

>  <Rbt.Receptor>
prm/pocket_docking_2.prm

>  <SCORE>
-15.6098

>  <SCORE.INTER>
-14.93

>  <SCORE.INTER.CONST>
1

>  <SCORE.INTER.POLAR>
-0.959166

>  <SCORE.INTER.ROT>
3

>  <SCORE.INTER.SOLV>
16.4903

>  <SCORE.INTER.VDW>
-17.8529

>  <SCORE.INTER.norm>
-0.678638

>  <SCORE.INTRA>
-0.679753

>  <SCORE.INTRA.DIHEDRAL>
-1.10608

>  <SCORE.INTRA.DIHEDRAL.0>
4.99603

>  <SCORE.INTRA.POLAR>
0

>  <SCORE.INTRA.POLAR.0>
0

>  <SCORE.INTRA.REPUL>
0

>  <SCORE.INTRA.REPUL.0>
0

>  <SCORE.INTRA.SOLV>
0.985761

>  <SCORE.INTRA.SOLV.lig_0>
-74.884

>  <SCORE.INTRA.VDW>
-0.619593

>  <SCORE.INTRA.VDW.0>
-0.858933

>  <SCORE.INTRA.norm>
-0.0308978

>  <SCORE.RESTR>
0

>  <SCORE.RESTR.CAVITY>
0

>  <SCORE.RESTR.norm>
0

>  <SCORE.SYSTEM>
0

>  <SCORE.SYSTEM.CONST>
0

>  <SCORE.SYSTEM.DIHEDRAL>
0

>  <SCORE.SYSTEM.SOLV>
0

>  <SCORE.SYSTEM.norm>
0

>  <SCORE.heavy>
22

>  <SCORE.norm>
-0.709536

>  <RMSD>
0.599

$$$$
2et8_lig
 OpenBabel11021811433D
libRbt.so/2013.1/901 2013/11/27
 22 23  0  0  0  0  0  0  0  0999 V2000
   26.4057   17.0830   35.4881 N   0  0  0  0  0  0  0  0  0  0  0  0
   23.7709   14.8842   39.0701 N   0  0  0  0  0  0  0  0  0  0  0  0
   21.9832   11.0039   40.5453 N   0  0  0  0  0  0  0  0  0  0  0  0
   21.8142   15.5111   34.6086 O   0  0  0  0  0  0  0  0  0  0  0  0
   22.6736   16.0769   35.6288 C   0  0  2  0  0  0  0  0  0  0  0  0
   18.5769   15.4257   36.9906 N   0  0  0  0  0  0  0  0  0  0  0  0
   24.0998   17.1682   33.9028 O   0  0  0  0  0  0  0  0  0  0  0  0
   24.1184   16.2905   35.0357 C   0  0  1  0  0  0  0  0  0  0  0  0
   21.4978   14.9390   37.3532 O   0  0  0  0  0  0  0  0  0  0  0  0
   25.0341   16.8931   36.0726 C   0  0  1  0  0  0  0  0  0  0  0  0
   21.1743   12.6624   37.2300 O   0  0  0  0  0  0  0  0  0  0  0  0
   25.0906   15.9600   37.3040 C   0  0  0  0  0  0  0  0  0  0  0  0
   19.7006   12.4162   40.5600 O   0  0  0  0  0  0  0  0  0  0  0  0
   23.6446   15.8007   37.8581 C   0  0  1  0  0  0  0  0  0  0  0  0
   17.7728   13.9910   39.2789 O   0  0  0  0  0  0  0  0  0  0  0  0
   22.7712   15.0953   36.8634 C   0  0  2  0  0  0  0  0  0  0  0  0
   20.6224   14.0179   36.7903 C   0  0  1  0  0  0  0  0  0  0  0  0
   21.1440   12.4689   38.7122 C   0  0  2  0  0  0  0  0  0  0  0  0
   21.6861   11.0744   39.0887 C   0  0  0  0  0  0  0  0  0  0  0  0
   19.7247   12.5822   39.1830 C   0  0  2  0  0  0  0  0  0  0  0  0
   19.1350   13.9178   38.8337 C   0  0  1  0  0  0  0  0  0  0  0  0
   19.1757   14.0914   37.3543 C   0  0  1  0  0  0  0  0  0  0  0  0
  5  4  1  6  0  0  0
  5  8  1  0  0  0  0
  5 16  1  0  0  0  0
  8  7  1  6  0  0  0
  8 10  1  0  0  0  0
 10  1  1  6  0  0  0
 10 12  1  0  0  0  0
 11 18  1  0  0  0  0
 12 14  1  0  0  0  0
 14  2  1  1  0  0  0
 14 16  1  0  0  0  0
 16  9  1  1  0  0  0
 17  9  1  1  0  0  0
 17 11  1  0  0  0  0
 17 22  1  0  0  0  0
 18 19  1  6  0  0  0
 18 20  1  0  0  0  0
 19  3  1  0  0  0  0
 20 13  1  1  0  0  0
 20 21  1  0  0  0  0
 21 15  1  6  0  0  0
 21 22  1  0  0  0  0
 22  6  1  1  0  0  0
M  END
>  <CHROM.1>
83.40937383,72.00034828,165.57111605,21.86065639,14.50670987,37.43898101
-0.84696148,0.08155861,2.29999812

>  <Name>
2et8_lig

>  <RI>
0

>  <Rbt.Current_Directory>
/home/itssahil/PROJECTS/Mol_Feturizer/New_Systems/rnas/2et8

>  <Rbt.Executable>
rbdock ($Id: //depot/dev/client3/rdock/2013.1/src/exe/rbdock.cxx#4 $)

>  <Rbt.Library>
libRbt.so (2013.1, Build901 2013/11/27)

>  <Rbt.Parameter_File>
/export/apps/rDock/src/rDock_2013.1_src/data/scripts/dock_solv.prm

>  <Rbt.Receptor>
prm/pocket_docking_2.prm

>  <SCORE>
-15.5835

>  <SCORE.INTER>
-14.962

>  <SCORE.INTER.CONST>
1

>  <SCORE.INTER.POLAR>
-0.959166

>  <SCORE.INTER.ROT>
3

>  <SCORE.INTER.SOLV>
16.3601

>  <SCORE.INTER.VDW>
-17.8308

>  <SCORE.INTER.norm>
-0.680089

>  <SCORE.INTRA>
-0.621488

>  <SCORE.INTRA.DIHEDRAL>
-1.10443

>  <SCORE.INTRA.DIHEDRAL.0>
4.99603

>  <SCORE.INTRA.POLAR>
0

>  <SCORE.INTRA.POLAR.0>
0

>  <SCORE.INTRA.REPUL>
0

>  <SCORE.INTRA.REPUL.0>
0

>  <SCORE.INTRA.SOLV>
1.09876

>  <SCORE.INTRA.SOLV.lig_0>
-74.884

>  <SCORE.INTRA.VDW>
-0.618648

>  <SCORE.INTRA.VDW.0>
-0.858933

>  <SCORE.INTRA.norm>
-0.0282495

>  <SCORE.RESTR>
0

>  <SCORE.RESTR.CAVITY>
0

>  <SCORE.RESTR.norm>
0

>  <SCORE.SYSTEM>
0

>  <SCORE.SYSTEM.CONST>
0

>  <SCORE.SYSTEM.DIHEDRAL>
0

>  <SCORE.SYSTEM.SOLV>
0

>  <SCORE.SYSTEM.norm>
0

>  <SCORE.heavy>
22

>  <SCORE.norm>
-0.708339

>  <RMSD>
0.600

$$$$
2et8_lig
 OpenBabel11021811433D
libRbt.so/2013.1/901 2013/11/27
 22 23  0  0  0  0  0  0  0  0999 V2000
   26.3640   17.1559   35.4715 N   0  0  0  0  0  0  0  0  0  0  0  0
   23.8643   14.9244   39.1293 N   0  0  0  0  0  0  0  0  0  0  0  0
   22.1288   10.9416   40.5944 N   0  0  0  0  0  0  0  0  0  0  0  0
   21.8158   15.4144   34.6919 O   0  0  0  0  0  0  0  0  0  0  0  0
   22.6715   16.0251   35.6891 C   0  0  2  0  0  0  0  0  0  0  0  0
   18.6424   15.3603   37.0868 N   0  0  0  0  0  0  0  0  0  0  0  0
   24.0313   17.1375   33.9236 O   0  0  0  0  0  0  0  0  0  0  0  0
   24.0984   16.2787   35.0690 C   0  0  1  0  0  0  0  0  0  0  0  0
   21.5635   14.8746   37.4496 O   0  0  0  0  0  0  0  0  0  0  0  0
   25.0093   16.9283   36.0815 C   0  0  1  0  0  0  0  0  0  0  0  0
   21.2431   12.5987   37.3082 O   0  0  0  0  0  0  0  0  0  0  0  0
   25.1177   16.0170   37.3256 C   0  0  0  0  0  0  0  0  0  0  0  0
   19.7653   12.3245   40.6341 O   0  0  0  0  0  0  0  0  0  0  0  0
   23.6871   15.8170   37.9059 C   0  0  1  0  0  0  0  0  0  0  0  0
   17.8371   13.9066   39.3628 O   0  0  0  0  0  0  0  0  0  0  0  0
   22.8227   15.0667   36.9365 C   0  0  2  0  0  0  0  0  0  0  0  0
   20.6900   13.9568   36.8783 C   0  0  1  0  0  0  0  0  0  0  0  0
   21.2111   12.3935   38.7888 C   0  0  2  0  0  0  0  0  0  0  0  0
   21.7545   10.9968   39.1552 C   0  0  0  0  0  0  0  0  0  0  0  0
   19.7910   12.5013   39.2585 C   0  0  2  0  0  0  0  0  0  0  0  0
   19.2000   13.8387   38.9189 C   0  0  1  0  0  0  0  0  0  0  0  0
   19.2425   14.0240   37.4409 C   0  0  1  0  0  0  0  0  0  0  0  0
  5  4  1  6  0  0  0
  5  8  1  0  0  0  0
  5 16  1  0  0  0  0
  8  7  1  6  0  0  0
  8 10  1  0  0  0  0
 10  1  1  6  0  0  0
 10 12  1  0  0  0  0
 11 18  1  0  0  0  0
 12 14  1  0  0  0  0
 14  2  1  1  0  0  0
 14 16  1  0  0  0  0
 16  9  1  1  0  0  0
 17  9  1  1  0  0  0
 17 11  1  0  0  0  0
 17 22  1  0  0  0  0
 18 19  1  6  0  0  0
 18 20  1  0  0  0  0
 19  3  1  0  0  0  0
 20 13  1  1  0  0  0
 20 21  1  0  0  0  0
 21 15  1  6  0  0  0
 21 22  1  0  0  0  0
 22  6  1  1  0  0  0
M  END
>  <CHROM.1>
80.55340364,74.07967536,162.07389236,21.90291031,14.46590896,37.50062597
-0.86668094,0.08829481,2.30383915

>  <Name>
2et8_lig

>  <RI>
0

>  <Rbt.Current_Directory>
/home/itssahil/PROJECTS/Mol_Feturizer/New_Systems/rnas/2et8

>  <Rbt.Executable>
rbdock ($Id: //depot/dev/client3/rdock/2013.1/src/exe/rbdock.cxx#4 $)

>  <Rbt.Library>
libRbt.so (2013.1, Build901 2013/11/27)

>  <Rbt.Parameter_File>
/export/apps/rDock/src/rDock_2013.1_src/data/scripts/dock_solv.prm

>  <Rbt.Receptor>
prm/pocket_docking_3.prm

>  <SCORE>
-15.5578

>  <SCORE.INTER>
-14.9515

>  <SCORE.INTER.CONST>
1

>  <SCORE.INTER.POLAR>
-0.959166

>  <SCORE.INTER.ROT>
3

>  <SCORE.INTER.SOLV>
16.3842

>  <SCORE.INTER.VDW>
-17.8319

>  <SCORE.INTER.norm>
-0.679614

>  <SCORE.INTRA>
-0.606266

>  <SCORE.INTRA.DIHEDRAL>
-0.978025

>  <SCORE.INTRA.DIHEDRAL.0>
4.99603

>  <SCORE.INTRA.POLAR>
0

>  <SCORE.INTRA.POLAR.0>
0

>  <SCORE.INTRA.REPUL>
0

>  <SCORE.INTRA.REPUL.0>
0

>  <SCORE.INTRA.SOLV>
0.902771

>  <SCORE.INTRA.SOLV.lig_0>
-74.884

>  <SCORE.INTRA.VDW>
-0.568639

>  <SCORE.INTRA.VDW.0>
-0.858933

>  <SCORE.INTRA.norm>
-0.0275575

>  <SCORE.RESTR>
0

>  <SCORE.RESTR.CAVITY>
0

>  <SCORE.RESTR.norm>
0

>  <SCORE.SYSTEM>
0

>  <SCORE.SYSTEM.CONST>
0

>  <SCORE.SYSTEM.DIHEDRAL>
0

>  <SCORE.SYSTEM.SOLV>
0

>  <SCORE.SYSTEM.norm>
0

>  <SCORE.heavy>
22

>  <SCORE.norm>
-0.707172

>  <RMSD>
0.600

$$$$
2et8_lig
 OpenBabel11021811433D
libRbt.so/2013.1/901 2013/11/27
 22 23  0  0  0  0  0  0  0  0999 V2000
   26.3789   17.1243   35.5351 N   0  0  0  0  0  0  0  0  0  0  0  0
   23.7731   14.8528   39.0929 N   0  0  0  0  0  0  0  0  0  0  0  0
   21.9661   10.9849   40.5561 N   0  0  0  0  0  0  0  0  0  0  0  0
   21.7827   15.5641   34.6591 O   0  0  0  0  0  0  0  0  0  0  0  0
   22.6490   16.1110   35.6837 C   0  0  2  0  0  0  0  0  0  0  0  0
   18.5694   15.4391   37.0264 N   0  0  0  0  0  0  0  0  0  0  0  0
   24.0612   17.2375   33.9689 O   0  0  0  0  0  0  0  0  0  0  0  0
   24.0892   16.3380   35.0842 C   0  0  1  0  0  0  0  0  0  0  0  0
   21.4873   14.9383   37.3942 O   0  0  0  0  0  0  0  0  0  0  0  0
   25.0119   16.9213   36.1259 C   0  0  1  0  0  0  0  0  0  0  0  0
   21.1552   12.6640   37.2538 O   0  0  0  0  0  0  0  0  0  0  0  0
   25.0785   15.9645   37.3384 C   0  0  0  0  0  0  0  0  0  0  0  0
   19.6705   12.3999   40.5775 O   0  0  0  0  0  0  0  0  0  0  0  0
   23.6368   15.7926   37.8999 C   0  0  1  0  0  0  0  0  0  0  0  0
   17.7528   13.9914   39.3020 O   0  0  0  0  0  0  0  0  0  0  0  0
   22.7569   15.1057   36.8981 C   0  0  2  0  0  0  0  0  0  0  0  0
   20.6100   14.0247   36.8221 C   0  0  1  0  0  0  0  0  0  0  0  0
   21.1196   12.4600   38.7345 C   0  0  2  0  0  0  0  0  0  0  0  0
   21.6550   11.0607   39.1027 C   0  0  0  0  0  0  0  0  0  0  0  0
   19.6994   12.5756   39.2019 C   0  0  2  0  0  0  0  0  0  0  0  0
   19.1160   13.9159   38.8604 C   0  0  1  0  0  0  0  0  0  0  0  0
   19.1618   14.0999   37.3823 C   0  0  1  0  0  0  0  0  0  0  0  0
  5  4  1  6  0  0  0
  5  8  1  0  0  0  0
  5 16  1  0  0  0  0
  8  7  1  6  0  0  0
  8 10  1  0  0  0  0
 10  1  1  6  0  0  0
 10 12  1  0  0  0  0
 11 18  1  0  0  0  0
 12 14  1  0  0  0  0
 14  2  1  1  0  0  0
 14 16  1  0  0  0  0
 16  9  1  1  0  0  0
 17  9  1  1  0  0  0
 17 11  1  0  0  0  0
 17 22  1  0  0  0  0
 18 19  1  6  0  0  0
 18 20  1  0  0  0  0
 19  3  1  0  0  0  0
 20 13  1  1  0  0  0
 20 21  1  0  0  0  0
 21 15  1  6  0  0  0
 21 22  1  0  0  0  0
 22  6  1  1  0  0  0
M  END
>  <CHROM.1>
83.58179584,72.87158205,164.75145910,21.84064923,14.51665143,37.47303090
-0.84953564,0.08040315,2.31193591

>  <Name>
2et8_lig

>  <RI>
0

>  <Rbt.Current_Directory>
/home/itssahil/PROJECTS/Mol_Feturizer/New_Systems/rnas/2et8

>  <Rbt.Executable>
rbdock ($Id: //depot/dev/client3/rdock/2013.1/src/exe/rbdock.cxx#4 $)

>  <Rbt.Library>
libRbt.so (2013.1, Build901 2013/11/27)

>  <Rbt.Parameter_File>
/export/apps/rDock/src/rDock_2013.1_src/data/scripts/dock_solv.prm

>  <Rbt.Receptor>
prm/pocket_docking_3.prm

>  <SCORE>
-15.5704

>  <SCORE.INTER>
-15.0258

>  <SCORE.INTER.CONST>
1

>  <SCORE.INTER.POLAR>
-0.959166

>  <SCORE.INTER.ROT>
3

>  <SCORE.INTER.SOLV>
16.2129

>  <SCORE.INTER.VDW>
-17.8243

>  <SCORE.INTER.norm>
-0.682993

>  <SCORE.INTRA>
-0.544582

>  <SCORE.INTRA.DIHEDRAL>
-0.898253

>  <SCORE.INTRA.DIHEDRAL.0>
4.99603

>  <SCORE.INTRA.POLAR>
0

>  <SCORE.INTRA.POLAR.0>
0

>  <SCORE.INTRA.REPUL>
0

>  <SCORE.INTRA.REPUL.0>
0

>  <SCORE.INTRA.SOLV>
1.10941

>  <SCORE.INTRA.SOLV.lig_0>
-74.884

>  <SCORE.INTRA.VDW>
-0.650158

>  <SCORE.INTRA.VDW.0>
-0.858933

>  <SCORE.INTRA.norm>
-0.0247537

>  <SCORE.RESTR>
0

>  <SCORE.RESTR.CAVITY>
0

>  <SCORE.RESTR.norm>
0

>  <SCORE.SYSTEM>
0

>  <SCORE.SYSTEM.CONST>
0

>  <SCORE.SYSTEM.DIHEDRAL>
0

>  <SCORE.SYSTEM.SOLV>
0

>  <SCORE.SYSTEM.norm>
0

>  <SCORE.heavy>
22

>  <SCORE.norm>
-0.707747

>  <RMSD>
0.601

$$$$
2et8_lig
 OpenBabel11021811433D
libRbt.so/2013.1/901 2013/11/27
 22 23  0  0  0  0  0  0  0  0999 V2000
   26.2197   17.1839   35.2967 N   0  0  0  0  0  0  0  0  0  0  0  0
   23.8390   14.9956   39.0585 N   0  0  0  0  0  0  0  0  0  0  0  0
   22.1340   10.9303   40.5918 N   0  0  0  0  0  0  0  0  0  0  0  0
   21.6921   15.3363   34.6539 O   0  0  0  0  0  0  0  0  0  0  0  0
   22.5554   15.9878   35.6180 C   0  0  2  0  0  0  0  0  0  0  0  0
   18.5721   15.3112   37.1324 N   0  0  0  0  0  0  0  0  0  0  0  0
   23.8571   17.0823   33.7982 O   0  0  0  0  0  0  0  0  0  0  0  0
   23.9642   16.2535   34.9626 C   0  0  1  0  0  0  0  0  0  0  0  0
   21.5062   14.8601   37.4285 O   0  0  0  0  0  0  0  0  0  0  0  0
   24.8824   16.9454   35.9399 C   0  0  1  0  0  0  0  0  0  0  0  0
   21.2083   12.5800   37.3054 O   0  0  0  0  0  0  0  0  0  0  0  0
   25.0339   16.0674   37.2033 C   0  0  0  0  0  0  0  0  0  0  0  0
   19.8123   12.3059   40.6665 O   0  0  0  0  0  0  0  0  0  0  0  0
   23.6196   15.8542   37.8177 C   0  0  1  0  0  0  0  0  0  0  0  0
   17.8370   13.8600   39.4335 O   0  0  0  0  0  0  0  0  0  0  0  0
   22.7507   15.0637   36.8849 C   0  0  2  0  0  0  0  0  0  0  0  0
   20.6300   13.9297   36.8823 C   0  0  1  0  0  0  0  0  0  0  0  0
   21.2134   12.3819   38.7873 C   0  0  2  0  0  0  0  0  0  0  0  0
   21.7810   10.9932   39.1474 C   0  0  0  0  0  0  0  0  0  0  0  0
   19.8037   12.4761   39.2899 C   0  0  2  0  0  0  0  0  0  0  0  0
   19.1897   13.8052   38.9580 C   0  0  1  0  0  0  0  0  0  0  0  0
   19.1954   13.9835   37.4785 C   0  0  1  0  0  0  0  0  0  0  0  0
  5  4  1  6  0  0  0
  5  8  1  0  0  0  0
  5 16  1  0  0  0  0
  8  7  1  6  0  0  0
  8 10  1  0  0  0  0
 10  1  1  6  0  0  0
 10 12  1  0  0  0  0
 11 18  1  0  0  0  0
 12 14  1  0  0  0  0
 14  2  1  1  0  0  0
 14 16  1  0  0  0  0
 16  9  1  1  0  0  0
 17  9  1  1  0  0  0
 17 11  1  0  0  0  0
 17 22  1  0  0  0  0
 18 19  1  6  0  0  0
 18 20  1  0  0  0  0
 19  3  1  0  0  0  0
 20 13  1  1  0  0  0
 20 21  1  0  0  0  0
 21 15  1  6  0  0  0
 21 22  1  0  0  0  0
 22  6  1  1  0  0  0
M  END
>  <CHROM.1>
79.31924533,74.07914541,164.56311104,21.84605385,14.45156086,37.46665027
-0.89306287,0.08352803,2.29490251

>  <Name>
2et8_lig

>  <RI>
3.42619e+07

>  <Rbt.Current_Directory>
/home/itssahil/PROJECTS/Mol_Feturizer/New_Systems/rnas/2et8

>  <Rbt.Executable>
rbdock ($Id: //depot/dev/client3/rdock/2013.1/src/exe/rbdock.cxx#4 $)

>  <Rbt.Library>
libRbt.so (2013.1, Build901 2013/11/27)

>  <Rbt.Parameter_File>
/export/apps/rDock/src/rDock_2013.1_src/data/scripts/dock_solv.prm

>  <Rbt.Receptor>
prm/pocket_docking_4.prm

>  <SCORE>
-15.5835

>  <SCORE.INTER>
-14.8671

>  <SCORE.INTER.CONST>
1

>  <SCORE.INTER.POLAR>
-0.959166

>  <SCORE.INTER.ROT>
3

>  <SCORE.INTER.SOLV>
16.4757

>  <SCORE.INTER.VDW>
-17.8061

>  <SCORE.INTER.norm>
-0.675779

>  <SCORE.INTRA>
-0.716382

>  <SCORE.INTRA.DIHEDRAL>
-1.43616

>  <SCORE.INTRA.DIHEDRAL.0>
4.99603

>  <SCORE.INTRA.POLAR>
0

>  <SCORE.INTRA.POLAR.0>
0

>  <SCORE.INTRA.REPUL>
0

>  <SCORE.INTRA.REPUL.0>
0

>  <SCORE.INTRA.SOLV>
0.894167

>  <SCORE.INTRA.SOLV.lig_0>
-74.884

>  <SCORE.INTRA.VDW>
-0.445384

>  <SCORE.INTRA.VDW.0>
-0.858933

>  <SCORE.INTRA.norm>
-0.0325628

>  <SCORE.RESTR>
0

>  <SCORE.RESTR.CAVITY>
0

>  <SCORE.RESTR.norm>
0

>  <SCORE.SYSTEM>
0

>  <SCORE.SYSTEM.CONST>
0

>  <SCORE.SYSTEM.DIHEDRAL>
0

>  <SCORE.SYSTEM.SOLV>
0

>  <SCORE.SYSTEM.norm>
0

>  <SCORE.heavy>
22

>  <SCORE.norm>
-0.708342

>  <RMSD>
0.602

$$$$
2et8_lig
 OpenBabel11021811433D
libRbt.so/2013.1/901 2013/11/27
 22 23  0  0  0  0  0  0  0  0999 V2000
   26.4750   17.0498   35.5582 N   0  0  0  0  0  0  0  0  0  0  0  0
   23.7836   14.8848   39.1187 N   0  0  0  0  0  0  0  0  0  0  0  0
   22.0301   10.9976   40.5224 N   0  0  0  0  0  0  0  0  0  0  0  0
   21.8870   15.4961   34.6292 O   0  0  0  0  0  0  0  0  0  0  0  0
   22.7362   16.0634   35.6570 C   0  0  2  0  0  0  0  0  0  0  0  0
   18.6184   15.4515   36.9909 N   0  0  0  0  0  0  0  0  0  0  0  0
   24.1898   17.1376   33.9432 O   0  0  0  0  0  0  0  0  0  0  0  0
   24.1896   16.2663   35.0812 C   0  0  1  0  0  0  0  0  0  0  0  0
   21.5329   14.9413   37.3727 O   0  0  0  0  0  0  0  0  0  0  0  0
   25.0951   16.8702   36.1263 C   0  0  1  0  0  0  0  0  0  0  0  0
   21.1945   12.6682   37.2278 O   0  0  0  0  0  0  0  0  0  0  0  0
   25.1312   15.9439   37.3635 C   0  0  0  0  0  0  0  0  0  0  0  0
   19.6926   12.4047   40.5438 O   0  0  0  0  0  0  0  0  0  0  0  0
   23.6775   15.7950   37.9000 C   0  0  1  0  0  0  0  0  0  0  0  0
   17.7861   14.0035   39.2607 O   0  0  0  0  0  0  0  0  0  0  0  0
   22.8132   15.0884   36.8983 C   0  0  2  0  0  0  0  0  0  0  0  0
   20.6556   14.0311   36.7951 C   0  0  1  0  0  0  0  0  0  0  0  0
   21.1510   12.4625   38.7081 C   0  0  2  0  0  0  0  0  0  0  0  0
   21.6803   11.0612   39.0773 C   0  0  0  0  0  0  0  0  0  0  0  0
   19.7289   12.5819   39.1686 C   0  0  2  0  0  0  0  0  0  0  0  0
   19.1512   13.9244   38.8258 C   0  0  1  0  0  0  0  0  0  0  0  0
   19.2050   14.1100   37.3482 C   0  0  1  0  0  0  0  0  0  0  0  0
  5  4  1  6  0  0  0
  5  8  1  0  0  0  0
  5 16  1  0  0  0  0
  8  7  1  6  0  0  0
  8 10  1  0  0  0  0
 10  1  1  6  0  0  0
 10 12  1  0  0  0  0
 11 18  1  0  0  0  0
 12 14  1  0  0  0  0
 14  2  1  1  0  0  0
 14 16  1  0  0  0  0
 16  9  1  1  0  0  0
 17  9  1  1  0  0  0
 17 11  1  0  0  0  0
 17 22  1  0  0  0  0
 18 19  1  6  0  0  0
 18 20  1  0  0  0  0
 19  3  1  0  0  0  0
 20 13  1  1  0  0  0
 20 21  1  0  0  0  0
 21 15  1  6  0  0  0
 21 22  1  0  0  0  0
 22  6  1  1  0  0  0
M  END
>  <CHROM.1>
82.74872865,71.69907051,162.71938640,21.89652480,14.50118574,37.45517101
-0.83350059,0.08223090,2.30269955

>  <Name>
2et8_lig

>  <RI>
0

>  <Rbt.Current_Directory>
/home/itssahil/PROJECTS/Mol_Feturizer/New_Systems/rnas/2et8

>  <Rbt.Executable>
rbdock ($Id: //depot/dev/client3/rdock/2013.1/src/exe/rbdock.cxx#4 $)

>  <Rbt.Library>
libRbt.so (2013.1, Build901 2013/11/27)

>  <Rbt.Parameter_File>
/export/apps/rDock/src/rDock_2013.1_src/data/scripts/dock_solv.prm

>  <Rbt.Receptor>
prm/pocket_docking_2.prm

>  <SCORE>
-15.6086

>  <SCORE.INTER>
-14.9672

>  <SCORE.INTER.CONST>
1

>  <SCORE.INTER.POLAR>
-0.959166

>  <SCORE.INTER.ROT>
3

>  <SCORE.INTER.SOLV>
16.4549

>  <SCORE.INTER.VDW>
-17.8659

>  <SCORE.INTER.norm>
-0.680328

>  <SCORE.INTRA>
-0.641381

>  <SCORE.INTRA.DIHEDRAL>
-0.959372

>  <SCORE.INTRA.DIHEDRAL.0>
4.99603

>  <SCORE.INTRA.POLAR>
0

>  <SCORE.INTRA.POLAR.0>
0

>  <SCORE.INTRA.REPUL>
0

>  <SCORE.INTRA.REPUL.0>
0

>  <SCORE.INTRA.SOLV>
0.983982

>  <SCORE.INTRA.SOLV.lig_0>
-74.884

>  <SCORE.INTRA.VDW>
-0.653686

>  <SCORE.INTRA.VDW.0>
-0.858933

>  <SCORE.INTRA.norm>
-0.0291537

>  <SCORE.RESTR>
0

>  <SCORE.RESTR.CAVITY>
0

>  <SCORE.RESTR.norm>
0

>  <SCORE.SYSTEM>
0

>  <SCORE.SYSTEM.CONST>
0

>  <SCORE.SYSTEM.DIHEDRAL>
0

>  <SCORE.SYSTEM.SOLV>
0

>  <SCORE.SYSTEM.norm>
0

>  <SCORE.heavy>
22

>  <SCORE.norm>
-0.709482

>  <RMSD>
0.607

$$$$
2et8_lig
 OpenBabel11021811433D
libRbt.so/2013.1/901 2013/11/27
 22 23  0  0  0  0  0  0  0  0999 V2000
   26.4650   17.0390   35.5506 N   0  0  0  0  0  0  0  0  0  0  0  0
   23.7842   14.8379   39.0969 N   0  0  0  0  0  0  0  0  0  0  0  0
   22.0439   10.9654   40.4616 N   0  0  0  0  0  0  0  0  0  0  0  0
   21.8584   15.5350   34.6324 O   0  0  0  0  0  0  0  0  0  0  0  0
   22.7197   16.0794   35.6626 C   0  0  2  0  0  0  0  0  0  0  0  0
   18.6074   15.4732   37.0130 N   0  0  0  0  0  0  0  0  0  0  0  0
   24.1685   17.1698   33.9549 O   0  0  0  0  0  0  0  0  0  0  0  0
   24.1701   16.2805   35.0788 C   0  0  1  0  0  0  0  0  0  0  0  0
   21.5208   14.9393   37.3694 O   0  0  0  0  0  0  0  0  0  0  0  0
   25.0882   16.8607   36.1264 C   0  0  1  0  0  0  0  0  0  0  0  0
   21.1662   12.6703   37.2002 O   0  0  0  0  0  0  0  0  0  0  0  0
   25.1265   15.9146   37.3484 C   0  0  0  0  0  0  0  0  0  0  0  0
   19.6843   12.3778   40.5228 O   0  0  0  0  0  0  0  0  0  0  0  0
   23.6758   15.7682   37.8937 C   0  0  1  0  0  0  0  0  0  0  0  0
   17.7802   14.0042   39.2712 O   0  0  0  0  0  0  0  0  0  0  0  0
   22.7985   15.0842   36.8875 C   0  0  2  0  0  0  0  0  0  0  0  0
   20.6336   14.0418   36.7871 C   0  0  1  0  0  0  0  0  0  0  0  0
   21.1310   12.4476   38.6782 C   0  0  2  0  0  0  0  0  0  0  0  0
   21.6533   11.0385   39.0274 C   0  0  0  0  0  0  0  0  0  0  0  0
   19.7128   12.5710   39.1495 C   0  0  2  0  0  0  0  0  0  0  0  0
   19.1419   13.9212   38.8263 C   0  0  1  0  0  0  0  0  0  0  0  0
   19.1872   14.1238   37.3507 C   0  0  1  0  0  0  0  0  0  0  0  0
  5  4  1  6  0  0  0
  5  8  1  0  0  0  0
  5 16  1  0  0  0  0
  8  7  1  6  0  0  0
  8 10  1  0  0  0  0
 10  1  1  6  0  0  0
 10 12  1  0  0  0  0
 11 18  1  0  0  0  0
 12 14  1  0  0  0  0
 14  2  1  1  0  0  0
 14 16  1  0  0  0  0
 16  9  1  1  0  0  0
 17  9  1  1  0  0  0
 17 11  1  0  0  0  0
 17 22  1  0  0  0  0
 18 19  1  6  0  0  0
 18 20  1  0  0  0  0
 19  3  1  0  0  0  0
 20 13  1  1  0  0  0
 20 21  1  0  0  0  0
 21 15  1  6  0  0  0
 21 22  1  0  0  0  0
 22  6  1  1  0  0  0
M  END
>  <CHROM.1>
82.96908483,71.75348116,161.31249059,21.88333935,14.49745019,37.44494920
-0.83389730,0.07229051,2.31594792

>  <Name>
2et8_lig

>  <RI>
0

>  <Rbt.Current_Directory>
/home/itssahil/PROJECTS/Mol_Feturizer/New_Systems/rnas/2et8

>  <Rbt.Executable>
rbdock ($Id: //depot/dev/client3/rdock/2013.1/src/exe/rbdock.cxx#4 $)

>  <Rbt.Library>
libRbt.so (2013.1, Build901 2013/11/27)

>  <Rbt.Parameter_File>
/export/apps/rDock/src/rDock_2013.1_src/data/scripts/dock_solv.prm

>  <Rbt.Receptor>
prm/pocket_docking_2.prm

>  <SCORE>
-15.5349

>  <SCORE.INTER>
-14.9485

>  <SCORE.INTER.CONST>
1

>  <SCORE.INTER.POLAR>
-0.959166

>  <SCORE.INTER.ROT>
3

>  <SCORE.INTER.SOLV>
16.5645

>  <SCORE.INTER.VDW>
-17.8899

>  <SCORE.INTER.norm>
-0.679478

>  <SCORE.INTRA>
-0.586348

>  <SCORE.INTRA.DIHEDRAL>
-0.759128

>  <SCORE.INTRA.DIHEDRAL.0>
4.99603

>  <SCORE.INTRA.POLAR>
0

>  <SCORE.INTRA.POLAR.0>
0

>  <SCORE.INTRA.REPUL>
0

>  <SCORE.INTRA.REPUL.0>
0

>  <SCORE.INTRA.SOLV>
0.963051

>  <SCORE.INTRA.SOLV.lig_0>
-74.884

>  <SCORE.INTRA.VDW>
-0.688309

>  <SCORE.INTRA.VDW.0>
-0.858933

>  <SCORE.INTRA.norm>
-0.0266522

>  <SCORE.RESTR>
0

>  <SCORE.RESTR.CAVITY>
0

>  <SCORE.RESTR.norm>
0

>  <SCORE.SYSTEM>
0

>  <SCORE.SYSTEM.CONST>
0

>  <SCORE.SYSTEM.DIHEDRAL>
0

>  <SCORE.SYSTEM.SOLV>
0

>  <SCORE.SYSTEM.norm>
0

>  <SCORE.heavy>
22

>  <SCORE.norm>
-0.70613

>  <RMSD>
0.607

$$$$
2et8_lig
 OpenBabel11021811433D
libRbt.so/2013.1/901 2013/11/27
 22 23  0  0  0  0  0  0  0  0999 V2000
   26.4964   17.0717   35.5741 N   0  0  0  0  0  0  0  0  0  0  0  0
   23.8257   14.8846   39.1367 N   0  0  0  0  0  0  0  0  0  0  0  0
   22.0097   10.9947   40.5823 N   0  0  0  0  0  0  0  0  0  0  0  0
   21.9134   15.4983   34.6542 O   0  0  0  0  0  0  0  0  0  0  0  0
   22.7628   16.0670   35.6811 C   0  0  2  0  0  0  0  0  0  0  0  0
   18.6564   15.4393   37.0000 N   0  0  0  0  0  0  0  0  0  0  0  0
   24.2063   17.1526   33.9660 O   0  0  0  0  0  0  0  0  0  0  0  0
   24.2135   16.2784   35.1016 C   0  0  1  0  0  0  0  0  0  0  0  0
   21.5698   14.9347   37.3973 O   0  0  0  0  0  0  0  0  0  0  0  0
   25.1191   16.8839   36.1457 C   0  0  1  0  0  0  0  0  0  0  0  0
   21.2346   12.6604   37.2644 O   0  0  0  0  0  0  0  0  0  0  0  0
   25.1632   15.9546   37.3804 C   0  0  0  0  0  0  0  0  0  0  0  0
   19.7187   12.4147   40.5755 O   0  0  0  0  0  0  0  0  0  0  0  0
   23.7117   15.7974   37.9207 C   0  0  1  0  0  0  0  0  0  0  0  0
   17.8159   14.0037   39.2747 O   0  0  0  0  0  0  0  0  0  0  0  0
   22.8480   15.0892   36.9196 C   0  0  2  0  0  0  0  0  0  0  0  0
   20.6960   14.0201   36.8214 C   0  0  1  0  0  0  0  0  0  0  0  0
   21.1849   12.4634   38.7457 C   0  0  2  0  0  0  0  0  0  0  0  0
   21.7143   11.0649   39.1254 C   0  0  0  0  0  0  0  0  0  0  0  0
   19.7607   12.5839   39.1993 C   0  0  2  0  0  0  0  0  0  0  0  0
   19.1830   13.9237   38.8461 C   0  0  1  0  0  0  0  0  0  0  0  0
   19.2429   14.1006   37.3677 C   0  0  1  0  0  0  0  0  0  0  0  0
  5  4  1  6  0  0  0
  5  8  1  0  0  0  0
  5 16  1  0  0  0  0
  8  7  1  6  0  0  0
  8 10  1  0  0  0  0
 10  1  1  6  0  0  0
 10 12  1  0  0  0  0
 11 18  1  0  0  0  0
 12 14  1  0  0  0  0
 14  2  1  1  0  0  0
 14 16  1  0  0  0  0
 16  9  1  1  0  0  0
 17  9  1  1  0  0  0
 17 11  1  0  0  0  0
 17 22  1  0  0  0  0
 18 19  1  6  0  0  0
 18 20  1  0  0  0  0
 19  3  1  0  0  0  0
 20 13  1  1  0  0  0
 20 21  1  0  0  0  0
 21 15  1  6  0  0  0
 21 22  1  0  0  0  0
 22  6  1  1  0  0  0
M  END
>  <CHROM.1>
82.86310667,72.30374204,164.83908410,21.92562942,14.50341619,37.48082010
-0.83683307,0.08628089,2.30006116

>  <Name>
2et8_lig

>  <RI>
0

>  <Rbt.Current_Directory>
/home/itssahil/PROJECTS/Mol_Feturizer/New_Systems/rnas/2et8

>  <Rbt.Executable>
rbdock ($Id: //depot/dev/client3/rdock/2013.1/src/exe/rbdock.cxx#4 $)

>  <Rbt.Library>
libRbt.so (2013.1, Build901 2013/11/27)

>  <Rbt.Parameter_File>
/export/apps/rDock/src/rDock_2013.1_src/data/scripts/dock_solv.prm

>  <Rbt.Receptor>
prm/pocket_docking_3.prm

>  <SCORE>
-15.6022

>  <SCORE.INTER>
-14.9672

>  <SCORE.INTER.CONST>
1

>  <SCORE.INTER.POLAR>
-0.959166

>  <SCORE.INTER.ROT>
3

>  <SCORE.INTER.SOLV>
16.4176

>  <SCORE.INTER.VDW>
-17.8534

>  <SCORE.INTER.norm>
-0.680325

>  <SCORE.INTRA>
-0.635062

>  <SCORE.INTRA.DIHEDRAL>
-1.09405

>  <SCORE.INTRA.DIHEDRAL.0>
4.99603

>  <SCORE.INTRA.POLAR>
0

>  <SCORE.INTRA.POLAR.0>
0

>  <SCORE.INTRA.REPUL>
0

>  <SCORE.INTRA.REPUL.0>
0

>  <SCORE.INTRA.SOLV>
1.05742

>  <SCORE.INTRA.SOLV.lig_0>
-74.884

>  <SCORE.INTRA.VDW>
-0.61675

>  <SCORE.INTRA.VDW.0>
-0.858933

>  <SCORE.INTRA.norm>
-0.0288665

>  <SCORE.RESTR>
0

>  <SCORE.RESTR.CAVITY>
0

>  <SCORE.RESTR.norm>
0

>  <SCORE.SYSTEM>
0

>  <SCORE.SYSTEM.CONST>
0

>  <SCORE.SYSTEM.DIHEDRAL>
0

>  <SCORE.SYSTEM.SOLV>
0

>  <SCORE.SYSTEM.norm>
0

>  <SCORE.heavy>
22

>  <SCORE.norm>
-0.709192

>  <RMSD>
0.608

$$$$
2et8_lig
 OpenBabel11021811433D
libRbt.so/2013.1/901 2013/11/27
 22 23  0  0  0  0  0  0  0  0999 V2000
   26.1876   17.1990   35.2822 N   0  0  0  0  0  0  0  0  0  0  0  0
   23.8002   14.9969   39.0318 N   0  0  0  0  0  0  0  0  0  0  0  0
   22.1212   10.9592   40.5900 N   0  0  0  0  0  0  0  0  0  0  0  0
   21.6637   15.3479   34.6229 O   0  0  0  0  0  0  0  0  0  0  0  0
   22.5239   15.9976   35.5911 C   0  0  2  0  0  0  0  0  0  0  0  0
   18.5340   15.2864   37.0924 N   0  0  0  0  0  0  0  0  0  0  0  0
   23.8288   17.0989   33.7777 O   0  0  0  0  0  0  0  0  0  0  0  0
   23.9340   16.2669   34.9399 C   0  0  1  0  0  0  0  0  0  0  0  0
   21.4715   14.8634   37.3957 O   0  0  0  0  0  0  0  0  0  0  0  0
   24.8490   16.9570   35.9215 C   0  0  1  0  0  0  0  0  0  0  0  0
   21.1940   12.5800   37.2886 O   0  0  0  0  0  0  0  0  0  0  0  0
   24.9984   16.0755   37.1827 C   0  0  0  0  0  0  0  0  0  0  0  0
   19.7958   12.3178   40.6498 O   0  0  0  0  0  0  0  0  0  0  0  0
   23.5828   15.8588   37.7930 C   0  0  1  0  0  0  0  0  0  0  0  0
   17.8086   13.8455   39.4030 O   0  0  0  0  0  0  0  0  0  0  0  0
   22.7172   15.0700   36.8558 C   0  0  2  0  0  0  0  0  0  0  0  0
   20.6043   13.9214   36.8550 C   0  0  1  0  0  0  0  0  0  0  0  0
   21.1988   12.3926   38.7720 C   0  0  2  0  0  0  0  0  0  0  0  0
   21.7781   11.0116   39.1428 C   0  0  0  0  0  0  0  0  0  0  0  0
   19.7876   12.4780   39.2720 C   0  0  2  0  0  0  0  0  0  0  0  0
   19.1624   13.7991   38.9296 C   0  0  1  0  0  0  0  0  0  0  0  0
   19.1685   13.9668   37.4490 C   0  0  1  0  0  0  0  0  0  0  0  0
  5  4  1  6  0  0  0
  5  8  1  0  0  0  0
  5 16  1  0  0  0  0
  8  7  1  6  0  0  0
  8 10  1  0  0  0  0
 10  1  1  6  0  0  0
 10 12  1  0  0  0  0
 11 18  1  0  0  0  0
 12 14  1  0  0  0  0
 14  2  1  1  0  0  0
 14 16  1  0  0  0  0
 16  9  1  1  0  0  0
 17  9  1  1  0  0  0
 17 11  1  0  0  0  0
 17 22  1  0  0  0  0
 18 19  1  6  0  0  0
 18 20  1  0  0  0  0
 19  3  1  0  0  0  0
 20 13  1  1  0  0  0
 20 21  1  0  0  0  0
 21 15  1  6  0  0  0
 21 22  1  0  0  0  0
 22  6  1  1  0  0  0
M  END
>  <CHROM.1>
80.15349081,73.79922088,164.93975578,21.81947474,14.45631964,37.44402686
-0.89494604,0.08954049,2.29079434

>  <Name>
2et8_lig

>  <RI>
3.42619e+07

>  <Rbt.Current_Directory>
/home/itssahil/PROJECTS/Mol_Feturizer/New_Systems/rnas/2et8

>  <Rbt.Executable>
rbdock ($Id: //depot/dev/client3/rdock/2013.1/src/exe/rbdock.cxx#4 $)

>  <Rbt.Library>
libRbt.so (2013.1, Build901 2013/11/27)

>  <Rbt.Parameter_File>
/export/apps/rDock/src/rDock_2013.1_src/data/scripts/dock_solv.prm

>  <Rbt.Receptor>
prm/pocket_docking_4.prm

>  <SCORE>
-15.5915

>  <SCORE.INTER>
-14.8855

>  <SCORE.INTER.CONST>
1

>  <SCORE.INTER.POLAR>
-0.959166

>  <SCORE.INTER.ROT>
3

>  <SCORE.INTER.SOLV>
16.3482

>  <SCORE.INTER.VDW>
-17.7758

>  <SCORE.INTER.norm>
-0.676614

>  <SCORE.INTRA>
-0.706013

>  <SCORE.INTRA.DIHEDRAL>
-1.37679

>  <SCORE.INTRA.DIHEDRAL.0>
4.99603

>  <SCORE.INTRA.POLAR>
0

>  <SCORE.INTRA.POLAR.0>
0

>  <SCORE.INTRA.REPUL>
0

>  <SCORE.INTRA.REPUL.0>
0

>  <SCORE.INTRA.SOLV>
0.943723

>  <SCORE.INTRA.SOLV.lig_0>
-74.884

>  <SCORE.INTRA.VDW>
-0.489477

>  <SCORE.INTRA.VDW.0>
-0.858933

>  <SCORE.INTRA.norm>
-0.0320915

>  <SCORE.RESTR>
0

>  <SCORE.RESTR.CAVITY>
0

>  <SCORE.RESTR.norm>
0

>  <SCORE.SYSTEM>
0

>  <SCORE.SYSTEM.CONST>
0

>  <SCORE.SYSTEM.DIHEDRAL>
0

>  <SCORE.SYSTEM.SOLV>
0

>  <SCORE.SYSTEM.norm>
0

>  <SCORE.heavy>
22

>  <SCORE.norm>
-0.708706

>  <RMSD>
0.608

$$$$
2et8_lig
 OpenBabel11021811433D
libRbt.so/2013.1/901 2013/11/27
 22 23  0  0  0  0  0  0  0  0999 V2000
   26.2181   17.1802   35.3048 N   0  0  0  0  0  0  0  0  0  0  0  0
   23.8224   14.9776   39.0486 N   0  0  0  0  0  0  0  0  0  0  0  0
   22.1304   10.9574   40.6142 N   0  0  0  0  0  0  0  0  0  0  0  0
   21.6909   15.3400   34.6382 O   0  0  0  0  0  0  0  0  0  0  0  0
   22.5516   15.9864   35.6082 C   0  0  2  0  0  0  0  0  0  0  0  0
   18.5601   15.2833   37.0938 N   0  0  0  0  0  0  0  0  0  0  0  0
   23.8606   17.0877   33.7978 O   0  0  0  0  0  0  0  0  0  0  0  0
   23.9629   16.2536   34.9588 C   0  0  1  0  0  0  0  0  0  0  0  0
   21.4950   14.8517   37.4100 O   0  0  0  0  0  0  0  0  0  0  0  0
   24.8784   16.9402   35.9423 C   0  0  1  0  0  0  0  0  0  0  0  0
   21.2106   12.5689   37.3076 O   0  0  0  0  0  0  0  0  0  0  0  0
   25.0247   16.0564   37.2023 C   0  0  0  0  0  0  0  0  0  0  0  0
   19.7980   12.3196   40.6637 O   0  0  0  0  0  0  0  0  0  0  0  0
   23.6080   15.8419   37.8109 C   0  0  1  0  0  0  0  0  0  0  0  0
   17.8207   13.8504   39.4050 O   0  0  0  0  0  0  0  0  0  0  0  0
   22.7416   15.0564   36.8716 C   0  0  2  0  0  0  0  0  0  0  0  0
   20.6270   13.9111   36.8682 C   0  0  1  0  0  0  0  0  0  0  0  0
   21.2088   12.3852   38.7914 C   0  0  2  0  0  0  0  0  0  0  0  0
   21.7823   11.0033   39.1680 C   0  0  0  0  0  0  0  0  0  0  0  0
   19.7959   12.4763   39.2855 C   0  0  2  0  0  0  0  0  0  0  0  0
   19.1763   13.7986   38.9373 C   0  0  1  0  0  0  0  0  0  0  0  0
   19.1889   13.9625   37.4562 C   0  0  1  0  0  0  0  0  0  0  0  0
  5  4  1  6  0  0  0
  5  8  1  0  0  0  0
  5 16  1  0  0  0  0
  8  7  1  6  0  0  0
  8 10  1  0  0  0  0
 10  1  1  6  0  0  0
 10 12  1  0  0  0  0
 11 18  1  0  0  0  0
 12 14  1  0  0  0  0
 14  2  1  1  0  0  0
 14 16  1  0  0  0  0
 16  9  1  1  0  0  0
 17  9  1  1  0  0  0
 17 11  1  0  0  0  0
 17 22  1  0  0  0  0
 18 19  1  6  0  0  0
 18 20  1  0  0  0  0
 19  3  1  0  0  0  0
 20 13  1  1  0  0  0
 20 21  1  0  0  0  0
 21 15  1  6  0  0  0
 21 22  1  0  0  0  0
 22  6  1  1  0  0  0
M  END
>  <CHROM.1>
80.24459552,74.03985163,164.44644434,21.83952618,14.44729505,37.45972245
-0.89178948,0.08966239,2.28947195

>  <Name>
2et8_lig

>  <RI>
3.42619e+07

>  <Rbt.Current_Directory>
/home/itssahil/PROJECTS/Mol_Feturizer/New_Systems/rnas/2et8

>  <Rbt.Executable>
rbdock ($Id: //depot/dev/client3/rdock/2013.1/src/exe/rbdock.cxx#4 $)

>  <Rbt.Library>
libRbt.so (2013.1, Build901 2013/11/27)

>  <Rbt.Parameter_File>
/export/apps/rDock/src/rDock_2013.1_src/data/scripts/dock_solv.prm

>  <Rbt.Receptor>
prm/pocket_docking_4.prm

>  <SCORE>
-15.5993

>  <SCORE.INTER>
-14.9223

>  <SCORE.INTER.CONST>
1

>  <SCORE.INTER.POLAR>
-0.959166

>  <SCORE.INTER.ROT>
3

>  <SCORE.INTER.SOLV>
16.3931

>  <SCORE.INTER.VDW>
-17.8154

>  <SCORE.INTER.norm>
-0.678287

>  <SCORE.INTRA>
-0.676933

>  <SCORE.INTRA.DIHEDRAL>
-1.28389

>  <SCORE.INTRA.DIHEDRAL.0>
4.99603

>  <SCORE.INTRA.POLAR>
0

>  <SCORE.INTRA.POLAR.0>
0

>  <SCORE.INTRA.REPUL>
0

>  <SCORE.INTRA.REPUL.0>
0

>  <SCORE.INTRA.SOLV>
0.942769

>  <SCORE.INTRA.SOLV.lig_0>
-74.884

>  <SCORE.INTRA.VDW>
-0.506373

>  <SCORE.INTRA.VDW.0>
-0.858933

>  <SCORE.INTRA.norm>
-0.0307697

>  <SCORE.RESTR>
0

>  <SCORE.RESTR.CAVITY>
0

>  <SCORE.RESTR.norm>
0

>  <SCORE.SYSTEM>
0

>  <SCORE.SYSTEM.CONST>
0

>  <SCORE.SYSTEM.DIHEDRAL>
0

>  <SCORE.SYSTEM.SOLV>
0

>  <SCORE.SYSTEM.norm>
0

>  <SCORE.heavy>
22

>  <SCORE.norm>
-0.709057

>  <RMSD>
0.609

$$$$
2et8_lig
 OpenBabel11021811433D
libRbt.so/2013.1/901 2013/11/27
 22 23  0  0  0  0  0  0  0  0999 V2000
   26.2673   17.1535   35.3729 N   0  0  0  0  0  0  0  0  0  0  0  0
   23.8074   14.9170   39.0546 N   0  0  0  0  0  0  0  0  0  0  0  0
   22.1139   10.9553   40.5802 N   0  0  0  0  0  0  0  0  0  0  0  0
   21.7108   15.4132   34.6405 O   0  0  0  0  0  0  0  0  0  0  0  0
   22.5773   16.0225   35.6291 C   0  0  2  0  0  0  0  0  0  0  0  0
   18.5549   15.3118   37.0852 N   0  0  0  0  0  0  0  0  0  0  0  0
   23.9179   17.1373   33.8505 O   0  0  0  0  0  0  0  0  0  0  0  0
   23.9974   16.2769   34.9939 C   0  0  1  0  0  0  0  0  0  0  0  0
   21.4884   14.8697   37.4000 O   0  0  0  0  0  0  0  0  0  0  0  0
   24.9193   16.9251   35.9973 C   0  0  1  0  0  0  0  0  0  0  0  0
   21.1974   12.5884   37.2837 O   0  0  0  0  0  0  0  0  0  0  0  0
   25.0411   16.0121   37.2389 C   0  0  0  0  0  0  0  0  0  0  0  0
   19.7826   12.3229   40.6376 O   0  0  0  0  0  0  0  0  0  0  0  0
   23.6170   15.8113   37.8345 C   0  0  1  0  0  0  0  0  0  0  0  0
   17.8104   13.8671   39.3874 O   0  0  0  0  0  0  0  0  0  0  0  0
   22.7420   15.0624   36.8735 C   0  0  2  0  0  0  0  0  0  0  0  0
   20.6179   13.9349   36.8522 C   0  0  1  0  0  0  0  0  0  0  0  0
   21.1944   12.3957   38.7663 C   0  0  2  0  0  0  0  0  0  0  0  0
   21.7637   11.0100   39.1348 C   0  0  0  0  0  0  0  0  0  0  0  0
   19.7816   12.4880   39.2604 C   0  0  2  0  0  0  0  0  0  0  0  0
   19.1660   13.8141   38.9199 C   0  0  1  0  0  0  0  0  0  0  0  0
   19.1797   13.9870   37.4399 C   0  0  1  0  0  0  0  0  0  0  0  0
  5  4  1  6  0  0  0
  5  8  1  0  0  0  0
  5 16  1  0  0  0  0
  8  7  1  6  0  0  0
  8 10  1  0  0  0  0
 10  1  1  6  0  0  0
 10 12  1  0  0  0  0
 11 18  1  0  0  0  0
 12 14  1  0  0  0  0
 14  2  1  1  0  0  0
 14 16  1  0  0  0  0
 16  9  1  1  0  0  0
 17  9  1  1  0  0  0
 17 11  1  0  0  0  0
 17 22  1  0  0  0  0
 18 19  1  6  0  0  0
 18 20  1  0  0  0  0
 19  3  1  0  0  0  0
 20 13  1  1  0  0  0
 20 21  1  0  0  0  0
 21 15  1  6  0  0  0
 21 22  1  0  0  0  0
 22  6  1  1  0  0  0
M  END
>  <CHROM.1>
81.76204851,73.23248737,164.32078403,21.84385445,14.45658413,37.46166854
-0.88131380,0.08480499,2.29886371

>  <Name>
2et8_lig

>  <RI>
3.14397e+07

>  <Rbt.Current_Directory>
/home/itssahil/PROJECTS/Mol_Feturizer/New_Systems/rnas/2et8

>  <Rbt.Executable>
rbdock ($Id: //depot/dev/client3/rdock/2013.1/src/exe/rbdock.cxx#4 $)

>  <Rbt.Library>
libRbt.so (2013.1, Build901 2013/11/27)

>  <Rbt.Parameter_File>
/export/apps/rDock/src/rDock_2013.1_src/data/scripts/dock_solv.prm

>  <Rbt.Receptor>
prm/pocket_docking_6.prm

>  <SCORE>
-15.616

>  <SCORE.INTER>
-14.9873

>  <SCORE.INTER.CONST>
1

>  <SCORE.INTER.POLAR>
-0.959166

>  <SCORE.INTER.ROT>
3

>  <SCORE.INTER.SOLV>
16.3474

>  <SCORE.INTER.VDW>
-17.8435

>  <SCORE.INTER.norm>
-0.681241

>  <SCORE.INTRA>
-0.628697

>  <SCORE.INTRA.DIHEDRAL>
-1.12152

>  <SCORE.INTRA.DIHEDRAL.0>
4.99603

>  <SCORE.INTRA.POLAR>
0

>  <SCORE.INTRA.POLAR.0>
0

>  <SCORE.INTRA.REPUL>
0

>  <SCORE.INTRA.REPUL.0>
0

>  <SCORE.INTRA.SOLV>
1.00539

>  <SCORE.INTRA.SOLV.lig_0>
-74.884

>  <SCORE.INTRA.VDW>
-0.570633

>  <SCORE.INTRA.VDW.0>
-0.858933

>  <SCORE.INTRA.norm>
-0.0285771

>  <SCORE.RESTR>
0

>  <SCORE.RESTR.CAVITY>
0

>  <SCORE.RESTR.norm>
0

>  <SCORE.SYSTEM>
0

>  <SCORE.SYSTEM.CONST>
0

>  <SCORE.SYSTEM.DIHEDRAL>
0

>  <SCORE.SYSTEM.SOLV>
0

>  <SCORE.SYSTEM.norm>
0

>  <SCORE.heavy>
22

>  <SCORE.norm>
-0.709818

>  <RMSD>
0.610

$$$$
2et8_lig
 OpenBabel11021811433D
libRbt.so/2013.1/901 2013/11/27
 22 23  0  0  0  0  0  0  0  0999 V2000
   26.4751   17.0388   35.5609 N   0  0  0  0  0  0  0  0  0  0  0  0
   23.7773   14.8575   39.1066 N   0  0  0  0  0  0  0  0  0  0  0  0
   22.0043   11.0049   40.5356 N   0  0  0  0  0  0  0  0  0  0  0  0
   21.8779   15.5167   34.6250 O   0  0  0  0  0  0  0  0  0  0  0  0
   22.7314   16.0708   35.6565 C   0  0  2  0  0  0  0  0  0  0  0  0
   18.6099   15.4485   36.9810 N   0  0  0  0  0  0  0  0  0  0  0  0
   24.1883   17.1521   33.9499 O   0  0  0  0  0  0  0  0  0  0  0  0
   24.1850   16.2712   35.0804 C   0  0  1  0  0  0  0  0  0  0  0  0
   21.5246   14.9404   37.3642 O   0  0  0  0  0  0  0  0  0  0  0  0
   25.0951   16.8615   36.1294 C   0  0  1  0  0  0  0  0  0  0  0  0
   21.1865   12.6667   37.2297 O   0  0  0  0  0  0  0  0  0  0  0  0
   25.1280   15.9245   37.3586 C   0  0  0  0  0  0  0  0  0  0  0  0
   19.6855   12.4178   40.5472 O   0  0  0  0  0  0  0  0  0  0  0  0
   23.6742   15.7786   37.8958 C   0  0  1  0  0  0  0  0  0  0  0  0
   17.7784   14.0105   39.2575 O   0  0  0  0  0  0  0  0  0  0  0  0
   22.8050   15.0849   36.8893 C   0  0  2  0  0  0  0  0  0  0  0  0
   20.6473   14.0275   36.7910 C   0  0  1  0  0  0  0  0  0  0  0  0
   21.1434   12.4676   38.7108 C   0  0  2  0  0  0  0  0  0  0  0  0
   21.6731   11.0680   39.0861 C   0  0  0  0  0  0  0  0  0  0  0  0
   19.7214   12.5889   39.1712 C   0  0  2  0  0  0  0  0  0  0  0  0
   19.1435   13.9297   38.8225 C   0  0  1  0  0  0  0  0  0  0  0  0
   19.1968   14.1087   37.3441 C   0  0  1  0  0  0  0  0  0  0  0  0
  5  4  1  6  0  0  0
  5  8  1  0  0  0  0
  5 16  1  0  0  0  0
  8  7  1  6  0  0  0
  8 10  1  0  0  0  0
 10  1  1  6  0  0  0
 10 12  1  0  0  0  0
 11 18  1  0  0  0  0
 12 14  1  0  0  0  0
 14  2  1  1  0  0  0
 14 16  1  0  0  0  0
 16  9  1  1  0  0  0
 17  9  1  1  0  0  0
 17 11  1  0  0  0  0
 17 22  1  0  0  0  0
 18 19  1  6  0  0  0
 18 20  1  0  0  0  0
 19  3  1  0  0  0  0
 20 13  1  1  0  0  0
 20 21  1  0  0  0  0
 21 15  1  6  0  0  0
 21 22  1  0  0  0  0
 22  6  1  1  0  0  0
M  END
>  <CHROM.1>
83.57530505,71.65752047,163.55561202,21.88954631,14.50165550,37.45414648
-0.83303894,0.08101434,2.30220238

>  <Name>
2et8_lig

>  <RI>
0

>  <Rbt.Current_Directory>
/home/itssahil/PROJECTS/Mol_Feturizer/New_Systems/rnas/2et8

>  <Rbt.Executable>
rbdock ($Id: //depot/dev/client3/rdock/2013.1/src/exe/rbdock.cxx#4 $)

>  <Rbt.Library>
libRbt.so (2013.1, Build901 2013/11/27)

>  <Rbt.Parameter_File>
/export/apps/rDock/src/rDock_2013.1_src/data/scripts/dock_solv.prm

>  <Rbt.Receptor>
prm/pocket_docking_2.prm

>  <SCORE>
-15.5968

>  <SCORE.INTER>
-14.9971

>  <SCORE.INTER.CONST>
1

>  <SCORE.INTER.POLAR>
-0.959166

>  <SCORE.INTER.ROT>
3

>  <SCORE.INTER.SOLV>
16.4291

>  <SCORE.INTER.VDW>
-17.8772

>  <SCORE.INTER.norm>
-0.681688

>  <SCORE.INTRA>
-0.599665

>  <SCORE.INTRA.DIHEDRAL>
-0.911468

>  <SCORE.INTRA.DIHEDRAL.0>
4.99603

>  <SCORE.INTRA.POLAR>
0

>  <SCORE.INTRA.POLAR.0>
0

>  <SCORE.INTRA.REPUL>
0

>  <SCORE.INTRA.REPUL.0>
0

>  <SCORE.INTRA.SOLV>
1.05026

>  <SCORE.INTRA.SOLV.lig_0>
-74.884

>  <SCORE.INTRA.VDW>
-0.66906

>  <SCORE.INTRA.VDW.0>
-0.858933

>  <SCORE.INTRA.norm>
-0.0272575

>  <SCORE.RESTR>
0

>  <SCORE.RESTR.CAVITY>
0

>  <SCORE.RESTR.norm>
0

>  <SCORE.SYSTEM>
0

>  <SCORE.SYSTEM.CONST>
0

>  <SCORE.SYSTEM.DIHEDRAL>
0

>  <SCORE.SYSTEM.SOLV>
0

>  <SCORE.SYSTEM.norm>
0

>  <SCORE.heavy>
22

>  <SCORE.norm>
-0.708945

>  <RMSD>
0.611

$$$$
2et8_lig
 OpenBabel11021811433D
libRbt.so/2013.1/901 2013/11/27
 22 23  0  0  0  0  0  0  0  0999 V2000
   26.4543   17.0851   35.5758 N   0  0  0  0  0  0  0  0  0  0  0  0
   23.7818   14.8618   39.1144 N   0  0  0  0  0  0  0  0  0  0  0  0
   22.0193   10.9975   40.5469 N   0  0  0  0  0  0  0  0  0  0  0  0
   21.8691   15.5276   34.6395 O   0  0  0  0  0  0  0  0  0  0  0  0
   22.7195   16.0838   35.6724 C   0  0  2  0  0  0  0  0  0  0  0  0
   18.6083   15.4226   36.9871 N   0  0  0  0  0  0  0  0  0  0  0  0
   24.1639   17.1867   33.9692 O   0  0  0  0  0  0  0  0  0  0  0  0
   24.1703   16.2999   35.0950 C   0  0  1  0  0  0  0  0  0  0  0  0
   21.5254   14.9340   37.3762 O   0  0  0  0  0  0  0  0  0  0  0  0
   25.0769   16.8927   36.1456 C   0  0  1  0  0  0  0  0  0  0  0  0
   21.2031   12.6581   37.2392 O   0  0  0  0  0  0  0  0  0  0  0  0
   25.1201   15.9497   37.3698 C   0  0  0  0  0  0  0  0  0  0  0  0
   19.6966   12.3965   40.5533 O   0  0  0  0  0  0  0  0  0  0  0  0
   23.6686   15.7882   37.9087 C   0  0  1  0  0  0  0  0  0  0  0  0
   17.7816   13.9773   39.2606 O   0  0  0  0  0  0  0  0  0  0  0  0
   22.8037   15.0922   36.9000 C   0  0  2  0  0  0  0  0  0  0  0  0
   20.6556   14.0156   36.8004 C   0  0  1  0  0  0  0  0  0  0  0  0
   21.1581   12.4576   38.7201 C   0  0  2  0  0  0  0  0  0  0  0  0
   21.6964   11.0613   39.0955 C   0  0  0  0  0  0  0  0  0  0  0  0
   19.7343   12.5689   39.1775 C   0  0  2  0  0  0  0  0  0  0  0  0
   19.1481   13.9061   38.8286 C   0  0  1  0  0  0  0  0  0  0  0  0
   19.2034   14.0865   37.3505 C   0  0  1  0  0  0  0  0  0  0  0  0
  5  4  1  6  0  0  0
  5  8  1  0  0  0  0
  5 16  1  0  0  0  0
  8  7  1  6  0  0  0
  8 10  1  0  0  0  0
 10  1  1  6  0  0  0
 10 12  1  0  0  0  0
 11 18  1  0  0  0  0
 12 14  1  0  0  0  0
 14  2  1  1  0  0  0
 14 16  1  0  0  0  0
 16  9  1  1  0  0  0
 17  9  1  1  0  0  0
 17 11  1  0  0  0  0
 17 22  1  0  0  0  0
 18 19  1  6  0  0  0
 18 20  1  0  0  0  0
 19  3  1  0  0  0  0
 20 13  1  1  0  0  0
 20 21  1  0  0  0  0
 21 15  1  6  0  0  0
 21 22  1  0  0  0  0
 22  6  1  1  0  0  0
M  END
>  <CHROM.1>
83.62969718,71.98248138,163.79853966,21.88984013,14.50209837,37.46472677
-0.83887848,0.08752131,2.30508660

>  <Name>
2et8_lig

>  <RI>
0

>  <Rbt.Current_Directory>
/home/itssahil/PROJECTS/Mol_Feturizer/New_Systems/rnas/2et8

>  <Rbt.Executable>
rbdock ($Id: //depot/dev/client3/rdock/2013.1/src/exe/rbdock.cxx#4 $)

>  <Rbt.Library>
libRbt.so (2013.1, Build901 2013/11/27)

>  <Rbt.Parameter_File>
/export/apps/rDock/src/rDock_2013.1_src/data/scripts/dock_solv.prm

>  <Rbt.Receptor>
prm/pocket_docking_2.prm

>  <SCORE>
-15.5791

>  <SCORE.INTER>
-14.9983

>  <SCORE.INTER.CONST>
1

>  <SCORE.INTER.POLAR>
-0.959166

>  <SCORE.INTER.ROT>
3

>  <SCORE.INTER.SOLV>
16.3017

>  <SCORE.INTER.VDW>
-17.8356

>  <SCORE.INTER.norm>
-0.681741

>  <SCORE.INTRA>
-0.580749

>  <SCORE.INTRA.DIHEDRAL>
-0.89267

>  <SCORE.INTRA.DIHEDRAL.0>
4.99603

>  <SCORE.INTRA.POLAR>
0

>  <SCORE.INTRA.POLAR.0>
0

>  <SCORE.INTRA.REPUL>
0

>  <SCORE.INTRA.REPUL.0>
0

>  <SCORE.INTRA.SOLV>
1.06719

>  <SCORE.INTRA.SOLV.lig_0>
-74.884

>  <SCORE.INTRA.VDW>
-0.668011

>  <SCORE.INTRA.VDW.0>
-0.858933

>  <SCORE.INTRA.norm>
-0.0263977

>  <SCORE.RESTR>
0

>  <SCORE.RESTR.CAVITY>
0

>  <SCORE.RESTR.norm>
0

>  <SCORE.SYSTEM>
0

>  <SCORE.SYSTEM.CONST>
0

>  <SCORE.SYSTEM.DIHEDRAL>
0

>  <SCORE.SYSTEM.SOLV>
0

>  <SCORE.SYSTEM.norm>
0

>  <SCORE.heavy>
22

>  <SCORE.norm>
-0.708139

>  <RMSD>
0.612

$$$$
2et8_lig
 OpenBabel11021811433D
libRbt.so/2013.1/901 2013/11/27
 22 23  0  0  0  0  0  0  0  0999 V2000
   26.5062   17.0723   35.6056 N   0  0  0  0  0  0  0  0  0  0  0  0
   23.8130   14.8800   39.1480 N   0  0  0  0  0  0  0  0  0  0  0  0
   21.9965   10.9648   40.5459 N   0  0  0  0  0  0  0  0  0  0  0  0
   21.9286   15.5015   34.6547 O   0  0  0  0  0  0  0  0  0  0  0  0
   22.7717   16.0683   35.6878 C   0  0  2  0  0  0  0  0  0  0  0  0
   18.6558   15.4423   36.9935 N   0  0  0  0  0  0  0  0  0  0  0  0
   24.2261   17.1564   33.9834 O   0  0  0  0  0  0  0  0  0  0  0  0
   24.2260   16.2804   35.1177 C   0  0  1  0  0  0  0  0  0  0  0  0
   21.5678   14.9335   37.3947 O   0  0  0  0  0  0  0  0  0  0  0  0
   25.1253   16.8840   36.1683 C   0  0  1  0  0  0  0  0  0  0  0  0
   21.2326   12.6606   37.2406 O   0  0  0  0  0  0  0  0  0  0  0  0
   25.1615   15.9526   37.4018 C   0  0  0  0  0  0  0  0  0  0  0  0
   19.7069   12.3858   40.5449 O   0  0  0  0  0  0  0  0  0  0  0  0
   23.7067   15.7949   37.9328 C   0  0  1  0  0  0  0  0  0  0  0  0
   17.8083   13.9868   39.2528 O   0  0  0  0  0  0  0  0  0  0  0  0
   22.8490   15.0885   36.9252 C   0  0  2  0  0  0  0  0  0  0  0  0
   20.6956   14.0243   36.8081 C   0  0  1  0  0  0  0  0  0  0  0  0
   21.1786   12.4504   38.7199 C   0  0  2  0  0  0  0  0  0  0  0  0
   21.7064   11.0484   39.0887 C   0  0  0  0  0  0  0  0  0  0  0  0
   19.7530   12.5672   39.1704 C   0  0  2  0  0  0  0  0  0  0  0  0
   19.1767   13.9102   38.8275 C   0  0  1  0  0  0  0  0  0  0  0  0
   19.2409   14.1003   37.3509 C   0  0  1  0  0  0  0  0  0  0  0  0
  5  4  1  6  0  0  0
  5  8  1  0  0  0  0
  5 16  1  0  0  0  0
  8  7  1  6  0  0  0
  8 10  1  0  0  0  0
 10  1  1  6  0  0  0
 10 12  1  0  0  0  0
 11 18  1  0  0  0  0
 12 14  1  0  0  0  0
 14  2  1  1  0  0  0
 14 16  1  0  0  0  0
 16  9  1  1  0  0  0
 17  9  1  1  0  0  0
 17 11  1  0  0  0  0
 17 22  1  0  0  0  0
 18 19  1  6  0  0  0
 18 20  1  0  0  0  0
 19  3  1  0  0  0  0
 20 13  1  1  0  0  0
 20 21  1  0  0  0  0
 21 15  1  6  0  0  0
 21 22  1  0  0  0  0
 22  6  1  1  0  0  0
M  END
>  <CHROM.1>
82.57488048,72.06661488,164.88786044,21.92508394,14.49748144,37.47528111
-0.83257707,0.08842544,2.30614266

>  <Name>
2et8_lig

>  <RI>
0

>  <Rbt.Current_Directory>
/home/itssahil/PROJECTS/Mol_Feturizer/New_Systems/rnas/2et8

>  <Rbt.Executable>
rbdock ($Id: //depot/dev/client3/rdock/2013.1/src/exe/rbdock.cxx#4 $)

>  <Rbt.Library>
libRbt.so (2013.1, Build901 2013/11/27)

>  <Rbt.Parameter_File>
/export/apps/rDock/src/rDock_2013.1_src/data/scripts/dock_solv.prm

>  <Rbt.Receptor>
prm/pocket_docking_2.prm

>  <SCORE>
-15.5755

>  <SCORE.INTER>
-14.9043

>  <SCORE.INTER.CONST>
1

>  <SCORE.INTER.POLAR>
-0.959166

>  <SCORE.INTER.ROT>
3

>  <SCORE.INTER.SOLV>
16.5346

>  <SCORE.INTER.VDW>
-17.8505

>  <SCORE.INTER.norm>
-0.67747

>  <SCORE.INTRA>
-0.671203

>  <SCORE.INTRA.DIHEDRAL>
-1.17373

>  <SCORE.INTRA.DIHEDRAL.0>
4.99603

>  <SCORE.INTRA.POLAR>
0

>  <SCORE.INTRA.POLAR.0>
0

>  <SCORE.INTRA.REPUL>
0

>  <SCORE.INTRA.REPUL.0>
0

>  <SCORE.INTRA.SOLV>
1.03654

>  <SCORE.INTRA.SOLV.lig_0>
-74.884

>  <SCORE.INTRA.VDW>
-0.602612

>  <SCORE.INTRA.VDW.0>
-0.858933

>  <SCORE.INTRA.norm>
-0.0305092

>  <SCORE.RESTR>
0

>  <SCORE.RESTR.CAVITY>
0

>  <SCORE.RESTR.norm>
0

>  <SCORE.SYSTEM>
0

>  <SCORE.SYSTEM.CONST>
0

>  <SCORE.SYSTEM.DIHEDRAL>
0

>  <SCORE.SYSTEM.SOLV>
0

>  <SCORE.SYSTEM.norm>
0

>  <SCORE.heavy>
22

>  <SCORE.norm>
-0.707979

>  <RMSD>
0.617

$$$$
2et8_lig
 OpenBabel11021811433D
libRbt.so/2013.1/901 2013/11/27
 22 23  0  0  0  0  0  0  0  0999 V2000
   26.2911   17.1447   35.4093 N   0  0  0  0  0  0  0  0  0  0  0  0
   23.8253   14.9160   39.0917 N   0  0  0  0  0  0  0  0  0  0  0  0
   22.1425   10.9538   40.6172 N   0  0  0  0  0  0  0  0  0  0  0  0
   21.7366   15.4010   34.6727 O   0  0  0  0  0  0  0  0  0  0  0  0
   22.6010   16.0130   35.6614 C   0  0  2  0  0  0  0  0  0  0  0  0
   18.5750   15.3002   37.1185 N   0  0  0  0  0  0  0  0  0  0  0  0
   23.9445   17.1241   33.8826 O   0  0  0  0  0  0  0  0  0  0  0  0
   24.0222   16.2664   35.0282 C   0  0  1  0  0  0  0  0  0  0  0  0
   21.5094   14.8639   37.4331 O   0  0  0  0  0  0  0  0  0  0  0  0
   24.9421   16.9173   36.0317 C   0  0  1  0  0  0  0  0  0  0  0  0
   21.2227   12.5820   37.3191 O   0  0  0  0  0  0  0  0  0  0  0  0
   25.0620   16.0073   37.2757 C   0  0  0  0  0  0  0  0  0  0  0  0
   19.8091   12.3173   40.6737 O   0  0  0  0  0  0  0  0  0  0  0  0
   23.6368   15.8074   37.8691 C   0  0  1  0  0  0  0  0  0  0  0  0
   17.8337   13.8565   39.4223 O   0  0  0  0  0  0  0  0  0  0  0  0
   22.7638   15.0559   36.9084 C   0  0  2  0  0  0  0  0  0  0  0  0
   20.6405   13.9270   36.8864 C   0  0  1  0  0  0  0  0  0  0  0  0
   21.2204   12.3908   38.8020 C   0  0  2  0  0  0  0  0  0  0  0  0
   21.7923   11.0065   39.1718 C   0  0  0  0  0  0  0  0  0  0  0  0
   19.8075   12.4810   39.2962 C   0  0  2  0  0  0  0  0  0  0  0  0
   19.1893   13.8056   38.9546 C   0  0  1  0  0  0  0  0  0  0  0  0
   19.2024   13.9769   37.4744 C   0  0  1  0  0  0  0  0  0  0  0  0
  5  4  1  6  0  0  0
  5  8  1  0  0  0  0
  5 16  1  0  0  0  0
  8  7  1  6  0  0  0
  8 10  1  0  0  0  0
 10  1  1  6  0  0  0
 10 12  1  0  0  0  0
 11 18  1  0  0  0  0
 12 14  1  0  0  0  0
 14  2  1  1  0  0  0
 14 16  1  0  0  0  0
 16  9  1  1  0  0  0
 17  9  1  1  0  0  0
 17 11  1  0  0  0  0
 17 22  1  0  0  0  0
 18 19  1  6  0  0  0
 18 20  1  0  0  0  0
 19  3  1  0  0  0  0
 20 13  1  1  0  0  0
 20 21  1  0  0  0  0
 21 15  1  6  0  0  0
 21 22  1  0  0  0  0
 22  6  1  1  0  0  0
M  END
>  <CHROM.1>
81.80190342,73.05122249,164.34084087,21.86761407,14.44918736,37.49648131
-0.88109194,0.08595720,2.29726326

>  <Name>
2et8_lig

>  <RI>
0

>  <Rbt.Current_Directory>
/home/itssahil/PROJECTS/Mol_Feturizer/New_Systems/rnas/2et8

>  <Rbt.Executable>
rbdock ($Id: //depot/dev/client3/rdock/2013.1/src/exe/rbdock.cxx#4 $)

>  <Rbt.Library>
libRbt.so (2013.1, Build901 2013/11/27)

>  <Rbt.Parameter_File>
/export/apps/rDock/src/rDock_2013.1_src/data/scripts/dock_solv.prm

>  <Rbt.Receptor>
prm/pocket_docking_7.prm

>  <SCORE>
-15.6039

>  <SCORE.INTER>
-14.9659

>  <SCORE.INTER.CONST>
1

>  <SCORE.INTER.POLAR>
-0.959166

>  <SCORE.INTER.ROT>
3

>  <SCORE.INTER.SOLV>
16.3229

>  <SCORE.INTER.VDW>
-17.821

>  <SCORE.INTER.norm>
-0.680267

>  <SCORE.INTRA>
-0.637998

>  <SCORE.INTRA.DIHEDRAL>
-1.13811

>  <SCORE.INTRA.DIHEDRAL.0>
4.99603

>  <SCORE.INTRA.POLAR>
0

>  <SCORE.INTRA.POLAR.0>
0

>  <SCORE.INTRA.REPUL>
0

>  <SCORE.INTRA.REPUL.0>
0

>  <SCORE.INTRA.SOLV>
1.00367

>  <SCORE.INTRA.SOLV.lig_0>
-74.884

>  <SCORE.INTRA.VDW>
-0.570777

>  <SCORE.INTRA.VDW.0>
-0.858933

>  <SCORE.INTRA.norm>
-0.0289999

>  <SCORE.RESTR>
0

>  <SCORE.RESTR.CAVITY>
0

>  <SCORE.RESTR.norm>
0

>  <SCORE.SYSTEM>
0

>  <SCORE.SYSTEM.CONST>
0

>  <SCORE.SYSTEM.DIHEDRAL>
0

>  <SCORE.SYSTEM.SOLV>
0

>  <SCORE.SYSTEM.norm>
0

>  <SCORE.heavy>
22

>  <SCORE.norm>
-0.709267

>  <RMSD>
0.617

$$$$
2et8_lig
 OpenBabel11021811433D
libRbt.so/2013.1/901 2013/11/27
 22 23  0  0  0  0  0  0  0  0999 V2000
   25.6525   17.2097   34.7698 N   0  0  0  0  0  0  0  0  0  0  0  0
   23.7652   15.1595   38.8737 N   0  0  0  0  0  0  0  0  0  0  0  0
   22.5515   11.0472   39.7735 N   0  0  0  0  0  0  0  0  0  0  0  0
   21.2473   14.9943   34.6595 O   0  0  0  0  0  0  0  0  0  0  0  0
   22.1321   15.7809   35.4949 C   0  0  2  0  0  0  0  0  0  0  0  0
   18.4874   15.2437   36.7067 N   0  0  0  0  0  0  0  0  0  0  0  0
   23.1913   16.8192   33.4940 O   0  0  0  0  0  0  0  0  0  0  0  0
   23.4577   16.0951   34.7018 C   0  0  1  0  0  0  0  0  0  0  0  0
   21.3255   14.7270   37.4671 O   0  0  0  0  0  0  0  0  0  0  0  0
   24.3949   16.9267   35.5426 C   0  0  1  0  0  0  0  0  0  0  0  0
   20.8717   12.4939   37.7990 O   0  0  0  0  0  0  0  0  0  0  0  0
   24.7172   16.1647   36.8485 C   0  0  0  0  0  0  0  0  0  0  0  0
   19.0830   13.0425   40.9328 O   0  0  0  0  0  0  0  0  0  0  0  0
   23.3787   15.8990   37.5975 C   0  0  1  0  0  0  0  0  0  0  0  0
   17.3856   14.3781   39.1518 O   0  0  0  0  0  0  0  0  0  0  0  0
   22.5019   14.9764   36.8039 C   0  0  2  0  0  0  0  0  0  0  0  0
   20.4497   13.7424   37.0254 C   0  0  1  0  0  0  0  0  0  0  0  0
   20.6920   12.6302   39.2770 C   0  0  2  0  0  0  0  0  0  0  0  0
   21.1077   11.3304   39.9966 C   0  0  0  0  0  0  0  0  0  0  0  0
   19.2452   12.9026   39.5623 C   0  0  2  0  0  0  0  0  0  0  0  0
   18.7758   14.1529   38.8768 C   0  0  1  0  0  0  0  0  0  0  0  0
   18.9644   13.9973   37.4069 C   0  0  1  0  0  0  0  0  0  0  0  0
  5  4  1  6  0  0  0
  5  8  1  0  0  0  0
  5 16  1  0  0  0  0
  8  7  1  6  0  0  0
  8 10  1  0  0  0  0
 10  1  1  6  0  0  0
 10 12  1  0  0  0  0
 11 18  1  0  0  0  0
 12 14  1  0  0  0  0
 14  2  1  1  0  0  0
 14 16  1  0  0  0  0
 16  9  1  1  0  0  0
 17  9  1  1  0  0  0
 17 11  1  0  0  0  0
 17 22  1  0  0  0  0
 18 19  1  1  0  0  0
 18 20  1  0  0  0  0
 19  3  1  0  0  0  0
 20 13  1  1  0  0  0
 20 21  1  0  0  0  0
 21 15  1  6  0  0  0
 21 22  1  0  0  0  0
 22  6  1  6  0  0  0
M  END
>  <CHROM.1>
75.84445836,92.11760406,62.39683551,21.48260764,14.52192041,37.39810810,-0.89494719
0.03821328,2.23168284

>  <Name>
2et8_lig

>  <RI>
0

>  <Rbt.Current_Directory>
/home/itssahil/PROJECTS/Mol_Feturizer/New_Systems/rnas/2et8

>  <Rbt.Executable>
rbdock ($Id: //depot/dev/client3/rdock/2013.1/src/exe/rbdock.cxx#4 $)

>  <Rbt.Library>
libRbt.so (2013.1, Build901 2013/11/27)

>  <Rbt.Parameter_File>
/export/apps/rDock/src/rDock_2013.1_src/data/scripts/dock_solv.prm

>  <Rbt.Receptor>
prm/pocket_docking_2.prm

>  <SCORE>
-14.9038

>  <SCORE.INTER>
-14.6185

>  <SCORE.INTER.CONST>
1

>  <SCORE.INTER.POLAR>
-0.959166

>  <SCORE.INTER.ROT>
3

>  <SCORE.INTER.SOLV>
16.8334

>  <SCORE.INTER.VDW>
-17.7595

>  <SCORE.INTER.norm>
-0.664475

>  <SCORE.INTRA>
-0.287833

>  <SCORE.INTRA.DIHEDRAL>
0.258697

>  <SCORE.INTRA.DIHEDRAL.0>
4.99603

>  <SCORE.INTRA.POLAR>
0

>  <SCORE.INTRA.POLAR.0>
0

>  <SCORE.INTRA.REPUL>
0

>  <SCORE.INTRA.REPUL.0>
0

>  <SCORE.INTRA.SOLV>
0.14873

>  <SCORE.INTRA.SOLV.lig_0>
-74.884

>  <SCORE.INTRA.VDW>
-0.491546

>  <SCORE.INTRA.VDW.0>
-0.858933

>  <SCORE.INTRA.norm>
-0.0130833

>  <SCORE.RESTR>
0.00253922

>  <SCORE.RESTR.CAVITY>
0.00253922

>  <SCORE.RESTR.norm>
0.000115419

>  <SCORE.SYSTEM>
0

>  <SCORE.SYSTEM.CONST>
0

>  <SCORE.SYSTEM.DIHEDRAL>
0

>  <SCORE.SYSTEM.SOLV>
0

>  <SCORE.SYSTEM.norm>
0

>  <SCORE.heavy>
22

>  <SCORE.norm>
-0.677443

>  <RMSD>
0.618

$$$$
2et8_lig
 OpenBabel11021811433D
libRbt.so/2013.1/901 2013/11/27
 22 23  0  0  0  0  0  0  0  0999 V2000
   26.4344   17.1409   35.5184 N   0  0  0  0  0  0  0  0  0  0  0  0
   23.8763   14.9235   39.1443 N   0  0  0  0  0  0  0  0  0  0  0  0
   22.1359   10.9636   40.6316 N   0  0  0  0  0  0  0  0  0  0  0  0
   21.8952   15.4053   34.6756 O   0  0  0  0  0  0  0  0  0  0  0  0
   22.7370   16.0171   35.6838 C   0  0  2  0  0  0  0  0  0  0  0  0
   18.6776   15.3233   37.0400 N   0  0  0  0  0  0  0  0  0  0  0  0
   24.1251   17.1224   33.9358 O   0  0  0  0  0  0  0  0  0  0  0  0
   24.1735   16.2666   35.0844 C   0  0  1  0  0  0  0  0  0  0  0  0
   21.6007   14.8733   37.4306 O   0  0  0  0  0  0  0  0  0  0  0  0
   25.0704   16.9173   36.1086 C   0  0  1  0  0  0  0  0  0  0  0  0
   21.3062   12.5927   37.3106 O   0  0  0  0  0  0  0  0  0  0  0  0
   25.1585   16.0091   37.3566 C   0  0  0  0  0  0  0  0  0  0  0  0
   19.8051   12.3371   40.6276 O   0  0  0  0  0  0  0  0  0  0  0  0
   23.7191   15.8132   37.9160 C   0  0  1  0  0  0  0  0  0  0  0  0
   17.8700   13.8848   39.3247 O   0  0  0  0  0  0  0  0  0  0  0  0
   22.8678   15.0618   36.9358 C   0  0  2  0  0  0  0  0  0  0  0  0
   20.7418   13.9402   36.8622 C   0  0  1  0  0  0  0  0  0  0  0  0
   21.2646   12.4026   38.7930 C   0  0  2  0  0  0  0  0  0  0  0  0
   21.8202   11.0158   39.1782 C   0  0  0  0  0  0  0  0  0  0  0  0
   19.8398   12.4998   39.2505 C   0  0  2  0  0  0  0  0  0  0  0  0
   19.2370   13.8271   38.8922 C   0  0  1  0  0  0  0  0  0  0  0  0
   19.2892   13.9974   37.4127 C   0  0  1  0  0  0  0  0  0  0  0  0
  5  4  1  6  0  0  0
  5  8  1  0  0  0  0
  5 16  1  0  0  0  0
  8  7  1  6  0  0  0
  8 10  1  0  0  0  0
 10  1  1  6  0  0  0
 10 12  1  0  0  0  0
 11 18  1  0  0  0  0
 12 14  1  0  0  0  0
 14  2  1  1  0  0  0
 14 16  1  0  0  0  0
 16  9  1  1  0  0  0
 17  9  1  1  0  0  0
 17 11  1  0  0  0  0
 17 22  1  0  0  0  0
 18 19  1  6  0  0  0
 18 20  1  0  0  0  0
 19  3  1  0  0  0  0
 20 13  1  1  0  0  0
 20 21  1  0  0  0  0
 21 15  1  6  0  0  0
 21 22  1  0  0  0  0
 22  6  1  1  0  0  0
M  END
>  <CHROM.1>
81.60130647,73.25216880,164.19261012,21.95288395,14.45926681,37.50088385
-0.86036743,0.09991396,2.29452186

>  <Name>
2et8_lig

>  <RI>
0

>  <Rbt.Current_Directory>
/home/itssahil/PROJECTS/Mol_Feturizer/New_Systems/rnas/2et8

>  <Rbt.Executable>
rbdock ($Id: //depot/dev/client3/rdock/2013.1/src/exe/rbdock.cxx#4 $)

>  <Rbt.Library>
libRbt.so (2013.1, Build901 2013/11/27)

>  <Rbt.Parameter_File>
/export/apps/rDock/src/rDock_2013.1_src/data/scripts/dock_solv.prm

>  <Rbt.Receptor>
prm/pocket_docking_3.prm

>  <SCORE>
-15.6043

>  <SCORE.INTER>
-14.9679

>  <SCORE.INTER.CONST>
1

>  <SCORE.INTER.POLAR>
-0.959166

>  <SCORE.INTER.ROT>
3

>  <SCORE.INTER.SOLV>
16.3602

>  <SCORE.INTER.VDW>
-17.8348

>  <SCORE.INTER.norm>
-0.680358

>  <SCORE.INTRA>
-0.636429

>  <SCORE.INTRA.DIHEDRAL>
-1.13285

>  <SCORE.INTRA.DIHEDRAL.0>
4.99603

>  <SCORE.INTRA.POLAR>
0

>  <SCORE.INTRA.POLAR.0>
0

>  <SCORE.INTRA.REPUL>
0

>  <SCORE.INTRA.REPUL.0>
0

>  <SCORE.INTRA.SOLV>
0.99366

>  <SCORE.INTRA.SOLV.lig_0>
-74.884

>  <SCORE.INTRA.VDW>
-0.566834

>  <SCORE.INTRA.VDW.0>
-0.858933

>  <SCORE.INTRA.norm>
-0.0289286

>  <SCORE.RESTR>
0

>  <SCORE.RESTR.CAVITY>
0

>  <SCORE.RESTR.norm>
0

>  <SCORE.SYSTEM>
0

>  <SCORE.SYSTEM.CONST>
0

>  <SCORE.SYSTEM.DIHEDRAL>
0

>  <SCORE.SYSTEM.SOLV>
0

>  <SCORE.SYSTEM.norm>
0

>  <SCORE.heavy>
22

>  <SCORE.norm>
-0.709287

>  <RMSD>
0.618

$$$$
2et8_lig
 OpenBabel11021811433D
libRbt.so/2013.1/901 2013/11/27
 22 23  0  0  0  0  0  0  0  0999 V2000
   26.4708   17.1170   35.5484 N   0  0  0  0  0  0  0  0  0  0  0  0
   23.8735   14.9261   39.1624 N   0  0  0  0  0  0  0  0  0  0  0  0
   22.1285   10.9655   40.6188 N   0  0  0  0  0  0  0  0  0  0  0  0
   21.9270   15.4073   34.6785 O   0  0  0  0  0  0  0  0  0  0  0  0
   22.7654   16.0168   35.6909 C   0  0  2  0  0  0  0  0  0  0  0  0
   18.6900   15.3512   37.0357 N   0  0  0  0  0  0  0  0  0  0  0  0
   24.1727   17.1084   33.9496 O   0  0  0  0  0  0  0  0  0  0  0  0
   24.2076   16.2556   35.1010 C   0  0  1  0  0  0  0  0  0  0  0  0
   21.6097   14.8852   37.4329 O   0  0  0  0  0  0  0  0  0  0  0  0
   25.1013   16.9037   36.1296 C   0  0  1  0  0  0  0  0  0  0  0  0
   21.3041   12.6065   37.3038 O   0  0  0  0  0  0  0  0  0  0  0  0
   25.1749   15.9986   37.3808 C   0  0  0  0  0  0  0  0  0  0  0  0
   19.7925   12.3465   40.6157 O   0  0  0  0  0  0  0  0  0  0  0  0
   23.7304   15.8132   37.9306 C   0  0  1  0  0  0  0  0  0  0  0  0
   17.8689   13.9086   39.3130 O   0  0  0  0  0  0  0  0  0  0  0  0
   22.8814   15.0644   36.9465 C   0  0  2  0  0  0  0  0  0  0  0  0
   20.7478   13.9584   36.8587 C   0  0  1  0  0  0  0  0  0  0  0  0
   21.2574   12.4113   38.7854 C   0  0  2  0  0  0  0  0  0  0  0  0
   21.8050   11.0204   39.1672 C   0  0  0  0  0  0  0  0  0  0  0  0
   19.8319   12.5140   39.2393 C   0  0  2  0  0  0  0  0  0  0  0  0
   19.2367   13.8456   38.8841 C   0  0  1  0  0  0  0  0  0  0  0  0
   19.2939   14.0209   37.4054 C   0  0  1  0  0  0  0  0  0  0  0  0
  5  4  1  6  0  0  0
  5  8  1  0  0  0  0
  5 16  1  0  0  0  0
  8  7  1  6  0  0  0
  8 10  1  0  0  0  0
 10  1  1  6  0  0  0
 10 12  1  0  0  0  0
 11 18  1  0  0  0  0
 12 14  1  0  0  0  0
 14  2  1  1  0  0  0
 14 16  1  0  0  0  0
 16  9  1  1  0  0  0
 17  9  1  1  0  0  0
 17 11  1  0  0  0  0
 17 22  1  0  0  0  0
 18 19  1  6  0  0  0
 18 20  1  0  0  0  0
 19  3  1  0  0  0  0
 20 13  1  1  0  0  0
 20 21  1  0  0  0  0
 21 15  1  6  0  0  0
 21 22  1  0  0  0  0
 22  6  1  1  0  0  0
M  END
>  <CHROM.1>
81.42177763,72.92310686,163.65482986,21.96318817,14.46435003,37.50365086
-0.85197179,0.09809659,2.29505853

>  <Name>
2et8_lig

>  <RI>
0

>  <Rbt.Current_Directory>
/home/itssahil/PROJECTS/Mol_Feturizer/New_Systems/rnas/2et8

>  <Rbt.Executable>
rbdock ($Id: //depot/dev/client3/rdock/2013.1/src/exe/rbdock.cxx#4 $)

>  <Rbt.Library>
libRbt.so (2013.1, Build901 2013/11/27)

>  <Rbt.Parameter_File>
/export/apps/rDock/src/rDock_2013.1_src/data/scripts/dock_solv.prm

>  <Rbt.Receptor>
prm/pocket_docking_5.prm

>  <SCORE>
-15.6192

>  <SCORE.INTER>
-14.9587

>  <SCORE.INTER.CONST>
1

>  <SCORE.INTER.POLAR>
-0.959166

>  <SCORE.INTER.ROT>
3

>  <SCORE.INTER.SOLV>
16.4113

>  <SCORE.INTER.VDW>
-17.8457

>  <SCORE.INTER.norm>
-0.679939

>  <SCORE.INTRA>
-0.660483

>  <SCORE.INTRA.DIHEDRAL>
-1.14545

>  <SCORE.INTRA.DIHEDRAL.0>
4.99603

>  <SCORE.INTRA.POLAR>
0

>  <SCORE.INTRA.POLAR.0>
0

>  <SCORE.INTRA.REPUL>
0

>  <SCORE.INTRA.REPUL.0>
0

>  <SCORE.INTRA.SOLV>
0.962162

>  <SCORE.INTRA.SOLV.lig_0>
-74.884

>  <SCORE.INTRA.VDW>
-0.568837

>  <SCORE.INTRA.VDW.0>
-0.858933

>  <SCORE.INTRA.norm>
-0.0300219

>  <SCORE.RESTR>
0

>  <SCORE.RESTR.CAVITY>
0

>  <SCORE.RESTR.norm>
0

>  <SCORE.SYSTEM>
0

>  <SCORE.SYSTEM.CONST>
0

>  <SCORE.SYSTEM.DIHEDRAL>
0

>  <SCORE.SYSTEM.SOLV>
0

>  <SCORE.SYSTEM.norm>
0

>  <SCORE.heavy>
22

>  <SCORE.norm>
-0.709961

>  <RMSD>
0.619

$$$$
2et8_lig
 OpenBabel11021811433D
libRbt.so/2013.1/901 2013/11/27
 22 23  0  0  0  0  0  0  0  0999 V2000
   26.4347   17.1411   35.5210 N   0  0  0  0  0  0  0  0  0  0  0  0
   23.8761   14.9263   39.1481 N   0  0  0  0  0  0  0  0  0  0  0  0
   22.1151   10.9600   40.6435 N   0  0  0  0  0  0  0  0  0  0  0  0
   21.8951   15.4064   34.6791 O   0  0  0  0  0  0  0  0  0  0  0  0
   22.7370   16.0185   35.6870 C   0  0  2  0  0  0  0  0  0  0  0  0
   18.6765   15.3229   37.0460 N   0  0  0  0  0  0  0  0  0  0  0  0
   24.1255   17.1226   33.9385 O   0  0  0  0  0  0  0  0  0  0  0  0
   24.1736   16.2673   35.0875 C   0  0  1  0  0  0  0  0  0  0  0  0
   21.6005   14.8759   37.4344 O   0  0  0  0  0  0  0  0  0  0  0  0
   25.0707   16.9183   36.1114 C   0  0  1  0  0  0  0  0  0  0  0  0
   21.3079   12.5949   37.3166 O   0  0  0  0  0  0  0  0  0  0  0  0
   25.1585   16.0107   37.3599 C   0  0  0  0  0  0  0  0  0  0  0  0
   19.8100   12.3408   40.6351 O   0  0  0  0  0  0  0  0  0  0  0  0
   23.7190   15.8154   37.9194 C   0  0  1  0  0  0  0  0  0  0  0  0
   17.8724   13.8856   39.3327 O   0  0  0  0  0  0  0  0  0  0  0  0
   22.8676   15.0638   36.9395 C   0  0  2  0  0  0  0  0  0  0  0  0
   20.7419   13.9415   36.8675 C   0  0  1  0  0  0  0  0  0  0  0  0
   21.2678   12.4061   38.7992 C   0  0  2  0  0  0  0  0  0  0  0  0
   21.8250   11.0201   39.1851 C   0  0  0  0  0  0  0  0  0  0  0  0
   19.8434   12.5023   39.2579 C   0  0  2  0  0  0  0  0  0  0  0  0
   19.2390   13.8288   38.8990 C   0  0  1  0  0  0  0  0  0  0  0  0
   19.2897   13.9978   37.4193 C   0  0  1  0  0  0  0  0  0  0  0  0
  5  4  1  6  0  0  0
  5  8  1  0  0  0  0
  5 16  1  0  0  0  0
  8  7  1  6  0  0  0
  8 10  1  0  0  0  0
 10  1  1  6  0  0  0
 10 12  1  0  0  0  0
 11 18  1  0  0  0  0
 12 14  1  0  0  0  0
 14  2  1  1  0  0  0
 14 16  1  0  0  0  0
 16  9  1  1  0  0  0
 17  9  1  1  0  0  0
 17 11  1  0  0  0  0
 17 22  1  0  0  0  0
 18 19  1  6  0  0  0
 18 20  1  0  0  0  0
 19  3  1  0  0  0  0
 20 13  1  1  0  0  0
 20 21  1  0  0  0  0
 21 15  1  6  0  0  0
 21 22  1  0  0  0  0
 22  6  1  1  0  0  0
M  END
>  <CHROM.1>
81.68634778,73.15742514,165.38964848,21.95299730,14.46072609,37.50608635
-0.86097263,0.10001080,2.29373627

>  <Name>
2et8_lig

>  <RI>
0

>  <Rbt.Current_Directory>
/home/itssahil/PROJECTS/Mol_Feturizer/New_Systems/rnas/2et8

>  <Rbt.Executable>
rbdock ($Id: //depot/dev/client3/rdock/2013.1/src/exe/rbdock.cxx#4 $)

>  <Rbt.Library>
libRbt.so (2013.1, Build901 2013/11/27)

>  <Rbt.Parameter_File>
/export/apps/rDock/src/rDock_2013.1_src/data/scripts/dock_solv.prm

>  <Rbt.Receptor>
prm/pocket_docking_3.prm

>  <SCORE>
-15.603

>  <SCORE.INTER>
-14.9498

>  <SCORE.INTER.CONST>
1

>  <SCORE.INTER.POLAR>
-0.959166

>  <SCORE.INTER.ROT>
3

>  <SCORE.INTER.SOLV>
16.3712

>  <SCORE.INTER.VDW>
-17.8264

>  <SCORE.INTER.norm>
-0.679536

>  <SCORE.INTRA>
-0.653195

>  <SCORE.INTRA.DIHEDRAL>
-1.24795

>  <SCORE.INTRA.DIHEDRAL.0>
4.99603

>  <SCORE.INTRA.POLAR>
0

>  <SCORE.INTRA.POLAR.0>
0

>  <SCORE.INTRA.REPUL>
0

>  <SCORE.INTRA.REPUL.0>
0

>  <SCORE.INTRA.SOLV>
1.02551

>  <SCORE.INTRA.SOLV.lig_0>
-74.884

>  <SCORE.INTRA.VDW>
-0.541977

>  <SCORE.INTRA.VDW.0>
-0.858933

>  <SCORE.INTRA.norm>
-0.0296907

>  <SCORE.RESTR>
0

>  <SCORE.RESTR.CAVITY>
0

>  <SCORE.RESTR.norm>
0

>  <SCORE.SYSTEM>
0

>  <SCORE.SYSTEM.CONST>
0

>  <SCORE.SYSTEM.DIHEDRAL>
0

>  <SCORE.SYSTEM.SOLV>
0

>  <SCORE.SYSTEM.norm>
0

>  <SCORE.heavy>
22

>  <SCORE.norm>
-0.709227

>  <RMSD>
0.620

$$$$
2et8_lig
 OpenBabel11021811433D
libRbt.so/2013.1/901 2013/11/27
 22 23  0  0  0  0  0  0  0  0999 V2000
   26.3429   17.1101   35.4679 N   0  0  0  0  0  0  0  0  0  0  0  0
   23.7961   14.8717   39.0887 N   0  0  0  0  0  0  0  0  0  0  0  0
   22.0913   10.9656   40.6043 N   0  0  0  0  0  0  0  0  0  0  0  0
   21.7736   15.4435   34.6492 O   0  0  0  0  0  0  0  0  0  0  0  0
   22.6337   16.0300   35.6571 C   0  0  2  0  0  0  0  0  0  0  0  0
   18.5693   15.3071   37.0626 N   0  0  0  0  0  0  0  0  0  0  0  0
   24.0168   17.1436   33.9104 O   0  0  0  0  0  0  0  0  0  0  0  0
   24.0667   16.2704   35.0458 C   0  0  1  0  0  0  0  0  0  0  0  0
   21.5019   14.8749   37.3993 O   0  0  0  0  0  0  0  0  0  0  0  0
   24.9826   16.8949   36.0696 C   0  0  1  0  0  0  0  0  0  0  0  0
   21.2184   12.5923   37.2898 O   0  0  0  0  0  0  0  0  0  0  0  0
   25.0726   15.9675   37.3033 C   0  0  0  0  0  0  0  0  0  0  0  0
   19.7813   12.3357   40.6350 O   0  0  0  0  0  0  0  0  0  0  0  0
   23.6369   15.7812   37.8753 C   0  0  1  0  0  0  0  0  0  0  0  0
   17.8132   13.8692   39.3653 O   0  0  0  0  0  0  0  0  0  0  0  0
   22.7659   15.0549   36.8936 C   0  0  2  0  0  0  0  0  0  0  0  0
   20.6379   13.9355   36.8492 C   0  0  1  0  0  0  0  0  0  0  0  0
   21.2058   12.4054   38.7731 C   0  0  2  0  0  0  0  0  0  0  0  0
   21.7765   11.0228   39.1509 C   0  0  0  0  0  0  0  0  0  0  0  0
   19.7893   12.4955   39.2571 C   0  0  2  0  0  0  0  0  0  0  0  0
   19.1722   13.8184   38.9073 C   0  0  1  0  0  0  0  0  0  0  0  0
   19.1955   13.9856   37.4268 C   0  0  1  0  0  0  0  0  0  0  0  0
  5  4  1  6  0  0  0
  5  8  1  0  0  0  0
  5 16  1  0  0  0  0
  8  7  1  6  0  0  0
  8 10  1  0  0  0  0
 10  1  1  6  0  0  0
 10 12  1  0  0  0  0
 11 18  1  0  0  0  0
 12 14  1  0  0  0  0
 14  2  1  1  0  0  0
 14 16  1  0  0  0  0
 16  9  1  1  0  0  0
 17  9  1  1  0  0  0
 17 11  1  0  0  0  0
 17 22  1  0  0  0  0
 18 19  1  6  0  0  0
 18 20  1  0  0  0  0
 19  3  1  0  0  0  0
 20 13  1  1  0  0  0
 20 21  1  0  0  0  0
 21 15  1  6  0  0  0
 21 22  1  0  0  0  0
 22  6  1  1  0  0  0
M  END
>  <CHROM.1>
83.34065487,72.22329345,165.46130249,21.87091619,14.45257665,37.48163474
-0.86823640,0.08877398,2.29764655

>  <Name>
2et8_lig

>  <RI>
0

>  <Rbt.Current_Directory>
/home/itssahil/PROJECTS/Mol_Feturizer/New_Systems/rnas/2et8

>  <Rbt.Executable>
rbdock ($Id: //depot/dev/client3/rdock/2013.1/src/exe/rbdock.cxx#4 $)

>  <Rbt.Library>
libRbt.so (2013.1, Build901 2013/11/27)

>  <Rbt.Parameter_File>
/export/apps/rDock/src/rDock_2013.1_src/data/scripts/dock_solv.prm

>  <Rbt.Receptor>
prm/pocket_docking_5.prm

>  <SCORE>
-15.5815

>  <SCORE.INTER>
-14.9695

>  <SCORE.INTER.CONST>
1

>  <SCORE.INTER.POLAR>
-0.959166

>  <SCORE.INTER.ROT>
3

>  <SCORE.INTER.SOLV>
16.3416

>  <SCORE.INTER.VDW>
-17.8296

>  <SCORE.INTER.norm>
-0.680431

>  <SCORE.INTRA>
-0.612007

>  <SCORE.INTRA.DIHEDRAL>
-1.08151

>  <SCORE.INTRA.DIHEDRAL.0>
4.99603

>  <SCORE.INTRA.POLAR>
0

>  <SCORE.INTRA.POLAR.0>
0

>  <SCORE.INTRA.REPUL>
0

>  <SCORE.INTRA.REPUL.0>
0

>  <SCORE.INTRA.SOLV>
1.09762

>  <SCORE.INTRA.SOLV.lig_0>
-74.884

>  <SCORE.INTRA.VDW>
-0.620061

>  <SCORE.INTRA.VDW.0>
-0.858933

>  <SCORE.INTRA.norm>
-0.0278185

>  <SCORE.RESTR>
0

>  <SCORE.RESTR.CAVITY>
0

>  <SCORE.RESTR.norm>
0

>  <SCORE.SYSTEM>
0

>  <SCORE.SYSTEM.CONST>
0

>  <SCORE.SYSTEM.DIHEDRAL>
0

>  <SCORE.SYSTEM.SOLV>
0

>  <SCORE.SYSTEM.norm>
0

>  <SCORE.heavy>
22

>  <SCORE.norm>
-0.70825

>  <RMSD>
0.625

$$$$
2et8_lig
 OpenBabel11021811433D
libRbt.so/2013.1/901 2013/11/27
 22 23  0  0  0  0  0  0  0  0999 V2000
   26.4635   17.1201   35.5619 N   0  0  0  0  0  0  0  0  0  0  0  0
   23.8659   14.9175   39.1687 N   0  0  0  0  0  0  0  0  0  0  0  0
   22.1157   10.9576   40.6272 N   0  0  0  0  0  0  0  0  0  0  0  0
   21.9244   15.4024   34.6829 O   0  0  0  0  0  0  0  0  0  0  0  0
   22.7602   16.0119   35.6975 C   0  0  2  0  0  0  0  0  0  0  0  0
   18.6855   15.3368   37.0288 N   0  0  0  0  0  0  0  0  0  0  0  0
   24.1675   17.1094   33.9601 O   0  0  0  0  0  0  0  0  0  0  0  0
   24.2027   16.2547   35.1100 C   0  0  1  0  0  0  0  0  0  0  0  0
   21.6046   14.8748   37.4360 O   0  0  0  0  0  0  0  0  0  0  0  0
   25.0936   16.9029   36.1410 C   0  0  1  0  0  0  0  0  0  0  0  0
   21.3023   12.5956   37.3078 O   0  0  0  0  0  0  0  0  0  0  0  0
   25.1675   15.9958   37.3907 C   0  0  0  0  0  0  0  0  0  0  0  0
   19.7801   12.3364   40.6149 O   0  0  0  0  0  0  0  0  0  0  0  0
   23.7226   15.8064   37.9382 C   0  0  1  0  0  0  0  0  0  0  0  0
   17.8588   13.8949   39.3046 O   0  0  0  0  0  0  0  0  0  0  0  0
   22.8765   15.0575   36.9517 C   0  0  2  0  0  0  0  0  0  0  0  0
   20.7457   13.9464   36.8597 C   0  0  1  0  0  0  0  0  0  0  0  0
   21.2510   12.4016   38.7894 C   0  0  2  0  0  0  0  0  0  0  0  0
   21.7991   11.0117   39.1741 C   0  0  0  0  0  0  0  0  0  0  0  0
   19.8238   12.5028   39.2385 C   0  0  2  0  0  0  0  0  0  0  0  0
   19.2282   13.8334   38.8802 C   0  0  1  0  0  0  0  0  0  0  0  0
   19.2900   14.0075   37.4016 C   0  0  1  0  0  0  0  0  0  0  0  0
  5  4  1  6  0  0  0
  5  8  1  0  0  0  0
  5 16  1  0  0  0  0
  8  7  1  6  0  0  0
  8 10  1  0  0  0  0
 10  1  1  6  0  0  0
 10 12  1  0  0  0  0
 11 18  1  0  0  0  0
 12 14  1  0  0  0  0
 14  2  1  1  0  0  0
 14 16  1  0  0  0  0
 16  9  1  1  0  0  0
 17  9  1  1  0  0  0
 17 11  1  0  0  0  0
 17 22  1  0  0  0  0
 18 19  1  6  0  0  0
 18 20  1  0  0  0  0
 19  3  1  0  0  0  0
 20 13  1  1  0  0  0
 20 21  1  0  0  0  0
 21 15  1  6  0  0  0
 21 22  1  0  0  0  0
 22  6  1  1  0  0  0
M  END
>  <CHROM.1>
81.47344847,73.07934607,163.75352415,21.95672152,14.45673933,37.50754179
-0.85175235,0.10124614,2.29512006

>  <Name>
2et8_lig

>  <RI>
0

>  <Rbt.Current_Directory>
/home/itssahil/PROJECTS/Mol_Feturizer/New_Systems/rnas/2et8

>  <Rbt.Executable>
rbdock ($Id: //depot/dev/client3/rdock/2013.1/src/exe/rbdock.cxx#4 $)

>  <Rbt.Library>
libRbt.so (2013.1, Build901 2013/11/27)

>  <Rbt.Parameter_File>
/export/apps/rDock/src/rDock_2013.1_src/data/scripts/dock_solv.prm

>  <Rbt.Receptor>
prm/pocket_docking_5.prm

>  <SCORE>
-15.6182

>  <SCORE.INTER>
-14.9695

>  <SCORE.INTER.CONST>
1

>  <SCORE.INTER.POLAR>
-0.959166

>  <SCORE.INTER.ROT>
3

>  <SCORE.INTER.SOLV>
16.4239

>  <SCORE.INTER.VDW>
-17.8571

>  <SCORE.INTER.norm>
-0.680431

>  <SCORE.INTRA>
-0.648757

>  <SCORE.INTRA.DIHEDRAL>
-1.1291

>  <SCORE.INTRA.DIHEDRAL.0>
4.99603

>  <SCORE.INTRA.POLAR>
0

>  <SCORE.INTRA.POLAR.0>
0

>  <SCORE.INTRA.REPUL>
0

>  <SCORE.INTRA.REPUL.0>
0

>  <SCORE.INTRA.SOLV>
0.971376

>  <SCORE.INTRA.SOLV.lig_0>
-74.884

>  <SCORE.INTRA.VDW>
-0.569893

>  <SCORE.INTRA.VDW.0>
-0.858933

>  <SCORE.INTRA.norm>
-0.0294889

>  <SCORE.RESTR>
0

>  <SCORE.RESTR.CAVITY>
0

>  <SCORE.RESTR.norm>
0

>  <SCORE.SYSTEM>
0

>  <SCORE.SYSTEM.CONST>
0

>  <SCORE.SYSTEM.DIHEDRAL>
0

>  <SCORE.SYSTEM.SOLV>
0

>  <SCORE.SYSTEM.norm>
0

>  <SCORE.heavy>
22

>  <SCORE.norm>
-0.70992

>  <RMSD>
0.626

$$$$
2et8_lig
 OpenBabel11021811433D
libRbt.so/2013.1/901 2013/11/27
 22 23  0  0  0  0  0  0  0  0999 V2000
   26.4947   17.1125   35.6015 N   0  0  0  0  0  0  0  0  0  0  0  0
   23.8481   14.8887   39.1592 N   0  0  0  0  0  0  0  0  0  0  0  0
   22.1546   10.9769   40.5792 N   0  0  0  0  0  0  0  0  0  0  0  0
   21.9380   15.4702   34.6715 O   0  0  0  0  0  0  0  0  0  0  0  0
   22.7762   16.0523   35.7000 C   0  0  2  0  0  0  0  0  0  0  0  0
   18.6728   15.3554   37.0253 N   0  0  0  0  0  0  0  0  0  0  0  0
   24.2076   17.1580   33.9876 O   0  0  0  0  0  0  0  0  0  0  0  0
   24.2251   16.2849   35.1240 C   0  0  1  0  0  0  0  0  0  0  0  0
   21.5960   14.9037   37.4142 O   0  0  0  0  0  0  0  0  0  0  0  0
   25.1189   16.9047   36.1698 C   0  0  1  0  0  0  0  0  0  0  0  0
   21.3026   12.6240   37.2757 O   0  0  0  0  0  0  0  0  0  0  0  0
   25.1738   15.9772   37.4054 C   0  0  0  0  0  0  0  0  0  0  0  0
   19.7996   12.3411   40.5897 O   0  0  0  0  0  0  0  0  0  0  0  0
   23.7235   15.7987   37.9422 C   0  0  1  0  0  0  0  0  0  0  0  0
   17.8646   13.8983   39.2980 O   0  0  0  0  0  0  0  0  0  0  0  0
   22.8729   15.0769   36.9395 C   0  0  2  0  0  0  0  0  0  0  0  0
   20.7379   13.9747   36.8378 C   0  0  1  0  0  0  0  0  0  0  0  0
   21.2602   12.4220   38.7566 C   0  0  2  0  0  0  0  0  0  0  0  0
   21.8162   11.0325   39.1311 C   0  0  0  0  0  0  0  0  0  0  0  0
   19.8351   12.5149   39.2139 C   0  0  2  0  0  0  0  0  0  0  0  0
   19.2319   13.8447   38.8659 C   0  0  1  0  0  0  0  0  0  0  0  0
   19.2849   14.0268   37.3879 C   0  0  1  0  0  0  0  0  0  0  0  0
  5  4  1  6  0  0  0
  5  8  1  0  0  0  0
  5 16  1  0  0  0  0
  8  7  1  6  0  0  0
  8 10  1  0  0  0  0
 10  1  1  6  0  0  0
 10 12  1  0  0  0  0
 11 18  1  0  0  0  0
 12 14  1  0  0  0  0
 14  2  1  1  0  0  0
 14 16  1  0  0  0  0
 16  9  1  1  0  0  0
 17  9  1  1  0  0  0
 17 11  1  0  0  0  0
 17 22  1  0  0  0  0
 18 19  1  6  0  0  0
 18 20  1  0  0  0  0
 19  3  1  0  0  0  0
 20 13  1  1  0  0  0
 20 21  1  0  0  0  0
 21 15  1  6  0  0  0
 21 22  1  0  0  0  0
 22  6  1  1  0  0  0
M  END
>  <CHROM.1>
82.93222714,71.86815063,163.15030355,21.96626977,14.47364042,37.49876508
-0.84672761,0.09796660,2.30241600

>  <Name>
2et8_lig

>  <RI>
0

>  <Rbt.Current_Directory>
/home/itssahil/PROJECTS/Mol_Feturizer/New_Systems/rnas/2et8

>  <Rbt.Executable>
rbdock ($Id: //depot/dev/client3/rdock/2013.1/src/exe/rbdock.cxx#4 $)

>  <Rbt.Library>
libRbt.so (2013.1, Build901 2013/11/27)

>  <Rbt.Parameter_File>
/export/apps/rDock/src/rDock_2013.1_src/data/scripts/dock_solv.prm

>  <Rbt.Receptor>
prm/pocket_docking_3.prm

>  <SCORE>
-15.5793

>  <SCORE.INTER>
-14.952

>  <SCORE.INTER.CONST>
1

>  <SCORE.INTER.POLAR>
-0.959166

>  <SCORE.INTER.ROT>
3

>  <SCORE.INTER.SOLV>
16.2697

>  <SCORE.INTER.VDW>
-17.794

>  <SCORE.INTER.norm>
-0.679638

>  <SCORE.INTRA>
-0.627251

>  <SCORE.INTRA.DIHEDRAL>
-0.956511

>  <SCORE.INTRA.DIHEDRAL.0>
4.99603

>  <SCORE.INTRA.POLAR>
0

>  <SCORE.INTRA.POLAR.0>
0

>  <SCORE.INTRA.REPUL>
0

>  <SCORE.INTRA.REPUL.0>
0

>  <SCORE.INTRA.SOLV>
1.00913

>  <SCORE.INTRA.SOLV.lig_0>
-74.884

>  <SCORE.INTRA.VDW>
-0.65356

>  <SCORE.INTRA.VDW.0>
-0.858933

>  <SCORE.INTRA.norm>
-0.0285114

>  <SCORE.RESTR>
0

>  <SCORE.RESTR.CAVITY>
0

>  <SCORE.RESTR.norm>
0

>  <SCORE.SYSTEM>
0

>  <SCORE.SYSTEM.CONST>
0

>  <SCORE.SYSTEM.DIHEDRAL>
0

>  <SCORE.SYSTEM.SOLV>
0

>  <SCORE.SYSTEM.norm>
0

>  <SCORE.heavy>
22

>  <SCORE.norm>
-0.70815

>  <RMSD>
0.628

$$$$
2et8_lig
 OpenBabel11021811433D
libRbt.so/2013.1/901 2013/11/27
 22 23  0  0  0  0  0  0  0  0999 V2000
   26.4992   17.0686   35.6082 N   0  0  0  0  0  0  0  0  0  0  0  0
   23.8357   14.8368   39.1484 N   0  0  0  0  0  0  0  0  0  0  0  0
   22.0249   10.9420   40.5743 N   0  0  0  0  0  0  0  0  0  0  0  0
   21.9104   15.5165   34.6810 O   0  0  0  0  0  0  0  0  0  0  0  0
   22.7641   16.0692   35.7130 C   0  0  2  0  0  0  0  0  0  0  0  0
   18.6555   15.4064   37.0438 N   0  0  0  0  0  0  0  0  0  0  0  0
   24.2041   17.1761   34.0086 O   0  0  0  0  0  0  0  0  0  0  0  0
   24.2133   16.2861   35.1319 C   0  0  1  0  0  0  0  0  0  0  0  0
   21.5744   14.9153   37.4170 O   0  0  0  0  0  0  0  0  0  0  0  0
   25.1233   16.8754   36.1815 C   0  0  1  0  0  0  0  0  0  0  0  0
   21.2510   12.6402   37.2688 O   0  0  0  0  0  0  0  0  0  0  0  0
   25.1696   15.9288   37.4029 C   0  0  0  0  0  0  0  0  0  0  0  0
   19.7595   12.3605   40.5883 O   0  0  0  0  0  0  0  0  0  0  0  0
   23.7196   15.7667   37.9456 C   0  0  1  0  0  0  0  0  0  0  0  0
   17.8389   13.9487   39.3131 O   0  0  0  0  0  0  0  0  0  0  0  0
   22.8513   15.0741   36.9374 C   0  0  2  0  0  0  0  0  0  0  0  0
   20.7017   14.0002   36.8400 C   0  0  1  0  0  0  0  0  0  0  0  0
   21.2127   12.4315   38.7488 C   0  0  2  0  0  0  0  0  0  0  0  0
   21.7525   11.0331   39.1141 C   0  0  0  0  0  0  0  0  0  0  0  0
   19.7910   12.5405   39.2132 C   0  0  2  0  0  0  0  0  0  0  0  0
   19.2034   13.8797   38.8744 C   0  0  1  0  0  0  0  0  0  0  0  0
   19.2521   14.0683   37.3971 C   0  0  1  0  0  0  0  0  0  0  0  0
  5  4  1  6  0  0  0
  5  8  1  0  0  0  0
  5 16  1  0  0  0  0
  8  7  1  6  0  0  0
  8 10  1  0  0  0  0
 10  1  1  6  0  0  0
 10 12  1  0  0  0  0
 11 18  1  0  0  0  0
 12 14  1  0  0  0  0
 14  2  1  1  0  0  0
 14 16  1  0  0  0  0
 16  9  1  1  0  0  0
 17  9  1  1  0  0  0
 17 11  1  0  0  0  0
 17 22  1  0  0  0  0
 18 19  1  6  0  0  0
 18 20  1  0  0  0  0
 19  3  1  0  0  0  0
 20 13  1  1  0  0  0
 20 21  1  0  0  0  0
 21 15  1  6  0  0  0
 21 22  1  0  0  0  0
 22  6  1  1  0  0  0
M  END
>  <CHROM.1>
83.55044366,71.85573106,166.31872555,21.93759752,14.48006452,37.50228955
-0.84157806,0.08475964,2.30986061

>  <Name>
2et8_lig

>  <RI>
0

>  <Rbt.Current_Directory>
/home/itssahil/PROJECTS/Mol_Feturizer/New_Systems/rnas/2et8

>  <Rbt.Executable>
rbdock ($Id: //depot/dev/client3/rdock/2013.1/src/exe/rbdock.cxx#4 $)

>  <Rbt.Library>
libRbt.so (2013.1, Build901 2013/11/27)

>  <Rbt.Parameter_File>
/export/apps/rDock/src/rDock_2013.1_src/data/scripts/dock_solv.prm

>  <Rbt.Receptor>
prm/pocket_docking_7.prm

>  <SCORE>
-15.561

>  <SCORE.INTER>
-14.9353

>  <SCORE.INTER.CONST>
1

>  <SCORE.INTER.POLAR>
-0.959166

>  <SCORE.INTER.ROT>
3

>  <SCORE.INTER.SOLV>
16.4855

>  <SCORE.INTER.VDW>
-17.8548

>  <SCORE.INTER.norm>
-0.678879

>  <SCORE.INTRA>
-0.625666

>  <SCORE.INTRA.DIHEDRAL>
-1.16494

>  <SCORE.INTRA.DIHEDRAL.0>
4.99603

>  <SCORE.INTRA.POLAR>
0

>  <SCORE.INTRA.POLAR.0>
0

>  <SCORE.INTRA.REPUL>
0

>  <SCORE.INTRA.REPUL.0>
0

>  <SCORE.INTRA.SOLV>
1.12148

>  <SCORE.INTRA.SOLV.lig_0>
-74.884

>  <SCORE.INTRA.VDW>
-0.603934

>  <SCORE.INTRA.VDW.0>
-0.858933

>  <SCORE.INTRA.norm>
-0.0284394

>  <SCORE.RESTR>
0

>  <SCORE.RESTR.CAVITY>
0

>  <SCORE.RESTR.norm>
0

>  <SCORE.SYSTEM>
0

>  <SCORE.SYSTEM.CONST>
0

>  <SCORE.SYSTEM.DIHEDRAL>
0

>  <SCORE.SYSTEM.SOLV>
0

>  <SCORE.SYSTEM.norm>
0

>  <SCORE.heavy>
22

>  <SCORE.norm>
-0.707319

>  <RMSD>
0.628

$$$$
2et8_lig
 OpenBabel11021811433D
libRbt.so/2013.1/901 2013/11/27
 22 23  0  0  0  0  0  0  0  0999 V2000
   26.7242   17.1934   35.6013 N   0  0  0  0  0  0  0  0  0  0  0  0
   23.8883   15.1415   39.1163 N   0  0  0  0  0  0  0  0  0  0  0  0
   21.3677   10.2081   38.6248 N   0  0  0  0  0  0  0  0  0  0  0  0
   22.2422   15.4548   34.4991 O   0  0  0  0  0  0  0  0  0  0  0  0
   23.0141   16.1015   35.5409 C   0  0  2  0  0  0  0  0  0  0  0  0
   18.8400   15.3577   36.6363 N   0  0  0  0  0  0  0  0  0  0  0  0
   24.5361   17.1259   33.8563 O   0  0  0  0  0  0  0  0  0  0  0  0
   24.4927   16.3171   35.0386 C   0  0  1  0  0  0  0  0  0  0  0  0
   21.7430   15.0369   37.2443 O   0  0  0  0  0  0  0  0  0  0  0  0
   25.3188   17.0029   36.0988 C   0  0  1  0  0  0  0  0  0  0  0  0
   21.5145   12.7468   37.3218 O   0  0  0  0  0  0  0  0  0  0  0  0
   25.3073   16.1455   37.3852 C   0  0  0  0  0  0  0  0  0  0  0  0
   19.8132   12.7520   40.5508 O   0  0  0  0  0  0  0  0  0  0  0  0
   23.8292   15.9817   37.8453 C   0  0  1  0  0  0  0  0  0  0  0  0
   17.9260   14.1119   38.9930 O   0  0  0  0  0  0  0  0  0  0  0  0
   23.0445   15.1969   36.8363 C   0  0  2  0  0  0  0  0  0  0  0  0
   20.9458   14.0289   36.7151 C   0  0  1  0  0  0  0  0  0  0  0  0
   21.3839   12.6933   38.8102 C   0  0  2  0  0  0  0  0  0  0  0  0
   21.9489   11.3659   39.3573 C   0  0  0  0  0  0  0  0  0  0  0  0
   19.9310   12.7879   39.1692 C   0  0  2  0  0  0  0  0  0  0  0  0
   19.3187   14.0571   38.6517 C   0  0  1  0  0  0  0  0  0  0  0  0
   19.4602   14.0915   37.1687 C   0  0  1  0  0  0  0  0  0  0  0  0
  5  4  1  6  0  0  0
  5  8  1  0  0  0  0
  5 16  1  0  0  0  0
  8  7  1  6  0  0  0
  8 10  1  0  0  0  0
 10  1  1  6  0  0  0
 10 12  1  0  0  0  0
 11 18  1  0  0  0  0
 12 14  1  0  0  0  0
 14  2  1  1  0  0  0
 14 16  1  0  0  0  0
 16  9  1  1  0  0  0
 17  9  1  1  0  0  0
 17 11  1  0  0  0  0
 17 22  1  0  0  0  0
 18 19  1  6  0  0  0
 18 20  1  0  0  0  0
 19  3  1  0  0  0  0
 20 13  1  1  0  0  0
 20 21  1  0  0  0  0
 21 15  1  6  0  0  0
 21 22  1  0  0  0  0
 22  6  1  1  0  0  0
M  END
>  <CHROM.1>
85.91385474,71.58743407,-50.96829493,22.08765799,14.57673355,37.31598452
-0.79566098,0.10019589,2.32471492

>  <Name>
2et8_lig

>  <RI>
0

>  <Rbt.Current_Directory>
/home/itssahil/PROJECTS/Mol_Feturizer/New_Systems/rnas/2et8

>  <Rbt.Executable>
rbdock ($Id: //depot/dev/client3/rdock/2013.1/src/exe/rbdock.cxx#4 $)

>  <Rbt.Library>
libRbt.so (2013.1, Build901 2013/11/27)

>  <Rbt.Parameter_File>
/export/apps/rDock/src/rDock_2013.1_src/data/scripts/dock_solv.prm

>  <Rbt.Receptor>
prm/pocket_docking_2.prm

>  <SCORE>
-12.1187

>  <SCORE.INTER>
-11.482

>  <SCORE.INTER.CONST>
1

>  <SCORE.INTER.POLAR>
-0.950377

>  <SCORE.INTER.ROT>
3

>  <SCORE.INTER.SOLV>
23.3362

>  <SCORE.INTER.VDW>
-17.8655

>  <SCORE.INTER.norm>
-0.521908

>  <SCORE.INTRA>
-0.636775

>  <SCORE.INTRA.DIHEDRAL>
-1.13296

>  <SCORE.INTRA.DIHEDRAL.0>
4.99603

>  <SCORE.INTRA.POLAR>
0

>  <SCORE.INTRA.POLAR.0>
0

>  <SCORE.INTRA.REPUL>
0

>  <SCORE.INTRA.REPUL.0>
0

>  <SCORE.INTRA.SOLV>
1.55812

>  <SCORE.INTRA.SOLV.lig_0>
-74.884

>  <SCORE.INTRA.VDW>
-0.849356

>  <SCORE.INTRA.VDW.0>
-0.858933

>  <SCORE.INTRA.norm>
-0.0289443

>  <SCORE.RESTR>
0

>  <SCORE.RESTR.CAVITY>
0

>  <SCORE.RESTR.norm>
0

>  <SCORE.SYSTEM>
0

>  <SCORE.SYSTEM.CONST>
0

>  <SCORE.SYSTEM.DIHEDRAL>
0

>  <SCORE.SYSTEM.SOLV>
0

>  <SCORE.SYSTEM.norm>
0

>  <SCORE.heavy>
22

>  <SCORE.norm>
-0.550852

>  <RMSD>
0.629

$$$$
2et8_lig
 OpenBabel11021811433D
libRbt.so/2013.1/901 2013/11/27
 22 23  0  0  0  0  0  0  0  0999 V2000
   26.4759   17.1187   35.5851 N   0  0  0  0  0  0  0  0  0  0  0  0
   23.8639   14.9063   39.1754 N   0  0  0  0  0  0  0  0  0  0  0  0
   22.1174   10.9554   40.6197 N   0  0  0  0  0  0  0  0  0  0  0  0
   21.9297   15.4279   34.6906 O   0  0  0  0  0  0  0  0  0  0  0  0
   22.7672   16.0272   35.7099 C   0  0  2  0  0  0  0  0  0  0  0  0
   18.6839   15.3458   37.0413 N   0  0  0  0  0  0  0  0  0  0  0  0
   24.1817   17.1288   33.9807 O   0  0  0  0  0  0  0  0  0  0  0  0
   24.2115   16.2668   35.1254 C   0  0  1  0  0  0  0  0  0  0  0  0
   21.6043   14.8850   37.4401 O   0  0  0  0  0  0  0  0  0  0  0  0
   25.1044   16.9044   36.1613 C   0  0  1  0  0  0  0  0  0  0  0  0
   21.3036   12.6060   37.3055 O   0  0  0  0  0  0  0  0  0  0  0  0
   25.1726   15.9893   37.4055 C   0  0  0  0  0  0  0  0  0  0  0  0
   19.7895   12.3353   40.6154 O   0  0  0  0  0  0  0  0  0  0  0  0
   23.7262   15.8035   37.9502 C   0  0  1  0  0  0  0  0  0  0  0  0
   17.8638   13.8962   39.3145 O   0  0  0  0  0  0  0  0  0  0  0  0
   22.8777   15.0646   36.9582 C   0  0  2  0  0  0  0  0  0  0  0  0
   20.7448   13.9577   36.8630 C   0  0  1  0  0  0  0  0  0  0  0  0
   21.2560   12.4073   38.7866 C   0  0  2  0  0  0  0  0  0  0  0  0
   21.8061   11.0167   39.1658 C   0  0  0  0  0  0  0  0  0  0  0  0
   19.8298   12.5060   39.2394 C   0  0  2  0  0  0  0  0  0  0  0  0
   19.2322   13.8371   38.8867 C   0  0  1  0  0  0  0  0  0  0  0  0
   19.2903   14.0159   37.4085 C   0  0  1  0  0  0  0  0  0  0  0  0
  5  4  1  6  0  0  0
  5  8  1  0  0  0  0
  5 16  1  0  0  0  0
  8  7  1  6  0  0  0
  8 10  1  0  0  0  0
 10  1  1  6  0  0  0
 10 12  1  0  0  0  0
 11 18  1  0  0  0  0
 12 14  1  0  0  0  0
 14  2  1  1  0  0  0
 14 16  1  0  0  0  0
 16  9  1  1  0  0  0
 17  9  1  1  0  0  0
 17 11  1  0  0  0  0
 17 22  1  0  0  0  0
 18 19  1  6  0  0  0
 18 20  1  0  0  0  0
 19  3  1  0  0  0  0
 20 13  1  1  0  0  0
 20 21  1  0  0  0  0
 21 15  1  6  0  0  0
 21 22  1  0  0  0  0
 22  6  1  1  0  0  0
M  END
>  <CHROM.1>
81.92143955,72.69241746,164.14357987,21.96146721,14.46254214,37.51493780
-0.85040880,0.09947634,2.29876895

>  <Name>
2et8_lig

>  <RI>
0

>  <Rbt.Current_Directory>
/home/itssahil/PROJECTS/Mol_Feturizer/New_Systems/rnas/2et8

>  <Rbt.Executable>
rbdock ($Id: //depot/dev/client3/rdock/2013.1/src/exe/rbdock.cxx#4 $)

>  <Rbt.Library>
libRbt.so (2013.1, Build901 2013/11/27)

>  <Rbt.Parameter_File>
/export/apps/rDock/src/rDock_2013.1_src/data/scripts/dock_solv.prm

>  <Rbt.Receptor>
prm/pocket_docking_5.prm

>  <SCORE>
-15.6175

>  <SCORE.INTER>
-14.9682

>  <SCORE.INTER.CONST>
1

>  <SCORE.INTER.POLAR>
-0.959166

>  <SCORE.INTER.ROT>
3

>  <SCORE.INTER.SOLV>
16.3697

>  <SCORE.INTER.VDW>
-17.8381

>  <SCORE.INTER.norm>
-0.680372

>  <SCORE.INTRA>
-0.649326

>  <SCORE.INTRA.DIHEDRAL>
-1.13944

>  <SCORE.INTRA.DIHEDRAL.0>
4.99603

>  <SCORE.INTRA.POLAR>
0

>  <SCORE.INTRA.POLAR.0>
0

>  <SCORE.INTRA.REPUL>
0

>  <SCORE.INTRA.REPUL.0>
0

>  <SCORE.INTRA.SOLV>
0.996736

>  <SCORE.INTRA.SOLV.lig_0>
-74.884

>  <SCORE.INTRA.VDW>
-0.577972

>  <SCORE.INTRA.VDW.0>
-0.858933

>  <SCORE.INTRA.norm>
-0.0295148

>  <SCORE.RESTR>
0

>  <SCORE.RESTR.CAVITY>
0

>  <SCORE.RESTR.norm>
0

>  <SCORE.SYSTEM>
0

>  <SCORE.SYSTEM.CONST>
0

>  <SCORE.SYSTEM.DIHEDRAL>
0

>  <SCORE.SYSTEM.SOLV>
0

>  <SCORE.SYSTEM.norm>
0

>  <SCORE.heavy>
22

>  <SCORE.norm>
-0.709887

>  <RMSD>
0.629

$$$$
2et8_lig
 OpenBabel11021811433D
libRbt.so/2013.1/901 2013/11/27
 22 23  0  0  0  0  0  0  0  0999 V2000
   26.5131   17.0841   35.5850 N   0  0  0  0  0  0  0  0  0  0  0  0
   23.8547   14.9099   39.1646 N   0  0  0  0  0  0  0  0  0  0  0  0
   22.1405   10.9742   40.6030 N   0  0  0  0  0  0  0  0  0  0  0  0
   21.9621   15.4224   34.6612 O   0  0  0  0  0  0  0  0  0  0  0  0
   22.7955   16.0208   35.6843 C   0  0  2  0  0  0  0  0  0  0  0  0
   18.6855   15.3414   37.0217 N   0  0  0  0  0  0  0  0  0  0  0  0
   24.2325   17.1028   33.9614 O   0  0  0  0  0  0  0  0  0  0  0  0
   24.2464   16.2467   35.1107 C   0  0  1  0  0  0  0  0  0  0  0  0
   21.6097   14.8963   37.4105 O   0  0  0  0  0  0  0  0  0  0  0  0
   25.1353   16.8830   36.1508 C   0  0  1  0  0  0  0  0  0  0  0  0
   21.3197   12.6154   37.2841 O   0  0  0  0  0  0  0  0  0  0  0  0
   25.1862   15.9739   37.4002 C   0  0  0  0  0  0  0  0  0  0  0  0
   19.8199   12.3474   40.6007 O   0  0  0  0  0  0  0  0  0  0  0  0
   23.7340   15.8016   37.9337 C   0  0  1  0  0  0  0  0  0  0  0  0
   17.8814   13.8948   39.3026 O   0  0  0  0  0  0  0  0  0  0  0  0
   22.8883   15.0640   36.9385 C   0  0  2  0  0  0  0  0  0  0  0  0
   20.7526   13.9630   36.8396 C   0  0  1  0  0  0  0  0  0  0  0  0
   21.2789   12.4211   38.7660 C   0  0  2  0  0  0  0  0  0  0  0  0
   21.8374   11.0344   39.1473 C   0  0  0  0  0  0  0  0  0  0  0  0
   19.8540   12.5141   39.2241 C   0  0  2  0  0  0  0  0  0  0  0  0
   19.2484   13.8412   38.8696 C   0  0  1  0  0  0  0  0  0  0  0  0
   19.2999   14.0157   37.3907 C   0  0  1  0  0  0  0  0  0  0  0  0
  5  4  1  6  0  0  0
  5  8  1  0  0  0  0
  5 16  1  0  0  0  0
  8  7  1  6  0  0  0
  8 10  1  0  0  0  0
 10  1  1  6  0  0  0
 10 12  1  0  0  0  0
 11 18  1  0  0  0  0
 12 14  1  0  0  0  0
 14  2  1  1  0  0  0
 14 16  1  0  0  0  0
 16  9  1  1  0  0  0
 17  9  1  1  0  0  0
 17 11  1  0  0  0  0
 17 22  1  0  0  0  0
 18 19  1  6  0  0  0
 18 20  1  0  0  0  0
 19  3  1  0  0  0  0
 20 13  1  1  0  0  0
 20 21  1  0  0  0  0
 21 15  1  6  0  0  0
 21 22  1  0  0  0  0
 22  6  1  1  0  0  0
M  END
>  <CHROM.1>
82.57106362,71.51886907,164.77134915,21.98184742,14.46107469,37.49760691
-0.84578102,0.09928069,2.29380280

>  <Name>
2et8_lig

>  <RI>
0

>  <Rbt.Current_Directory>
/home/itssahil/PROJECTS/Mol_Feturizer/New_Systems/rnas/2et8

>  <Rbt.Executable>
rbdock ($Id: //depot/dev/client3/rdock/2013.1/src/exe/rbdock.cxx#4 $)

>  <Rbt.Library>
libRbt.so (2013.1, Build901 2013/11/27)

>  <Rbt.Parameter_File>
/export/apps/rDock/src/rDock_2013.1_src/data/scripts/dock_solv.prm

>  <Rbt.Receptor>
prm/pocket_docking_3.prm

>  <SCORE>
-15.6136

>  <SCORE.INTER>
-14.9112

>  <SCORE.INTER.CONST>
1

>  <SCORE.INTER.POLAR>
-0.959166

>  <SCORE.INTER.ROT>
3

>  <SCORE.INTER.SOLV>
16.411

>  <SCORE.INTER.VDW>
-17.8139

>  <SCORE.INTER.norm>
-0.677782

>  <SCORE.INTRA>
-0.702408

>  <SCORE.INTRA.DIHEDRAL>
-1.22128

>  <SCORE.INTRA.DIHEDRAL.0>
4.99603

>  <SCORE.INTRA.POLAR>
0

>  <SCORE.INTRA.POLAR.0>
0

>  <SCORE.INTRA.REPUL>
0

>  <SCORE.INTRA.REPUL.0>
0

>  <SCORE.INTRA.SOLV>
1.01997

>  <SCORE.INTRA.SOLV.lig_0>
-74.884

>  <SCORE.INTRA.VDW>
-0.601757

>  <SCORE.INTRA.VDW.0>
-0.858933

>  <SCORE.INTRA.norm>
-0.0319276

>  <SCORE.RESTR>
0

>  <SCORE.RESTR.CAVITY>
0

>  <SCORE.RESTR.norm>
0

>  <SCORE.SYSTEM>
0

>  <SCORE.SYSTEM.CONST>
0

>  <SCORE.SYSTEM.DIHEDRAL>
0

>  <SCORE.SYSTEM.SOLV>
0

>  <SCORE.SYSTEM.norm>
0

>  <SCORE.heavy>
22

>  <SCORE.norm>
-0.70971

>  <RMSD>
0.635

$$$$
2et8_lig
 OpenBabel11021811433D
libRbt.so/2013.1/901 2013/11/27
 22 23  0  0  0  0  0  0  0  0999 V2000
   26.5127   17.0804   35.5926 N   0  0  0  0  0  0  0  0  0  0  0  0
   23.8616   14.8935   39.1699 N   0  0  0  0  0  0  0  0  0  0  0  0
   22.1488   10.9689   40.6061 N   0  0  0  0  0  0  0  0  0  0  0  0
   21.9534   15.4372   34.6766 O   0  0  0  0  0  0  0  0  0  0  0  0
   22.7924   16.0273   35.6999 C   0  0  2  0  0  0  0  0  0  0  0  0
   18.6854   15.3477   37.0452 N   0  0  0  0  0  0  0  0  0  0  0  0
   24.2261   17.1149   33.9778 O   0  0  0  0  0  0  0  0  0  0  0  0
   24.2418   16.2522   35.1221 C   0  0  1  0  0  0  0  0  0  0  0  0
   21.6099   14.8964   37.4242 O   0  0  0  0  0  0  0  0  0  0  0  0
   25.1365   16.8800   36.1624 C   0  0  1  0  0  0  0  0  0  0  0  0
   21.3153   12.6163   37.2941 O   0  0  0  0  0  0  0  0  0  0  0  0
   25.1895   15.9637   37.4065 C   0  0  0  0  0  0  0  0  0  0  0  0
   19.8250   12.3445   40.6147 O   0  0  0  0  0  0  0  0  0  0  0  0
   23.7388   15.7926   37.9445 C   0  0  1  0  0  0  0  0  0  0  0  0
   17.8855   13.8980   39.3255 O   0  0  0  0  0  0  0  0  0  0  0  0
   22.8872   15.0631   36.9483 C   0  0  2  0  0  0  0  0  0  0  0  0
   20.7493   13.9658   36.8541 C   0  0  1  0  0  0  0  0  0  0  0  0
   21.2786   12.4191   38.7757 C   0  0  2  0  0  0  0  0  0  0  0  0
   21.8356   11.0306   39.1525 C   0  0  0  0  0  0  0  0  0  0  0  0
   19.8553   12.5138   39.2383 C   0  0  2  0  0  0  0  0  0  0  0  0
   19.2511   13.8427   38.8883 C   0  0  1  0  0  0  0  0  0  0  0  0
   19.2984   14.0201   37.4096 C   0  0  1  0  0  0  0  0  0  0  0  0
  5  4  1  6  0  0  0
  5  8  1  0  0  0  0
  5 16  1  0  0  0  0
  8  7  1  6  0  0  0
  8 10  1  0  0  0  0
 10  1  1  6  0  0  0
 10 12  1  0  0  0  0
 11 18  1  0  0  0  0
 12 14  1  0  0  0  0
 14  2  1  1  0  0  0
 14 16  1  0  0  0  0
 16  9  1  1  0  0  0
 17  9  1  1  0  0  0
 17 11  1  0  0  0  0
 17 22  1  0  0  0  0
 18 19  1  6  0  0  0
 18 20  1  0  0  0  0
 19  3  1  0  0  0  0
 20 13  1  1  0  0  0
 20 21  1  0  0  0  0
 21 15  1  6  0  0  0
 21 22  1  0  0  0  0
 22  6  1  1  0  0  0
M  END
>  <CHROM.1>
82.77901503,71.54696881,164.51518933,21.98189673,14.46128229,37.51033731
-0.84689369,0.09554204,2.29710651

>  <Name>
2et8_lig

>  <RI>
0

>  <Rbt.Current_Directory>
/home/itssahil/PROJECTS/Mol_Feturizer/New_Systems/rnas/2et8

>  <Rbt.Executable>
rbdock ($Id: //depot/dev/client3/rdock/2013.1/src/exe/rbdock.cxx#4 $)

>  <Rbt.Library>
libRbt.so (2013.1, Build901 2013/11/27)

>  <Rbt.Parameter_File>
/export/apps/rDock/src/rDock_2013.1_src/data/scripts/dock_solv.prm

>  <Rbt.Receptor>
prm/pocket_docking_5.prm

>  <SCORE>
-15.6146

>  <SCORE.INTER>
-14.9327

>  <SCORE.INTER.CONST>
1

>  <SCORE.INTER.POLAR>
-0.959166

>  <SCORE.INTER.ROT>
3

>  <SCORE.INTER.SOLV>
16.3788

>  <SCORE.INTER.VDW>
-17.8175

>  <SCORE.INTER.norm>
-0.678757

>  <SCORE.INTRA>
-0.681941

>  <SCORE.INTRA.DIHEDRAL>
-1.15764

>  <SCORE.INTRA.DIHEDRAL.0>
4.99603

>  <SCORE.INTRA.POLAR>
0

>  <SCORE.INTRA.POLAR.0>
0

>  <SCORE.INTRA.REPUL>
0

>  <SCORE.INTRA.REPUL.0>
0

>  <SCORE.INTRA.SOLV>
1.02616

>  <SCORE.INTRA.SOLV.lig_0>
-74.884

>  <SCORE.INTRA.VDW>
-0.616199

>  <SCORE.INTRA.VDW.0>
-0.858933

>  <SCORE.INTRA.norm>
-0.0309973

>  <SCORE.RESTR>
0

>  <SCORE.RESTR.CAVITY>
0

>  <SCORE.RESTR.norm>
0

>  <SCORE.SYSTEM>
0

>  <SCORE.SYSTEM.CONST>
0

>  <SCORE.SYSTEM.DIHEDRAL>
0

>  <SCORE.SYSTEM.SOLV>
0

>  <SCORE.SYSTEM.norm>
0

>  <SCORE.heavy>
22

>  <SCORE.norm>
-0.709754

>  <RMSD>
0.635

$$$$
2et8_lig
 OpenBabel11021811433D
libRbt.so/2013.1/901 2013/11/27
 22 23  0  0  0  0  0  0  0  0999 V2000
   26.5160   17.0805   35.6319 N   0  0  0  0  0  0  0  0  0  0  0  0
   23.8482   14.8631   39.1778 N   0  0  0  0  0  0  0  0  0  0  0  0
   22.1102   10.9538   40.5864 N   0  0  0  0  0  0  0  0  0  0  0  0
   21.9491   15.4741   34.6893 O   0  0  0  0  0  0  0  0  0  0  0  0
   22.7899   16.0466   35.7211 C   0  0  2  0  0  0  0  0  0  0  0  0
   18.6791   15.3723   37.0390 N   0  0  0  0  0  0  0  0  0  0  0  0
   24.2318   17.1480   34.0148 O   0  0  0  0  0  0  0  0  0  0  0  0
   24.2413   16.2708   35.1481 C   0  0  1  0  0  0  0  0  0  0  0  0
   21.5989   14.9004   37.4295 O   0  0  0  0  0  0  0  0  0  0  0  0
   25.1379   16.8805   36.1974 C   0  0  1  0  0  0  0  0  0  0  0  0
   21.2909   12.6231   37.2835 O   0  0  0  0  0  0  0  0  0  0  0  0
   25.1843   15.9483   37.4298 C   0  0  0  0  0  0  0  0  0  0  0  0
   19.7825   12.3395   40.5949 O   0  0  0  0  0  0  0  0  0  0  0  0
   23.7320   15.7783   37.9638 C   0  0  1  0  0  0  0  0  0  0  0  0
   17.8590   13.9132   39.3061 O   0  0  0  0  0  0  0  0  0  0  0  0
   22.8777   15.0661   36.9573 C   0  0  2  0  0  0  0  0  0  0  0  0
   20.7354   13.9788   36.8492 C   0  0  1  0  0  0  0  0  0  0  0  0
   21.2456   12.4167   38.7636 C   0  0  2  0  0  0  0  0  0  0  0  0
   21.7922   11.0224   39.1342 C   0  0  0  0  0  0  0  0  0  0  0  0
   19.8206   12.5173   39.2198 C   0  0  2  0  0  0  0  0  0  0  0  0
   19.2264   13.8522   38.8753 C   0  0  1  0  0  0  0  0  0  0  0  0
   19.2822   14.0386   37.3979 C   0  0  1  0  0  0  0  0  0  0  0  0
  5  4  1  6  0  0  0
  5  8  1  0  0  0  0
  5 16  1  0  0  0  0
  8  7  1  6  0  0  0
  8 10  1  0  0  0  0
 10  1  1  6  0  0  0
 10 12  1  0  0  0  0
 11 18  1  0  0  0  0
 12 14  1  0  0  0  0
 14  2  1  1  0  0  0
 14 16  1  0  0  0  0
 16  9  1  1  0  0  0
 17  9  1  1  0  0  0
 17 11  1  0  0  0  0
 17 22  1  0  0  0  0
 18 19  1  6  0  0  0
 18 20  1  0  0  0  0
 19  3  1  0  0  0  0
 20 13  1  1  0  0  0
 20 21  1  0  0  0  0
 21 15  1  6  0  0  0
 21 22  1  0  0  0  0
 22  6  1  1  0  0  0
M  END
>  <CHROM.1>
82.98665322,71.81885000,163.96773007,21.96602827,14.46685869,37.51391533
-0.84127681,0.09389335,2.30510420

>  <Name>
2et8_lig

>  <RI>
0

>  <Rbt.Current_Directory>
/home/itssahil/PROJECTS/Mol_Feturizer/New_Systems/rnas/2et8

>  <Rbt.Executable>
rbdock ($Id: //depot/dev/client3/rdock/2013.1/src/exe/rbdock.cxx#4 $)

>  <Rbt.Library>
libRbt.so (2013.1, Build901 2013/11/27)

>  <Rbt.Parameter_File>
/export/apps/rDock/src/rDock_2013.1_src/data/scripts/dock_solv.prm

>  <Rbt.Receptor>
prm/pocket_docking_3.prm

>  <SCORE>
-15.5853

>  <SCORE.INTER>
-14.9435

>  <SCORE.INTER.CONST>
1

>  <SCORE.INTER.POLAR>
-0.959166

>  <SCORE.INTER.ROT>
3

>  <SCORE.INTER.SOLV>
16.3913

>  <SCORE.INTER.VDW>
-17.8289

>  <SCORE.INTER.norm>
-0.679248

>  <SCORE.INTRA>
-0.641803

>  <SCORE.INTRA.DIHEDRAL>
-1.03806

>  <SCORE.INTRA.DIHEDRAL.0>
4.99603

>  <SCORE.INTRA.POLAR>
0

>  <SCORE.INTRA.POLAR.0>
0

>  <SCORE.INTRA.REPUL>
0

>  <SCORE.INTRA.REPUL.0>
0

>  <SCORE.INTRA.SOLV>
1.03112

>  <SCORE.INTRA.SOLV.lig_0>
-74.884

>  <SCORE.INTRA.VDW>
-0.638332

>  <SCORE.INTRA.VDW.0>
-0.858933

>  <SCORE.INTRA.norm>
-0.0291729

>  <SCORE.RESTR>
0

>  <SCORE.RESTR.CAVITY>
0

>  <SCORE.RESTR.norm>
0

>  <SCORE.SYSTEM>
0

>  <SCORE.SYSTEM.CONST>
0

>  <SCORE.SYSTEM.DIHEDRAL>
0

>  <SCORE.SYSTEM.SOLV>
0

>  <SCORE.SYSTEM.norm>
0

>  <SCORE.heavy>
22

>  <SCORE.norm>
-0.708421

>  <RMSD>
0.637

$$$$
2et8_lig
 OpenBabel11021811433D
libRbt.so/2013.1/901 2013/11/27
 22 23  0  0  0  0  0  0  0  0999 V2000
   25.4089   17.0422   34.3103 N   0  0  0  0  0  0  0  0  0  0  0  0
   23.4341   15.2918   38.5107 N   0  0  0  0  0  0  0  0  0  0  0  0
   22.6083   11.2071   39.3183 N   0  0  0  0  0  0  0  0  0  0  0  0
   20.9737   14.8848   34.2791 O   0  0  0  0  0  0  0  0  0  0  0  0
   21.8581   15.7123   35.0744 C   0  0  2  0  0  0  0  0  0  0  0  0
   18.0946   15.1993   36.5983 N   0  0  0  0  0  0  0  0  0  0  0  0
   22.9605   16.6024   33.0259 O   0  0  0  0  0  0  0  0  0  0  0  0
   23.1992   15.9556   34.2824 C   0  0  1  0  0  0  0  0  0  0  0  0
   21.0085   14.8013   37.0989 O   0  0  0  0  0  0  0  0  0  0  0  0
   24.1365   16.8278   35.0809 C   0  0  1  0  0  0  0  0  0  0  0  0
   20.6807   12.5497   37.4531 O   0  0  0  0  0  0  0  0  0  0  0  0
   24.4292   16.1488   36.4386 C   0  0  0  0  0  0  0  0  0  0  0  0
   19.1575   13.0096   40.7378 O   0  0  0  0  0  0  0  0  0  0  0  0
   23.0765   15.9512   37.1833 C   0  0  1  0  0  0  0  0  0  0  0  0
   17.2530   14.2783   39.1252 O   0  0  0  0  0  0  0  0  0  0  0  0
   22.1976   14.9905   36.4386 C   0  0  2  0  0  0  0  0  0  0  0  0
   20.1390   13.7819   36.7296 C   0  0  1  0  0  0  0  0  0  0  0  0
   20.6280   12.6726   38.9422 C   0  0  2  0  0  0  0  0  0  0  0  0
   21.1607   11.3890   39.6120 C   0  0  0  0  0  0  0  0  0  0  0  0
   19.2023   12.8819   39.3573 C   0  0  2  0  0  0  0  0  0  0  0  0
   18.6214   14.1136   38.7258 C   0  0  1  0  0  0  0  0  0  0  0  0
   18.6843   13.9718   37.2438 C   0  0  1  0  0  0  0  0  0  0  0  0
  5  4  1  6  0  0  0
  5  8  1  0  0  0  0
  5 16  1  0  0  0  0
  8  7  1  6  0  0  0
  8 10  1  0  0  0  0
 10  1  1  6  0  0  0
 10 12  1  0  0  0  0
 11 18  1  0  0  0  0
 12 14  1  0  0  0  0
 14  2  1  1  0  0  0
 14 16  1  0  0  0  0
 16  9  1  1  0  0  0
 17  9  1  1  0  0  0
 17 11  1  0  0  0  0
 17 22  1  0  0  0  0
 18 19  1  1  0  0  0
 18 20  1  0  0  0  0
 19  3  1  0  0  0  0
 20 13  1  1  0  0  0
 20 21  1  0  0  0  0
 21 15  1  1  0  0  0
 21 22  1  0  0  0  0
 22  6  1  6  0  0  0
M  END
>  <CHROM.1>
77.37014318,83.52591818,65.40639318,21.28127134,14.50026080,37.07204955,-0.91203293
0.01853274,2.19917011

>  <Name>
2et8_lig

>  <RI>
0

>  <Rbt.Current_Directory>
/home/itssahil/PROJECTS/Mol_Feturizer/New_Systems/rnas/2et8

>  <Rbt.Executable>
rbdock ($Id: //depot/dev/client3/rdock/2013.1/src/exe/rbdock.cxx#4 $)

>  <Rbt.Library>
libRbt.so (2013.1, Build901 2013/11/27)

>  <Rbt.Parameter_File>
/export/apps/rDock/src/rDock_2013.1_src/data/scripts/dock_solv.prm

>  <Rbt.Receptor>
prm/pocket_docking_2.prm

>  <SCORE>
-15.1035

>  <SCORE.INTER>
-14.0882

>  <SCORE.INTER.CONST>
1

>  <SCORE.INTER.POLAR>
-0.959166

>  <SCORE.INTER.ROT>
3

>  <SCORE.INTER.SOLV>
17.5516

>  <SCORE.INTER.VDW>
-17.6455

>  <SCORE.INTER.norm>
-0.640375

>  <SCORE.INTRA>
-1.01521

>  <SCORE.INTRA.DIHEDRAL>
-1.00151

>  <SCORE.INTRA.DIHEDRAL.0>
4.99603

>  <SCORE.INTRA.POLAR>
0

>  <SCORE.INTRA.POLAR.0>
0

>  <SCORE.INTRA.REPUL>
0

>  <SCORE.INTRA.REPUL.0>
0

>  <SCORE.INTRA.SOLV>
0.110967

>  <SCORE.INTRA.SOLV.lig_0>
-74.884

>  <SCORE.INTRA.VDW>
-0.569942

>  <SCORE.INTRA.VDW.0>
-0.858933

>  <SCORE.INTRA.norm>
-0.046146

>  <SCORE.RESTR>
0

>  <SCORE.RESTR.CAVITY>
0

>  <SCORE.RESTR.norm>
0

>  <SCORE.SYSTEM>
0

>  <SCORE.SYSTEM.CONST>
0

>  <SCORE.SYSTEM.DIHEDRAL>
0

>  <SCORE.SYSTEM.SOLV>
0

>  <SCORE.SYSTEM.norm>
0

>  <SCORE.heavy>
22

>  <SCORE.norm>
-0.686521

>  <RMSD>
0.906

$$$$
2et8_lig
 OpenBabel11021811433D
libRbt.so/2013.1/901 2013/11/27
 22 23  0  0  0  0  0  0  0  0999 V2000
   25.3715   17.0086   34.2749 N   0  0  0  0  0  0  0  0  0  0  0  0
   23.4567   15.3109   38.5246 N   0  0  0  0  0  0  0  0  0  0  0  0
   22.6100   11.1763   39.4115 N   0  0  0  0  0  0  0  0  0  0  0  0
   20.9748   14.7740   34.3201 O   0  0  0  0  0  0  0  0  0  0  0  0
   21.8499   15.6330   35.0918 C   0  0  2  0  0  0  0  0  0  0  0  0
   18.1206   15.1551   36.6229 N   0  0  0  0  0  0  0  0  0  0  0  0
   22.9224   16.4998   33.0176 O   0  0  0  0  0  0  0  0  0  0  0  0
   23.1811   15.8833   34.2853 C   0  0  1  0  0  0  0  0  0  0  0  0
   21.0304   14.7492   37.1407 O   0  0  0  0  0  0  0  0  0  0  0  0
   24.1084   16.7879   35.0590 C   0  0  1  0  0  0  0  0  0  0  0  0
   20.6920   12.5015   37.5091 O   0  0  0  0  0  0  0  0  0  0  0  0
   24.4223   16.1423   36.4282 C   0  0  0  0  0  0  0  0  0  0  0  0
   19.1545   12.9906   40.7830 O   0  0  0  0  0  0  0  0  0  0  0  0
   23.0785   15.9365   37.1865 C   0  0  1  0  0  0  0  0  0  0  0  0
   17.2630   14.2553   39.1521 O   0  0  0  0  0  0  0  0  0  0  0  0
   22.2114   14.9455   36.4681 C   0  0  2  0  0  0  0  0  0  0  0  0
   20.1587   13.7307   36.7743 C   0  0  1  0  0  0  0  0  0  0  0  0
   20.6325   12.6352   38.9971 C   0  0  2  0  0  0  0  0  0  0  0  0
   21.1568   11.3542   39.6786 C   0  0  0  0  0  0  0  0  0  0  0  0
   19.2056   12.8530   39.4037 C   0  0  2  0  0  0  0  0  0  0  0  0
   18.6326   14.0825   38.7606 C   0  0  1  0  0  0  0  0  0  0  0  0
   18.7023   13.9299   37.2800 C   0  0  1  0  0  0  0  0  0  0  0  0
  5  4  1  6  0  0  0
  5  8  1  0  0  0  0
  5 16  1  0  0  0  0
  8  7  1  6  0  0  0
  8 10  1  0  0  0  0
 10  1  1  6  0  0  0
 10 12  1  0  0  0  0
 11 18  1  0  0  0  0
 12 14  1  0  0  0  0
 14  2  1  1  0  0  0
 14 16  1  0  0  0  0
 16  9  1  1  0  0  0
 17  9  1  1  0  0  0
 17 11  1  0  0  0  0
 17 22  1  0  0  0  0
 18 19  1  1  0  0  0
 18 20  1  0  0  0  0
 19  3  1  0  0  0  0
 20 13  1  1  0  0  0
 20 21  1  0  0  0  0
 21 15  1  1  0  0  0
 21 22  1  0  0  0  0
 22  6  1  6  0  0  0
M  END
>  <CHROM.1>
75.54113407,84.81248839,66.31858368,21.28229483,14.45749177,37.09979465,-0.91946391
0.02151704,2.18922193

>  <Name>
2et8_lig

>  <RI>
0

>  <Rbt.Current_Directory>
/home/itssahil/PROJECTS/Mol_Feturizer/New_Systems/rnas/2et8

>  <Rbt.Executable>
rbdock ($Id: //depot/dev/client3/rdock/2013.1/src/exe/rbdock.cxx#4 $)

>  <Rbt.Library>
libRbt.so (2013.1, Build901 2013/11/27)

>  <Rbt.Parameter_File>
/export/apps/rDock/src/rDock_2013.1_src/data/scripts/dock_solv.prm

>  <Rbt.Receptor>
prm/pocket_docking_2.prm

>  <SCORE>
-15.1931

>  <SCORE.INTER>
-14.24

>  <SCORE.INTER.CONST>
1

>  <SCORE.INTER.POLAR>
-0.959166

>  <SCORE.INTER.ROT>
3

>  <SCORE.INTER.SOLV>
17.5727

>  <SCORE.INTER.VDW>
-17.7537

>  <SCORE.INTER.norm>
-0.647273

>  <SCORE.INTRA>
-0.953047

>  <SCORE.INTRA.DIHEDRAL>
-0.990972

>  <SCORE.INTRA.DIHEDRAL.0>
4.99603

>  <SCORE.INTRA.POLAR>
0

>  <SCORE.INTRA.POLAR.0>
0

>  <SCORE.INTRA.REPUL>
0

>  <SCORE.INTRA.REPUL.0>
0

>  <SCORE.INTRA.SOLV>
-0.0358835

>  <SCORE.INTRA.SOLV.lig_0>
-74.884

>  <SCORE.INTRA.VDW>
-0.439619

>  <SCORE.INTRA.VDW.0>
-0.858933

>  <SCORE.INTRA.norm>
-0.0433203

>  <SCORE.RESTR>
0

>  <SCORE.RESTR.CAVITY>
0

>  <SCORE.RESTR.norm>
0

>  <SCORE.SYSTEM>
0

>  <SCORE.SYSTEM.CONST>
0

>  <SCORE.SYSTEM.DIHEDRAL>
0

>  <SCORE.SYSTEM.SOLV>
0

>  <SCORE.SYSTEM.norm>
0

>  <SCORE.heavy>
22

>  <SCORE.norm>
-0.690593

>  <RMSD>
0.923

$$$$
2et8_lig
 OpenBabel11021811433D
libRbt.so/2013.1/901 2013/11/27
 22 23  0  0  0  0  0  0  0  0999 V2000
   25.3687   17.0233   34.2920 N   0  0  0  0  0  0  0  0  0  0  0  0
   23.3916   15.3053   38.5047 N   0  0  0  0  0  0  0  0  0  0  0  0
   22.5979   11.2207   39.3143 N   0  0  0  0  0  0  0  0  0  0  0  0
   20.9341   14.8646   34.2747 O   0  0  0  0  0  0  0  0  0  0  0  0
   21.8177   15.6985   35.0641 C   0  0  2  0  0  0  0  0  0  0  0  0
   18.0482   15.1962   36.6195 N   0  0  0  0  0  0  0  0  0  0  0  0
   22.9213   16.5729   33.0095 O   0  0  0  0  0  0  0  0  0  0  0  0
   23.1593   15.9360   34.2711 C   0  0  1  0  0  0  0  0  0  0  0  0
   20.9670   14.8031   37.0951 O   0  0  0  0  0  0  0  0  0  0  0  0
   24.0959   16.8146   35.0635 C   0  0  1  0  0  0  0  0  0  0  0  0
   20.6466   12.5502   37.4476 O   0  0  0  0  0  0  0  0  0  0  0  0
   24.3878   16.1463   36.4266 C   0  0  0  0  0  0  0  0  0  0  0  0
   19.1498   13.0007   40.7458 O   0  0  0  0  0  0  0  0  0  0  0  0
   23.0347   15.9542   37.1719 C   0  0  1  0  0  0  0  0  0  0  0  0
   17.2295   14.2687   39.1514 O   0  0  0  0  0  0  0  0  0  0  0  0
   22.1565   14.9875   36.4341 C   0  0  2  0  0  0  0  0  0  0  0  0
   20.0965   13.7827   36.7310 C   0  0  1  0  0  0  0  0  0  0  0  0
   20.6061   12.6702   38.9374 C   0  0  2  0  0  0  0  0  0  0  0  0
   21.1469   11.3863   39.6003 C   0  0  0  0  0  0  0  0  0  0  0  0
   19.1834   12.8758   39.3647 C   0  0  2  0  0  0  0  0  0  0  0  0
   18.5948   14.1076   38.7404 C   0  0  1  0  0  0  0  0  0  0  0  0
   18.6457   13.9687   37.2577 C   0  0  1  0  0  0  0  0  0  0  0  0
  5  4  1  6  0  0  0
  5  8  1  0  0  0  0
  5 16  1  0  0  0  0
  8  7  1  6  0  0  0
  8 10  1  0  0  0  0
 10  1  1  6  0  0  0
 10 12  1  0  0  0  0
 11 18  1  0  0  0  0
 12 14  1  0  0  0  0
 14  2  1  1  0  0  0
 14 16  1  0  0  0  0
 16  9  1  1  0  0  0
 17  9  1  1  0  0  0
 17 11  1  0  0  0  0
 17 22  1  0  0  0  0
 18 19  1  1  0  0  0
 18 20  1  0  0  0  0
 19  3  1  0  0  0  0
 20 13  1  1  0  0  0
 20 21  1  0  0  0  0
 21 15  1  1  0  0  0
 21 22  1  0  0  0  0
 22  6  1  6  0  0  0
M  END
>  <CHROM.1>
77.21065965,82.85494585,66.41122951,21.24812507,14.49418967,37.06992824,-0.91404104
0.01659037,2.19602473

>  <Name>
2et8_lig

>  <RI>
0

>  <Rbt.Current_Directory>
/home/itssahil/PROJECTS/Mol_Feturizer/New_Systems/rnas/2et8

>  <Rbt.Executable>
rbdock ($Id: //depot/dev/client3/rdock/2013.1/src/exe/rbdock.cxx#4 $)

>  <Rbt.Library>
libRbt.so (2013.1, Build901 2013/11/27)

>  <Rbt.Parameter_File>
/export/apps/rDock/src/rDock_2013.1_src/data/scripts/dock_solv.prm

>  <Rbt.Receptor>
prm/pocket_docking_2.prm

>  <SCORE>
-15.1526

>  <SCORE.INTER>
-14.0873

>  <SCORE.INTER.CONST>
1

>  <SCORE.INTER.POLAR>
-0.959166

>  <SCORE.INTER.ROT>
3

>  <SCORE.INTER.SOLV>
17.5012

>  <SCORE.INTER.VDW>
-17.6281

>  <SCORE.INTER.norm>
-0.640333

>  <SCORE.INTRA>
-1.06528

>  <SCORE.INTRA.DIHEDRAL>
-1.09771

>  <SCORE.INTRA.DIHEDRAL.0>
4.99603

>  <SCORE.INTRA.POLAR>
0

>  <SCORE.INTRA.POLAR.0>
0

>  <SCORE.INTRA.REPUL>
0

>  <SCORE.INTRA.REPUL.0>
0

>  <SCORE.INTRA.SOLV>
0.086482

>  <SCORE.INTRA.SOLV.lig_0>
-74.884

>  <SCORE.INTRA.VDW>
-0.55967

>  <SCORE.INTRA.VDW.0>
-0.858933

>  <SCORE.INTRA.norm>
-0.0484219

>  <SCORE.RESTR>
0

>  <SCORE.RESTR.CAVITY>
0

>  <SCORE.RESTR.norm>
0

>  <SCORE.SYSTEM>
0

>  <SCORE.SYSTEM.CONST>
0

>  <SCORE.SYSTEM.DIHEDRAL>
0

>  <SCORE.SYSTEM.SOLV>
0

>  <SCORE.SYSTEM.norm>
0

>  <SCORE.heavy>
22

>  <SCORE.norm>
-0.688755

>  <RMSD>
0.940

$$$$
2et8_lig
 OpenBabel11021811433D
libRbt.so/2013.1/901 2013/11/27
 22 23  0  0  0  0  0  0  0  0999 V2000
   25.3800   17.0003   34.2833 N   0  0  0  0  0  0  0  0  0  0  0  0
   23.3766   15.3698   38.5183 N   0  0  0  0  0  0  0  0  0  0  0  0
   22.6101   11.2689   39.3808 N   0  0  0  0  0  0  0  0  0  0  0  0
   20.9677   14.7962   34.2763 O   0  0  0  0  0  0  0  0  0  0  0  0
   21.8347   15.6590   35.0531 C   0  0  2  0  0  0  0  0  0  0  0  0
   18.0540   15.1722   36.5954 N   0  0  0  0  0  0  0  0  0  0  0  0
   22.9507   16.4922   32.9880 O   0  0  0  0  0  0  0  0  0  0  0  0
   23.1819   15.8901   34.2679 C   0  0  1  0  0  0  0  0  0  0  0  0
   20.9719   14.8069   37.0976 O   0  0  0  0  0  0  0  0  0  0  0  0
   24.1013   16.7982   35.0469 C   0  0  1  0  0  0  0  0  0  0  0  0
   20.6643   12.5579   37.4845 O   0  0  0  0  0  0  0  0  0  0  0  0
   24.3858   16.1679   36.4296 C   0  0  0  0  0  0  0  0  0  0  0  0
   19.1414   13.0517   40.7645 O   0  0  0  0  0  0  0  0  0  0  0  0
   23.0270   15.9809   37.1658 C   0  0  1  0  0  0  0  0  0  0  0  0
   17.2238   14.2803   39.1365 O   0  0  0  0  0  0  0  0  0  0  0  0
   22.1663   14.9867   36.4442 C   0  0  2  0  0  0  0  0  0  0  0  0
   20.1109   13.7748   36.7442 C   0  0  1  0  0  0  0  0  0  0  0  0
   20.6125   12.7018   38.9718 C   0  0  2  0  0  0  0  0  0  0  0  0
   21.1574   11.4326   39.6593 C   0  0  0  0  0  0  0  0  0  0  0  0
   19.1856   12.9045   39.3859 C   0  0  2  0  0  0  0  0  0  0  0  0
   18.5930   14.1219   38.7376 C   0  0  1  0  0  0  0  0  0  0  0  0
   18.6553   13.9593   37.2576 C   0  0  1  0  0  0  0  0  0  0  0  0
  5  4  1  6  0  0  0
  5  8  1  0  0  0  0
  5 16  1  0  0  0  0
  8  7  1  6  0  0  0
  8 10  1  0  0  0  0
 10  1  1  6  0  0  0
 10 12  1  0  0  0  0
 11 18  1  0  0  0  0
 12 14  1  0  0  0  0
 14  2  1  1  0  0  0
 14 16  1  0  0  0  0
 16  9  1  1  0  0  0
 17  9  1  1  0  0  0
 17 11  1  0  0  0  0
 17 22  1  0  0  0  0
 18 19  1  1  0  0  0
 18 20  1  0  0  0  0
 19  3  1  0  0  0  0
 20 13  1  1  0  0  0
 20 21  1  0  0  0  0
 21 15  1  1  0  0  0
 21 22  1  0  0  0  0
 22  6  1  6  0  0  0
M  END
>  <CHROM.1>
76.71966614,82.68831299,66.14752828,21.25611155,14.49559095,37.07770464,-0.91108494
0.02641410,2.17706167

>  <Name>
2et8_lig

>  <RI>
0

>  <Rbt.Current_Directory>
/home/itssahil/PROJECTS/Mol_Feturizer/New_Systems/rnas/2et8

>  <Rbt.Executable>
rbdock ($Id: //depot/dev/client3/rdock/2013.1/src/exe/rbdock.cxx#4 $)

>  <Rbt.Library>
libRbt.so (2013.1, Build901 2013/11/27)

>  <Rbt.Parameter_File>
/export/apps/rDock/src/rDock_2013.1_src/data/scripts/dock_solv.prm

>  <Rbt.Receptor>
prm/pocket_docking_2.prm

>  <SCORE>
-15.1093

>  <SCORE.INTER>
-13.9884

>  <SCORE.INTER.CONST>
1

>  <SCORE.INTER.POLAR>
-0.959166

>  <SCORE.INTER.ROT>
3

>  <SCORE.INTER.SOLV>
17.351

>  <SCORE.INTER.VDW>
-17.5121

>  <SCORE.INTER.norm>
-0.635838

>  <SCORE.INTRA>
-1.12089

>  <SCORE.INTRA.DIHEDRAL>
-1.20765

>  <SCORE.INTRA.DIHEDRAL.0>
4.99603

>  <SCORE.INTRA.POLAR>
0

>  <SCORE.INTRA.POLAR.0>
0

>  <SCORE.INTRA.REPUL>
0

>  <SCORE.INTRA.REPUL.0>
0

>  <SCORE.INTRA.SOLV>
0.0302942

>  <SCORE.INTRA.SOLV.lig_0>
-74.884

>  <SCORE.INTRA.VDW>
-0.532209

>  <SCORE.INTRA.VDW.0>
-0.858933

>  <SCORE.INTRA.norm>
-0.0509493

>  <SCORE.RESTR>
0

>  <SCORE.RESTR.CAVITY>
0

>  <SCORE.RESTR.norm>
0

>  <SCORE.SYSTEM>
0

>  <SCORE.SYSTEM.CONST>
0

>  <SCORE.SYSTEM.DIHEDRAL>
0

>  <SCORE.SYSTEM.SOLV>
0

>  <SCORE.SYSTEM.norm>
0

>  <SCORE.heavy>
22

>  <SCORE.norm>
-0.686787

>  <RMSD>
0.946

$$$$
2et8_lig
 OpenBabel11021811433D
libRbt.so/2013.1/901 2013/11/27
 22 23  0  0  0  0  0  0  0  0999 V2000
   25.3669   17.0063   34.2743 N   0  0  0  0  0  0  0  0  0  0  0  0
   23.3897   15.3094   38.4955 N   0  0  0  0  0  0  0  0  0  0  0  0
   22.5894   11.2153   39.3044 N   0  0  0  0  0  0  0  0  0  0  0  0
   20.9290   14.8543   34.2689 O   0  0  0  0  0  0  0  0  0  0  0  0
   21.8144   15.6903   35.0542 C   0  0  2  0  0  0  0  0  0  0  0  0
   18.0450   15.2150   36.6264 N   0  0  0  0  0  0  0  0  0  0  0  0
   22.9180   16.5542   32.9952 O   0  0  0  0  0  0  0  0  0  0  0  0
   23.1558   15.9223   34.2594 C   0  0  1  0  0  0  0  0  0  0  0  0
   20.9635   14.8049   37.0895 O   0  0  0  0  0  0  0  0  0  0  0  0
   24.0942   16.8029   35.0474 C   0  0  1  0  0  0  0  0  0  0  0  0
   20.6330   12.5519   37.4323 O   0  0  0  0  0  0  0  0  0  0  0  0
   24.3859   16.1400   36.4132 C   0  0  0  0  0  0  0  0  0  0  0  0
   19.1505   12.9939   40.7380 O   0  0  0  0  0  0  0  0  0  0  0  0
   23.0330   15.9531   37.1601 C   0  0  1  0  0  0  0  0  0  0  0  0
   17.2308   14.2793   39.1568 O   0  0  0  0  0  0  0  0  0  0  0  0
   22.1529   14.9846   36.4271 C   0  0  2  0  0  0  0  0  0  0  0  0
   20.0865   13.7906   36.7237 C   0  0  1  0  0  0  0  0  0  0  0  0
   20.5985   12.6648   38.9227 C   0  0  2  0  0  0  0  0  0  0  0  0
   21.1352   11.3750   39.5774 C   0  0  0  0  0  0  0  0  0  0  0  0
   19.1785   12.8755   39.3562 C   0  0  2  0  0  0  0  0  0  0  0  0
   18.5938   14.1133   38.7401 C   0  0  1  0  0  0  0  0  0  0  0  0
   18.6387   13.9814   37.2565 C   0  0  1  0  0  0  0  0  0  0  0  0
  5  4  1  6  0  0  0
  5  8  1  0  0  0  0
  5 16  1  0  0  0  0
  8  7  1  6  0  0  0
  8 10  1  0  0  0  0
 10  1  1  6  0  0  0
 10 12  1  0  0  0  0
 11 18  1  0  0  0  0
 12 14  1  0  0  0  0
 14  2  1  1  0  0  0
 14 16  1  0  0  0  0
 16  9  1  1  0  0  0
 17  9  1  1  0  0  0
 17 11  1  0  0  0  0
 17 22  1  0  0  0  0
 18 19  1  1  0  0  0
 18 20  1  0  0  0  0
 19  3  1  0  0  0  0
 20 13  1  1  0  0  0
 20 21  1  0  0  0  0
 21 15  1  1  0  0  0
 21 22  1  0  0  0  0
 22  6  1  6  0  0  0
M  END
>  <CHROM.1>
76.71279793,82.70798500,67.35772709,21.24373996,14.49160578,37.06098324,-0.91330809
0.01200951,2.19685015

>  <Name>
2et8_lig

>  <RI>
0

>  <Rbt.Current_Directory>
/home/itssahil/PROJECTS/Mol_Feturizer/New_Systems/rnas/2et8

>  <Rbt.Executable>
rbdock ($Id: //depot/dev/client3/rdock/2013.1/src/exe/rbdock.cxx#4 $)

>  <Rbt.Library>
libRbt.so (2013.1, Build901 2013/11/27)

>  <Rbt.Parameter_File>
/export/apps/rDock/src/rDock_2013.1_src/data/scripts/dock_solv.prm

>  <Rbt.Receptor>
prm/pocket_docking_2.prm

>  <SCORE>
-15.1768

>  <SCORE.INTER>
-14.0886

>  <SCORE.INTER.CONST>
1

>  <SCORE.INTER.POLAR>
-0.959166

>  <SCORE.INTER.ROT>
3

>  <SCORE.INTER.SOLV>
17.559

>  <SCORE.INTER.VDW>
-17.6481

>  <SCORE.INTER.norm>
-0.640389

>  <SCORE.INTRA>
-1.08821

>  <SCORE.INTRA.DIHEDRAL>
-1.14714

>  <SCORE.INTRA.DIHEDRAL.0>
4.99603

>  <SCORE.INTRA.POLAR>
0

>  <SCORE.INTRA.POLAR.0>
0

>  <SCORE.INTRA.REPUL>
0

>  <SCORE.INTRA.REPUL.0>
0

>  <SCORE.INTRA.SOLV>
0.0366939

>  <SCORE.INTRA.SOLV.lig_0>
-74.884

>  <SCORE.INTRA.VDW>
-0.532988

>  <SCORE.INTRA.VDW.0>
-0.858933

>  <SCORE.INTRA.norm>
-0.049464

>  <SCORE.RESTR>
0

>  <SCORE.RESTR.CAVITY>
0

>  <SCORE.RESTR.norm>
0

>  <SCORE.SYSTEM>
0

>  <SCORE.SYSTEM.CONST>
0

>  <SCORE.SYSTEM.DIHEDRAL>
0

>  <SCORE.SYSTEM.SOLV>
0

>  <SCORE.SYSTEM.norm>
0

>  <SCORE.heavy>
22

>  <SCORE.norm>
-0.689853

>  <RMSD>
0.947

$$$$
2et8_lig
 OpenBabel11021811433D
libRbt.so/2013.1/901 2013/11/27
 22 23  0  0  0  0  0  0  0  0999 V2000
   25.3408   17.0142   34.2936 N   0  0  0  0  0  0  0  0  0  0  0  0
   23.3444   15.3053   38.5010 N   0  0  0  0  0  0  0  0  0  0  0  0
   22.6041   11.2475   39.3157 N   0  0  0  0  0  0  0  0  0  0  0  0
   20.9076   14.8526   34.2603 O   0  0  0  0  0  0  0  0  0  0  0  0
   21.7869   15.6890   35.0519 C   0  0  2  0  0  0  0  0  0  0  0  0
   18.0024   15.1541   36.6115 N   0  0  0  0  0  0  0  0  0  0  0  0
   22.8998   16.5591   33.0004 O   0  0  0  0  0  0  0  0  0  0  0  0
   23.1321   15.9254   34.2648 C   0  0  1  0  0  0  0  0  0  0  0  0
   20.9270   14.7981   37.0810 O   0  0  0  0  0  0  0  0  0  0  0  0
   24.0643   16.8066   35.0594 C   0  0  1  0  0  0  0  0  0  0  0  0
   20.6336   12.5444   37.4513 O   0  0  0  0  0  0  0  0  0  0  0  0
   24.3501   16.1418   36.4256 C   0  0  0  0  0  0  0  0  0  0  0  0
   19.1417   13.0024   40.7506 O   0  0  0  0  0  0  0  0  0  0  0  0
   22.9935   15.9507   37.1648 C   0  0  1  0  0  0  0  0  0  0  0  0
   17.2021   14.2362   39.1528 O   0  0  0  0  0  0  0  0  0  0  0  0
   22.1195   14.9817   36.4253 C   0  0  2  0  0  0  0  0  0  0  0  0
   20.0672   13.7651   36.7272 C   0  0  1  0  0  0  0  0  0  0  0  0
   20.5962   12.6750   38.9402 C   0  0  2  0  0  0  0  0  0  0  0  0
   21.1537   11.4025   39.6110 C   0  0  0  0  0  0  0  0  0  0  0  0
   19.1726   12.8675   39.3704 C   0  0  2  0  0  0  0  0  0  0  0  0
   18.5679   14.0877   38.7388 C   0  0  1  0  0  0  0  0  0  0  0  0
   18.6160   13.9383   37.2569 C   0  0  1  0  0  0  0  0  0  0  0  0
  5  4  1  6  0  0  0
  5  8  1  0  0  0  0
  5 16  1  0  0  0  0
  8  7  1  6  0  0  0
  8 10  1  0  0  0  0
 10  1  1  6  0  0  0
 10 12  1  0  0  0  0
 11 18  1  0  0  0  0
 12 14  1  0  0  0  0
 14  2  1  1  0  0  0
 14 16  1  0  0  0  0
 16  9  1  1  0  0  0
 17  9  1  1  0  0  0
 17 11  1  0  0  0  0
 17 22  1  0  0  0  0
 18 19  1  1  0  0  0
 18 20  1  0  0  0  0
 19  3  1  0  0  0  0
 20 13  1  1  0  0  0
 20 21  1  0  0  0  0
 21 15  1  1  0  0  0
 21 22  1  0  0  0  0
 22  6  1  6  0  0  0
M  END
>  <CHROM.1>
78.09532268,82.08486006,66.10636644,21.22299147,14.48559488,37.06702291,-0.91522252
0.02278471,2.18922550

>  <Name>
2et8_lig

>  <RI>
0

>  <Rbt.Current_Directory>
/home/itssahil/PROJECTS/Mol_Feturizer/New_Systems/rnas/2et8

>  <Rbt.Executable>
rbdock ($Id: //depot/dev/client3/rdock/2013.1/src/exe/rbdock.cxx#4 $)

>  <Rbt.Library>
libRbt.so (2013.1, Build901 2013/11/27)

>  <Rbt.Parameter_File>
/export/apps/rDock/src/rDock_2013.1_src/data/scripts/dock_solv.prm

>  <Rbt.Receptor>
prm/pocket_docking_2.prm

>  <SCORE>
-15.1471

>  <SCORE.INTER>
-14.0692

>  <SCORE.INTER.CONST>
1

>  <SCORE.INTER.POLAR>
-0.959166

>  <SCORE.INTER.ROT>
3

>  <SCORE.INTER.SOLV>
17.4738

>  <SCORE.INTER.VDW>
-17.6068

>  <SCORE.INTER.norm>
-0.639509

>  <SCORE.INTRA>
-1.07801

>  <SCORE.INTRA.DIHEDRAL>
-1.11316

>  <SCORE.INTRA.DIHEDRAL.0>
4.99603

>  <SCORE.INTRA.POLAR>
0

>  <SCORE.INTRA.POLAR.0>
0

>  <SCORE.INTRA.REPUL>
0

>  <SCORE.INTRA.REPUL.0>
0

>  <SCORE.INTRA.SOLV>
0.161591

>  <SCORE.INTRA.SOLV.lig_0>
-74.884

>  <SCORE.INTRA.VDW>
-0.602226

>  <SCORE.INTRA.VDW.0>
-0.858933

>  <SCORE.INTRA.norm>
-0.0490005

>  <SCORE.RESTR>
9.7862e-05

>  <SCORE.RESTR.CAVITY>
9.7862e-05

>  <SCORE.RESTR.norm>
4.44827e-06

>  <SCORE.SYSTEM>
0

>  <SCORE.SYSTEM.CONST>
0

>  <SCORE.SYSTEM.DIHEDRAL>
0

>  <SCORE.SYSTEM.SOLV>
0

>  <SCORE.SYSTEM.norm>
0

>  <SCORE.heavy>
22

>  <SCORE.norm>
-0.688505

>  <RMSD>
0.971

$$$$
2et8_lig
 OpenBabel11021811433D
libRbt.so/2013.1/901 2013/11/27
 22 23  0  0  0  0  0  0  0  0999 V2000
   25.1326   16.9187   33.9848 N   0  0  0  0  0  0  0  0  0  0  0  0
   23.3168   15.4360   38.3565 N   0  0  0  0  0  0  0  0  0  0  0  0
   22.5789   11.2955   39.3626 N   0  0  0  0  0  0  0  0  0  0  0  0
   20.7571   14.6565   34.2374 O   0  0  0  0  0  0  0  0  0  0  0  0
   21.6399   15.5621   34.9446 C   0  0  2  0  0  0  0  0  0  0  0  0
   17.9358   15.1444   36.6439 N   0  0  0  0  0  0  0  0  0  0  0  0
   22.6637   16.3250   32.8060 O   0  0  0  0  0  0  0  0  0  0  0  0
   22.9526   15.7791   34.0992 C   0  0  1  0  0  0  0  0  0  0  0  0
   20.8686   14.7828   37.0537 O   0  0  0  0  0  0  0  0  0  0  0  0
   23.8872   16.7307   34.8048 C   0  0  1  0  0  0  0  0  0  0  0  0
   20.5703   12.5439   37.5016 O   0  0  0  0  0  0  0  0  0  0  0  0
   24.2336   16.1614   36.1998 C   0  0  0  0  0  0  0  0  0  0  0  0
   19.1619   13.1152   40.8199 O   0  0  0  0  0  0  0  0  0  0  0  0
   22.9068   15.9863   36.9949 C   0  0  1  0  0  0  0  0  0  0  0  0
   17.1918   14.3120   39.2314 O   0  0  0  0  0  0  0  0  0  0  0  0
   22.0344   14.9519   36.3479 C   0  0  2  0  0  0  0  0  0  0  0  0
   19.9940   13.7453   36.7534 C   0  0  1  0  0  0  0  0  0  0  0  0
   20.5699   12.7212   38.9862 C   0  0  2  0  0  0  0  0  0  0  0  0
   21.1357   11.4664   39.6830 C   0  0  0  0  0  0  0  0  0  0  0  0
   19.1584   12.9370   39.4443 C   0  0  2  0  0  0  0  0  0  0  0  0
   18.5462   14.1411   38.7894 C   0  0  1  0  0  0  0  0  0  0  0  0
   18.5573   13.9451   37.3123 C   0  0  1  0  0  0  0  0  0  0  0  0
  5  4  1  6  0  0  0
  5  8  1  0  0  0  0
  5 16  1  0  0  0  0
  8  7  1  6  0  0  0
  8 10  1  0  0  0  0
 10  1  1  6  0  0  0
 10 12  1  0  0  0  0
 11 18  1  0  0  0  0
 12 14  1  0  0  0  0
 14  2  1  1  0  0  0
 14 16  1  0  0  0  0
 16  9  1  1  0  0  0
 17  9  1  1  0  0  0
 17 11  1  0  0  0  0
 17 22  1  0  0  0  0
 18 19  1  1  0  0  0
 18 20  1  0  0  0  0
 19  3  1  0  0  0  0
 20 13  1  1  0  0  0
 20 21  1  0  0  0  0
 21 15  1  1  0  0  0
 21 22  1  0  0  0  0
 22  6  1  6  0  0  0
M  END
>  <CHROM.1>
75.07766284,83.27992771,66.35614624,21.13993483,14.47156463,37.01886894,-0.94520953
0.00737842,2.15061780

>  <Name>
2et8_lig

>  <RI>
0

>  <Rbt.Current_Directory>
/home/itssahil/PROJECTS/Mol_Feturizer/New_Systems/rnas/2et8

>  <Rbt.Executable>
rbdock ($Id: //depot/dev/client3/rdock/2013.1/src/exe/rbdock.cxx#4 $)

>  <Rbt.Library>
libRbt.so (2013.1, Build901 2013/11/27)

>  <Rbt.Parameter_File>
/export/apps/rDock/src/rDock_2013.1_src/data/scripts/dock_solv.prm

>  <Rbt.Receptor>
prm/pocket_docking_3.prm

>  <SCORE>
-15.3346

>  <SCORE.INTER>
-14.1938

>  <SCORE.INTER.CONST>
1

>  <SCORE.INTER.POLAR>
-0.959166

>  <SCORE.INTER.ROT>
3

>  <SCORE.INTER.SOLV>
17.24

>  <SCORE.INTER.VDW>
-17.612

>  <SCORE.INTER.norm>
-0.645173

>  <SCORE.INTRA>
-1.14085

>  <SCORE.INTRA.DIHEDRAL>
-1.31856

>  <SCORE.INTRA.DIHEDRAL.0>
4.99603

>  <SCORE.INTRA.POLAR>
0

>  <SCORE.INTRA.POLAR.0>
0

>  <SCORE.INTRA.REPUL>
0

>  <SCORE.INTRA.REPUL.0>
0

>  <SCORE.INTRA.SOLV>
-0.116058

>  <SCORE.INTRA.SOLV.lig_0>
-74.884

>  <SCORE.INTRA.VDW>
-0.423537

>  <SCORE.INTRA.VDW.0>
-0.858933

>  <SCORE.INTRA.norm>
-0.0518567

>  <SCORE.RESTR>
0

>  <SCORE.RESTR.CAVITY>
0

>  <SCORE.RESTR.norm>
0

>  <SCORE.SYSTEM>
0

>  <SCORE.SYSTEM.CONST>
0

>  <SCORE.SYSTEM.DIHEDRAL>
0

>  <SCORE.SYSTEM.SOLV>
0

>  <SCORE.SYSTEM.norm>
0

>  <SCORE.heavy>
22

>  <SCORE.norm>
-0.69703

>  <RMSD>
1.121

$$$$
2et8_lig
 OpenBabel11021811433D
libRbt.so/2013.1/901 2013/11/27
 22 23  0  0  0  0  0  0  0  0999 V2000
   25.1370   16.9200   33.9912 N   0  0  0  0  0  0  0  0  0  0  0  0
   23.3306   15.4162   38.3596 N   0  0  0  0  0  0  0  0  0  0  0  0
   22.5074   11.3257   39.4797 N   0  0  0  0  0  0  0  0  0  0  0  0
   20.7589   14.6629   34.2432 O   0  0  0  0  0  0  0  0  0  0  0  0
   21.6448   15.5633   34.9529 C   0  0  2  0  0  0  0  0  0  0  0  0
   17.9582   15.1348   36.5655 N   0  0  0  0  0  0  0  0  0  0  0  0
   22.6641   16.3364   32.8157 O   0  0  0  0  0  0  0  0  0  0  0  0
   22.9556   15.7830   34.1052 C   0  0  1  0  0  0  0  0  0  0  0  0
   20.8780   14.7737   37.0598 O   0  0  0  0  0  0  0  0  0  0  0  0
   23.8935   16.7294   34.8135 C   0  0  1  0  0  0  0  0  0  0  0  0
   20.5589   12.5483   37.5579 O   0  0  0  0  0  0  0  0  0  0  0  0
   24.2427   16.1520   36.2044 C   0  0  0  0  0  0  0  0  0  0  0  0
   19.0685   13.2110   40.8229 O   0  0  0  0  0  0  0  0  0  0  0  0
   22.9178   15.9745   37.0021 C   0  0  1  0  0  0  0  0  0  0  0  0
   17.1447   14.3729   39.1538 O   0  0  0  0  0  0  0  0  0  0  0  0
   22.0421   14.9449   36.3518 C   0  0  2  0  0  0  0  0  0  0  0  0
   20.0070   13.7318   36.7642 C   0  0  1  0  0  0  0  0  0  0  0  0
   20.5213   12.7643   39.0368 C   0  0  2  0  0  0  0  0  0  0  0  0
   21.0638   11.5261   39.7803 C   0  0  0  0  0  0  0  0  0  0  0  0
   19.0995   12.9970   39.4528 C   0  0  2  0  0  0  0  0  0  0  0  0
   18.5093   14.1857   38.7513 C   0  0  1  0  0  0  0  0  0  0  0  0
   18.5573   13.9512   37.2805 C   0  0  1  0  0  0  0  0  0  0  0  0
  5  4  1  6  0  0  0
  5  8  1  0  0  0  0
  5 16  1  0  0  0  0
  8  7  1  6  0  0  0
  8 10  1  0  0  0  0
 10  1  1  6  0  0  0
 10 12  1  0  0  0  0
 11 18  1  0  0  0  0
 12 14  1  0  0  0  0
 14  2  1  1  0  0  0
 14 16  1  0  0  0  0
 16  9  1  1  0  0  0
 17  9  1  1  0  0  0
 17 11  1  0  0  0  0
 17 22  1  0  0  0  0
 18 19  1  1  0  0  0
 18 20  1  0  0  0  0
 19  3  1  0  0  0  0
 20 13  1  1  0  0  0
 20 21  1  0  0  0  0
 21 15  1  1  0  0  0
 21 22  1  0  0  0  0
 22  6  1  6  0  0  0
M  END
>  <CHROM.1>
75.67360219,85.34799731,65.20150391,21.12433390,14.48793693,37.02725023,-0.94001605
0.01625512,2.13838068

>  <Name>
2et8_lig

>  <RI>
0

>  <Rbt.Current_Directory>
/home/itssahil/PROJECTS/Mol_Feturizer/New_Systems/rnas/2et8

>  <Rbt.Executable>
rbdock ($Id: //depot/dev/client3/rdock/2013.1/src/exe/rbdock.cxx#4 $)

>  <Rbt.Library>
libRbt.so (2013.1, Build901 2013/11/27)

>  <Rbt.Parameter_File>
/export/apps/rDock/src/rDock_2013.1_src/data/scripts/dock_solv.prm

>  <Rbt.Receptor>
prm/pocket_docking_3.prm

>  <SCORE>
-15.2788

>  <SCORE.INTER>
-14.3598

>  <SCORE.INTER.CONST>
1

>  <SCORE.INTER.POLAR>
-0.959166

>  <SCORE.INTER.ROT>
3

>  <SCORE.INTER.SOLV>
16.806

>  <SCORE.INTER.VDW>
-17.578

>  <SCORE.INTER.norm>
-0.652718

>  <SCORE.INTRA>
-0.918964

>  <SCORE.INTRA.DIHEDRAL>
-0.924056

>  <SCORE.INTRA.DIHEDRAL.0>
4.99603

>  <SCORE.INTRA.POLAR>
0

>  <SCORE.INTRA.POLAR.0>
0

>  <SCORE.INTRA.REPUL>
0

>  <SCORE.INTRA.REPUL.0>
0

>  <SCORE.INTRA.SOLV>
-0.0167005

>  <SCORE.INTRA.SOLV.lig_0>
-74.884

>  <SCORE.INTRA.VDW>
-0.448586

>  <SCORE.INTRA.VDW.0>
-0.858933

>  <SCORE.INTRA.norm>
-0.0417711

>  <SCORE.RESTR>
0

>  <SCORE.RESTR.CAVITY>
0

>  <SCORE.RESTR.norm>
0

>  <SCORE.SYSTEM>
0

>  <SCORE.SYSTEM.CONST>
0

>  <SCORE.SYSTEM.DIHEDRAL>
0

>  <SCORE.SYSTEM.SOLV>
0

>  <SCORE.SYSTEM.norm>
0

>  <SCORE.heavy>
22

>  <SCORE.norm>
-0.694489

>  <RMSD>
1.124

$$$$
2et8_lig
 OpenBabel11021811433D
libRbt.so/2013.1/901 2013/11/27
 22 23  0  0  0  0  0  0  0  0999 V2000
   25.6390   17.3403   34.3494 N   0  0  0  0  0  0  0  0  0  0  0  0
   22.8951   16.1771   38.3150 N   0  0  0  0  0  0  0  0  0  0  0  0
   21.3361   10.6830   38.8803 N   0  0  0  0  0  0  0  0  0  0  0  0
   21.4753   14.7469   33.8356 O   0  0  0  0  0  0  0  0  0  0  0  0
   22.1029   15.7953   34.6142 C   0  0  2  0  0  0  0  0  0  0  0  0
   17.9244   14.9581   36.2604 N   0  0  0  0  0  0  0  0  0  0  0  0
   23.5741   16.4134   32.7017 O   0  0  0  0  0  0  0  0  0  0  0  0
   23.5680   16.0345   34.0839 C   0  0  1  0  0  0  0  0  0  0  0  0
   20.8842   15.1799   36.5601 O   0  0  0  0  0  0  0  0  0  0  0  0
   24.2435   17.1330   34.8676 C   0  0  1  0  0  0  0  0  0  0  0  0
   21.0437   12.9339   37.0425 O   0  0  0  0  0  0  0  0  0  0  0  0
   24.2694   16.7468   36.3644 C   0  0  0  0  0  0  0  0  0  0  0  0
   19.6712   13.2799   40.4067 O   0  0  0  0  0  0  0  0  0  0  0  0
   22.8006   16.5425   36.8377 C   0  0  1  0  0  0  0  0  0  0  0  0
   17.4500   14.0432   38.8833 O   0  0  0  0  0  0  0  0  0  0  0  0
   22.1757   15.3737   36.1354 C   0  0  2  0  0  0  0  0  0  0  0  0
   20.2181   13.9871   36.3047 C   0  0  1  0  0  0  0  0  0  0  0  0
   21.0621   13.1342   38.5241 C   0  0  2  0  0  0  0  0  0  0  0  0
   21.8859   12.0256   39.2115 C   0  0  0  0  0  0  0  0  0  0  0  0
   19.6530   13.0800   39.0342 C   0  0  2  0  0  0  0  0  0  0  0  0
   18.7950   14.1306   38.3910 C   0  0  1  0  0  0  0  0  0  0  0  0
   18.7909   13.9143   36.9167 C   0  0  1  0  0  0  0  0  0  0  0  0
  5  4  1  6  0  0  0
  5  8  1  0  0  0  0
  5 16  1  0  0  0  0
  8  7  1  6  0  0  0
  8 10  1  0  0  0  0
 10  1  1  6  0  0  0
 10 12  1  0  0  0  0
 11 18  1  0  0  0  0
 12 14  1  0  0  0  0
 14  2  1  1  0  0  0
 14 16  1  0  0  0  0
 16  9  1  1  0  0  0
 17  9  1  1  0  0  0
 17 11  1  0  0  0  0
 17 22  1  0  0  0  0
 18 19  1  1  0  0  0
 18 20  1  0  0  0  0
 19  3  1  0  0  0  0
 20 13  1  1  0  0  0
 20 21  1  0  0  0  0
 21 15  1  1  0  0  0
 21 22  1  0  0  0  0
 22  6  1  6  0  0  0
M  END
>  <CHROM.1>
81.55538094,62.24997077,-57.58179595,21.40418523,14.69432632,36.74988669
-0.89123049,0.17201436,2.11223930

>  <Name>
2et8_lig

>  <RI>
0

>  <Rbt.Current_Directory>
/home/itssahil/PROJECTS/Mol_Feturizer/New_Systems/rnas/2et8

>  <Rbt.Executable>
rbdock ($Id: //depot/dev/client3/rdock/2013.1/src/exe/rbdock.cxx#4 $)

>  <Rbt.Library>
libRbt.so (2013.1, Build901 2013/11/27)

>  <Rbt.Parameter_File>
/export/apps/rDock/src/rDock_2013.1_src/data/scripts/dock_solv.prm

>  <Rbt.Receptor>
prm/pocket_docking_2.prm

>  <SCORE>
-12.6205

>  <SCORE.INTER>
-11.2505

>  <SCORE.INTER.CONST>
1

>  <SCORE.INTER.POLAR>
-1.31477

>  <SCORE.INTER.ROT>
3

>  <SCORE.INTER.SOLV>
20.2456

>  <SCORE.INTER.VDW>
-15.4663

>  <SCORE.INTER.norm>
-0.511388

>  <SCORE.INTRA>
-1.37

>  <SCORE.INTRA.DIHEDRAL>
-2.75814

>  <SCORE.INTRA.DIHEDRAL.0>
4.99603

>  <SCORE.INTRA.POLAR>
0

>  <SCORE.INTRA.POLAR.0>
0

>  <SCORE.INTRA.REPUL>
0

>  <SCORE.INTRA.REPUL.0>
0

>  <SCORE.INTRA.SOLV>
1.21585

>  <SCORE.INTRA.SOLV.lig_0>
-74.884

>  <SCORE.INTRA.VDW>
-0.598858

>  <SCORE.INTRA.VDW.0>
-0.858933

>  <SCORE.INTRA.norm>
-0.0622729

>  <SCORE.RESTR>
0

>  <SCORE.RESTR.CAVITY>
0

>  <SCORE.RESTR.norm>
0

>  <SCORE.SYSTEM>
0

>  <SCORE.SYSTEM.CONST>
0

>  <SCORE.SYSTEM.DIHEDRAL>
0

>  <SCORE.SYSTEM.SOLV>
0

>  <SCORE.SYSTEM.norm>
0

>  <SCORE.heavy>
22

>  <SCORE.norm>
-0.573661

>  <RMSD>
1.131

$$$$
2et8_lig
 OpenBabel11021811433D
libRbt.so/2013.1/901 2013/11/27
 22 23  0  0  0  0  0  0  0  0999 V2000
   25.1592   16.9286   34.0136 N   0  0  0  0  0  0  0  0  0  0  0  0
   23.2857   15.5407   38.3921 N   0  0  0  0  0  0  0  0  0  0  0  0
   22.4869   11.4098   39.5816 N   0  0  0  0  0  0  0  0  0  0  0  0
   20.8270   14.5828   34.2492 O   0  0  0  0  0  0  0  0  0  0  0  0
   21.6763   15.5279   34.9455 C   0  0  2  0  0  0  0  0  0  0  0  0
   17.9672   15.1231   36.4982 N   0  0  0  0  0  0  0  0  0  0  0  0
   22.7276   16.2473   32.8051 O   0  0  0  0  0  0  0  0  0  0  0  0
   23.0013   15.7469   34.1199 C   0  0  1  0  0  0  0  0  0  0  0  0
   20.8785   14.7966   37.0619 O   0  0  0  0  0  0  0  0  0  0  0  0
   23.9015   16.7391   34.8143 C   0  0  1  0  0  0  0  0  0  0  0  0
   20.5680   12.5767   37.5893 O   0  0  0  0  0  0  0  0  0  0  0  0
   24.2311   16.2198   36.2326 C   0  0  0  0  0  0  0  0  0  0  0  0
   19.0006   13.2787   40.8098 O   0  0  0  0  0  0  0  0  0  0  0  0
   22.8922   16.0408   37.0064 C   0  0  1  0  0  0  0  0  0  0  0  0
   17.1038   14.3959   39.0803 O   0  0  0  0  0  0  0  0  0  0  0  0
   22.0547   14.9689   36.3743 C   0  0  2  0  0  0  0  0  0  0  0  0
   20.0233   13.7421   36.7645 C   0  0  1  0  0  0  0  0  0  0  0  0
   20.4960   12.8164   39.0634 C   0  0  2  0  0  0  0  0  0  0  0  0
   21.0329   11.5953   39.8387 C   0  0  0  0  0  0  0  0  0  0  0  0
   19.0634   13.0428   39.4444 C   0  0  2  0  0  0  0  0  0  0  0  0
   18.4784   14.2146   38.7108 C   0  0  1  0  0  0  0  0  0  0  0  0
   18.5608   13.9567   37.2455 C   0  0  1  0  0  0  0  0  0  0  0  0
  5  4  1  6  0  0  0
  5  8  1  0  0  0  0
  5 16  1  0  0  0  0
  8  7  1  6  0  0  0
  8 10  1  0  0  0  0
 10  1  1  6  0  0  0
 10 12  1  0  0  0  0
 11 18  1  0  0  0  0
 12 14  1  0  0  0  0
 14  2  1  1  0  0  0
 14 16  1  0  0  0  0
 16  9  1  1  0  0  0
 17  9  1  1  0  0  0
 17 11  1  0  0  0  0
 17 22  1  0  0  0  0
 18 19  1  1  0  0  0
 18 20  1  0  0  0  0
 19  3  1  0  0  0  0
 20 13  1  1  0  0  0
 20 21  1  0  0  0  0
 21 15  1  1  0  0  0
 21 22  1  0  0  0  0
 22  6  1  6  0  0  0
M  END
>  <CHROM.1>
74.22779921,85.52125723,65.66119612,21.12252064,14.50918211,37.03129563,-0.92900538
0.03759104,2.11580154

>  <Name>
2et8_lig

>  <RI>
3.42619e+07

>  <Rbt.Current_Directory>
/home/itssahil/PROJECTS/Mol_Feturizer/New_Systems/rnas/2et8

>  <Rbt.Executable>
rbdock ($Id: //depot/dev/client3/rdock/2013.1/src/exe/rbdock.cxx#4 $)

>  <Rbt.Library>
libRbt.so (2013.1, Build901 2013/11/27)

>  <Rbt.Parameter_File>
/export/apps/rDock/src/rDock_2013.1_src/data/scripts/dock_solv.prm

>  <Rbt.Receptor>
prm/pocket_docking_4.prm

>  <SCORE>
-15.3119

>  <SCORE.INTER>
-14.3517

>  <SCORE.INTER.CONST>
1

>  <SCORE.INTER.POLAR>
-0.959166

>  <SCORE.INTER.ROT>
3

>  <SCORE.INTER.SOLV>
16.4041

>  <SCORE.INTER.VDW>
-17.4386

>  <SCORE.INTER.norm>
-0.652351

>  <SCORE.INTRA>
-0.960187

>  <SCORE.INTRA.DIHEDRAL>
-1.06146

>  <SCORE.INTRA.DIHEDRAL.0>
4.99603

>  <SCORE.INTRA.POLAR>
0

>  <SCORE.INTRA.POLAR.0>
0

>  <SCORE.INTRA.REPUL>
0

>  <SCORE.INTRA.REPUL.0>
0

>  <SCORE.INTRA.SOLV>
-0.131048

>  <SCORE.INTRA.SOLV.lig_0>
-74.884

>  <SCORE.INTRA.VDW>
-0.363935

>  <SCORE.INTRA.VDW.0>
-0.858933

>  <SCORE.INTRA.norm>
-0.0436449

>  <SCORE.RESTR>
0

>  <SCORE.RESTR.CAVITY>
0

>  <SCORE.RESTR.norm>
0

>  <SCORE.SYSTEM>
0

>  <SCORE.SYSTEM.CONST>
0

>  <SCORE.SYSTEM.DIHEDRAL>
0

>  <SCORE.SYSTEM.SOLV>
0

>  <SCORE.SYSTEM.norm>
0

>  <SCORE.heavy>
22

>  <SCORE.norm>
-0.695996

>  <RMSD>
1.132

$$$$
2et8_lig
 OpenBabel11021811433D
libRbt.so/2013.1/901 2013/11/27
 22 23  0  0  0  0  0  0  0  0999 V2000
   25.1305   16.9190   33.9929 N   0  0  0  0  0  0  0  0  0  0  0  0
   23.3267   15.4156   38.3626 N   0  0  0  0  0  0  0  0  0  0  0  0
   22.4421   11.3095   39.5051 N   0  0  0  0  0  0  0  0  0  0  0  0
   20.7562   14.6546   34.2468 O   0  0  0  0  0  0  0  0  0  0  0  0
   21.6406   15.5571   34.9558 C   0  0  2  0  0  0  0  0  0  0  0  0
   17.9646   15.1408   36.5251 N   0  0  0  0  0  0  0  0  0  0  0  0
   22.6586   16.3302   32.8180 O   0  0  0  0  0  0  0  0  0  0  0  0
   22.9511   15.7783   34.1079 C   0  0  1  0  0  0  0  0  0  0  0  0
   20.8752   14.7680   37.0634 O   0  0  0  0  0  0  0  0  0  0  0  0
   23.8873   16.7269   34.8154 C   0  0  1  0  0  0  0  0  0  0  0  0
   20.5368   12.5485   37.5753 O   0  0  0  0  0  0  0  0  0  0  0  0
   24.2376   16.1513   36.2068 C   0  0  0  0  0  0  0  0  0  0  0  0
   19.0045   13.2465   40.8135 O   0  0  0  0  0  0  0  0  0  0  0  0
   22.9130   15.9722   37.0047 C   0  0  1  0  0  0  0  0  0  0  0  0
   17.1108   14.4049   39.1079 O   0  0  0  0  0  0  0  0  0  0  0  0
   22.0390   14.9405   36.3552 C   0  0  2  0  0  0  0  0  0  0  0  0
   20.0027   13.7283   36.7642 C   0  0  1  0  0  0  0  0  0  0  0  0
   20.4797   12.7771   39.0517 C   0  0  2  0  0  0  0  0  0  0  0  0
   21.0048   11.5422   39.8129 C   0  0  0  0  0  0  0  0  0  0  0  0
   19.0535   13.0209   39.4457 C   0  0  2  0  0  0  0  0  0  0  0  0
   18.4798   14.2069   38.7262 C   0  0  1  0  0  0  0  0  0  0  0  0
   18.5471   13.9600   37.2583 C   0  0  1  0  0  0  0  0  0  0  0  0
  5  4  1  6  0  0  0
  5  8  1  0  0  0  0
  5 16  1  0  0  0  0
  8  7  1  6  0  0  0
  8 10  1  0  0  0  0
 10  1  1  6  0  0  0
 10 12  1  0  0  0  0
 11 18  1  0  0  0  0
 12 14  1  0  0  0  0
 14  2  1  1  0  0  0
 14 16  1  0  0  0  0
 16  9  1  1  0  0  0
 17  9  1  1  0  0  0
 17 11  1  0  0  0  0
 17 22  1  0  0  0  0
 18 19  1  1  0  0  0
 18 20  1  0  0  0  0
 19  3  1  0  0  0  0
 20 13  1  1  0  0  0
 20 21  1  0  0  0  0
 21 15  1  1  0  0  0
 21 22  1  0  0  0  0
 22  6  1  6  0  0  0
M  END
>  <CHROM.1>
75.34260797,86.47813758,63.65300684,21.10507555,14.49236257,37.02581863,-0.93563863
0.01788872,2.13586885

>  <Name>
2et8_lig

>  <RI>
3.42619e+07

>  <Rbt.Current_Directory>
/home/itssahil/PROJECTS/Mol_Feturizer/New_Systems/rnas/2et8

>  <Rbt.Executable>
rbdock ($Id: //depot/dev/client3/rdock/2013.1/src/exe/rbdock.cxx#4 $)

>  <Rbt.Library>
libRbt.so (2013.1, Build901 2013/11/27)

>  <Rbt.Parameter_File>
/export/apps/rDock/src/rDock_2013.1_src/data/scripts/dock_solv.prm

>  <Rbt.Receptor>
prm/pocket_docking_4.prm

>  <SCORE>
-15.2766

>  <SCORE.INTER>
-14.4249

>  <SCORE.INTER.CONST>
1

>  <SCORE.INTER.POLAR>
-0.959166

>  <SCORE.INTER.ROT>
3

>  <SCORE.INTER.SOLV>
16.7512

>  <SCORE.INTER.VDW>
-17.6031

>  <SCORE.INTER.norm>
-0.655679

>  <SCORE.INTRA>
-0.851669

>  <SCORE.INTRA.DIHEDRAL>
-0.814134

>  <SCORE.INTRA.DIHEDRAL.0>
4.99603

>  <SCORE.INTRA.POLAR>
0

>  <SCORE.INTRA.POLAR.0>
0

>  <SCORE.INTRA.REPUL>
0

>  <SCORE.INTRA.REPUL.0>
0

>  <SCORE.INTRA.SOLV>
-0.0233132

>  <SCORE.INTRA.SOLV.lig_0>
-74.884

>  <SCORE.INTRA.VDW>
-0.432946

>  <SCORE.INTRA.VDW.0>
-0.858933

>  <SCORE.INTRA.norm>
-0.0387122

>  <SCORE.RESTR>
0

>  <SCORE.RESTR.CAVITY>
0

>  <SCORE.RESTR.norm>
0

>  <SCORE.SYSTEM>
0

>  <SCORE.SYSTEM.CONST>
0

>  <SCORE.SYSTEM.DIHEDRAL>
0

>  <SCORE.SYSTEM.SOLV>
0

>  <SCORE.SYSTEM.norm>
0

>  <SCORE.heavy>
22

>  <SCORE.norm>
-0.694391

>  <RMSD>
1.134

$$$$
2et8_lig
 OpenBabel11021811433D
libRbt.so/2013.1/901 2013/11/27
 22 23  0  0  0  0  0  0  0  0999 V2000
   25.1122   16.9288   33.9858 N   0  0  0  0  0  0  0  0  0  0  0  0
   23.3159   15.3926   38.3471 N   0  0  0  0  0  0  0  0  0  0  0  0
   22.4917   11.3345   39.4738 N   0  0  0  0  0  0  0  0  0  0  0  0
   20.7228   14.6932   34.2346 O   0  0  0  0  0  0  0  0  0  0  0  0
   21.6167   15.5819   34.9492 C   0  0  2  0  0  0  0  0  0  0  0  0
   17.9331   15.1290   36.5600 N   0  0  0  0  0  0  0  0  0  0  0  0
   22.6312   16.3701   32.8153 O   0  0  0  0  0  0  0  0  0  0  0  0
   22.9251   15.8026   34.0981 C   0  0  1  0  0  0  0  0  0  0  0  0
   20.8544   14.7762   37.0516 O   0  0  0  0  0  0  0  0  0  0  0  0
   23.8711   16.7370   34.8115 C   0  0  1  0  0  0  0  0  0  0  0  0
   20.5408   12.5521   37.5591 O   0  0  0  0  0  0  0  0  0  0  0  0
   24.2230   16.1443   36.1953 C   0  0  0  0  0  0  0  0  0  0  0  0
   19.0536   13.2246   40.8236 O   0  0  0  0  0  0  0  0  0  0  0  0
   22.9005   15.9663   36.9969 C   0  0  1  0  0  0  0  0  0  0  0  0
   17.1249   14.3757   39.1525 O   0  0  0  0  0  0  0  0  0  0  0  0
   22.0165   14.9478   36.3404 C   0  0  2  0  0  0  0  0  0  0  0  0
   19.9852   13.7312   36.7614 C   0  0  1  0  0  0  0  0  0  0  0  0
   20.5048   12.7740   39.0372 C   0  0  2  0  0  0  0  0  0  0  0  0
   21.0510   11.5399   39.7849 C   0  0  0  0  0  0  0  0  0  0  0  0
   19.0830   13.0052   39.4543 C   0  0  2  0  0  0  0  0  0  0  0  0
   18.4893   14.1898   38.7489 C   0  0  1  0  0  0  0  0  0  0  0  0
   18.5358   13.9496   37.2790 C   0  0  1  0  0  0  0  0  0  0  0  0
  5  4  1  6  0  0  0
  5  8  1  0  0  0  0
  5 16  1  0  0  0  0
  8  7  1  6  0  0  0
  8 10  1  0  0  0  0
 10  1  1  6  0  0  0
 10 12  1  0  0  0  0
 11 18  1  0  0  0  0
 12 14  1  0  0  0  0
 14  2  1  1  0  0  0
 14 16  1  0  0  0  0
 16  9  1  1  0  0  0
 17  9  1  1  0  0  0
 17 11  1  0  0  0  0
 17 22  1  0  0  0  0
 18 19  1  1  0  0  0
 18 20  1  0  0  0  0
 19  3  1  0  0  0  0
 20 13  1  1  0  0  0
 20 21  1  0  0  0  0
 21 15  1  1  0  0  0
 21 22  1  0  0  0  0
 22  6  1  6  0  0  0
M  END
>  <CHROM.1>
76.54689374,85.41701907,64.71322724,21.10250086,14.49467823,37.02343566,-0.94212305
0.01560326,2.13915822

>  <Name>
2et8_lig

>  <RI>
0

>  <Rbt.Current_Directory>
/home/itssahil/PROJECTS/Mol_Feturizer/New_Systems/rnas/2et8

>  <Rbt.Executable>
rbdock ($Id: //depot/dev/client3/rdock/2013.1/src/exe/rbdock.cxx#4 $)

>  <Rbt.Library>
libRbt.so (2013.1, Build901 2013/11/27)

>  <Rbt.Parameter_File>
/export/apps/rDock/src/rDock_2013.1_src/data/scripts/dock_solv.prm

>  <Rbt.Receptor>
prm/pocket_docking_5.prm

>  <SCORE>
-15.2776

>  <SCORE.INTER>
-14.3868

>  <SCORE.INTER.CONST>
1

>  <SCORE.INTER.POLAR>
-0.959166

>  <SCORE.INTER.ROT>
3

>  <SCORE.INTER.SOLV>
16.7219

>  <SCORE.INTER.VDW>
-17.568

>  <SCORE.INTER.norm>
-0.653947

>  <SCORE.INTRA>
-0.890736

>  <SCORE.INTRA.DIHEDRAL>
-0.80993

>  <SCORE.INTRA.DIHEDRAL.0>
4.99603

>  <SCORE.INTRA.POLAR>
0

>  <SCORE.INTRA.POLAR.0>
0

>  <SCORE.INTRA.REPUL>
0

>  <SCORE.INTRA.REPUL.0>
0

>  <SCORE.INTRA.SOLV>
0.0587162

>  <SCORE.INTRA.SOLV.lig_0>
-74.884

>  <SCORE.INTRA.VDW>
-0.515129

>  <SCORE.INTRA.VDW.0>
-0.858933

>  <SCORE.INTRA.norm>
-0.040488

>  <SCORE.RESTR>
0

>  <SCORE.RESTR.CAVITY>
0

>  <SCORE.RESTR.norm>
0

>  <SCORE.SYSTEM>
0

>  <SCORE.SYSTEM.CONST>
0

>  <SCORE.SYSTEM.DIHEDRAL>
0

>  <SCORE.SYSTEM.SOLV>
0

>  <SCORE.SYSTEM.norm>
0

>  <SCORE.heavy>
22

>  <SCORE.norm>
-0.694435

>  <RMSD>
1.140

$$$$
2et8_lig
 OpenBabel11021811433D
libRbt.so/2013.1/901 2013/11/27
 22 23  0  0  0  0  0  0  0  0999 V2000
   25.1103   16.9385   33.9528 N   0  0  0  0  0  0  0  0  0  0  0  0
   23.2943   15.4774   38.3317 N   0  0  0  0  0  0  0  0  0  0  0  0
   22.5388   11.3716   39.4298 N   0  0  0  0  0  0  0  0  0  0  0  0
   20.7446   14.6585   34.2141 O   0  0  0  0  0  0  0  0  0  0  0  0
   21.6222   15.5728   34.9165 C   0  0  2  0  0  0  0  0  0  0  0  0
   17.9228   15.1332   36.5639 N   0  0  0  0  0  0  0  0  0  0  0  0
   22.6459   16.3258   32.7743 O   0  0  0  0  0  0  0  0  0  0  0  0
   22.9352   15.7899   34.0716 C   0  0  1  0  0  0  0  0  0  0  0  0
   20.8511   14.8044   37.0297 O   0  0  0  0  0  0  0  0  0  0  0  0
   23.8644   16.7505   34.7722 C   0  0  1  0  0  0  0  0  0  0  0  0
   20.5610   12.5765   37.5346 O   0  0  0  0  0  0  0  0  0  0  0  0
   24.2112   16.1923   36.1715 C   0  0  0  0  0  0  0  0  0  0  0  0
   19.0961   13.2288   40.8132 O   0  0  0  0  0  0  0  0  0  0  0  0
   22.8840   16.0166   36.9658 C   0  0  1  0  0  0  0  0  0  0  0  0
   17.1434   14.3671   39.1615 O   0  0  0  0  0  0  0  0  0  0  0  0
   22.0172   14.9739   36.3245 C   0  0  2  0  0  0  0  0  0  0  0  0
   19.9885   13.7526   36.7445 C   0  0  1  0  0  0  0  0  0  0  0  0
   20.5358   12.7947   39.0134 C   0  0  2  0  0  0  0  0  0  0  0  0
   21.0990   11.5637   39.7535 C   0  0  0  0  0  0  0  0  0  0  0  0
   19.1158   13.0128   39.4432 C   0  0  2  0  0  0  0  0  0  0  0  0
   18.5058   14.1939   38.7457 C   0  0  1  0  0  0  0  0  0  0  0  0
   18.5417   13.9574   37.2749 C   0  0  1  0  0  0  0  0  0  0  0  0
  5  4  1  6  0  0  0
  5  8  1  0  0  0  0
  5 16  1  0  0  0  0
  8  7  1  6  0  0  0
  8 10  1  0  0  0  0
 10  1  1  6  0  0  0
 10 12  1  0  0  0  0
 11 18  1  0  0  0  0
 12 14  1  0  0  0  0
 14  2  1  1  0  0  0
 14 16  1  0  0  0  0
 16  9  1  1  0  0  0
 17  9  1  1  0  0  0
 17 11  1  0  0  0  0
 17 22  1  0  0  0  0
 18 19  1  1  0  0  0
 18 20  1  0  0  0  0
 19  3  1  0  0  0  0
 20 13  1  1  0  0  0
 20 21  1  0  0  0  0
 21 15  1  1  0  0  0
 21 22  1  0  0  0  0
 22  6  1  6  0  0  0
M  END
>  <CHROM.1>
75.76453585,84.25530382,64.72655298,21.11411052,14.50790128,37.00271760,-0.94387160
0.01927124,2.13246971

>  <Name>
2et8_lig

>  <RI>
0

>  <Rbt.Current_Directory>
/home/itssahil/PROJECTS/Mol_Feturizer/New_Systems/rnas/2et8

>  <Rbt.Executable>
rbdock ($Id: //depot/dev/client3/rdock/2013.1/src/exe/rbdock.cxx#4 $)

>  <Rbt.Library>
libRbt.so (2013.1, Build901 2013/11/27)

>  <Rbt.Parameter_File>
/export/apps/rDock/src/rDock_2013.1_src/data/scripts/dock_solv.prm

>  <Rbt.Receptor>
prm/pocket_docking_3.prm

>  <SCORE>
-15.3506

>  <SCORE.INTER>
-14.3028

>  <SCORE.INTER.CONST>
1

>  <SCORE.INTER.POLAR>
-0.959166

>  <SCORE.INTER.ROT>
3

>  <SCORE.INTER.SOLV>
16.7027

>  <SCORE.INTER.VDW>
-17.5055

>  <SCORE.INTER.norm>
-0.650127

>  <SCORE.INTRA>
-1.04785

>  <SCORE.INTRA.DIHEDRAL>
-1.12253

>  <SCORE.INTRA.DIHEDRAL.0>
4.99603

>  <SCORE.INTRA.POLAR>
0

>  <SCORE.INTRA.POLAR.0>
0

>  <SCORE.INTRA.REPUL>
0

>  <SCORE.INTRA.REPUL.0>
0

>  <SCORE.INTRA.SOLV>
-0.0406469

>  <SCORE.INTRA.SOLV.lig_0>
-74.884

>  <SCORE.INTRA.VDW>
-0.466259

>  <SCORE.INTRA.VDW.0>
-0.858933

>  <SCORE.INTRA.norm>
-0.0476295

>  <SCORE.RESTR>
0

>  <SCORE.RESTR.CAVITY>
0

>  <SCORE.RESTR.norm>
0

>  <SCORE.SYSTEM>
0

>  <SCORE.SYSTEM.CONST>
0

>  <SCORE.SYSTEM.DIHEDRAL>
0

>  <SCORE.SYSTEM.SOLV>
0

>  <SCORE.SYSTEM.norm>
0

>  <SCORE.heavy>
22

>  <SCORE.norm>
-0.697756

>  <RMSD>
1.147

$$$$
2et8_lig
 OpenBabel11021811433D
libRbt.so/2013.1/901 2013/11/27
 22 23  0  0  0  0  0  0  0  0999 V2000
   25.8198   17.1916   34.8168 N   0  0  0  0  0  0  0  0  0  0  0  0
   23.0793   15.1569   38.4165 N   0  0  0  0  0  0  0  0  0  0  0  0
   21.5291   11.1748   38.1382 N   0  0  0  0  0  0  0  0  0  0  0  0
   21.0949   16.0302   34.0090 O   0  0  0  0  0  0  0  0  0  0  0  0
   22.0193   16.5022   35.0200 C   0  0  2  0  0  0  0  0  0  0  0  0
   17.9473   16.1234   36.1399 N   0  0  0  0  0  0  0  0  0  0  0  0
   23.4985   17.5010   33.2828 O   0  0  0  0  0  0  0  0  0  0  0  0
   23.4650   16.6039   34.4000 C   0  0  1  0  0  0  0  0  0  0  0  0
   20.7855   15.4358   36.7496 O   0  0  0  0  0  0  0  0  0  0  0  0
   24.4489   17.1074   35.4272 C   0  0  1  0  0  0  0  0  0  0  0  0
   20.2515   13.2016   36.9099 O   0  0  0  0  0  0  0  0  0  0  0  0
   24.4504   16.1501   36.6411 C   0  0  0  0  0  0  0  0  0  0  0  0
   18.5925   13.5494   40.1422 O   0  0  0  0  0  0  0  0  0  0  0  0
   23.0074   16.1033   37.2231 C   0  0  1  0  0  0  0  0  0  0  0  0
   16.8930   15.0956   38.5428 O   0  0  0  0  0  0  0  0  0  0  0  0
   22.0576   15.4929   36.2354 C   0  0  2  0  0  0  0  0  0  0  0  0
   19.8556   14.5265   36.2595 C   0  0  1  0  0  0  0  0  0  0  0  0
   20.1269   13.2184   38.3997 C   0  0  2  0  0  0  0  0  0  0  0  0
   20.5125   11.8471   38.9922 C   0  0  0  0  0  0  0  0  0  0  0  0
   18.7029   13.5205   38.7598 C   0  0  2  0  0  0  0  0  0  0  0  0
   18.2629   14.8417   38.1991 C   0  0  1  0  0  0  0  0  0  0  0  0
   18.3957   14.8047   36.7153 C   0  0  1  0  0  0  0  0  0  0  0  0
  5  4  1  6  0  0  0
  5  8  1  0  0  0  0
  5 16  1  0  0  0  0
  8  7  1  6  0  0  0
  8 10  1  0  0  0  0
 10  1  1  6  0  0  0
 10 12  1  0  0  0  0
 11 18  1  0  0  0  0
 12 14  1  0  0  0  0
 14  2  1  1  0  0  0
 14 16  1  0  0  0  0
 16  9  1  1  0  0  0
 17  9  1  1  0  0  0
 17 11  1  0  0  0  0
 17 22  1  0  0  0  0
 18 19  1  6  0  0  0
 18 20  1  0  0  0  0
 19  3  1  0  0  0  0
 20 13  1  1  0  0  0
 20 21  1  0  0  0  0
 21 15  1  6  0  0  0
 21 22  1  0  0  0  0
 22  6  1  6  0  0  0
M  END
>  <CHROM.1>
88.59843457,78.19271797,30.15531175,21.09398922,15.04965437,36.78887389,-0.75218849
-0.04969673,2.34201249

>  <Name>
2et8_lig

>  <RI>
0

>  <Rbt.Current_Directory>
/home/itssahil/PROJECTS/Mol_Feturizer/New_Systems/rnas/2et8

>  <Rbt.Executable>
rbdock ($Id: //depot/dev/client3/rdock/2013.1/src/exe/rbdock.cxx#4 $)

>  <Rbt.Library>
libRbt.so (2013.1, Build901 2013/11/27)

>  <Rbt.Parameter_File>
/export/apps/rDock/src/rDock_2013.1_src/data/scripts/dock_solv.prm

>  <Rbt.Receptor>
prm/pocket_docking_2.prm

>  <SCORE>
-11.0444

>  <SCORE.INTER>
-11.8611

>  <SCORE.INTER.CONST>
1

>  <SCORE.INTER.POLAR>
-1.46454

>  <SCORE.INTER.ROT>
3

>  <SCORE.INTER.SOLV>
18.8329

>  <SCORE.INTER.VDW>
-14.9032

>  <SCORE.INTER.norm>
-0.539141

>  <SCORE.INTRA>
0.809762

>  <SCORE.INTRA.DIHEDRAL>
2.52527

>  <SCORE.INTRA.DIHEDRAL.0>
4.99603

>  <SCORE.INTRA.POLAR>
0

>  <SCORE.INTRA.POLAR.0>
0

>  <SCORE.INTRA.REPUL>
0

>  <SCORE.INTRA.REPUL.0>
0

>  <SCORE.INTRA.SOLV>
0.877658

>  <SCORE.INTRA.SOLV.lig_0>
-74.884

>  <SCORE.INTRA.VDW>
-0.891704

>  <SCORE.INTRA.VDW.0>
-0.858933

>  <SCORE.INTRA.norm>
0.0368074

>  <SCORE.RESTR>
0.00695395

>  <SCORE.RESTR.CAVITY>
0.00695395

>  <SCORE.RESTR.norm>
0.000316089

>  <SCORE.SYSTEM>
0

>  <SCORE.SYSTEM.CONST>
0

>  <SCORE.SYSTEM.DIHEDRAL>
0

>  <SCORE.SYSTEM.SOLV>
0

>  <SCORE.SYSTEM.norm>
0

>  <SCORE.heavy>
22

>  <SCORE.norm>
-0.502018

>  <RMSD>
1.150

$$$$
2et8_lig
 OpenBabel11021811433D
libRbt.so/2013.1/901 2013/11/27
 22 23  0  0  0  0  0  0  0  0999 V2000
   25.1224   16.9353   33.9636 N   0  0  0  0  0  0  0  0  0  0  0  0
   23.2849   15.4740   38.3335 N   0  0  0  0  0  0  0  0  0  0  0  0
   22.5098   11.4003   39.4712 N   0  0  0  0  0  0  0  0  0  0  0  0
   20.7478   14.6702   34.2052 O   0  0  0  0  0  0  0  0  0  0  0  0
   21.6259   15.5804   34.9122 C   0  0  2  0  0  0  0  0  0  0  0  0
   17.9207   15.1485   36.5321 N   0  0  0  0  0  0  0  0  0  0  0  0
   22.6604   16.3329   32.7750 O   0  0  0  0  0  0  0  0  0  0  0  0
   22.9429   15.7941   34.0726 C   0  0  1  0  0  0  0  0  0  0  0  0
   20.8443   14.8116   37.0213 O   0  0  0  0  0  0  0  0  0  0  0  0
   23.8728   16.7504   34.7780 C   0  0  1  0  0  0  0  0  0  0  0  0
   20.5429   12.5864   37.5314 O   0  0  0  0  0  0  0  0  0  0  0  0
   24.2124   16.1889   36.1779 C   0  0  0  0  0  0  0  0  0  0  0  0
   19.0552   13.2547   40.7966 O   0  0  0  0  0  0  0  0  0  0  0  0
   22.8816   16.0167   36.9669 C   0  0  1  0  0  0  0  0  0  0  0  0
   17.1189   14.3937   39.1261 O   0  0  0  0  0  0  0  0  0  0  0  0
   22.0136   14.9780   36.3207 C   0  0  2  0  0  0  0  0  0  0  0  0
   19.9804   13.7617   36.7330 C   0  0  1  0  0  0  0  0  0  0  0  0
   20.5071   12.8097   39.0093 C   0  0  2  0  0  0  0  0  0  0  0  0
   21.0605   11.5793   39.7578 C   0  0  0  0  0  0  0  0  0  0  0  0
   19.0845   13.0339   39.4275 C   0  0  2  0  0  0  0  0  0  0  0  0
   18.4839   14.2146   38.7214 C   0  0  1  0  0  0  0  0  0  0  0  0
   18.5303   13.9730   37.2517 C   0  0  1  0  0  0  0  0  0  0  0  0
  5  4  1  6  0  0  0
  5  8  1  0  0  0  0
  5 16  1  0  0  0  0
  8  7  1  6  0  0  0
  8 10  1  0  0  0  0
 10  1  1  6  0  0  0
 10 12  1  0  0  0  0
 11 18  1  0  0  0  0
 12 14  1  0  0  0  0
 14  2  1  1  0  0  0
 14 16  1  0  0  0  0
 16  9  1  1  0  0  0
 17  9  1  1  0  0  0
 17 11  1  0  0  0  0
 17 22  1  0  0  0  0
 18 19  1  1  0  0  0
 18 20  1  0  0  0  0
 19  3  1  0  0  0  0
 20 13  1  1  0  0  0
 20 21  1  0  0  0  0
 21 15  1  1  0  0  0
 21 22  1  0  0  0  0
 22  6  1  6  0  0  0
M  END
>  <CHROM.1>
75.89305710,84.52862739,66.06759713,21.10372254,14.51879829,36.99718751,-0.93835105
0.02195622,2.12925920

>  <Name>
2et8_lig

>  <RI>
0

>  <Rbt.Current_Directory>
/home/itssahil/PROJECTS/Mol_Feturizer/New_Systems/rnas/2et8

>  <Rbt.Executable>
rbdock ($Id: //depot/dev/client3/rdock/2013.1/src/exe/rbdock.cxx#4 $)

>  <Rbt.Library>
libRbt.so (2013.1, Build901 2013/11/27)

>  <Rbt.Parameter_File>
/export/apps/rDock/src/rDock_2013.1_src/data/scripts/dock_solv.prm

>  <Rbt.Receptor>
prm/pocket_docking_5.prm

>  <SCORE>
-15.3228

>  <SCORE.INTER>
-14.3365

>  <SCORE.INTER.CONST>
1

>  <SCORE.INTER.POLAR>
-0.959166

>  <SCORE.INTER.ROT>
3

>  <SCORE.INTER.SOLV>
16.5109

>  <SCORE.INTER.VDW>
-17.4641

>  <SCORE.INTER.norm>
-0.651661

>  <SCORE.INTRA>
-0.9863

>  <SCORE.INTRA.DIHEDRAL>
-1.00515

>  <SCORE.INTRA.DIHEDRAL.0>
4.99603

>  <SCORE.INTRA.POLAR>
0

>  <SCORE.INTRA.POLAR.0>
0

>  <SCORE.INTRA.REPUL>
0

>  <SCORE.INTRA.REPUL.0>
0

>  <SCORE.INTRA.SOLV>
-0.0151543

>  <SCORE.INTRA.SOLV.lig_0>
-74.884

>  <SCORE.INTRA.VDW>
-0.476148

>  <SCORE.INTRA.VDW.0>
-0.858933

>  <SCORE.INTRA.norm>
-0.0448318

>  <SCORE.RESTR>
0

>  <SCORE.RESTR.CAVITY>
0

>  <SCORE.RESTR.norm>
0

>  <SCORE.SYSTEM>
0

>  <SCORE.SYSTEM.CONST>
0

>  <SCORE.SYSTEM.DIHEDRAL>
0

>  <SCORE.SYSTEM.SOLV>
0

>  <SCORE.SYSTEM.norm>
0

>  <SCORE.heavy>
22

>  <SCORE.norm>
-0.696493

>  <RMSD>
1.150

$$$$
2et8_lig
 OpenBabel11021811433D
libRbt.so/2013.1/901 2013/11/27
 22 23  0  0  0  0  0  0  0  0999 V2000
   25.1035   16.9422   33.9819 N   0  0  0  0  0  0  0  0  0  0  0  0
   23.2859   15.4888   38.3628 N   0  0  0  0  0  0  0  0  0  0  0  0
   22.4939   11.4035   39.5513 N   0  0  0  0  0  0  0  0  0  0  0  0
   20.7567   14.6262   34.2414 O   0  0  0  0  0  0  0  0  0  0  0  0
   21.6241   15.5518   34.9417 C   0  0  2  0  0  0  0  0  0  0  0  0
   17.9343   15.0879   36.5154 N   0  0  0  0  0  0  0  0  0  0  0  0
   22.6483   16.3021   32.7988 O   0  0  0  0  0  0  0  0  0  0  0  0
   22.9380   15.7756   34.0999 C   0  0  1  0  0  0  0  0  0  0  0  0
   20.8528   14.7880   37.0565 O   0  0  0  0  0  0  0  0  0  0  0  0
   23.8567   16.7479   34.7983 C   0  0  1  0  0  0  0  0  0  0  0  0
   20.5630   12.5716   37.6095 O   0  0  0  0  0  0  0  0  0  0  0  0
   24.2037   16.2001   36.2017 C   0  0  0  0  0  0  0  0  0  0  0  0
   19.0191   13.2956   40.8364 O   0  0  0  0  0  0  0  0  0  0  0  0
   22.8754   16.0173   36.9927 C   0  0  1  0  0  0  0  0  0  0  0  0
   17.0990   14.3813   39.1124 O   0  0  0  0  0  0  0  0  0  0  0  0
   22.0197   14.9638   36.3541 C   0  0  2  0  0  0  0  0  0  0  0  0
   20.0027   13.7245   36.7776 C   0  0  1  0  0  0  0  0  0  0  0  0
   20.5024   12.8259   39.0815 C   0  0  2  0  0  0  0  0  0  0  0  0
   21.0548   11.6169   39.8646 C   0  0  0  0  0  0  0  0  0  0  0  0
   19.0716   13.0461   39.4729 C   0  0  2  0  0  0  0  0  0  0  0  0
   18.4717   14.2060   38.7326 C   0  0  1  0  0  0  0  0  0  0  0  0
   18.5429   13.9336   37.2693 C   0  0  1  0  0  0  0  0  0  0  0  0
  5  4  1  6  0  0  0
  5  8  1  0  0  0  0
  5 16  1  0  0  0  0
  8  7  1  6  0  0  0
  8 10  1  0  0  0  0
 10  1  1  6  0  0  0
 10 12  1  0  0  0  0
 11 18  1  0  0  0  0
 12 14  1  0  0  0  0
 14  2  1  1  0  0  0
 14 16  1  0  0  0  0
 16  9  1  1  0  0  0
 17  9  1  1  0  0  0
 17 11  1  0  0  0  0
 17 22  1  0  0  0  0
 18 19  1  1  0  0  0
 18 20  1  0  0  0  0
 19  3  1  0  0  0  0
 20 13  1  1  0  0  0
 20 21  1  0  0  0  0
 21 15  1  1  0  0  0
 21 22  1  0  0  0  0
 22  6  1  6  0  0  0
M  END
>  <CHROM.1>
76.01447909,85.70953536,63.22914695,21.09983168,14.50998567,37.03212951,-0.94025467
0.03426118,2.11740499

>  <Name>
2et8_lig

>  <RI>
3.42619e+07

>  <Rbt.Current_Directory>
/home/itssahil/PROJECTS/Mol_Feturizer/New_Systems/rnas/2et8

>  <Rbt.Executable>
rbdock ($Id: //depot/dev/client3/rdock/2013.1/src/exe/rbdock.cxx#4 $)

>  <Rbt.Library>
libRbt.so (2013.1, Build901 2013/11/27)

>  <Rbt.Parameter_File>
/export/apps/rDock/src/rDock_2013.1_src/data/scripts/dock_solv.prm

>  <Rbt.Receptor>
prm/pocket_docking_4.prm

>  <SCORE>
-15.3054

>  <SCORE.INTER>
-14.4067

>  <SCORE.INTER.CONST>
1

>  <SCORE.INTER.POLAR>
-0.959166

>  <SCORE.INTER.ROT>
3

>  <SCORE.INTER.SOLV>
16.4137

>  <SCORE.INTER.VDW>
-17.4785

>  <SCORE.INTER.norm>
-0.654849

>  <SCORE.INTRA>
-0.898776

>  <SCORE.INTRA.DIHEDRAL>
-0.873392

>  <SCORE.INTRA.DIHEDRAL.0>
4.99603

>  <SCORE.INTRA.POLAR>
0

>  <SCORE.INTRA.POLAR.0>
0

>  <SCORE.INTRA.REPUL>
0

>  <SCORE.INTRA.REPUL.0>
0

>  <SCORE.INTRA.SOLV>
0.0103401

>  <SCORE.INTRA.SOLV.lig_0>
-74.884

>  <SCORE.INTRA.VDW>
-0.467251

>  <SCORE.INTRA.VDW.0>
-0.858933

>  <SCORE.INTRA.norm>
-0.0408535

>  <SCORE.RESTR>
0

>  <SCORE.RESTR.CAVITY>
0

>  <SCORE.RESTR.norm>
0

>  <SCORE.SYSTEM>
0

>  <SCORE.SYSTEM.CONST>
0

>  <SCORE.SYSTEM.DIHEDRAL>
0

>  <SCORE.SYSTEM.SOLV>
0

>  <SCORE.SYSTEM.norm>
0

>  <SCORE.heavy>
22

>  <SCORE.norm>
-0.695702

>  <RMSD>
1.154

$$$$
2et8_lig
 OpenBabel11021811433D
libRbt.so/2013.1/901 2013/11/27
 22 23  0  0  0  0  0  0  0  0999 V2000
   25.1281   16.9246   33.9773 N   0  0  0  0  0  0  0  0  0  0  0  0
   23.2668   15.4904   38.3460 N   0  0  0  0  0  0  0  0  0  0  0  0
   22.4142   11.4138   39.5321 N   0  0  0  0  0  0  0  0  0  0  0  0
   20.7479   14.6693   34.2099 O   0  0  0  0  0  0  0  0  0  0  0  0
   21.6244   15.5816   34.9162 C   0  0  2  0  0  0  0  0  0  0  0  0
   17.9209   15.2011   36.4874 N   0  0  0  0  0  0  0  0  0  0  0  0
   22.6705   16.3207   32.7800 O   0  0  0  0  0  0  0  0  0  0  0  0
   22.9458   15.7883   34.0819 C   0  0  1  0  0  0  0  0  0  0  0  0
   20.8311   14.8256   37.0257 O   0  0  0  0  0  0  0  0  0  0  0  0
   23.8742   16.7465   34.7866 C   0  0  1  0  0  0  0  0  0  0  0  0
   20.4908   12.6065   37.5376 O   0  0  0  0  0  0  0  0  0  0  0  0
   24.2060   16.1919   36.1911 C   0  0  0  0  0  0  0  0  0  0  0  0
   18.9591   13.3059   40.7758 O   0  0  0  0  0  0  0  0  0  0  0  0
   22.8711   16.0266   36.9746 C   0  0  1  0  0  0  0  0  0  0  0  0
   17.0664   14.4659   39.0702 O   0  0  0  0  0  0  0  0  0  0  0  0
   22.0041   14.9861   36.3299 C   0  0  2  0  0  0  0  0  0  0  0  0
   19.9577   13.7868   36.7265 C   0  0  1  0  0  0  0  0  0  0  0  0
   20.4339   12.8351   39.0141 C   0  0  2  0  0  0  0  0  0  0  0  0
   20.9579   11.5998   39.7753 C   0  0  0  0  0  0  0  0  0  0  0  0
   19.0079   13.0802   39.4081 C   0  0  2  0  0  0  0  0  0  0  0  0
   18.4352   14.2668   38.6886 C   0  0  1  0  0  0  0  0  0  0  0  0
   18.5023   14.0197   37.2206 C   0  0  1  0  0  0  0  0  0  0  0  0
  5  4  1  6  0  0  0
  5  8  1  0  0  0  0
  5 16  1  0  0  0  0
  8  7  1  6  0  0  0
  8 10  1  0  0  0  0
 10  1  1  6  0  0  0
 10 12  1  0  0  0  0
 11 18  1  0  0  0  0
 12 14  1  0  0  0  0
 14  2  1  1  0  0  0
 14 16  1  0  0  0  0
 16  9  1  1  0  0  0
 17  9  1  1  0  0  0
 17 11  1  0  0  0  0
 17 22  1  0  0  0  0
 18 19  1  1  0  0  0
 18 20  1  0  0  0  0
 19  3  1  0  0  0  0
 20 13  1  1  0  0  0
 20 21  1  0  0  0  0
 21 15  1  1  0  0  0
 21 22  1  0  0  0  0
 22  6  1  6  0  0  0
M  END
>  <CHROM.1>
74.99240742,85.55748405,67.05526616,21.07223900,14.53915811,36.99564760,-0.92768267
0.02134584,2.12566186

>  <Name>
2et8_lig

>  <RI>
3.42619e+07

>  <Rbt.Current_Directory>
/home/itssahil/PROJECTS/Mol_Feturizer/New_Systems/rnas/2et8

>  <Rbt.Executable>
rbdock ($Id: //depot/dev/client3/rdock/2013.1/src/exe/rbdock.cxx#4 $)

>  <Rbt.Library>
libRbt.so (2013.1, Build901 2013/11/27)

>  <Rbt.Parameter_File>
/export/apps/rDock/src/rDock_2013.1_src/data/scripts/dock_solv.prm

>  <Rbt.Receptor>
prm/pocket_docking_4.prm

>  <SCORE>
-15.3262

>  <SCORE.INTER>
-14.4378

>  <SCORE.INTER.CONST>
1

>  <SCORE.INTER.POLAR>
-0.959166

>  <SCORE.INTER.ROT>
3

>  <SCORE.INTER.SOLV>
16.2221

>  <SCORE.INTER.VDW>
-17.4354

>  <SCORE.INTER.norm>
-0.656263

>  <SCORE.INTRA>
-0.888364

>  <SCORE.INTRA.DIHEDRAL>
-0.895015

>  <SCORE.INTRA.DIHEDRAL.0>
4.99603

>  <SCORE.INTRA.POLAR>
0

>  <SCORE.INTRA.POLAR.0>
0

>  <SCORE.INTRA.REPUL>
0

>  <SCORE.INTRA.REPUL.0>
0

>  <SCORE.INTRA.SOLV>
-0.0585259

>  <SCORE.INTRA.SOLV.lig_0>
-74.884

>  <SCORE.INTRA.VDW>
-0.411594

>  <SCORE.INTRA.VDW.0>
-0.858933

>  <SCORE.INTRA.norm>
-0.0403802

>  <SCORE.RESTR>
0

>  <SCORE.RESTR.CAVITY>
0

>  <SCORE.RESTR.norm>
0

>  <SCORE.SYSTEM>
0

>  <SCORE.SYSTEM.CONST>
0

>  <SCORE.SYSTEM.DIHEDRAL>
0

>  <SCORE.SYSTEM.SOLV>
0

>  <SCORE.SYSTEM.norm>
0

>  <SCORE.heavy>
22

>  <SCORE.norm>
-0.696644

>  <RMSD>
1.163

$$$$
2et8_lig
 OpenBabel11021811433D
libRbt.so/2013.1/901 2013/11/27
 22 23  0  0  0  0  0  0  0  0999 V2000
   25.1971   16.9716   33.9286 N   0  0  0  0  0  0  0  0  0  0  0  0
   23.2338   15.4610   38.2264 N   0  0  0  0  0  0  0  0  0  0  0  0
   21.8822   11.3856   40.3112 N   0  0  0  0  0  0  0  0  0  0  0  0
   20.7175   14.9110   34.0440 O   0  0  0  0  0  0  0  0  0  0  0  0
   21.6280   15.7553   34.7906 C   0  0  2  0  0  0  0  0  0  0  0  0
   17.8237   15.3388   36.8848 N   0  0  0  0  0  0  0  0  0  0  0  0
   22.7256   16.5255   32.6916 O   0  0  0  0  0  0  0  0  0  0  0  0
   22.9649   15.9327   33.9743 C   0  0  1  0  0  0  0  0  0  0  0  0
   20.7825   14.9578   36.8642 O   0  0  0  0  0  0  0  0  0  0  0  0
   23.9293   16.8206   34.7215 C   0  0  1  0  0  0  0  0  0  0  0  0
   20.5294   12.6737   37.0110 O   0  0  0  0  0  0  0  0  0  0  0  0
   24.2230   16.1993   36.1063 C   0  0  0  0  0  0  0  0  0  0  0  0
   19.5554   12.7332   40.5280 O   0  0  0  0  0  0  0  0  0  0  0  0
   22.8750   16.0656   36.8733 C   0  0  1  0  0  0  0  0  0  0  0  0
   17.4076   14.1257   39.3942 O   0  0  0  0  0  0  0  0  0  0  0  0
   21.9677   15.0906   36.1835 C   0  0  2  0  0  0  0  0  0  0  0  0
   19.8706   13.9647   36.5267 C   0  0  1  0  0  0  0  0  0  0  0  0
   20.7178   12.6309   38.4936 C   0  0  2  0  0  0  0  0  0  0  0  0
   21.3593   11.2945   38.9209 C   0  0  0  0  0  0  0  0  0  0  0  0
   19.3769   12.7592   39.1526 C   0  0  2  0  0  0  0  0  0  0  0  0
   18.6942   14.0387   38.7648 C   0  0  1  0  0  0  0  0  0  0  0  0
   18.5173   14.0622   37.2854 C   0  0  1  0  0  0  0  0  0  0  0  0
  5  4  1  6  0  0  0
  5  8  1  0  0  0  0
  5 16  1  0  0  0  0
  8  7  1  6  0  0  0
  8 10  1  0  0  0  0
 10  1  1  6  0  0  0
 10 12  1  0  0  0  0
 11 18  1  0  0  0  0
 12 14  1  0  0  0  0
 14  2  1  1  0  0  0
 14 16  1  0  0  0  0
 16  9  1  1  0  0  0
 17  9  1  1  0  0  0
 17 11  1  0  0  0  0
 17 22  1  0  0  0  0
 18 19  1  6  0  0  0
 18 20  1  0  0  0  0
 19  3  1  0  0  0  0
 20 13  1  1  0  0  0
 20 21  1  0  0  0  0
 21 15  1  1  0  0  0
 21 22  1  0  0  0  0
 22  6  1  1  0  0  0
M  END
>  <CHROM.1>
75.52689713,71.85365992,164.69665691,21.15062104,14.51777461,36.89609219
-0.98374110,0.02881338,2.16933965

>  <Name>
2et8_lig

>  <RI>
0

>  <Rbt.Current_Directory>
/home/itssahil/PROJECTS/Mol_Feturizer/New_Systems/rnas/2et8

>  <Rbt.Executable>
rbdock ($Id: //depot/dev/client3/rdock/2013.1/src/exe/rbdock.cxx#4 $)

>  <Rbt.Library>
libRbt.so (2013.1, Build901 2013/11/27)

>  <Rbt.Parameter_File>
/export/apps/rDock/src/rDock_2013.1_src/data/scripts/dock_solv.prm

>  <Rbt.Receptor>
prm/pocket_docking_5.prm

>  <SCORE>
-15.1647

>  <SCORE.INTER>
-14.1183

>  <SCORE.INTER.CONST>
1

>  <SCORE.INTER.POLAR>
-0.959166

>  <SCORE.INTER.ROT>
3

>  <SCORE.INTER.SOLV>
15.1208

>  <SCORE.INTER.VDW>
-16.8552

>  <SCORE.INTER.norm>
-0.64174

>  <SCORE.INTRA>
-1.04638

>  <SCORE.INTRA.DIHEDRAL>
-2.25375

>  <SCORE.INTRA.DIHEDRAL.0>
4.99603

>  <SCORE.INTRA.POLAR>
0

>  <SCORE.INTRA.POLAR.0>
0

>  <SCORE.INTRA.REPUL>
0

>  <SCORE.INTRA.REPUL.0>
0

>  <SCORE.INTRA.SOLV>
0.621866

>  <SCORE.INTRA.SOLV.lig_0>
-74.884

>  <SCORE.INTRA.VDW>
-0.230436

>  <SCORE.INTRA.VDW.0>
-0.858933

>  <SCORE.INTRA.norm>
-0.0475626

>  <SCORE.RESTR>
0

>  <SCORE.RESTR.CAVITY>
0

>  <SCORE.RESTR.norm>
0

>  <SCORE.SYSTEM>
0

>  <SCORE.SYSTEM.CONST>
0

>  <SCORE.SYSTEM.DIHEDRAL>
0

>  <SCORE.SYSTEM.SOLV>
0

>  <SCORE.SYSTEM.norm>
0

>  <SCORE.heavy>
22

>  <SCORE.norm>
-0.689303

>  <RMSD>
1.195

$$$$
2et8_lig
 OpenBabel11021811433D
libRbt.so/2013.1/901 2013/11/27
 22 23  0  0  0  0  0  0  0  0999 V2000
   25.4936   17.3452   34.3824 N   0  0  0  0  0  0  0  0  0  0  0  0
   22.5462   16.5349   38.2893 N   0  0  0  0  0  0  0  0  0  0  0  0
   21.2194   11.1030   39.4669 N   0  0  0  0  0  0  0  0  0  0  0  0
   21.4597   14.5432   33.9328 O   0  0  0  0  0  0  0  0  0  0  0  0
   22.0016   15.6987   34.6186 C   0  0  2  0  0  0  0  0  0  0  0  0
   17.7476   14.8587   36.2113 N   0  0  0  0  0  0  0  0  0  0  0  0
   23.5687   16.1522   32.7365 O   0  0  0  0  0  0  0  0  0  0  0  0
   23.4884   15.9347   34.1508 C   0  0  1  0  0  0  0  0  0  0  0  0
   20.6842   15.2620   36.5485 O   0  0  0  0  0  0  0  0  0  0  0  0
   24.0760   17.1423   34.8386 C   0  0  1  0  0  0  0  0  0  0  0  0
   20.9367   13.0967   37.2902 O   0  0  0  0  0  0  0  0  0  0  0  0
   24.0206   16.9321   36.3692 C   0  0  0  0  0  0  0  0  0  0  0  0
   19.4570   13.7549   40.5610 O   0  0  0  0  0  0  0  0  0  0  0  0
   22.5326   16.7241   36.7763 C   0  0  1  0  0  0  0  0  0  0  0  0
   17.2450   14.2265   38.9111 O   0  0  0  0  0  0  0  0  0  0  0  0
   21.9926   15.4579   36.1804 C   0  0  2  0  0  0  0  0  0  0  0  0
   20.0828   14.0159   36.4178 C   0  0  1  0  0  0  0  0  0  0  0  0
   20.9047   13.4654   38.7388 C   0  0  2  0  0  0  0  0  0  0  0  0
   21.7609   12.4855   39.5675 C   0  0  0  0  0  0  0  0  0  0  0  0
   19.4862   13.3990   39.2206 C   0  0  2  0  0  0  0  0  0  0  0  0
   18.5974   14.3247   38.4418 C   0  0  1  0  0  0  0  0  0  0  0  0
   18.6443   13.9416   37.0025 C   0  0  1  0  0  0  0  0  0  0  0  0
  5  4  1  6  0  0  0
  5  8  1  0  0  0  0
  5 16  1  0  0  0  0
  8  7  1  6  0  0  0
  8 10  1  0  0  0  0
 10  1  1  6  0  0  0
 10 12  1  0  0  0  0
 11 18  1  0  0  0  0
 12 14  1  0  0  0  0
 14  2  1  1  0  0  0
 14 16  1  0  0  0  0
 16  9  1  1  0  0  0
 17  9  1  1  0  0  0
 17 11  1  0  0  0  0
 17 22  1  0  0  0  0
 18 19  1  1  0  0  0
 18 20  1  0  0  0  0
 19  3  1  0  0  0  0
 20 13  1  1  0  0  0
 20 21  1  0  0  0  0
 21 15  1  1  0  0  0
 21 22  1  0  0  0  0
 22  6  1  6  0  0  0
M  END
>  <CHROM.1>
82.69509565,59.71759027,-62.05658313,21.24592005,14.81802444,36.84756004
-0.86867136,0.23062106,1.99030910

>  <Name>
2et8_lig

>  <RI>
0

>  <Rbt.Current_Directory>
/home/itssahil/PROJECTS/Mol_Feturizer/New_Systems/rnas/2et8

>  <Rbt.Executable>
rbdock ($Id: //depot/dev/client3/rdock/2013.1/src/exe/rbdock.cxx#4 $)

>  <Rbt.Library>
libRbt.so (2013.1, Build901 2013/11/27)

>  <Rbt.Parameter_File>
/export/apps/rDock/src/rDock_2013.1_src/data/scripts/dock_solv.prm

>  <Rbt.Receptor>
prm/pocket_docking_3.prm

>  <SCORE>
-12.9143

>  <SCORE.INTER>
-11.7466

>  <SCORE.INTER.CONST>
1

>  <SCORE.INTER.POLAR>
-1.23198

>  <SCORE.INTER.ROT>
3

>  <SCORE.INTER.SOLV>
16.9874

>  <SCORE.INTER.VDW>
-14.987

>  <SCORE.INTER.norm>
-0.533939

>  <SCORE.INTRA>
-1.16761

>  <SCORE.INTRA.DIHEDRAL>
-2.59805

>  <SCORE.INTRA.DIHEDRAL.0>
4.99603

>  <SCORE.INTRA.POLAR>
0

>  <SCORE.INTRA.POLAR.0>
0

>  <SCORE.INTRA.REPUL>
0

>  <SCORE.INTRA.REPUL.0>
0

>  <SCORE.INTRA.SOLV>
1.39306

>  <SCORE.INTRA.SOLV.lig_0>
-74.884

>  <SCORE.INTRA.VDW>
-0.565112

>  <SCORE.INTRA.VDW.0>
-0.858933

>  <SCORE.INTRA.norm>
-0.0530731

>  <SCORE.RESTR>
0

>  <SCORE.RESTR.CAVITY>
0

>  <SCORE.RESTR.norm>
0

>  <SCORE.SYSTEM>
0

>  <SCORE.SYSTEM.CONST>
0

>  <SCORE.SYSTEM.DIHEDRAL>
0

>  <SCORE.SYSTEM.SOLV>
0

>  <SCORE.SYSTEM.norm>
0

>  <SCORE.heavy>
22

>  <SCORE.norm>
-0.587012

>  <RMSD>
1.285

$$$$
2et8_lig
 OpenBabel11021811433D
libRbt.so/2013.1/901 2013/11/27
 22 23  0  0  0  0  0  0  0  0999 V2000
   25.4462   17.4137   34.4681 N   0  0  0  0  0  0  0  0  0  0  0  0
   22.3250   16.7811   38.2715 N   0  0  0  0  0  0  0  0  0  0  0  0
   21.2492   11.1791   39.4042 N   0  0  0  0  0  0  0  0  0  0  0  0
   21.5153   14.4695   34.0139 O   0  0  0  0  0  0  0  0  0  0  0  0
   21.9910   15.6841   34.6447 C   0  0  2  0  0  0  0  0  0  0  0  0
   17.6591   14.8766   36.2101 N   0  0  0  0  0  0  0  0  0  0  0  0
   23.6399   16.0561   32.8153 O   0  0  0  0  0  0  0  0  0  0  0  0
   23.4930   15.9320   34.2355 C   0  0  1  0  0  0  0  0  0  0  0  0
   20.5885   15.3394   36.5327 O   0  0  0  0  0  0  0  0  0  0  0  0
   24.0129   17.2001   34.8668 C   0  0  1  0  0  0  0  0  0  0  0  0
   20.8894   13.1779   37.2676 O   0  0  0  0  0  0  0  0  0  0  0  0
   23.8848   17.0917   36.4037 C   0  0  0  0  0  0  0  0  0  0  0  0
   19.4139   13.7977   40.5478 O   0  0  0  0  0  0  0  0  0  0  0  0
   22.3839   16.8676   36.7504 C   0  0  1  0  0  0  0  0  0  0  0  0
   17.1839   14.2277   38.9109 O   0  0  0  0  0  0  0  0  0  0  0  0
   21.9085   15.5488   36.2169 C   0  0  2  0  0  0  0  0  0  0  0  0
   20.0121   14.0815   36.4021 C   0  0  1  0  0  0  0  0  0  0  0  0
   20.8576   13.5424   38.7172 C   0  0  2  0  0  0  0  0  0  0  0  0
   21.7381   12.5782   39.5389 C   0  0  0  0  0  0  0  0  0  0  0  0
   19.4433   13.4457   39.2065 C   0  0  2  0  0  0  0  0  0  0  0  0
   18.5316   14.3548   38.4347 C   0  0  1  0  0  0  0  0  0  0  0  0
   18.5786   13.9762   36.9942 C   0  0  1  0  0  0  0  0  0  0  0  0
  5  4  1  6  0  0  0
  5  8  1  0  0  0  0
  5 16  1  0  0  0  0
  8  7  1  6  0  0  0
  8 10  1  0  0  0  0
 10  1  1  1  0  0  0
 10 12  1  0  0  0  0
 11 18  1  0  0  0  0
 12 14  1  0  0  0  0
 14  2  1  1  0  0  0
 14 16  1  0  0  0  0
 16  9  1  6  0  0  0
 17  9  1  1  0  0  0
 17 11  1  0  0  0  0
 17 22  1  0  0  0  0
 18 19  1  1  0  0  0
 18 20  1  0  0  0  0
 19  3  1  0  0  0  0
 20 13  1  1  0  0  0
 20 21  1  0  0  0  0
 21 15  1  1  0  0  0
 21 22  1  0  0  0  0
 22  6  1  6  0  0  0
M  END
>  <CHROM.1>
79.83038018,56.65205389,-60.32719044,21.19284004,14.87176619,36.85705428
-0.85091565,0.23896266,1.98278670

>  <Name>
2et8_lig

>  <RI>
0

>  <Rbt.Current_Directory>
/home/itssahil/PROJECTS/Mol_Feturizer/New_Systems/rnas/2et8

>  <Rbt.Executable>
rbdock ($Id: //depot/dev/client3/rdock/2013.1/src/exe/rbdock.cxx#4 $)

>  <Rbt.Library>
libRbt.so (2013.1, Build901 2013/11/27)

>  <Rbt.Parameter_File>
/export/apps/rDock/src/rDock_2013.1_src/data/scripts/dock_solv.prm

>  <Rbt.Receptor>
prm/pocket_docking_5.prm

>  <SCORE>
-13.07

>  <SCORE.INTER>
-11.7511

>  <SCORE.INTER.CONST>
1

>  <SCORE.INTER.POLAR>
-1.21681

>  <SCORE.INTER.ROT>
3

>  <SCORE.INTER.SOLV>
16.576

>  <SCORE.INTER.VDW>
-14.9034

>  <SCORE.INTER.norm>
-0.534143

>  <SCORE.INTRA>
-1.31882

>  <SCORE.INTRA.DIHEDRAL>
-3.02834

>  <SCORE.INTRA.DIHEDRAL.0>
4.99603

>  <SCORE.INTRA.POLAR>
0

>  <SCORE.INTRA.POLAR.0>
0

>  <SCORE.INTRA.REPUL>
0

>  <SCORE.INTRA.REPUL.0>
0

>  <SCORE.INTRA.SOLV>
1.2155

>  <SCORE.INTRA.SOLV.lig_0>
-74.884

>  <SCORE.INTRA.VDW>
-0.4124

>  <SCORE.INTRA.VDW.0>
-0.858933

>  <SCORE.INTRA.norm>
-0.0599464

>  <SCORE.RESTR>
0

>  <SCORE.RESTR.CAVITY>
0

>  <SCORE.RESTR.norm>
0

>  <SCORE.SYSTEM>
0

>  <SCORE.SYSTEM.CONST>
0

>  <SCORE.SYSTEM.DIHEDRAL>
0

>  <SCORE.SYSTEM.SOLV>
0

>  <SCORE.SYSTEM.norm>
0

>  <SCORE.heavy>
22

>  <SCORE.norm>
-0.594089

>  <RMSD>
1.358

$$$$
2et8_lig
 OpenBabel11021811433D
libRbt.so/2013.1/901 2013/11/27
 22 23  0  0  0  0  0  0  0  0999 V2000
   25.4020   17.4130   34.3993 N   0  0  0  0  0  0  0  0  0  0  0  0
   22.3373   16.7807   38.2483 N   0  0  0  0  0  0  0  0  0  0  0  0
   21.2448   11.1778   39.4091 N   0  0  0  0  0  0  0  0  0  0  0  0
   21.4696   14.4622   34.0059 O   0  0  0  0  0  0  0  0  0  0  0  0
   21.9524   15.6784   34.6281 C   0  0  2  0  0  0  0  0  0  0  0  0
   17.6473   14.8740   36.2214 N   0  0  0  0  0  0  0  0  0  0  0  0
   23.5741   16.0505   32.7745 O   0  0  0  0  0  0  0  0  0  0  0  0
   23.4480   15.9280   34.1969 C   0  0  1  0  0  0  0  0  0  0  0  0
   20.5780   15.3340   36.5367 O   0  0  0  0  0  0  0  0  0  0  0  0
   23.9750   17.1977   34.8190 C   0  0  1  0  0  0  0  0  0  0  0  0
   20.8780   13.1737   37.2753 O   0  0  0  0  0  0  0  0  0  0  0  0
   23.8694   17.0912   36.3577 C   0  0  0  0  0  0  0  0  0  0  0  0
   19.4104   13.8017   40.5575 O   0  0  0  0  0  0  0  0  0  0  0  0
   22.3740   16.8653   36.7264 C   0  0  1  0  0  0  0  0  0  0  0  0
   17.1773   14.2310   38.9246 O   0  0  0  0  0  0  0  0  0  0  0  0
   21.8929   15.5450   36.2016 C   0  0  2  0  0  0  0  0  0  0  0  0
   19.9999   14.0765   36.4099 C   0  0  1  0  0  0  0  0  0  0  0  0
   20.8498   13.5412   38.7243 C   0  0  2  0  0  0  0  0  0  0  0  0
   21.7310   12.5776   39.5460 C   0  0  0  0  0  0  0  0  0  0  0  0
   19.4365   13.4470   39.2167 C   0  0  2  0  0  0  0  0  0  0  0  0
   18.5241   14.3556   38.4451 C   0  0  1  0  0  0  0  0  0  0  0  0
   18.5676   13.9741   37.0053 C   0  0  1  0  0  0  0  0  0  0  0  0
  5  4  1  6  0  0  0
  5  8  1  0  0  0  0
  5 16  1  0  0  0  0
  8  7  1  6  0  0  0
  8 10  1  0  0  0  0
 10  1  1  1  0  0  0
 10 12  1  0  0  0  0
 11 18  1  0  0  0  0
 12 14  1  0  0  0  0
 14  2  1  1  0  0  0
 14 16  1  0  0  0  0
 16  9  1  6  0  0  0
 17  9  1  1  0  0  0
 17 11  1  0  0  0  0
 17 22  1  0  0  0  0
 18 19  1  1  0  0  0
 18 20  1  0  0  0  0
 19  3  1  0  0  0  0
 20 13  1  1  0  0  0
 20 21  1  0  0  0  0
 21 15  1  1  0  0  0
 21 22  1  0  0  0  0
 22  6  1  6  0  0  0
M  END
>  <CHROM.1>
79.51096645,57.48487401,-60.01297732,21.17417764,14.86971000,36.84714750
-0.86036149,0.23734893,1.98209958

>  <Name>
2et8_lig

>  <RI>
0

>  <Rbt.Current_Directory>
/home/itssahil/PROJECTS/Mol_Feturizer/New_Systems/rnas/2et8

>  <Rbt.Executable>
rbdock ($Id: //depot/dev/client3/rdock/2013.1/src/exe/rbdock.cxx#4 $)

>  <Rbt.Library>
libRbt.so (2013.1, Build901 2013/11/27)

>  <Rbt.Parameter_File>
/export/apps/rDock/src/rDock_2013.1_src/data/scripts/dock_solv.prm

>  <Rbt.Receptor>
prm/pocket_docking_3.prm

>  <SCORE>
-13.0961

>  <SCORE.INTER>
-11.7136

>  <SCORE.INTER.CONST>
1

>  <SCORE.INTER.POLAR>
-1.19954

>  <SCORE.INTER.ROT>
3

>  <SCORE.INTER.SOLV>
16.594

>  <SCORE.INTER.VDW>
-14.942

>  <SCORE.INTER.norm>
-0.532438

>  <SCORE.INTRA>
-1.38243

>  <SCORE.INTRA.DIHEDRAL>
-3.10214

>  <SCORE.INTRA.DIHEDRAL.0>
4.99603

>  <SCORE.INTRA.POLAR>
0

>  <SCORE.INTRA.POLAR.0>
0

>  <SCORE.INTRA.REPUL>
0

>  <SCORE.INTRA.REPUL.0>
0

>  <SCORE.INTRA.SOLV>
1.16953

>  <SCORE.INTRA.SOLV.lig_0>
-74.884

>  <SCORE.INTRA.VDW>
-0.41612

>  <SCORE.INTRA.VDW.0>
-0.858933

>  <SCORE.INTRA.norm>
-0.0628376

>  <SCORE.RESTR>
0

>  <SCORE.RESTR.CAVITY>
0

>  <SCORE.RESTR.norm>
0

>  <SCORE.SYSTEM>
0

>  <SCORE.SYSTEM.CONST>
0

>  <SCORE.SYSTEM.DIHEDRAL>
0

>  <SCORE.SYSTEM.SOLV>
0

>  <SCORE.SYSTEM.norm>
0

>  <SCORE.heavy>
22

>  <SCORE.norm>
-0.595276

>  <RMSD>
1.373

$$$$
2et8_lig
 OpenBabel11021811433D
libRbt.so/2013.1/901 2013/11/27
 22 23  0  0  0  0  0  0  0  0999 V2000
   25.4129   17.4074   34.4095 N   0  0  0  0  0  0  0  0  0  0  0  0
   22.3130   16.7913   38.2329 N   0  0  0  0  0  0  0  0  0  0  0  0
   21.2456   11.1948   39.3966 N   0  0  0  0  0  0  0  0  0  0  0  0
   21.4784   14.4631   33.9892 O   0  0  0  0  0  0  0  0  0  0  0  0
   21.9581   15.6800   34.6124 C   0  0  2  0  0  0  0  0  0  0  0  0
   17.6342   14.8795   36.2117 N   0  0  0  0  0  0  0  0  0  0  0  0
   23.5968   16.0440   32.7723 O   0  0  0  0  0  0  0  0  0  0  0  0
   23.4579   15.9256   34.1938 C   0  0  1  0  0  0  0  0  0  0  0  0
   20.5661   15.3434   36.5097 O   0  0  0  0  0  0  0  0  0  0  0  0
   23.9818   17.1960   34.8172 C   0  0  1  0  0  0  0  0  0  0  0  0
   20.8728   13.1847   37.2502 O   0  0  0  0  0  0  0  0  0  0  0  0
   23.8624   17.0938   36.3551 C   0  0  0  0  0  0  0  0  0  0  0  0
   19.4231   13.8167   40.5396 O   0  0  0  0  0  0  0  0  0  0  0  0
   22.3633   16.8717   36.7111 C   0  0  1  0  0  0  0  0  0  0  0  0
   17.1803   14.2406   38.9186 O   0  0  0  0  0  0  0  0  0  0  0  0
   21.8844   15.5510   36.1856 C   0  0  2  0  0  0  0  0  0  0  0  0
   19.9888   14.0850   36.3883 C   0  0  1  0  0  0  0  0  0  0  0  0
   20.8523   13.5546   38.6987 C   0  0  2  0  0  0  0  0  0  0  0  0
   21.7393   12.5935   39.5171 C   0  0  0  0  0  0  0  0  0  0  0  0
   19.4420   13.4597   39.1994 C   0  0  2  0  0  0  0  0  0  0  0  0
   18.5242   14.3660   38.4313 C   0  0  1  0  0  0  0  0  0  0  0  0
   18.5600   13.9820   36.9920 C   0  0  1  0  0  0  0  0  0  0  0  0
  5  4  1  6  0  0  0
  5  8  1  0  0  0  0
  5 16  1  0  0  0  0
  8  7  1  6  0  0  0
  8 10  1  0  0  0  0
 10  1  1  1  0  0  0
 10 12  1  0  0  0  0
 11 18  1  0  0  0  0
 12 14  1  0  0  0  0
 14  2  1  1  0  0  0
 14 16  1  0  0  0  0
 16  9  1  6  0  0  0
 17  9  1  1  0  0  0
 17 11  1  0  0  0  0
 17 22  1  0  0  0  0
 18 19  1  1  0  0  0
 18 20  1  0  0  0  0
 19  3  1  0  0  0  0
 20 13  1  1  0  0  0
 20 21  1  0  0  0  0
 21 15  1  1  0  0  0
 21 22  1  0  0  0  0
 22  6  1  6  0  0  0
M  END
>  <CHROM.1>
79.87926375,56.50352790,-60.59599250,21.17431994,14.87644441,36.83357576
-0.85693766,0.23599273,1.98042177

>  <Name>
2et8_lig

>  <RI>
0

>  <Rbt.Current_Directory>
/home/itssahil/PROJECTS/Mol_Feturizer/New_Systems/rnas/2et8

>  <Rbt.Executable>
rbdock ($Id: //depot/dev/client3/rdock/2013.1/src/exe/rbdock.cxx#4 $)

>  <Rbt.Library>
libRbt.so (2013.1, Build901 2013/11/27)

>  <Rbt.Parameter_File>
/export/apps/rDock/src/rDock_2013.1_src/data/scripts/dock_solv.prm

>  <Rbt.Receptor>
prm/pocket_docking_7.prm

>  <SCORE>
-13.0873

>  <SCORE.INTER>
-11.7839

>  <SCORE.INTER.CONST>
1

>  <SCORE.INTER.POLAR>
-1.20688

>  <SCORE.INTER.ROT>
3

>  <SCORE.INTER.SOLV>
16.5468

>  <SCORE.INTER.VDW>
-14.9486

>  <SCORE.INTER.norm>
-0.535631

>  <SCORE.INTRA>
-1.30347

>  <SCORE.INTRA.DIHEDRAL>
-3.01492

>  <SCORE.INTRA.DIHEDRAL.0>
4.99603

>  <SCORE.INTRA.POLAR>
0

>  <SCORE.INTRA.POLAR.0>
0

>  <SCORE.INTRA.REPUL>
0

>  <SCORE.INTRA.REPUL.0>
0

>  <SCORE.INTRA.SOLV>
1.22598

>  <SCORE.INTRA.SOLV.lig_0>
-74.884

>  <SCORE.INTRA.VDW>
-0.408996

>  <SCORE.INTRA.VDW.0>
-0.858933

>  <SCORE.INTRA.norm>
-0.0592485

>  <SCORE.RESTR>
0

>  <SCORE.RESTR.CAVITY>
0

>  <SCORE.RESTR.norm>
0

>  <SCORE.SYSTEM>
0

>  <SCORE.SYSTEM.CONST>
0

>  <SCORE.SYSTEM.DIHEDRAL>
0

>  <SCORE.SYSTEM.SOLV>
0

>  <SCORE.SYSTEM.norm>
0

>  <SCORE.heavy>
22

>  <SCORE.norm>
-0.594879

>  <RMSD>
1.384

$$$$
2et8_lig
 OpenBabel11021811433D
libRbt.so/2013.1/901 2013/11/27
 22 23  0  0  0  0  0  0  0  0999 V2000
   25.7043   17.2156   34.4733 N   0  0  0  0  0  0  0  0  0  0  0  0
   22.5867   16.2492   38.2088 N   0  0  0  0  0  0  0  0  0  0  0  0
   22.1354   12.0441   38.9042 N   0  0  0  0  0  0  0  0  0  0  0  0
   21.4105   14.9429   33.6222 O   0  0  0  0  0  0  0  0  0  0  0  0
   22.0531   15.9391   34.4553 C   0  0  2  0  0  0  0  0  0  0  0  0
   17.8055   15.5656   35.4021 N   0  0  0  0  0  0  0  0  0  0  0  0
   23.7080   16.4510   32.6656 O   0  0  0  0  0  0  0  0  0  0  0  0
   23.5682   16.0695   34.0399 C   0  0  1  0  0  0  0  0  0  0  0  0
   20.6470   15.4108   36.2977 O   0  0  0  0  0  0  0  0  0  0  0  0
   24.2618   17.1118   34.8822 C   0  0  1  0  0  0  0  0  0  0  0  0
   20.4091   13.1757   36.7982 O   0  0  0  0  0  0  0  0  0  0  0  0
   24.1445   16.7203   36.3732 C   0  0  0  0  0  0  0  0  0  0  0  0
   18.4438   13.7797   39.8138 O   0  0  0  0  0  0  0  0  0  0  0  0
   22.6327   16.6252   36.7318 C   0  0  1  0  0  0  0  0  0  0  0  0
   16.6957   14.7852   37.8721 O   0  0  0  0  0  0  0  0  0  0  0  0
   21.9780   15.5085   35.9740 C   0  0  2  0  0  0  0  0  0  0  0  0
   19.8952   14.3080   35.9100 C   0  0  1  0  0  0  0  0  0  0  0  0
   20.1545   13.4088   38.2529 C   0  0  2  0  0  0  0  0  0  0  0  0
   20.6696   12.2205   39.0914 C   0  0  0  0  0  0  0  0  0  0  0  0
   18.6768   13.5497   38.4659 C   0  0  2  0  0  0  0  0  0  0  0  0
   18.1119   14.6859   37.6636 C   0  0  1  0  0  0  0  0  0  0  0  0
   18.3770   14.4353   36.2189 C   0  0  1  0  0  0  0  0  0  0  0  0
  5  4  1  6  0  0  0
  5  8  1  0  0  0  0
  5 16  1  0  0  0  0
  8  7  1  6  0  0  0
  8 10  1  0  0  0  0
 10  1  1  6  0  0  0
 10 12  1  0  0  0  0
 11 18  1  0  0  0  0
 12 14  1  0  0  0  0
 14  2  1  1  0  0  0
 14 16  1  0  0  0  0
 16  9  1  1  0  0  0
 17  9  1  1  0  0  0
 17 11  1  0  0  0  0
 17 22  1  0  0  0  0
 18 19  1  1  0  0  0
 18 20  1  0  0  0  0
 19  3  1  0  0  0  0
 20 13  1  1  0  0  0
 20 21  1  0  0  0  0
 21 15  1  6  0  0  0
 21 22  1  0  0  0  0
 22  6  1  6  0  0  0
M  END
>  <CHROM.1>
77.55997571,71.64671710,60.42896445,21.06442590,14.99449584,36.45554974,-0.71999816
0.13109524,2.06521190

>  <Name>
2et8_lig

>  <RI>
3.42619e+07

>  <Rbt.Current_Directory>
/home/itssahil/PROJECTS/Mol_Feturizer/New_Systems/rnas/2et8

>  <Rbt.Executable>
rbdock ($Id: //depot/dev/client3/rdock/2013.1/src/exe/rbdock.cxx#4 $)

>  <Rbt.Library>
libRbt.so (2013.1, Build901 2013/11/27)

>  <Rbt.Parameter_File>
/export/apps/rDock/src/rDock_2013.1_src/data/scripts/dock_solv.prm

>  <Rbt.Receptor>
prm/pocket_docking_4.prm

>  <SCORE>
-14.4963

>  <SCORE.INTER>
-12.4761

>  <SCORE.INTER.CONST>
1

>  <SCORE.INTER.POLAR>
-1.40813

>  <SCORE.INTER.ROT>
3

>  <SCORE.INTER.SOLV>
14.3394

>  <SCORE.INTER.VDW>
-14.0034

>  <SCORE.INTER.norm>
-0.567094

>  <SCORE.INTRA>
-2.02028

>  <SCORE.INTRA.DIHEDRAL>
-2.79222

>  <SCORE.INTRA.DIHEDRAL.0>
4.99603

>  <SCORE.INTRA.POLAR>
0

>  <SCORE.INTRA.POLAR.0>
0

>  <SCORE.INTRA.REPUL>
0

>  <SCORE.INTRA.REPUL.0>
0

>  <SCORE.INTRA.SOLV>
-0.152806

>  <SCORE.INTRA.SOLV.lig_0>
-74.884

>  <SCORE.INTRA.VDW>
-0.547767

>  <SCORE.INTRA.VDW.0>
-0.858933

>  <SCORE.INTRA.norm>
-0.091831

>  <SCORE.RESTR>
0

>  <SCORE.RESTR.CAVITY>
0

>  <SCORE.RESTR.norm>
0

>  <SCORE.SYSTEM>
0

>  <SCORE.SYSTEM.CONST>
0

>  <SCORE.SYSTEM.DIHEDRAL>
0

>  <SCORE.SYSTEM.SOLV>
0

>  <SCORE.SYSTEM.norm>
0

>  <SCORE.heavy>
22

>  <SCORE.norm>
-0.658925

>  <RMSD>
1.484

$$$$
2et8_lig
 OpenBabel11021811433D
libRbt.so/2013.1/901 2013/11/27
 22 23  0  0  0  0  0  0  0  0999 V2000
   25.7075   17.2167   34.4738 N   0  0  0  0  0  0  0  0  0  0  0  0
   22.6003   16.2232   38.2109 N   0  0  0  0  0  0  0  0  0  0  0  0
   22.1131   12.0313   38.9242 N   0  0  0  0  0  0  0  0  0  0  0  0
   21.4117   14.9494   33.6185 O   0  0  0  0  0  0  0  0  0  0  0  0
   22.0565   15.9397   34.4569 C   0  0  2  0  0  0  0  0  0  0  0  0
   17.8216   15.5659   35.3823 N   0  0  0  0  0  0  0  0  0  0  0  0
   23.7064   16.4646   32.6662 O   0  0  0  0  0  0  0  0  0  0  0  0
   23.5704   16.0733   34.0383 C   0  0  1  0  0  0  0  0  0  0  0  0
   20.6555   15.3981   36.2993 O   0  0  0  0  0  0  0  0  0  0  0  0
   24.2661   17.1097   34.8860 C   0  0  1  0  0  0  0  0  0  0  0  0
   20.4048   13.1632   36.7941 O   0  0  0  0  0  0  0  0  0  0  0  0
   24.1530   16.7076   36.3744 C   0  0  0  0  0  0  0  0  0  0  0  0
   18.4190   13.7700   39.7957 O   0  0  0  0  0  0  0  0  0  0  0  0
   22.6422   16.6097   36.7366 C   0  0  1  0  0  0  0  0  0  0  0  0
   16.6898   14.7858   37.8424 O   0  0  0  0  0  0  0  0  0  0  0  0
   21.9855   15.4984   35.9726 C   0  0  2  0  0  0  0  0  0  0  0  0
   19.9022   14.2990   35.9039 C   0  0  1  0  0  0  0  0  0  0  0  0
   20.1400   13.3948   38.2472 C   0  0  2  0  0  0  0  0  0  0  0  0
   20.6439   12.2031   39.0876 C   0  0  0  0  0  0  0  0  0  0  0  0
   18.6613   13.5413   38.4492 C   0  0  2  0  0  0  0  0  0  0  0  0
   18.1072   14.6811   37.6446 C   0  0  1  0  0  0  0  0  0  0  0  0
   18.3822   14.4319   36.2015 C   0  0  1  0  0  0  0  0  0  0  0  0
  5  4  1  6  0  0  0
  5  8  1  0  0  0  0
  5 16  1  0  0  0  0
  8  7  1  6  0  0  0
  8 10  1  0  0  0  0
 10  1  1  6  0  0  0
 10 12  1  0  0  0  0
 11 18  1  0  0  0  0
 12 14  1  0  0  0  0
 14  2  1  1  0  0  0
 14 16  1  0  0  0  0
 16  9  1  1  0  0  0
 17  9  1  1  0  0  0
 17 11  1  0  0  0  0
 17 22  1  0  0  0  0
 18 19  1  1  0  0  0
 18 20  1  0  0  0  0
 19  3  1  0  0  0  0
 20 13  1  1  0  0  0
 20 21  1  0  0  0  0
 21 15  1  6  0  0  0
 21 22  1  0  0  0  0
 22  6  1  6  0  0  0
M  END
>  <CHROM.1>
77.45507694,72.40688995,61.11687823,21.06291065,14.98807667,36.45039318,-0.71905966
0.13243713,2.06752742

>  <Name>
2et8_lig

>  <RI>
2.82936e+07

>  <Rbt.Current_Directory>
/home/itssahil/PROJECTS/Mol_Feturizer/New_Systems/rnas/2et8

>  <Rbt.Executable>
rbdock ($Id: //depot/dev/client3/rdock/2013.1/src/exe/rbdock.cxx#4 $)

>  <Rbt.Library>
libRbt.so (2013.1, Build901 2013/11/27)

>  <Rbt.Parameter_File>
/export/apps/rDock/src/rDock_2013.1_src/data/scripts/dock_solv.prm

>  <Rbt.Receptor>
prm/pocket_docking_8.prm

>  <SCORE>
-14.5053

>  <SCORE.INTER>
-12.5228

>  <SCORE.INTER.CONST>
1

>  <SCORE.INTER.POLAR>
-1.40986

>  <SCORE.INTER.ROT>
3

>  <SCORE.INTER.SOLV>
14.3164

>  <SCORE.INTER.VDW>
-14.0211

>  <SCORE.INTER.norm>
-0.56922

>  <SCORE.INTRA>
-1.98242

>  <SCORE.INTRA.DIHEDRAL>
-2.72105

>  <SCORE.INTRA.DIHEDRAL.0>
4.99603

>  <SCORE.INTRA.POLAR>
0

>  <SCORE.INTRA.POLAR.0>
0

>  <SCORE.INTRA.REPUL>
0

>  <SCORE.INTRA.REPUL.0>
0

>  <SCORE.INTRA.SOLV>
-0.147426

>  <SCORE.INTRA.SOLV.lig_0>
-74.884

>  <SCORE.INTRA.VDW>
-0.548178

>  <SCORE.INTRA.VDW.0>
-0.858933

>  <SCORE.INTRA.norm>
-0.0901099

>  <SCORE.RESTR>
0

>  <SCORE.RESTR.CAVITY>
0

>  <SCORE.RESTR.norm>
0

>  <SCORE.SYSTEM>
0

>  <SCORE.SYSTEM.CONST>
0

>  <SCORE.SYSTEM.DIHEDRAL>
0

>  <SCORE.SYSTEM.SOLV>
0

>  <SCORE.SYSTEM.norm>
0

>  <SCORE.heavy>
22

>  <SCORE.norm>
-0.65933

>  <RMSD>
1.485

$$$$
2et8_lig
 OpenBabel11021811433D
libRbt.so/2013.1/901 2013/11/27
 22 23  0  0  0  0  0  0  0  0999 V2000
   25.6904   17.2282   34.4623 N   0  0  0  0  0  0  0  0  0  0  0  0
   22.5855   16.2409   38.2029 N   0  0  0  0  0  0  0  0  0  0  0  0
   22.0481   12.0060   38.9292 N   0  0  0  0  0  0  0  0  0  0  0  0
   21.4112   14.9255   33.6185 O   0  0  0  0  0  0  0  0  0  0  0  0
   22.0482   15.9263   34.4504 C   0  0  2  0  0  0  0  0  0  0  0  0
   17.8307   15.5629   35.3314 N   0  0  0  0  0  0  0  0  0  0  0  0
   23.6967   16.4493   32.6579 O   0  0  0  0  0  0  0  0  0  0  0  0
   23.5617   16.0671   34.0326 C   0  0  1  0  0  0  0  0  0  0  0  0
   20.6487   15.3886   36.2950 O   0  0  0  0  0  0  0  0  0  0  0  0
   24.2493   17.1144   34.8735 C   0  0  1  0  0  0  0  0  0  0  0  0
   20.3829   13.1557   36.7911 O   0  0  0  0  0  0  0  0  0  0  0  0
   24.1371   16.7224   36.3647 C   0  0  0  0  0  0  0  0  0  0  0  0
   18.3502   13.7760   39.7583 O   0  0  0  0  0  0  0  0  0  0  0  0
   22.6265   16.6169   36.7258 C   0  0  1  0  0  0  0  0  0  0  0  0
   16.6564   14.7924   37.7746 O   0  0  0  0  0  0  0  0  0  0  0  0
   21.9784   15.4956   35.9692 C   0  0  2  0  0  0  0  0  0  0  0  0
   19.8985   14.2909   35.8901 C   0  0  1  0  0  0  0  0  0  0  0  0
   20.0951   13.3917   38.2391 C   0  0  2  0  0  0  0  0  0  0  0  0
   20.5815   12.2005   39.0904 C   0  0  0  0  0  0  0  0  0  0  0  0
   18.6138   13.5433   38.4165 C   0  0  2  0  0  0  0  0  0  0  0  0
   18.0765   14.6829   37.6002 C   0  0  1  0  0  0  0  0  0  0  0  0
   18.3743   14.4292   36.1624 C   0  0  1  0  0  0  0  0  0  0  0  0
  5  4  1  6  0  0  0
  5  8  1  0  0  0  0
  5 16  1  0  0  0  0
  8  7  1  6  0  0  0
  8 10  1  0  0  0  0
 10  1  1  6  0  0  0
 10 12  1  0  0  0  0
 11 18  1  0  0  0  0
 12 14  1  0  0  0  0
 14  2  1  1  0  0  0
 14 16  1  0  0  0  0
 16  9  1  1  0  0  0
 17  9  1  1  0  0  0
 17 11  1  0  0  0  0
 17 22  1  0  0  0  0
 18 19  1  1  0  0  0
 18 20  1  0  0  0  0
 19  3  1  0  0  0  0
 20 13  1  1  0  0  0
 20 21  1  0  0  0  0
 21 15  1  6  0  0  0
 21 22  1  0  0  0  0
 22  6  1  6  0  0  0
M  END
>  <CHROM.1>
76.50172491,73.59633334,59.93024664,21.04010321,14.98555849,36.43346453,-0.71524074
0.13694387,2.06594373

>  <Name>
2et8_lig

>  <RI>
3.42619e+07

>  <Rbt.Current_Directory>
/home/itssahil/PROJECTS/Mol_Feturizer/New_Systems/rnas/2et8

>  <Rbt.Executable>
rbdock ($Id: //depot/dev/client3/rdock/2013.1/src/exe/rbdock.cxx#4 $)

>  <Rbt.Library>
libRbt.so (2013.1, Build901 2013/11/27)

>  <Rbt.Parameter_File>
/export/apps/rDock/src/rDock_2013.1_src/data/scripts/dock_solv.prm

>  <Rbt.Receptor>
prm/pocket_docking_4.prm

>  <SCORE>
-14.523

>  <SCORE.INTER>
-12.557

>  <SCORE.INTER.CONST>
1

>  <SCORE.INTER.POLAR>
-1.40807

>  <SCORE.INTER.ROT>
3

>  <SCORE.INTER.SOLV>
14.2249

>  <SCORE.INTER.VDW>
-14.0194

>  <SCORE.INTER.norm>
-0.570773

>  <SCORE.INTRA>
-1.96595

>  <SCORE.INTRA.DIHEDRAL>
-2.72325

>  <SCORE.INTRA.DIHEDRAL.0>
4.99603

>  <SCORE.INTRA.POLAR>
0

>  <SCORE.INTRA.POLAR.0>
0

>  <SCORE.INTRA.REPUL>
0

>  <SCORE.INTRA.REPUL.0>
0

>  <SCORE.INTRA.SOLV>
-0.241756

>  <SCORE.INTRA.SOLV.lig_0>
-74.884

>  <SCORE.INTRA.VDW>
-0.483446

>  <SCORE.INTRA.VDW.0>
-0.858933

>  <SCORE.INTRA.norm>
-0.0893614

>  <SCORE.RESTR>
0

>  <SCORE.RESTR.CAVITY>
0

>  <SCORE.RESTR.norm>
0

>  <SCORE.SYSTEM>
0

>  <SCORE.SYSTEM.CONST>
0

>  <SCORE.SYSTEM.DIHEDRAL>
0

>  <SCORE.SYSTEM.SOLV>
0

>  <SCORE.SYSTEM.norm>
0

>  <SCORE.heavy>
22

>  <SCORE.norm>
-0.660135

>  <RMSD>
1.512

$$$$
2et8_lig
 OpenBabel11021811433D
libRbt.so/2013.1/901 2013/11/27
 22 23  0  0  0  0  0  0  0  0999 V2000
   25.6492   17.2698   34.4557 N   0  0  0  0  0  0  0  0  0  0  0  0
   22.5212   16.4098   38.2086 N   0  0  0  0  0  0  0  0  0  0  0  0
   22.0699   12.0760   38.9340 N   0  0  0  0  0  0  0  0  0  0  0  0
   21.4040   14.8831   33.6757 O   0  0  0  0  0  0  0  0  0  0  0  0
   22.0221   15.9264   34.4688 C   0  0  2  0  0  0  0  0  0  0  0  0
   17.7822   15.6133   35.3912 N   0  0  0  0  0  0  0  0  0  0  0  0
   23.6810   16.3902   32.6696 O   0  0  0  0  0  0  0  0  0  0  0  0
   23.5376   16.0665   34.0584 C   0  0  1  0  0  0  0  0  0  0  0  0
   20.6118   15.4530   36.3228 O   0  0  0  0  0  0  0  0  0  0  0  0
   24.2057   17.1573   34.8589 C   0  0  1  0  0  0  0  0  0  0  0  0
   20.3686   13.2142   36.8032 O   0  0  0  0  0  0  0  0  0  0  0  0
   24.0842   16.8291   36.3648 C   0  0  0  0  0  0  0  0  0  0  0  0
   18.3635   13.7943   39.7973 O   0  0  0  0  0  0  0  0  0  0  0  0
   22.5717   16.7218   36.7169 C   0  0  1  0  0  0  0  0  0  0  0  0
   16.6405   14.8137   37.8405 O   0  0  0  0  0  0  0  0  0  0  0  0
   21.9432   15.5612   36.0042 C   0  0  2  0  0  0  0  0  0  0  0  0
   19.8657   14.3529   35.9169 C   0  0  1  0  0  0  0  0  0  0  0  0
   20.0947   13.4360   38.2562 C   0  0  2  0  0  0  0  0  0  0  0  0
   20.5995   12.2417   39.0923 C   0  0  0  0  0  0  0  0  0  0  0  0
   18.6143   13.5747   38.4508 C   0  0  2  0  0  0  0  0  0  0  0  0
   18.0594   14.7166   37.6499 C   0  0  1  0  0  0  0  0  0  0  0  0
   18.3435   14.4771   36.2068 C   0  0  1  0  0  0  0  0  0  0  0  0
  5  4  1  6  0  0  0
  5  8  1  0  0  0  0
  5 16  1  0  0  0  0
  8  7  1  6  0  0  0
  8 10  1  0  0  0  0
 10  1  1  6  0  0  0
 10 12  1  0  0  0  0
 11 18  1  0  0  0  0
 12 14  1  0  0  0  0
 14  2  1  1  0  0  0
 14 16  1  0  0  0  0
 16  9  1  1  0  0  0
 17  9  1  1  0  0  0
 17 11  1  0  0  0  0
 17 22  1  0  0  0  0
 18 19  1  1  0  0  0
 18 20  1  0  0  0  0
 19  3  1  0  0  0  0
 20 13  1  1  0  0  0
 20 21  1  0  0  0  0
 21 15  1  6  0  0  0
 21 22  1  0  0  0  0
 22  6  1  6  0  0  0
M  END
>  <CHROM.1>
74.10999970,72.39873220,61.01084193,21.01751351,15.02846623,36.45703789,-0.71628740
0.13596270,2.06178861

>  <Name>
2et8_lig

>  <RI>
2.82936e+07

>  <Rbt.Current_Directory>
/home/itssahil/PROJECTS/Mol_Feturizer/New_Systems/rnas/2et8

>  <Rbt.Executable>
rbdock ($Id: //depot/dev/client3/rdock/2013.1/src/exe/rbdock.cxx#4 $)

>  <Rbt.Library>
libRbt.so (2013.1, Build901 2013/11/27)

>  <Rbt.Parameter_File>
/export/apps/rDock/src/rDock_2013.1_src/data/scripts/dock_solv.prm

>  <Rbt.Receptor>
prm/pocket_docking_8.prm

>  <SCORE>
-14.4823

>  <SCORE.INTER>
-12.2946

>  <SCORE.INTER.CONST>
1

>  <SCORE.INTER.POLAR>
-1.38198

>  <SCORE.INTER.ROT>
3

>  <SCORE.INTER.SOLV>
14.0212

>  <SCORE.INTER.VDW>
-13.8635

>  <SCORE.INTER.norm>
-0.558845

>  <SCORE.INTRA>
-2.18772

>  <SCORE.INTRA.DIHEDRAL>
-3.17181

>  <SCORE.INTRA.DIHEDRAL.0>
4.99603

>  <SCORE.INTRA.POLAR>
0

>  <SCORE.INTRA.POLAR.0>
0

>  <SCORE.INTRA.REPUL>
0

>  <SCORE.INTRA.REPUL.0>
0

>  <SCORE.INTRA.SOLV>
-0.49354

>  <SCORE.INTRA.SOLV.lig_0>
-74.884

>  <SCORE.INTRA.VDW>
-0.355042

>  <SCORE.INTRA.VDW.0>
-0.858933

>  <SCORE.INTRA.norm>
-0.0994416

>  <SCORE.RESTR>
0

>  <SCORE.RESTR.CAVITY>
0

>  <SCORE.RESTR.norm>
0

>  <SCORE.SYSTEM>
0

>  <SCORE.SYSTEM.CONST>
0

>  <SCORE.SYSTEM.DIHEDRAL>
0

>  <SCORE.SYSTEM.SOLV>
0

>  <SCORE.SYSTEM.norm>
0

>  <SCORE.heavy>
22

>  <SCORE.norm>
-0.658287

>  <RMSD>
1.528

$$$$
2et8_lig
 OpenBabel11021811433D
libRbt.so/2013.1/901 2013/11/27
 22 23  0  0  0  0  0  0  0  0999 V2000
   25.6537   17.2629   34.4618 N   0  0  0  0  0  0  0  0  0  0  0  0
   22.5190   16.4169   38.2122 N   0  0  0  0  0  0  0  0  0  0  0  0
   22.0635   12.1090   38.9798 N   0  0  0  0  0  0  0  0  0  0  0  0
   21.4058   14.8813   33.6813 O   0  0  0  0  0  0  0  0  0  0  0  0
   22.0244   15.9254   34.4728 C   0  0  2  0  0  0  0  0  0  0  0  0
   17.7829   15.6277   35.3904 N   0  0  0  0  0  0  0  0  0  0  0  0
   23.6867   16.3823   32.6750 O   0  0  0  0  0  0  0  0  0  0  0  0
   23.5408   16.0621   34.0643 C   0  0  1  0  0  0  0  0  0  0  0  0
   20.6107   15.4588   36.3260 O   0  0  0  0  0  0  0  0  0  0  0  0
   24.2095   17.1537   34.8633 C   0  0  1  0  0  0  0  0  0  0  0  0
   20.3608   13.2200   36.8034 O   0  0  0  0  0  0  0  0  0  0  0  0
   24.0853   16.8292   36.3697 C   0  0  0  0  0  0  0  0  0  0  0  0
   18.3529   13.8020   39.7951 O   0  0  0  0  0  0  0  0  0  0  0  0
   22.5721   16.7252   36.7199 C   0  0  1  0  0  0  0  0  0  0  0  0
   16.6355   14.8283   37.8369 O   0  0  0  0  0  0  0  0  0  0  0  0
   21.9427   15.5640   36.0090 C   0  0  2  0  0  0  0  0  0  0  0  0
   19.8623   14.3611   35.9177 C   0  0  1  0  0  0  0  0  0  0  0  0
   20.0854   13.4409   38.2562 C   0  0  2  0  0  0  0  0  0  0  0  0
   20.5857   12.2443   39.0917 C   0  0  0  0  0  0  0  0  0  0  0  0
   18.6050   13.5833   38.4488 C   0  0  2  0  0  0  0  0  0  0  0  0
   18.0544   14.7277   37.6484 C   0  0  1  0  0  0  0  0  0  0  0  0
   18.3400   14.4891   36.2055 C   0  0  1  0  0  0  0  0  0  0  0  0
  5  4  1  6  0  0  0
  5  8  1  0  0  0  0
  5 16  1  0  0  0  0
  8  7  1  6  0  0  0
  8 10  1  0  0  0  0
 10  1  1  6  0  0  0
 10 12  1  0  0  0  0
 11 18  1  0  0  0  0
 12 14  1  0  0  0  0
 14  2  1  1  0  0  0
 14 16  1  0  0  0  0
 16  9  1  1  0  0  0
 17  9  1  1  0  0  0
 17 11  1  0  0  0  0
 17 22  1  0  0  0  0
 18 19  1  1  0  0  0
 18 20  1  0  0  0  0
 19  3  1  0  0  0  0
 20 13  1  1  0  0  0
 20 21  1  0  0  0  0
 21 15  1  6  0  0  0
 21 22  1  0  0  0  0
 22  6  1  6  0  0  0
M  END
>  <CHROM.1>
73.88790184,72.42418751,63.33744055,21.01502261,15.03374012,36.46090038,-0.71392736
0.13638948,2.05860567

>  <Name>
2et8_lig

>  <RI>
0

>  <Rbt.Current_Directory>
/home/itssahil/PROJECTS/Mol_Feturizer/New_Systems/rnas/2et8

>  <Rbt.Executable>
rbdock ($Id: //depot/dev/client3/rdock/2013.1/src/exe/rbdock.cxx#4 $)

>  <Rbt.Library>
libRbt.so (2013.1, Build901 2013/11/27)

>  <Rbt.Parameter_File>
/export/apps/rDock/src/rDock_2013.1_src/data/scripts/dock_solv.prm

>  <Rbt.Receptor>
prm/pocket_docking_3.prm

>  <SCORE>
-14.4922

>  <SCORE.INTER>
-12.3056

>  <SCORE.INTER.CONST>
1

>  <SCORE.INTER.POLAR>
-1.37843

>  <SCORE.INTER.ROT>
3

>  <SCORE.INTER.SOLV>
13.9369

>  <SCORE.INTER.VDW>
-13.8546

>  <SCORE.INTER.norm>
-0.559347

>  <SCORE.INTRA>
-2.18656

>  <SCORE.INTRA.DIHEDRAL>
-3.15918

>  <SCORE.INTRA.DIHEDRAL.0>
4.99603

>  <SCORE.INTRA.POLAR>
0

>  <SCORE.INTRA.POLAR.0>
0

>  <SCORE.INTRA.REPUL>
0

>  <SCORE.INTRA.REPUL.0>
0

>  <SCORE.INTRA.SOLV>
-0.524702

>  <SCORE.INTRA.SOLV.lig_0>
-74.884

>  <SCORE.INTRA.VDW>
-0.344618

>  <SCORE.INTRA.VDW.0>
-0.858933

>  <SCORE.INTRA.norm>
-0.0993891

>  <SCORE.RESTR>
0

>  <SCORE.RESTR.CAVITY>
0

>  <SCORE.RESTR.norm>
0

>  <SCORE.SYSTEM>
0

>  <SCORE.SYSTEM.CONST>
0

>  <SCORE.SYSTEM.DIHEDRAL>
0

>  <SCORE.SYSTEM.SOLV>
0

>  <SCORE.SYSTEM.norm>
0

>  <SCORE.heavy>
22

>  <SCORE.norm>
-0.658736

>  <RMSD>
1.532

$$$$
2et8_lig
 OpenBabel11021811433D
libRbt.so/2013.1/901 2013/11/27
 22 23  0  0  0  0  0  0  0  0999 V2000
   25.6813   17.2160   34.4853 N   0  0  0  0  0  0  0  0  0  0  0  0
   22.4933   16.2984   38.1734 N   0  0  0  0  0  0  0  0  0  0  0  0
   22.0256   12.1382   38.9803 N   0  0  0  0  0  0  0  0  0  0  0  0
   21.4149   14.9103   33.5868 O   0  0  0  0  0  0  0  0  0  0  0  0
   22.0365   15.9231   34.4157 C   0  0  2  0  0  0  0  0  0  0  0  0
   17.7790   15.5198   35.2608 N   0  0  0  0  0  0  0  0  0  0  0  0
   23.7249   16.4124   32.6511 O   0  0  0  0  0  0  0  0  0  0  0  0
   23.5591   16.0533   34.0286 C   0  0  1  0  0  0  0  0  0  0  0  0
   20.5958   15.4195   36.2382 O   0  0  0  0  0  0  0  0  0  0  0  0
   24.2313   17.1127   34.8669 C   0  0  1  0  0  0  0  0  0  0  0  0
   20.3577   13.2038   36.8182 O   0  0  0  0  0  0  0  0  0  0  0  0
   24.0857   16.7456   36.3616 C   0  0  0  0  0  0  0  0  0  0  0  0
   18.3073   13.9095   39.7539 O   0  0  0  0  0  0  0  0  0  0  0  0
   22.5674   16.6498   36.6915 C   0  0  1  0  0  0  0  0  0  0  0  0
   16.6068   14.8273   37.7282 O   0  0  0  0  0  0  0  0  0  0  0  0
   21.9326   15.5177   35.9396 C   0  0  2  0  0  0  0  0  0  0  0  0
   19.8615   14.2974   35.8732 C   0  0  1  0  0  0  0  0  0  0  0  0
   20.0621   13.4908   38.2554 C   0  0  2  0  0  0  0  0  0  0  0  0
   20.5612   12.3394   39.1528 C   0  0  0  0  0  0  0  0  0  0  0  0
   18.5783   13.6295   38.4227 C   0  0  2  0  0  0  0  0  0  0  0  0
   18.0288   14.7299   37.5621 C   0  0  1  0  0  0  0  0  0  0  0  0
   18.3347   14.4258   36.1358 C   0  0  1  0  0  0  0  0  0  0  0  0
  5  4  1  6  0  0  0
  5  8  1  0  0  0  0
  5 16  1  0  0  0  0
  8  7  1  6  0  0  0
  8 10  1  0  0  0  0
 10  1  1  6  0  0  0
 10 12  1  0  0  0  0
 11 18  1  0  0  0  0
 12 14  1  0  0  0  0
 14  2  1  1  0  0  0
 14 16  1  0  0  0  0
 16  9  1  1  0  0  0
 17  9  1  1  0  0  0
 17 11  1  0  0  0  0
 17 22  1  0  0  0  0
 18 19  1  1  0  0  0
 18 20  1  0  0  0  0
 19  3  1  0  0  0  0
 20 13  1  1  0  0  0
 20 21  1  0  0  0  0
 21 15  1  6  0  0  0
 21 22  1  0  0  0  0
 22  6  1  6  0  0  0
M  END
>  <CHROM.1>
78.61868782,72.06161226,58.65776850,21.00795928,15.02042456,36.42178332,-0.70293737
0.14880464,2.03171365

>  <Name>
2et8_lig

>  <RI>
0

>  <Rbt.Current_Directory>
/home/itssahil/PROJECTS/Mol_Feturizer/New_Systems/rnas/2et8

>  <Rbt.Executable>
rbdock ($Id: //depot/dev/client3/rdock/2013.1/src/exe/rbdock.cxx#4 $)

>  <Rbt.Library>
libRbt.so (2013.1, Build901 2013/11/27)

>  <Rbt.Parameter_File>
/export/apps/rDock/src/rDock_2013.1_src/data/scripts/dock_solv.prm

>  <Rbt.Receptor>
prm/pocket_docking_7.prm

>  <SCORE>
-14.4618

>  <SCORE.INTER>
-12.5458

>  <SCORE.INTER.CONST>
1

>  <SCORE.INTER.POLAR>
-1.41596

>  <SCORE.INTER.ROT>
3

>  <SCORE.INTER.SOLV>
13.8772

>  <SCORE.INTER.VDW>
-13.8697

>  <SCORE.INTER.norm>
-0.570266

>  <SCORE.INTRA>
-1.916

>  <SCORE.INTRA.DIHEDRAL>
-2.58527

>  <SCORE.INTRA.DIHEDRAL.0>
4.99603

>  <SCORE.INTRA.POLAR>
0

>  <SCORE.INTRA.POLAR.0>
0

>  <SCORE.INTRA.REPUL>
0

>  <SCORE.INTRA.REPUL.0>
0

>  <SCORE.INTRA.SOLV>
-0.0435111

>  <SCORE.INTRA.SOLV.lig_0>
-74.884

>  <SCORE.INTRA.VDW>
-0.601602

>  <SCORE.INTRA.VDW.0>
-0.858933

>  <SCORE.INTRA.norm>
-0.0870907

>  <SCORE.RESTR>
0

>  <SCORE.RESTR.CAVITY>
0

>  <SCORE.RESTR.norm>
0

>  <SCORE.SYSTEM>
0

>  <SCORE.SYSTEM.CONST>
0

>  <SCORE.SYSTEM.DIHEDRAL>
0

>  <SCORE.SYSTEM.SOLV>
0

>  <SCORE.SYSTEM.norm>
0

>  <SCORE.heavy>
22

>  <SCORE.norm>
-0.657356

>  <RMSD>
1.573

$$$$
2et8_lig
 OpenBabel11021811433D
libRbt.so/2013.1/901 2013/11/27
 22 23  0  0  0  0  0  0  0  0999 V2000
   25.6391   17.2627   34.4802 N   0  0  0  0  0  0  0  0  0  0  0  0
   22.4532   16.4400   38.1925 N   0  0  0  0  0  0  0  0  0  0  0  0
   22.0445   12.2004   38.9964 N   0  0  0  0  0  0  0  0  0  0  0  0
   21.3906   14.8983   33.6515 O   0  0  0  0  0  0  0  0  0  0  0  0
   22.0039   15.9416   34.4483 C   0  0  2  0  0  0  0  0  0  0  0  0
   17.7353   15.5865   35.3439 N   0  0  0  0  0  0  0  0  0  0  0  0
   23.6909   16.3866   32.6707 O   0  0  0  0  0  0  0  0  0  0  0  0
   23.5260   16.0704   34.0588 C   0  0  1  0  0  0  0  0  0  0  0  0
   20.5646   15.4858   36.2844 O   0  0  0  0  0  0  0  0  0  0  0  0
   24.1893   17.1609   34.8635 C   0  0  1  0  0  0  0  0  0  0  0  0
   20.3410   13.2637   36.8452 O   0  0  0  0  0  0  0  0  0  0  0  0
   24.0446   16.8408   36.3690 C   0  0  0  0  0  0  0  0  0  0  0  0
   18.3257   13.9334   39.8136 O   0  0  0  0  0  0  0  0  0  0  0  0
   22.5266   16.7444   36.7002 C   0  0  1  0  0  0  0  0  0  0  0  0
   16.5968   14.8656   37.8189 O   0  0  0  0  0  0  0  0  0  0  0  0
   21.9011   15.5843   35.9842 C   0  0  2  0  0  0  0  0  0  0  0  0
   19.8293   14.3650   35.9176 C   0  0  1  0  0  0  0  0  0  0  0  0
   20.0627   13.5354   38.2889 C   0  0  2  0  0  0  0  0  0  0  0  0
   20.5769   12.3768   39.1683 C   0  0  0  0  0  0  0  0  0  0  0  0
   18.5807   13.6675   38.4763 C   0  0  2  0  0  0  0  0  0  0  0  0
   18.0169   14.7746   37.6339 C   0  0  1  0  0  0  0  0  0  0  0  0
   18.3055   14.4857   36.2008 C   0  0  1  0  0  0  0  0  0  0  0  0
  5  4  1  6  0  0  0
  5  8  1  0  0  0  0
  5 16  1  0  0  0  0
  8  7  1  6  0  0  0
  8 10  1  0  0  0  0
 10  1  1  6  0  0  0
 10 12  1  0  0  0  0
 11 18  1  0  0  0  0
 12 14  1  0  0  0  0
 14  2  1  1  0  0  0
 14 16  1  0  0  0  0
 16  9  1  1  0  0  0
 17  9  1  1  0  0  0
 17 11  1  0  0  0  0
 17 22  1  0  0  0  0
 18 19  1  1  0  0  0
 18 20  1  0  0  0  0
 19  3  1  0  0  0  0
 20 13  1  1  0  0  0
 20 21  1  0  0  0  0
 21 15  1  6  0  0  0
 21 22  1  0  0  0  0
 22  6  1  6  0  0  0
M  END
>  <CHROM.1>
76.58738166,71.26075096,59.82374237,20.98642310,15.06947096,36.45979599,-0.70755207
0.14484629,2.03137176

>  <Name>
2et8_lig

>  <RI>
3.42619e+07

>  <Rbt.Current_Directory>
/home/itssahil/PROJECTS/Mol_Feturizer/New_Systems/rnas/2et8

>  <Rbt.Executable>
rbdock ($Id: //depot/dev/client3/rdock/2013.1/src/exe/rbdock.cxx#4 $)

>  <Rbt.Library>
libRbt.so (2013.1, Build901 2013/11/27)

>  <Rbt.Parameter_File>
/export/apps/rDock/src/rDock_2013.1_src/data/scripts/dock_solv.prm

>  <Rbt.Receptor>
prm/pocket_docking_4.prm

>  <SCORE>
-14.5459

>  <SCORE.INTER>
-12.4337

>  <SCORE.INTER.CONST>
1

>  <SCORE.INTER.POLAR>
-1.39987

>  <SCORE.INTER.ROT>
3

>  <SCORE.INTER.SOLV>
13.6041

>  <SCORE.INTER.VDW>
-13.7576

>  <SCORE.INTER.norm>
-0.565168

>  <SCORE.INTRA>
-2.11222

>  <SCORE.INTRA.DIHEDRAL>
-2.97153

>  <SCORE.INTRA.DIHEDRAL.0>
4.99603

>  <SCORE.INTRA.POLAR>
0

>  <SCORE.INTRA.POLAR.0>
0

>  <SCORE.INTRA.REPUL>
0

>  <SCORE.INTRA.REPUL.0>
0

>  <SCORE.INTRA.SOLV>
-0.270263

>  <SCORE.INTRA.SOLV.lig_0>
-74.884

>  <SCORE.INTRA.VDW>
-0.491318

>  <SCORE.INTRA.VDW.0>
-0.858933

>  <SCORE.INTRA.norm>
-0.0960098

>  <SCORE.RESTR>
0

>  <SCORE.RESTR.CAVITY>
0

>  <SCORE.RESTR.norm>
0

>  <SCORE.SYSTEM>
0

>  <SCORE.SYSTEM.CONST>
0

>  <SCORE.SYSTEM.DIHEDRAL>
0

>  <SCORE.SYSTEM.SOLV>
0

>  <SCORE.SYSTEM.norm>
0

>  <SCORE.heavy>
22

>  <SCORE.norm>
-0.661177

>  <RMSD>
1.575

$$$$
2et8_lig
 OpenBabel11021811433D
libRbt.so/2013.1/901 2013/11/27
 22 23  0  0  0  0  0  0  0  0999 V2000
   25.6449   17.2442   34.4876 N   0  0  0  0  0  0  0  0  0  0  0  0
   22.4417   16.4283   38.1865 N   0  0  0  0  0  0  0  0  0  0  0  0
   22.0362   12.2179   39.0104 N   0  0  0  0  0  0  0  0  0  0  0  0
   21.3926   14.8935   33.6400 O   0  0  0  0  0  0  0  0  0  0  0  0
   22.0059   15.9342   34.4401 C   0  0  2  0  0  0  0  0  0  0  0  0
   17.7297   15.5797   35.3260 N   0  0  0  0  0  0  0  0  0  0  0  0
   23.7013   16.3754   32.6696 O   0  0  0  0  0  0  0  0  0  0  0  0
   23.5299   16.0587   34.0568 C   0  0  1  0  0  0  0  0  0  0  0  0
   20.5579   15.4815   36.2701 O   0  0  0  0  0  0  0  0  0  0  0  0
   24.1934   17.1466   34.8650 C   0  0  1  0  0  0  0  0  0  0  0  0
   20.3326   13.2616   36.8393 O   0  0  0  0  0  0  0  0  0  0  0  0
   24.0416   16.8257   36.3697 C   0  0  0  0  0  0  0  0  0  0  0  0
   18.3144   13.9438   39.8028 O   0  0  0  0  0  0  0  0  0  0  0  0
   22.5221   16.7337   36.6948 C   0  0  1  0  0  0  0  0  0  0  0  0
   16.5881   14.8690   37.8025 O   0  0  0  0  0  0  0  0  0  0  0  0
   21.8958   15.5761   35.9753 C   0  0  2  0  0  0  0  0  0  0  0  0
   19.8225   14.3595   35.9068 C   0  0  1  0  0  0  0  0  0  0  0  0
   20.0529   13.5391   38.2815 C   0  0  2  0  0  0  0  0  0  0  0  0
   20.5655   12.3837   39.1661 C   0  0  0  0  0  0  0  0  0  0  0  0
   18.5707   13.6726   38.4668 C   0  0  2  0  0  0  0  0  0  0  0  0
   18.0083   14.7767   37.6194 C   0  0  1  0  0  0  0  0  0  0  0  0
   18.2985   14.4820   36.1878 C   0  0  1  0  0  0  0  0  0  0  0  0
  5  4  1  6  0  0  0
  5  8  1  0  0  0  0
  5 16  1  0  0  0  0
  8  7  1  6  0  0  0
  8 10  1  0  0  0  0
 10  1  1  6  0  0  0
 10 12  1  0  0  0  0
 11 18  1  0  0  0  0
 12 14  1  0  0  0  0
 14  2  1  1  0  0  0
 14 16  1  0  0  0  0
 16  9  1  1  0  0  0
 17  9  1  1  0  0  0
 17 11  1  0  0  0  0
 17 22  1  0  0  0  0
 18 19  1  1  0  0  0
 18 20  1  0  0  0  0
 19  3  1  0  0  0  0
 20 13  1  1  0  0  0
 20 21  1  0  0  0  0
 21 15  1  6  0  0  0
 21 22  1  0  0  0  0
 22  6  1  6  0  0  0
M  END
>  <CHROM.1>
76.99194611,71.02237019,60.58427402,20.98196006,15.06565021,36.45323107,-0.70385823
0.14575503,2.02670218

>  <Name>
2et8_lig

>  <RI>
0

>  <Rbt.Current_Directory>
/home/itssahil/PROJECTS/Mol_Feturizer/New_Systems/rnas/2et8

>  <Rbt.Executable>
rbdock ($Id: //depot/dev/client3/rdock/2013.1/src/exe/rbdock.cxx#4 $)

>  <Rbt.Library>
libRbt.so (2013.1, Build901 2013/11/27)

>  <Rbt.Parameter_File>
/export/apps/rDock/src/rDock_2013.1_src/data/scripts/dock_solv.prm

>  <Rbt.Receptor>
prm/pocket_docking_3.prm

>  <SCORE>
-14.526

>  <SCORE.INTER>
-12.4317

>  <SCORE.INTER.CONST>
1

>  <SCORE.INTER.POLAR>
-1.39789

>  <SCORE.INTER.ROT>
3

>  <SCORE.INTER.SOLV>
13.5901

>  <SCORE.INTER.VDW>
-13.7582

>  <SCORE.INTER.norm>
-0.565079

>  <SCORE.INTRA>
-2.09426

>  <SCORE.INTRA.DIHEDRAL>
-2.93749

>  <SCORE.INTRA.DIHEDRAL.0>
4.99603

>  <SCORE.INTRA.POLAR>
0

>  <SCORE.INTRA.POLAR.0>
0

>  <SCORE.INTRA.REPUL>
0

>  <SCORE.INTRA.REPUL.0>
0

>  <SCORE.INTRA.SOLV>
-0.224313

>  <SCORE.INTRA.SOLV.lig_0>
-74.884

>  <SCORE.INTRA.VDW>
-0.513359

>  <SCORE.INTRA.VDW.0>
-0.858933

>  <SCORE.INTRA.norm>
-0.0951938

>  <SCORE.RESTR>
0

>  <SCORE.RESTR.CAVITY>
0

>  <SCORE.RESTR.norm>
0

>  <SCORE.SYSTEM>
0

>  <SCORE.SYSTEM.CONST>
0

>  <SCORE.SYSTEM.DIHEDRAL>
0

>  <SCORE.SYSTEM.SOLV>
0

>  <SCORE.SYSTEM.norm>
0

>  <SCORE.heavy>
22

>  <SCORE.norm>
-0.660273

>  <RMSD>
1.585

$$$$
2et8_lig
 OpenBabel11021811433D
libRbt.so/2013.1/901 2013/11/27
 22 23  0  0  0  0  0  0  0  0999 V2000
   25.6361   17.2576   34.4719 N   0  0  0  0  0  0  0  0  0  0  0  0
   22.4435   16.4391   38.1794 N   0  0  0  0  0  0  0  0  0  0  0  0
   22.0387   12.2242   39.0212 N   0  0  0  0  0  0  0  0  0  0  0  0
   21.3926   14.8854   33.6398 O   0  0  0  0  0  0  0  0  0  0  0  0
   22.0028   15.9314   34.4354 C   0  0  2  0  0  0  0  0  0  0  0  0
   17.7342   15.5664   35.3181 N   0  0  0  0  0  0  0  0  0  0  0  0
   23.6929   16.3745   32.6603 O   0  0  0  0  0  0  0  0  0  0  0  0
   23.5255   16.0614   34.0488 C   0  0  1  0  0  0  0  0  0  0  0  0
   20.5603   15.4779   36.2696 O   0  0  0  0  0  0  0  0  0  0  0  0
   24.1857   17.1547   34.8524 C   0  0  1  0  0  0  0  0  0  0  0  0
   20.3388   13.2595   36.8456 O   0  0  0  0  0  0  0  0  0  0  0  0
   24.0382   16.8379   36.3583 C   0  0  0  0  0  0  0  0  0  0  0  0
   18.3115   13.9468   39.8018 O   0  0  0  0  0  0  0  0  0  0  0  0
   22.5197   16.7402   36.6866 C   0  0  1  0  0  0  0  0  0  0  0  0
   16.5881   14.8613   37.7941 O   0  0  0  0  0  0  0  0  0  0  0  0
   21.8972   15.5775   35.9720 C   0  0  2  0  0  0  0  0  0  0  0  0
   19.8284   14.3531   35.9082 C   0  0  1  0  0  0  0  0  0  0  0  0
   20.0547   13.5411   38.2862 C   0  0  2  0  0  0  0  0  0  0  0  0
   20.5678   12.3898   39.1759 C   0  0  0  0  0  0  0  0  0  0  0  0
   18.5718   13.6717   38.4674 C   0  0  2  0  0  0  0  0  0  0  0  0
   18.0090   14.7717   37.6149 C   0  0  1  0  0  0  0  0  0  0  0  0
   18.3034   14.4729   36.1850 C   0  0  1  0  0  0  0  0  0  0  0  0
  5  4  1  6  0  0  0
  5  8  1  0  0  0  0
  5 16  1  0  0  0  0
  8  7  1  6  0  0  0
  8 10  1  0  0  0  0
 10  1  1  6  0  0  0
 10 12  1  0  0  0  0
 11 18  1  0  0  0  0
 12 14  1  0  0  0  0
 14  2  1  1  0  0  0
 14 16  1  0  0  0  0
 16  9  1  1  0  0  0
 17  9  1  1  0  0  0
 17 11  1  0  0  0  0
 17 22  1  0  0  0  0
 18 19  1  1  0  0  0
 18 20  1  0  0  0  0
 19  3  1  0  0  0  0
 20 13  1  1  0  0  0
 20 21  1  0  0  0  0
 21 15  1  6  0  0  0
 21 22  1  0  0  0  0
 22  6  1  6  0  0  0
M  END
>  <CHROM.1>
76.82607474,71.34857075,60.40906295,20.98168593,15.06611552,36.45001284,-0.70598260
0.14898303,2.02414378

>  <Name>
2et8_lig

>  <RI>
3.42619e+07

>  <Rbt.Current_Directory>
/home/itssahil/PROJECTS/Mol_Feturizer/New_Systems/rnas/2et8

>  <Rbt.Executable>
rbdock ($Id: //depot/dev/client3/rdock/2013.1/src/exe/rbdock.cxx#4 $)

>  <Rbt.Library>
libRbt.so (2013.1, Build901 2013/11/27)

>  <Rbt.Parameter_File>
/export/apps/rDock/src/rDock_2013.1_src/data/scripts/dock_solv.prm

>  <Rbt.Receptor>
prm/pocket_docking_4.prm

>  <SCORE>
-14.5247

>  <SCORE.INTER>
-12.4352

>  <SCORE.INTER.CONST>
1

>  <SCORE.INTER.POLAR>
-1.39853

>  <SCORE.INTER.ROT>
3

>  <SCORE.INTER.SOLV>
13.5771

>  <SCORE.INTER.VDW>
-13.754

>  <SCORE.INTER.norm>
-0.565235

>  <SCORE.INTRA>
-2.08954

>  <SCORE.INTRA.DIHEDRAL>
-2.92843

>  <SCORE.INTRA.DIHEDRAL.0>
4.99603

>  <SCORE.INTRA.POLAR>
0

>  <SCORE.INTRA.POLAR.0>
0

>  <SCORE.INTRA.REPUL>
0

>  <SCORE.INTRA.REPUL.0>
0

>  <SCORE.INTRA.SOLV>
-0.238332

>  <SCORE.INTRA.SOLV.lig_0>
-74.884

>  <SCORE.INTRA.VDW>
-0.50616

>  <SCORE.INTRA.VDW.0>
-0.858933

>  <SCORE.INTRA.norm>
-0.0949792

>  <SCORE.RESTR>
0

>  <SCORE.RESTR.CAVITY>
0

>  <SCORE.RESTR.norm>
0

>  <SCORE.SYSTEM>
0

>  <SCORE.SYSTEM.CONST>
0

>  <SCORE.SYSTEM.DIHEDRAL>
0

>  <SCORE.SYSTEM.SOLV>
0

>  <SCORE.SYSTEM.norm>
0

>  <SCORE.heavy>
22

>  <SCORE.norm>
-0.660214

>  <RMSD>
1.588

$$$$
2et8_lig
 OpenBabel11021811433D
libRbt.so/2013.1/901 2013/11/27
 22 23  0  0  0  0  0  0  0  0999 V2000
   25.6264   17.2488   34.4685 N   0  0  0  0  0  0  0  0  0  0  0  0
   22.3861   16.3615   38.1183 N   0  0  0  0  0  0  0  0  0  0  0  0
   22.0532   12.3430   39.0945 N   0  0  0  0  0  0  0  0  0  0  0  0
   21.4037   14.8750   33.5411 O   0  0  0  0  0  0  0  0  0  0  0  0
   21.9989   15.9106   34.3612 C   0  0  2  0  0  0  0  0  0  0  0  0
   17.7149   15.4200   35.1890 N   0  0  0  0  0  0  0  0  0  0  0  0
   23.7117   16.3873   32.6167 O   0  0  0  0  0  0  0  0  0  0  0  0
   23.5263   16.0520   33.9978 C   0  0  1  0  0  0  0  0  0  0  0  0
   20.5330   15.4236   36.1680 O   0  0  0  0  0  0  0  0  0  0  0  0
   24.1713   17.1349   34.8273 C   0  0  1  0  0  0  0  0  0  0  0  0
   20.3486   13.2251   36.8277 O   0  0  0  0  0  0  0  0  0  0  0  0
   24.0042   16.7942   36.3259 C   0  0  0  0  0  0  0  0  0  0  0  0
   18.2804   13.9863   39.7371 O   0  0  0  0  0  0  0  0  0  0  0  0
   22.4817   16.6861   36.6316 C   0  0  1  0  0  0  0  0  0  0  0  0
   16.5590   14.7887   37.6804 O   0  0  0  0  0  0  0  0  0  0  0  0
   21.8735   15.5325   35.8905 C   0  0  2  0  0  0  0  0  0  0  0  0
   19.8263   14.2715   35.8441 C   0  0  1  0  0  0  0  0  0  0  0  0
   20.0455   13.5566   38.2537 C   0  0  2  0  0  0  0  0  0  0  0  0
   20.5721   12.4508   39.1919 C   0  0  0  0  0  0  0  0  0  0  0  0
   18.5587   13.6651   38.4167 C   0  0  2  0  0  0  0  0  0  0  0  0
   17.9830   14.7201   37.5172 C   0  0  1  0  0  0  0  0  0  0  0  0
   18.2967   14.3721   36.1027 C   0  0  1  0  0  0  0  0  0  0  0  0
  5  4  1  6  0  0  0
  5  8  1  0  0  0  0
  5 16  1  0  0  0  0
  8  7  1  6  0  0  0
  8 10  1  0  0  0  0
 10  1  1  6  0  0  0
 10 12  1  0  0  0  0
 11 18  1  0  0  0  0
 12 14  1  0  0  0  0
 14  2  1  1  0  0  0
 14 16  1  0  0  0  0
 16  9  1  1  0  0  0
 17  9  1  1  0  0  0
 17 11  1  0  0  0  0
 17 22  1  0  0  0  0
 18 19  1  1  0  0  0
 18 20  1  0  0  0  0
 19  3  1  0  0  0  0
 20 13  1  1  0  0  0
 20 21  1  0  0  0  0
 21 15  1  6  0  0  0
 21 22  1  0  0  0  0
 22  6  1  6  0  0  0
M  END
>  <CHROM.1>
80.36357204,70.69478039,62.54153171,20.96891655,15.03987341,36.39538168,-0.69928738
0.17397756,1.99317227

>  <Name>
2et8_lig

>  <RI>
3.14397e+07

>  <Rbt.Current_Directory>
/home/itssahil/PROJECTS/Mol_Feturizer/New_Systems/rnas/2et8

>  <Rbt.Executable>
rbdock ($Id: //depot/dev/client3/rdock/2013.1/src/exe/rbdock.cxx#4 $)

>  <Rbt.Library>
libRbt.so (2013.1, Build901 2013/11/27)

>  <Rbt.Parameter_File>
/export/apps/rDock/src/rDock_2013.1_src/data/scripts/dock_solv.prm

>  <Rbt.Receptor>
prm/pocket_docking_6.prm

>  <SCORE>
-14.4412

>  <SCORE.INTER>
-12.5982

>  <SCORE.INTER.CONST>
1

>  <SCORE.INTER.POLAR>
-1.43035

>  <SCORE.INTER.ROT>
3

>  <SCORE.INTER.SOLV>
13.5488

>  <SCORE.INTER.VDW>
-13.7473

>  <SCORE.INTER.norm>
-0.572647

>  <SCORE.INTRA>
-1.84293

>  <SCORE.INTRA.DIHEDRAL>
-2.43715

>  <SCORE.INTRA.DIHEDRAL.0>
4.99603

>  <SCORE.INTRA.POLAR>
0

>  <SCORE.INTRA.POLAR.0>
0

>  <SCORE.INTRA.REPUL>
0

>  <SCORE.INTRA.REPUL.0>
0

>  <SCORE.INTRA.SOLV>
0.152893

>  <SCORE.INTRA.SOLV.lig_0>
-74.884

>  <SCORE.INTRA.VDW>
-0.700802

>  <SCORE.INTRA.VDW.0>
-0.858933

>  <SCORE.INTRA.norm>
-0.0837695

>  <SCORE.RESTR>
0

>  <SCORE.RESTR.CAVITY>
0

>  <SCORE.RESTR.norm>
0

>  <SCORE.SYSTEM>
0

>  <SCORE.SYSTEM.CONST>
0

>  <SCORE.SYSTEM.DIHEDRAL>
0

>  <SCORE.SYSTEM.SOLV>
0

>  <SCORE.SYSTEM.norm>
0

>  <SCORE.heavy>
22

>  <SCORE.norm>
-0.656417

>  <RMSD>
1.645

$$$$
2et8_lig
 OpenBabel11021811433D
libRbt.so/2013.1/901 2013/11/27
 22 23  0  0  0  0  0  0  0  0999 V2000
   24.9954   16.8350   33.6768 N   0  0  0  0  0  0  0  0  0  0  0  0
   22.6482   15.5626   37.8576 N   0  0  0  0  0  0  0  0  0  0  0  0
   21.6136   11.3070   38.1450 N   0  0  0  0  0  0  0  0  0  0  0  0
   20.3613   15.1528   33.5300 O   0  0  0  0  0  0  0  0  0  0  0  0
   21.2905   15.9314   34.3236 C   0  0  2  0  0  0  0  0  0  0  0  0
   17.3095   15.6296   36.0620 N   0  0  0  0  0  0  0  0  0  0  0  0
   22.5775   16.5737   32.2901 O   0  0  0  0  0  0  0  0  0  0  0  0
   22.6859   15.9845   33.5920 C   0  0  1  0  0  0  0  0  0  0  0  0
   20.2535   15.2406   36.3479 O   0  0  0  0  0  0  0  0  0  0  0  0
   23.6723   16.8021   34.3891 C   0  0  1  0  0  0  0  0  0  0  0  0
   19.9510   13.0125   36.8445 O   0  0  0  0  0  0  0  0  0  0  0  0
   23.8261   16.1816   35.7967 C   0  0  0  0  0  0  0  0  0  0  0  0
   18.6972   13.6519   40.2120 O   0  0  0  0  0  0  0  0  0  0  0  0
   22.4264   16.1722   36.4778 C   0  0  1  0  0  0  0  0  0  0  0  0
   16.6717   14.8464   38.6928 O   0  0  0  0  0  0  0  0  0  0  0  0
   21.4859   15.2640   35.7426 C   0  0  2  0  0  0  0  0  0  0  0  0
   19.3553   14.2087   36.1032 C   0  0  1  0  0  0  0  0  0  0  0  0
   20.0183   13.2131   38.3246 C   0  0  2  0  0  0  0  0  0  0  0  0
   20.6006   11.9628   39.0159 C   0  0  0  0  0  0  0  0  0  0  0  0
   18.6308   13.4523   38.8410 C   0  0  2  0  0  0  0  0  0  0  0  0
   18.0033   14.6530   38.1944 C   0  0  1  0  0  0  0  0  0  0  0  0
   17.9469   14.4338   36.7215 C   0  0  1  0  0  0  0  0  0  0  0  0
  5  4  1  6  0  0  0
  5  8  1  0  0  0  0
  5 16  1  0  0  0  0
  8  7  1  6  0  0  0
  8 10  1  0  0  0  0
 10  1  1  6  0  0  0
 10 12  1  0  0  0  0
 11 18  1  0  0  0  0
 12 14  1  0  0  0  0
 14  2  1  1  0  0  0
 14 16  1  0  0  0  0
 16  9  1  1  0  0  0
 17  9  1  1  0  0  0
 17 11  1  0  0  0  0
 17 22  1  0  0  0  0
 18 19  1  1  0  0  0
 18 20  1  0  0  0  0
 19  3  1  0  0  0  0
 20 13  1  1  0  0  0
 20 21  1  0  0  0  0
 21 15  1  1  0  0  0
 21 22  1  0  0  0  0
 22  6  1  6  0  0  0
M  END
>  <CHROM.1>
84.76117472,72.62184697,33.38595074,20.65127885,14.81238982,36.41834821,-0.86443094
-0.06058275,2.16068379

>  <Name>
2et8_lig

>  <RI>
0

>  <Rbt.Current_Directory>
/home/itssahil/PROJECTS/Mol_Feturizer/New_Systems/rnas/2et8

>  <Rbt.Executable>
rbdock ($Id: //depot/dev/client3/rdock/2013.1/src/exe/rbdock.cxx#4 $)

>  <Rbt.Library>
libRbt.so (2013.1, Build901 2013/11/27)

>  <Rbt.Parameter_File>
/export/apps/rDock/src/rDock_2013.1_src/data/scripts/dock_solv.prm

>  <Rbt.Receptor>
prm/pocket_docking_3.prm

>  <SCORE>
-13.9772

>  <SCORE.INTER>
-13.709

>  <SCORE.INTER.CONST>
1

>  <SCORE.INTER.POLAR>
-1.50323

>  <SCORE.INTER.ROT>
3

>  <SCORE.INTER.SOLV>
18.2365

>  <SCORE.INTER.VDW>
-15.8074

>  <SCORE.INTER.norm>
-0.623136

>  <SCORE.INTRA>
-0.268232

>  <SCORE.INTRA.DIHEDRAL>
0.654081

>  <SCORE.INTRA.DIHEDRAL.0>
4.99603

>  <SCORE.INTRA.POLAR>
0

>  <SCORE.INTRA.POLAR.0>
0

>  <SCORE.INTRA.REPUL>
0

>  <SCORE.INTRA.REPUL.0>
0

>  <SCORE.INTRA.SOLV>
0.377322

>  <SCORE.INTRA.SOLV.lig_0>
-74.884

>  <SCORE.INTRA.VDW>
-0.783934

>  <SCORE.INTRA.VDW.0>
-0.858933

>  <SCORE.INTRA.norm>
-0.0121924

>  <SCORE.RESTR>
0

>  <SCORE.RESTR.CAVITY>
0

>  <SCORE.RESTR.norm>
0

>  <SCORE.SYSTEM>
0

>  <SCORE.SYSTEM.CONST>
0

>  <SCORE.SYSTEM.DIHEDRAL>
0

>  <SCORE.SYSTEM.SOLV>
0

>  <SCORE.SYSTEM.norm>
0

>  <SCORE.heavy>
22

>  <SCORE.norm>
-0.635329

>  <RMSD>
1.721

$$$$
2et8_lig
 OpenBabel11021811433D
libRbt.so/2013.1/901 2013/11/27
 22 23  0  0  0  0  0  0  0  0999 V2000
   24.9655   16.8259   33.6954 N   0  0  0  0  0  0  0  0  0  0  0  0
   22.6409   15.5278   37.8809 N   0  0  0  0  0  0  0  0  0  0  0  0
   21.5920   11.2673   38.1427 N   0  0  0  0  0  0  0  0  0  0  0  0
   20.3311   15.1434   33.5631 O   0  0  0  0  0  0  0  0  0  0  0  0
   21.2643   15.9175   34.3564 C   0  0  2  0  0  0  0  0  0  0  0  0
   17.2983   15.6333   36.0976 N   0  0  0  0  0  0  0  0  0  0  0  0
   22.5403   16.5724   32.3200 O   0  0  0  0  0  0  0  0  0  0  0  0
   22.6558   15.9754   33.6178 C   0  0  1  0  0  0  0  0  0  0  0  0
   20.2383   15.2143   36.3820 O   0  0  0  0  0  0  0  0  0  0  0  0
   23.6463   16.7885   34.4145 C   0  0  1  0  0  0  0  0  0  0  0  0
   19.9155   12.9820   36.8458 O   0  0  0  0  0  0  0  0  0  0  0  0
   23.8077   16.1596   35.8175 C   0  0  0  0  0  0  0  0  0  0  0  0
   18.6620   13.5836   40.2205 O   0  0  0  0  0  0  0  0  0  0  0  0
   22.4116   16.1457   36.5059 C   0  0  1  0  0  0  0  0  0  0  0  0
   16.6496   14.8178   38.7159 O   0  0  0  0  0  0  0  0  0  0  0  0
   21.4675   15.2417   35.7703 C   0  0  2  0  0  0  0  0  0  0  0  0
   19.3314   14.1940   36.1211 C   0  0  1  0  0  0  0  0  0  0  0  0
   19.9822   13.1605   38.3288 C   0  0  2  0  0  0  0  0  0  0  0  0
   20.5525   11.8953   39.0027 C   0  0  0  0  0  0  0  0  0  0  0  0
   18.5961   13.4044   38.8466 C   0  0  2  0  0  0  0  0  0  0  0  0
   17.9802   14.6198   38.2166 C   0  0  1  0  0  0  0  0  0  0  0  0
   17.9241   14.4225   36.7406 C   0  0  1  0  0  0  0  0  0  0  0  0
  5  4  1  6  0  0  0
  5  8  1  0  0  0  0
  5 16  1  0  0  0  0
  8  7  1  6  0  0  0
  8 10  1  0  0  0  0
 10  1  1  6  0  0  0
 10 12  1  0  0  0  0
 11 18  1  0  0  0  0
 12 14  1  0  0  0  0
 14  2  1  1  0  0  0
 14 16  1  0  0  0  0
 16  9  1  1  0  0  0
 17  9  1  1  0  0  0
 17 11  1  0  0  0  0
 17 22  1  0  0  0  0
 18 19  1  1  0  0  0
 18 20  1  0  0  0  0
 19  3  1  0  0  0  0
 20 13  1  1  0  0  0
 20 21  1  0  0  0  0
 21 15  1  1  0  0  0
 21 22  1  0  0  0  0
 22  6  1  6  0  0  0
M  END
>  <CHROM.1>
83.81901924,73.17426671,35.17319747,20.62532998,14.78597314,36.43753161,-0.86425019
-0.06584575,2.17229138

>  <Name>
2et8_lig

>  <RI>
0

>  <Rbt.Current_Directory>
/home/itssahil/PROJECTS/Mol_Feturizer/New_Systems/rnas/2et8

>  <Rbt.Executable>
rbdock ($Id: //depot/dev/client3/rdock/2013.1/src/exe/rbdock.cxx#4 $)

>  <Rbt.Library>
libRbt.so (2013.1, Build901 2013/11/27)

>  <Rbt.Parameter_File>
/export/apps/rDock/src/rDock_2013.1_src/data/scripts/dock_solv.prm

>  <Rbt.Receptor>
prm/pocket_docking_3.prm

>  <SCORE>
-13.8799

>  <SCORE.INTER>
-13.4427

>  <SCORE.INTER.CONST>
1

>  <SCORE.INTER.POLAR>
-1.48244

>  <SCORE.INTER.ROT>
3

>  <SCORE.INTER.SOLV>
18.5586

>  <SCORE.INTER.VDW>
-15.8065

>  <SCORE.INTER.norm>
-0.611032

>  <SCORE.INTRA>
-0.437222

>  <SCORE.INTRA.DIHEDRAL>
0.312504

>  <SCORE.INTRA.DIHEDRAL.0>
4.99603

>  <SCORE.INTRA.POLAR>
0

>  <SCORE.INTRA.POLAR.0>
0

>  <SCORE.INTRA.REPUL>
0

>  <SCORE.INTRA.REPUL.0>
0

>  <SCORE.INTRA.SOLV>
0.308961

>  <SCORE.INTRA.SOLV.lig_0>
-74.884

>  <SCORE.INTRA.VDW>
-0.747954

>  <SCORE.INTRA.VDW.0>
-0.858933

>  <SCORE.INTRA.norm>
-0.0198737

>  <SCORE.RESTR>
0

>  <SCORE.RESTR.CAVITY>
0

>  <SCORE.RESTR.norm>
0

>  <SCORE.SYSTEM>
0

>  <SCORE.SYSTEM.CONST>
0

>  <SCORE.SYSTEM.DIHEDRAL>
0

>  <SCORE.SYSTEM.SOLV>
0

>  <SCORE.SYSTEM.norm>
0

>  <SCORE.heavy>
22

>  <SCORE.norm>
-0.630905

>  <RMSD>
1.723

$$$$
2et8_lig
 OpenBabel11021811433D
libRbt.so/2013.1/901 2013/11/27
 22 23  0  0  0  0  0  0  0  0999 V2000
   25.6748   17.1692   34.5805 N   0  0  0  0  0  0  0  0  0  0  0  0
   22.2860   16.3782   38.1158 N   0  0  0  0  0  0  0  0  0  0  0  0
   21.5370   11.6390   38.1670 N   0  0  0  0  0  0  0  0  0  0  0  0
   21.3813   15.0014   33.4884 O   0  0  0  0  0  0  0  0  0  0  0  0
   21.9963   15.9976   34.3421 C   0  0  2  0  0  0  0  0  0  0  0  0
   17.6218   15.7257   35.1763 N   0  0  0  0  0  0  0  0  0  0  0  0
   23.7822   16.4208   32.6582 O   0  0  0  0  0  0  0  0  0  0  0  0
   23.5391   16.0750   34.0276 C   0  0  1  0  0  0  0  0  0  0  0  0
   20.4546   15.5521   36.0957 O   0  0  0  0  0  0  0  0  0  0  0  0
   24.2056   17.1161   34.8929 C   0  0  1  0  0  0  0  0  0  0  0  0
   20.2009   13.3159   36.5835 O   0  0  0  0  0  0  0  0  0  0  0  0
   23.9769   16.7624   36.3804 C   0  0  0  0  0  0  0  0  0  0  0  0
   18.2127   13.9158   39.5849 O   0  0  0  0  0  0  0  0  0  0  0  0
   22.4423   16.7188   36.6378 C   0  0  1  0  0  0  0  0  0  0  0  0
   16.4866   14.9394   37.6329 O   0  0  0  0  0  0  0  0  0  0  0  0
   21.8066   15.6043   35.8609 C   0  0  2  0  0  0  0  0  0  0  0  0
   19.7005   14.4550   35.6963 C   0  0  1  0  0  0  0  0  0  0  0  0
   19.9349   13.5435   38.0371 C   0  0  2  0  0  0  0  0  0  0  0  0
   20.4366   12.3487   38.8743 C   0  0  0  0  0  0  0  0  0  0  0  0
   18.4561   13.6910   38.2379 C   0  0  2  0  0  0  0  0  0  0  0  0
   17.9041   14.8338   37.4362 C   0  0  1  0  0  0  0  0  0  0  0  0
   18.1804   14.5886   35.9926 C   0  0  1  0  0  0  0  0  0  0  0  0
  5  4  1  6  0  0  0
  5  8  1  0  0  0  0
  5 16  1  0  0  0  0
  8  7  1  6  0  0  0
  8 10  1  0  0  0  0
 10  1  1  1  0  0  0
 10 12  1  0  0  0  0
 11 18  1  0  0  0  0
 12 14  1  0  0  0  0
 14  2  1  1  0  0  0
 14 16  1  0  0  0  0
 16  9  1  1  0  0  0
 17  9  1  1  0  0  0
 17 11  1  0  0  0  0
 17 22  1  0  0  0  0
 18 19  1  1  0  0  0
 18 20  1  0  0  0  0
 19  3  1  0  0  0  0
 20 13  1  1  0  0  0
 20 21  1  0  0  0  0
 21 15  1  6  0  0  0
 21 22  1  0  0  0  0
 22  6  1  6  0  0  0
M  END
>  <CHROM.1>
78.38850521,67.33309645,25.62459004,20.89031156,15.06701927,36.29019912,-0.67008126
0.10670284,2.09600577

>  <Name>
2et8_lig

>  <RI>
3.14397e+07

>  <Rbt.Current_Directory>
/home/itssahil/PROJECTS/Mol_Feturizer/New_Systems/rnas/2et8

>  <Rbt.Executable>
rbdock ($Id: //depot/dev/client3/rdock/2013.1/src/exe/rbdock.cxx#4 $)

>  <Rbt.Library>
libRbt.so (2013.1, Build901 2013/11/27)

>  <Rbt.Parameter_File>
/export/apps/rDock/src/rDock_2013.1_src/data/scripts/dock_solv.prm

>  <Rbt.Receptor>
prm/pocket_docking_6.prm

>  <SCORE>
-14.1945

>  <SCORE.INTER>
-13.8683

>  <SCORE.INTER.CONST>
1

>  <SCORE.INTER.POLAR>
-1.97287

>  <SCORE.INTER.ROT>
3

>  <SCORE.INTER.SOLV>
16.2192

>  <SCORE.INTER.VDW>
-13.6757

>  <SCORE.INTER.norm>
-0.630375

>  <SCORE.INTRA>
-0.326199

>  <SCORE.INTRA.DIHEDRAL>
0.186496

>  <SCORE.INTRA.DIHEDRAL.0>
4.99603

>  <SCORE.INTRA.POLAR>
0

>  <SCORE.INTRA.POLAR.0>
0

>  <SCORE.INTRA.REPUL>
0

>  <SCORE.INTRA.REPUL.0>
0

>  <SCORE.INTRA.SOLV>
-0.0390345

>  <SCORE.INTRA.SOLV.lig_0>
-74.884

>  <SCORE.INTRA.VDW>
-0.39993

>  <SCORE.INTRA.VDW.0>
-0.858933

>  <SCORE.INTRA.norm>
-0.0148272

>  <SCORE.RESTR>
0

>  <SCORE.RESTR.CAVITY>
0

>  <SCORE.RESTR.norm>
0

>  <SCORE.SYSTEM>
0

>  <SCORE.SYSTEM.CONST>
0

>  <SCORE.SYSTEM.DIHEDRAL>
0

>  <SCORE.SYSTEM.SOLV>
0

>  <SCORE.SYSTEM.norm>
0

>  <SCORE.heavy>
22

>  <SCORE.norm>
-0.645203

>  <RMSD>
1.732

$$$$
2et8_lig
 OpenBabel11021811433D
libRbt.so/2013.1/901 2013/11/27
 22 23  0  0  0  0  0  0  0  0999 V2000
   25.6635   17.1851   34.5514 N   0  0  0  0  0  0  0  0  0  0  0  0
   22.2944   16.3670   38.0993 N   0  0  0  0  0  0  0  0  0  0  0  0
   21.4627   11.5920   38.1699 N   0  0  0  0  0  0  0  0  0  0  0  0
   21.3783   14.9941   33.4731 O   0  0  0  0  0  0  0  0  0  0  0  0
   21.9910   15.9922   34.3262 C   0  0  2  0  0  0  0  0  0  0  0  0
   17.6372   15.6980   35.1321 N   0  0  0  0  0  0  0  0  0  0  0  0
   23.7672   16.4293   32.6356 O   0  0  0  0  0  0  0  0  0  0  0  0
   23.5319   16.0793   34.0053 C   0  0  1  0  0  0  0  0  0  0  0  0
   20.4593   15.5340   36.0853 O   0  0  0  0  0  0  0  0  0  0  0  0
   24.1960   17.1227   34.8699 C   0  0  1  0  0  0  0  0  0  0  0  0
   20.2008   13.3024   36.5910 O   0  0  0  0  0  0  0  0  0  0  0  0
   23.9757   16.7646   36.3576 C   0  0  0  0  0  0  0  0  0  0  0  0
   18.1781   13.9293   39.5637 O   0  0  0  0  0  0  0  0  0  0  0  0
   22.4424   16.7114   36.6214 C   0  0  1  0  0  0  0  0  0  0  0  0
   16.4742   14.9341   37.5827 O   0  0  0  0  0  0  0  0  0  0  0  0
   21.8100   15.5947   35.8449 C   0  0  2  0  0  0  0  0  0  0  0  0
   19.7102   14.4331   35.6875 C   0  0  1  0  0  0  0  0  0  0  0  0
   19.9181   13.5433   38.0392 C   0  0  2  0  0  0  0  0  0  0  0  0
   20.4106   12.3565   38.8932 C   0  0  0  0  0  0  0  0  0  0  0  0
   18.4371   13.6921   38.2218 C   0  0  2  0  0  0  0  0  0  0  0  0
   17.8939   14.8272   37.4033 C   0  0  1  0  0  0  0  0  0  0  0  0
   18.1867   14.5688   35.9652 C   0  0  1  0  0  0  0  0  0  0  0  0
  5  4  1  6  0  0  0
  5  8  1  0  0  0  0
  5 16  1  0  0  0  0
  8  7  1  6  0  0  0
  8 10  1  0  0  0  0
 10  1  1  6  0  0  0
 10 12  1  0  0  0  0
 11 18  1  0  0  0  0
 12 14  1  0  0  0  0
 14  2  1  1  0  0  0
 14 16  1  0  0  0  0
 16  9  1  1  0  0  0
 17  9  1  1  0  0  0
 17 11  1  0  0  0  0
 17 22  1  0  0  0  0
 18 19  1  1  0  0  0
 18 20  1  0  0  0  0
 19  3  1  0  0  0  0
 20 13  1  1  0  0  0
 20 21  1  0  0  0  0
 21 15  1  6  0  0  0
 21 22  1  0  0  0  0
 22  6  1  6  0  0  0
M  END
>  <CHROM.1>
78.42216053,68.46613076,22.23220673,20.88113046,15.06069508,36.27289228,-0.67237063
0.11325866,2.09201285

>  <Name>
2et8_lig

>  <RI>
3.42619e+07

>  <Rbt.Current_Directory>
/home/itssahil/PROJECTS/Mol_Feturizer/New_Systems/rnas/2et8

>  <Rbt.Executable>
rbdock ($Id: //depot/dev/client3/rdock/2013.1/src/exe/rbdock.cxx#4 $)

>  <Rbt.Library>
libRbt.so (2013.1, Build901 2013/11/27)

>  <Rbt.Parameter_File>
/export/apps/rDock/src/rDock_2013.1_src/data/scripts/dock_solv.prm

>  <Rbt.Receptor>
prm/pocket_docking_4.prm

>  <SCORE>
-14.1575

>  <SCORE.INTER>
-14.1474

>  <SCORE.INTER.CONST>
1

>  <SCORE.INTER.POLAR>
-2.02563

>  <SCORE.INTER.ROT>
3

>  <SCORE.INTER.SOLV>
16.4205

>  <SCORE.INTER.VDW>
-13.753

>  <SCORE.INTER.norm>
-0.643066

>  <SCORE.INTRA>
-0.0100307

>  <SCORE.INTRA.DIHEDRAL>
0.720269

>  <SCORE.INTRA.DIHEDRAL.0>
4.99603

>  <SCORE.INTRA.POLAR>
0

>  <SCORE.INTRA.POLAR.0>
0

>  <SCORE.INTRA.REPUL>
0

>  <SCORE.INTRA.REPUL.0>
0

>  <SCORE.INTRA.SOLV>
0.0309091

>  <SCORE.INTRA.SOLV.lig_0>
-74.884

>  <SCORE.INTRA.VDW>
-0.38562

>  <SCORE.INTRA.VDW.0>
-0.858933

>  <SCORE.INTRA.norm>
-0.000455942

>  <SCORE.RESTR>
0

>  <SCORE.RESTR.CAVITY>
0

>  <SCORE.RESTR.norm>
0

>  <SCORE.SYSTEM>
0

>  <SCORE.SYSTEM.CONST>
0

>  <SCORE.SYSTEM.DIHEDRAL>
0

>  <SCORE.SYSTEM.SOLV>
0

>  <SCORE.SYSTEM.norm>
0

>  <SCORE.heavy>
22

>  <SCORE.norm>
-0.643522

>  <RMSD>
1.747

$$$$
2et8_lig
 OpenBabel11021811433D
libRbt.so/2013.1/901 2013/11/27
 22 23  0  0  0  0  0  0  0  0999 V2000
   24.6895   16.7597   34.3875 N   0  0  0  0  0  0  0  0  0  0  0  0
   23.8857   14.9650   38.9416 N   0  0  0  0  0  0  0  0  0  0  0  0
   23.3937   10.2654   40.6153 N   0  0  0  0  0  0  0  0  0  0  0  0
   20.6018   14.1821   35.3737 O   0  0  0  0  0  0  0  0  0  0  0  0
   21.5516   15.1173   35.9420 C   0  0  2  0  0  0  0  0  0  0  0  0
   18.4196   14.2829   38.9905 N   0  0  0  0  0  0  0  0  0  0  0  0
   22.0750   16.0424   33.6894 O   0  0  0  0  0  0  0  0  0  0  0  0
   22.6514   15.4635   34.8670 C   0  0  1  0  0  0  0  0  0  0  0  0
   21.2701   14.1952   38.1148 O   0  0  0  0  0  0  0  0  0  0  0  0
   23.6487   16.4483   35.4260 C   0  0  1  0  0  0  0  0  0  0  0  0
   21.1977   11.8979   37.9743 O   0  0  0  0  0  0  0  0  0  0  0  0
   24.3031   15.8459   36.6904 C   0  0  0  0  0  0  0  0  0  0  0  0
   21.2489   11.4023   41.5900 O   0  0  0  0  0  0  0  0  0  0  0  0
   23.1769   15.5425   37.7214 C   0  0  1  0  0  0  0  0  0  0  0  0
   18.7942   12.7175   41.3036 O   0  0  0  0  0  0  0  0  0  0  0  0
   22.2573   14.4771   37.2027 C   0  0  2  0  0  0  0  0  0  0  0  0
   20.3577   13.1715   37.8884 C   0  0  1  0  0  0  0  0  0  0  0  0
   21.7970   11.6797   39.3266 C   0  0  2  0  0  0  0  0  0  0  0  0
   22.6071   10.3671   39.3561 C   0  0  0  0  0  0  0  0  0  0  0  0
   20.6902   11.5907   40.3344 C   0  0  2  0  0  0  0  0  0  0  0  0
   19.8550   12.8381   40.3449 C   0  0  1  0  0  0  0  0  0  0  0  0
   19.2686   13.0378   38.9897 C   0  0  1  0  0  0  0  0  0  0  0  0
  5  4  1  6  0  0  0
  5  8  1  0  0  0  0
  5 16  1  0  0  0  0
  8  7  1  6  0  0  0
  8 10  1  0  0  0  0
 10  1  1  6  0  0  0
 10 12  1  0  0  0  0
 11 18  1  0  0  0  0
 12 14  1  0  0  0  0
 14  2  1  1  0  0  0
 14 16  1  0  0  0  0
 16  9  1  1  0  0  0
 17  9  1  1  0  0  0
 17 11  1  0  0  0  0
 17 22  1  0  0  0  0
 18 19  1  6  0  0  0
 18 20  1  0  0  0  0
 19  3  1  0  0  0  0
 20 13  1  1  0  0  0
 20 21  1  0  0  0  0
 21 15  1  1  0  0  0
 21 22  1  0  0  0  0
 22  6  1  1  0  0  0
M  END
>  <CHROM.1>
70.39092029,67.93602150,170.17033945,21.68896743,13.72124026,37.96455274
-1.22392713,-0.07328878,2.27177098

>  <Name>
2et8_lig

>  <RI>
0

>  <Rbt.Current_Directory>
/home/itssahil/PROJECTS/Mol_Feturizer/New_Systems/rnas/2et8

>  <Rbt.Executable>
rbdock ($Id: //depot/dev/client3/rdock/2013.1/src/exe/rbdock.cxx#4 $)

>  <Rbt.Library>
libRbt.so (2013.1, Build901 2013/11/27)

>  <Rbt.Parameter_File>
/export/apps/rDock/src/rDock_2013.1_src/data/scripts/dock_solv.prm

>  <Rbt.Receptor>
prm/pocket_docking_3.prm

>  <SCORE>
-16.2204

>  <SCORE.INTER>
-14.8505

>  <SCORE.INTER.CONST>
1

>  <SCORE.INTER.POLAR>
-0.959166

>  <SCORE.INTER.ROT>
3

>  <SCORE.INTER.SOLV>
18.7035

>  <SCORE.INTER.VDW>
-18.5376

>  <SCORE.INTER.norm>
-0.675022

>  <SCORE.INTRA>
-1.36988

>  <SCORE.INTRA.DIHEDRAL>
-3.65766

>  <SCORE.INTRA.DIHEDRAL.0>
4.99603

>  <SCORE.INTRA.POLAR>
0

>  <SCORE.INTRA.POLAR.0>
0

>  <SCORE.INTRA.REPUL>
0

>  <SCORE.INTRA.REPUL.0>
0

>  <SCORE.INTRA.SOLV>
0.406806

>  <SCORE.INTRA.SOLV.lig_0>
-74.884

>  <SCORE.INTRA.VDW>
0.255548

>  <SCORE.INTRA.VDW.0>
-0.858933

>  <SCORE.INTRA.norm>
-0.0622673

>  <SCORE.RESTR>
0

>  <SCORE.RESTR.CAVITY>
0

>  <SCORE.RESTR.norm>
0

>  <SCORE.SYSTEM>
0

>  <SCORE.SYSTEM.CONST>
0

>  <SCORE.SYSTEM.DIHEDRAL>
0

>  <SCORE.SYSTEM.SOLV>
0

>  <SCORE.SYSTEM.norm>
0

>  <SCORE.heavy>
22

>  <SCORE.norm>
-0.737289

>  <RMSD>
1.792

$$$$
2et8_lig
 OpenBabel11021811433D
libRbt.so/2013.1/901 2013/11/27
 22 23  0  0  0  0  0  0  0  0999 V2000
   25.6306   17.1787   34.5933 N   0  0  0  0  0  0  0  0  0  0  0  0
   22.1619   16.4044   38.0540 N   0  0  0  0  0  0  0  0  0  0  0  0
   21.5788   11.7254   38.1541 N   0  0  0  0  0  0  0  0  0  0  0  0
   21.3736   14.9819   33.4192 O   0  0  0  0  0  0  0  0  0  0  0  0
   21.9639   15.9884   34.2781 C   0  0  2  0  0  0  0  0  0  0  0  0
   17.5426   15.6530   35.0907 N   0  0  0  0  0  0  0  0  0  0  0  0
   23.7875   16.4044   32.6334 O   0  0  0  0  0  0  0  0  0  0  0  0
   23.5134   16.0699   33.9997 C   0  0  1  0  0  0  0  0  0  0  0  0
   20.3826   15.5519   35.9985 O   0  0  0  0  0  0  0  0  0  0  0  0
   24.1546   17.1218   34.8711 C   0  0  1  0  0  0  0  0  0  0  0  0
   20.1754   13.3206   36.5286 O   0  0  0  0  0  0  0  0  0  0  0  0
   23.8920   16.7805   36.3559 C   0  0  0  0  0  0  0  0  0  0  0  0
   18.1901   13.9368   39.5287 O   0  0  0  0  0  0  0  0  0  0  0  0
   22.3519   16.7323   36.5770 C   0  0  1  0  0  0  0  0  0  0  0  0
   16.4349   14.8902   37.5672 O   0  0  0  0  0  0  0  0  0  0  0  0
   21.7396   15.6080   35.7954 C   0  0  2  0  0  0  0  0  0  0  0  0
   19.6484   14.4331   35.6232 C   0  0  1  0  0  0  0  0  0  0  0  0
   19.9119   13.5697   37.9791 C   0  0  2  0  0  0  0  0  0  0  0  0
   20.4411   12.4006   38.8355 C   0  0  0  0  0  0  0  0  0  0  0  0
   18.4315   13.6919   38.1848 C   0  0  2  0  0  0  0  0  0  0  0  0
   17.8533   14.8087   37.3652 C   0  0  1  0  0  0  0  0  0  0  0  0
   18.1274   14.5424   35.9249 C   0  0  1  0  0  0  0  0  0  0  0  0
  5  4  1  6  0  0  0
  5  8  1  0  0  0  0
  5 16  1  0  0  0  0
  8  7  1  6  0  0  0
  8 10  1  0  0  0  0
 10  1  1  1  0  0  0
 10 12  1  0  0  0  0
 11 18  1  0  0  0  0
 12 14  1  0  0  0  0
 14  2  1  1  0  0  0
 14 16  1  0  0  0  0
 16  9  1  6  0  0  0
 17  9  1  1  0  0  0
 17 11  1  0  0  0  0
 17 22  1  0  0  0  0
 18 19  1  1  0  0  0
 18 20  1  0  0  0  0
 19  3  1  0  0  0  0
 20 13  1  1  0  0  0
 20 21  1  0  0  0  0
 21 15  1  6  0  0  0
 21 22  1  0  0  0  0
 22  6  1  6  0  0  0
M  END
>  <CHROM.1>
80.10070791,65.17802317,27.33675716,20.84868809,15.06692153,36.23808213,-0.66213530
0.12284526,2.07535987

>  <Name>
2et8_lig

>  <RI>
0

>  <Rbt.Current_Directory>
/home/itssahil/PROJECTS/Mol_Feturizer/New_Systems/rnas/2et8

>  <Rbt.Executable>
rbdock ($Id: //depot/dev/client3/rdock/2013.1/src/exe/rbdock.cxx#4 $)

>  <Rbt.Library>
libRbt.so (2013.1, Build901 2013/11/27)

>  <Rbt.Parameter_File>
/export/apps/rDock/src/rDock_2013.1_src/data/scripts/dock_solv.prm

>  <Rbt.Receptor>
prm/pocket_docking_5.prm

>  <SCORE>
-14.217

>  <SCORE.INTER>
-13.7977

>  <SCORE.INTER.CONST>
1

>  <SCORE.INTER.POLAR>
-1.95272

>  <SCORE.INTER.ROT>
3

>  <SCORE.INTER.SOLV>
15.7218

>  <SCORE.INTER.VDW>
-13.53

>  <SCORE.INTER.norm>
-0.627169

>  <SCORE.INTRA>
-0.419231

>  <SCORE.INTRA.DIHEDRAL>
0.0908524

>  <SCORE.INTRA.DIHEDRAL.0>
4.99603

>  <SCORE.INTRA.POLAR>
0

>  <SCORE.INTRA.POLAR.0>
0

>  <SCORE.INTRA.REPUL>
0

>  <SCORE.INTRA.REPUL.0>
0

>  <SCORE.INTRA.SOLV>
0.0187405

>  <SCORE.INTRA.SOLV.lig_0>
-74.884

>  <SCORE.INTRA.VDW>
-0.474028

>  <SCORE.INTRA.VDW.0>
-0.858933

>  <SCORE.INTRA.norm>
-0.019056

>  <SCORE.RESTR>
0

>  <SCORE.RESTR.CAVITY>
0

>  <SCORE.RESTR.norm>
0

>  <SCORE.SYSTEM>
0

>  <SCORE.SYSTEM.CONST>
0

>  <SCORE.SYSTEM.DIHEDRAL>
0

>  <SCORE.SYSTEM.SOLV>
0

>  <SCORE.SYSTEM.norm>
0

>  <SCORE.heavy>
22

>  <SCORE.norm>
-0.646225

>  <RMSD>
1.806

$$$$
2et8_lig
 OpenBabel11021811433D
libRbt.so/2013.1/901 2013/11/27
 22 23  0  0  0  0  0  0  0  0999 V2000
   24.2514   16.5605   34.0384 N   0  0  0  0  0  0  0  0  0  0  0  0
   23.7082   15.0082   38.7184 N   0  0  0  0  0  0  0  0  0  0  0  0
   23.3270   10.2680   40.5017 N   0  0  0  0  0  0  0  0  0  0  0  0
   20.2583   13.9914   35.3731 O   0  0  0  0  0  0  0  0  0  0  0  0
   21.2218   14.9677   35.8399 C   0  0  2  0  0  0  0  0  0  0  0  0
   18.2821   14.2956   39.1365 N   0  0  0  0  0  0  0  0  0  0  0  0
   21.6156   15.7744   33.5165 O   0  0  0  0  0  0  0  0  0  0  0  0
   22.2600   15.2678   34.6922 C   0  0  1  0  0  0  0  0  0  0  0  0
   21.0655   14.1626   38.0711 O   0  0  0  0  0  0  0  0  0  0  0  0
   23.2697   16.2938   35.1447 C   0  0  1  0  0  0  0  0  0  0  0  0
   20.9652   11.8637   37.9848 O   0  0  0  0  0  0  0  0  0  0  0  0
   23.9969   15.7695   36.4043 C   0  0  0  0  0  0  0  0  0  0  0  0
   21.2586   11.4426   41.5984 O   0  0  0  0  0  0  0  0  0  0  0  0
   22.9295   15.5095   37.5071 C   0  0  1  0  0  0  0  0  0  0  0  0
   18.8008   12.7748   41.4516 O   0  0  0  0  0  0  0  0  0  0  0  0
   22.0005   14.4062   37.0952 C   0  0  2  0  0  0  0  0  0  0  0  0
   20.1316   13.1432   37.9291 C   0  0  1  0  0  0  0  0  0  0  0  0
   21.6535   11.6679   39.2976 C   0  0  2  0  0  0  0  0  0  0  0  0
   22.4530   10.3485   39.2998 C   0  0  0  0  0  0  0  0  0  0  0  0
   20.6172   11.6103   40.3800 C   0  0  2  0  0  0  0  0  0  0  0  0
   19.7948   12.8655   40.4206 C   0  0  1  0  0  0  0  0  0  0  0  0
   19.1191   13.0427   39.1044 C   0  0  1  0  0  0  0  0  0  0  0  0
  5  4  1  6  0  0  0
  5  8  1  0  0  0  0
  5 16  1  0  0  0  0
  8  7  1  6  0  0  0
  8 10  1  0  0  0  0
 10  1  1  6  0  0  0
 10 12  1  0  0  0  0
 11 18  1  0  0  0  0
 12 14  1  0  0  0  0
 14  2  1  1  0  0  0
 14 16  1  0  0  0  0
 16  9  1  1  0  0  0
 17  9  1  1  0  0  0
 17 11  1  0  0  0  0
 17 22  1  0  0  0  0
 18 19  1  6  0  0  0
 18 20  1  0  0  0  0
 19  3  1  0  0  0  0
 20 13  1  1  0  0  0
 20 21  1  0  0  0  0
 21 15  1  1  0  0  0
 21 22  1  0  0  0  0
 22  6  1  1  0  0  0
M  END
>  <CHROM.1>
68.38308976,67.16649711,169.93257051,21.47336651,13.66369386,37.89557441
-1.26614182,-0.12213839,2.23653172

>  <Name>
2et8_lig

>  <RI>
0

>  <Rbt.Current_Directory>
/home/itssahil/PROJECTS/Mol_Feturizer/New_Systems/rnas/2et8

>  <Rbt.Executable>
rbdock ($Id: //depot/dev/client3/rdock/2013.1/src/exe/rbdock.cxx#4 $)

>  <Rbt.Library>
libRbt.so (2013.1, Build901 2013/11/27)

>  <Rbt.Parameter_File>
/export/apps/rDock/src/rDock_2013.1_src/data/scripts/dock_solv.prm

>  <Rbt.Receptor>
prm/pocket_docking_3.prm

>  <SCORE>
-16.0283

>  <SCORE.INTER>
-14.6568

>  <SCORE.INTER.CONST>
1

>  <SCORE.INTER.POLAR>
-0.959166

>  <SCORE.INTER.ROT>
3

>  <SCORE.INTER.SOLV>
19.3584

>  <SCORE.INTER.VDW>
-18.6268

>  <SCORE.INTER.norm>
-0.666217

>  <SCORE.INTRA>
-1.37151

>  <SCORE.INTRA.DIHEDRAL>
-3.86899

>  <SCORE.INTRA.DIHEDRAL.0>
4.99603

>  <SCORE.INTRA.POLAR>
0

>  <SCORE.INTRA.POLAR.0>
0

>  <SCORE.INTRA.REPUL>
0

>  <SCORE.INTRA.REPUL.0>
0

>  <SCORE.INTRA.SOLV>
0.307569

>  <SCORE.INTRA.SOLV.lig_0>
-74.884

>  <SCORE.INTRA.VDW>
0.409206

>  <SCORE.INTRA.VDW.0>
-0.858933

>  <SCORE.INTRA.norm>
-0.0623412

>  <SCORE.RESTR>
0

>  <SCORE.RESTR.CAVITY>
0

>  <SCORE.RESTR.norm>
0

>  <SCORE.SYSTEM>
0

>  <SCORE.SYSTEM.CONST>
0

>  <SCORE.SYSTEM.DIHEDRAL>
0

>  <SCORE.SYSTEM.SOLV>
0

>  <SCORE.SYSTEM.norm>
0

>  <SCORE.heavy>
22

>  <SCORE.norm>
-0.728558

>  <RMSD>
1.967

$$$$
2et8_lig
 OpenBabel11021811433D
libRbt.so/2013.1/901 2013/11/27
 22 23  0  0  0  0  0  0  0  0999 V2000
   25.6595   17.4424   34.7620 N   0  0  0  0  0  0  0  0  0  0  0  0
   20.8088   17.0056   35.7041 N   0  0  0  0  0  0  0  0  0  0  0  0
   22.0133   11.0405   40.5507 N   0  0  0  0  0  0  0  0  0  0  0  0
   24.0990   15.0637   38.7910 O   0  0  0  0  0  0  0  0  0  0  0  0
   23.7751   15.3404   37.4062 C   0  0  2  0  0  0  0  0  0  0  0  0
   18.5670   15.5995   37.1456 N   0  0  0  0  0  0  0  0  0  0  0  0
   26.1824   15.6461   36.8447 O   0  0  0  0  0  0  0  0  0  0  0  0
   24.8905   16.2635   36.7827 C   0  0  1  0  0  0  0  0  0  0  0  0
   21.4431   15.2521   37.8582 O   0  0  0  0  0  0  0  0  0  0  0  0
   24.5875   16.5578   35.3341 C   0  0  1  0  0  0  0  0  0  0  0  0
   21.3242   12.9976   37.4049 O   0  0  0  0  0  0  0  0  0  0  0  0
   23.2048   17.2419   35.2333 C   0  0  0  0  0  0  0  0  0  0  0  0
   19.4437   12.2099   40.4322 O   0  0  0  0  0  0  0  0  0  0  0  0
   22.1431   16.2811   35.8439 C   0  0  1  0  0  0  0  0  0  0  0  0
   17.5833   13.8200   39.0967 O   0  0  0  0  0  0  0  0  0  0  0  0
   22.3859   16.0876   37.3114 C   0  0  2  0  0  0  0  0  0  0  0  0
   20.7281   14.3629   37.0646 C   0  0  1  0  0  0  0  0  0  0  0  0
   21.1119   12.6032   38.8313 C   0  0  2  0  0  0  0  0  0  0  0  0
   21.7099   11.2072   39.1033 C   0  0  0  0  0  0  0  0  0  0  0  0
   19.6381   12.5624   39.1048 C   0  0  2  0  0  0  0  0  0  0  0  0
   18.9941   13.8934   38.8453 C   0  0  1  0  0  0  0  0  0  0  0  0
   19.2179   14.2683   37.4206 C   0  0  1  0  0  0  0  0  0  0  0  0
  5  4  1  1  0  0  0
  5  8  1  0  0  0  0
  5 16  1  0  0  0  0
  8  7  1  6  0  0  0
  8 10  1  0  0  0  0
 10  1  1  1  0  0  0
 10 12  1  0  0  0  0
 11 18  1  0  0  0  0
 12 14  1  0  0  0  0
 14  2  1  1  0  0  0
 14 16  1  0  0  0  0
 16  9  1  6  0  0  0
 17  9  1  1  0  0  0
 17 11  1  0  0  0  0
 17 22  1  0  0  0  0
 18 19  1  6  0  0  0
 18 20  1  0  0  0  0
 19  3  1  0  0  0  0
 20 13  1  1  0  0  0
 20 21  1  0  0  0  0
 21 15  1  6  0  0  0
 21 22  1  0  0  0  0
 22  6  1  1  0  0  0
M  END
>  <CHROM.1>
-92.34733390,106.69704070,156.69602606,21.79310856,14.64595563,37.62268619
0.79786490,0.02291483,-0.68205624

>  <Name>
2et8_lig

>  <RI>
0

>  <Rbt.Current_Directory>
/home/itssahil/PROJECTS/Mol_Feturizer/New_Systems/rnas/2et8

>  <Rbt.Executable>
rbdock ($Id: //depot/dev/client3/rdock/2013.1/src/exe/rbdock.cxx#4 $)

>  <Rbt.Library>
libRbt.so (2013.1, Build901 2013/11/27)

>  <Rbt.Parameter_File>
/export/apps/rDock/src/rDock_2013.1_src/data/scripts/dock_solv.prm

>  <Rbt.Receptor>
prm/pocket_docking_2.prm

>  <SCORE>
-8.81469

>  <SCORE.INTER>
-15.579

>  <SCORE.INTER.CONST>
1

>  <SCORE.INTER.POLAR>
-0.959166

>  <SCORE.INTER.ROT>
3

>  <SCORE.INTER.SOLV>
11.9264

>  <SCORE.INTER.VDW>
-16.7643

>  <SCORE.INTER.norm>
-0.708139

>  <SCORE.INTRA>
6.315

>  <SCORE.INTRA.DIHEDRAL>
7.05856

>  <SCORE.INTRA.DIHEDRAL.0>
4.99603

>  <SCORE.INTRA.POLAR>
0

>  <SCORE.INTRA.POLAR.0>
0

>  <SCORE.INTRA.REPUL>
0

>  <SCORE.INTRA.REPUL.0>
0

>  <SCORE.INTRA.SOLV>
2.97528

>  <SCORE.INTRA.SOLV.lig_0>
-74.884

>  <SCORE.INTRA.VDW>
1.29808

>  <SCORE.INTRA.VDW.0>
-0.858933

>  <SCORE.INTRA.norm>
0.287045

>  <SCORE.RESTR>
0.449368

>  <SCORE.RESTR.CAVITY>
0.449368

>  <SCORE.RESTR.norm>
0.0204258

>  <SCORE.SYSTEM>
0

>  <SCORE.SYSTEM.CONST>
0

>  <SCORE.SYSTEM.DIHEDRAL>
0

>  <SCORE.SYSTEM.SOLV>
0

>  <SCORE.SYSTEM.norm>
0

>  <SCORE.heavy>
22

>  <SCORE.norm>
-0.400668

>  <RMSD>
2.127

$$$$
2et8_lig
 OpenBabel11021811433D
libRbt.so/2013.1/901 2013/11/27
 22 23  0  0  0  0  0  0  0  0999 V2000
   26.3389   17.1730   35.3527 N   0  0  0  0  0  0  0  0  0  0  0  0
   21.3834   17.0001   35.4962 N   0  0  0  0  0  0  0  0  0  0  0  0
   23.1021   11.4119   39.3950 N   0  0  0  0  0  0  0  0  0  0  0  0
   24.0188   15.1055   39.1828 O   0  0  0  0  0  0  0  0  0  0  0  0
   23.9407   15.3134   37.7510 C   0  0  2  0  0  0  0  0  0  0  0  0
   18.8366   15.6385   36.6401 N   0  0  0  0  0  0  0  0  0  0  0  0
   26.4200   15.4823   37.5827 O   0  0  0  0  0  0  0  0  0  0  0  0
   25.1895   16.1496   37.2752 C   0  0  1  0  0  0  0  0  0  0  0  0
   21.5647   15.3516   37.8128 O   0  0  0  0  0  0  0  0  0  0  0  0
   25.1433   16.3704   35.7832 C   0  0  1  0  0  0  0  0  0  0  0  0
   21.5074   13.0724   37.4894 O   0  0  0  0  0  0  0  0  0  0  0  0
   23.8331   17.1056   35.4189 C   0  0  0  0  0  0  0  0  0  0  0  0
   19.1743   12.4671   40.2301 O   0  0  0  0  0  0  0  0  0  0  0  0
   22.6374   16.2288   35.8929 C   0  0  1  0  0  0  0  0  0  0  0  0
   17.5524   13.9802   38.5222 O   0  0  0  0  0  0  0  0  0  0  0  0
   22.6263   16.1122   37.3883 C   0  0  2  0  0  0  0  0  0  0  0  0
   20.9781   14.4105   36.9751 C   0  0  1  0  0  0  0  0  0  0  0  0
   21.0735   12.7674   38.8873 C   0  0  2  0  0  0  0  0  0  0  0  0
   21.6152   11.3945   39.3365 C   0  0  0  0  0  0  0  0  0  0  0  0
   19.5748   12.7363   38.9297 C   0  0  2  0  0  0  0  0  0  0  0  0
   18.9855   14.0450   38.4897 C   0  0  1  0  0  0  0  0  0  0  0  0
   19.4304   14.3307   37.0965 C   0  0  1  0  0  0  0  0  0  0  0  0
  5  4  1  1  0  0  0
  5  8  1  0  0  0  0
  5 16  1  0  0  0  0
  8  7  1  6  0  0  0
  8 10  1  0  0  0  0
 10  1  1  1  0  0  0
 10 12  1  0  0  0  0
 11 18  1  0  0  0  0
 12 14  1  0  0  0  0
 14  2  1  1  0  0  0
 14 16  1  0  0  0  0
 16  9  1  6  0  0  0
 17  9  1  1  0  0  0
 17 11  1  0  0  0  0
 17 22  1  0  0  0  0
 18 19  1  6  0  0  0
 18 20  1  0  0  0  0
 19  3  1  0  0  0  0
 20 13  1  1  0  0  0
 20 21  1  0  0  0  0
 21 15  1  6  0  0  0
 21 22  1  0  0  0  0
 22  6  1  1  0  0  0
M  END
>  <CHROM.1>
-89.77019683,103.61672811,64.34255638,22.03193353,14.68882170,37.62612060
0.62597295,-0.04667401,-0.68605954

>  <Name>
2et8_lig

>  <RI>
0

>  <Rbt.Current_Directory>
/home/itssahil/PROJECTS/Mol_Feturizer/New_Systems/rnas/2et8

>  <Rbt.Executable>
rbdock ($Id: //depot/dev/client3/rdock/2013.1/src/exe/rbdock.cxx#4 $)

>  <Rbt.Library>
libRbt.so (2013.1, Build901 2013/11/27)

>  <Rbt.Parameter_File>
/export/apps/rDock/src/rDock_2013.1_src/data/scripts/dock_solv.prm

>  <Rbt.Receptor>
prm/pocket_docking_2.prm

>  <SCORE>
-9.49416

>  <SCORE.INTER>
-14.0288

>  <SCORE.INTER.CONST>
1

>  <SCORE.INTER.POLAR>
-0.948287

>  <SCORE.INTER.ROT>
3

>  <SCORE.INTER.SOLV>
14.4701

>  <SCORE.INTER.VDW>
-16.6149

>  <SCORE.INTER.norm>
-0.637674

>  <SCORE.INTRA>
4.51461

>  <SCORE.INTRA.DIHEDRAL>
4.5311

>  <SCORE.INTRA.DIHEDRAL.0>
4.99603

>  <SCORE.INTRA.POLAR>
0

>  <SCORE.INTRA.POLAR.0>
0

>  <SCORE.INTRA.REPUL>
0

>  <SCORE.INTRA.REPUL.0>
0

>  <SCORE.INTRA.SOLV>
2.50945

>  <SCORE.INTRA.SOLV.lig_0>
-74.884

>  <SCORE.INTRA.VDW>
0.994332

>  <SCORE.INTRA.VDW.0>
-0.858933

>  <SCORE.INTRA.norm>
0.205209

>  <SCORE.RESTR>
0.0200485

>  <SCORE.RESTR.CAVITY>
0.0200485

>  <SCORE.RESTR.norm>
0.000911295

>  <SCORE.SYSTEM>
0

>  <SCORE.SYSTEM.CONST>
0

>  <SCORE.SYSTEM.DIHEDRAL>
0

>  <SCORE.SYSTEM.SOLV>
0

>  <SCORE.SYSTEM.norm>
0

>  <SCORE.heavy>
22

>  <SCORE.norm>
-0.431553

>  <RMSD>
2.184

$$$$
2et8_lig
 OpenBabel11021811433D
libRbt.so/2013.1/901 2013/11/27
 22 23  0  0  0  0  0  0  0  0999 V2000
   25.2639   16.9037   33.9462 N   0  0  0  0  0  0  0  0  0  0  0  0
   20.4884   16.0913   35.0148 N   0  0  0  0  0  0  0  0  0  0  0  0
   21.9960   10.9960   40.5924 N   0  0  0  0  0  0  0  0  0  0  0  0
   23.9350   15.3532   38.4357 O   0  0  0  0  0  0  0  0  0  0  0  0
   23.6060   15.2562   37.0280 C   0  0  2  0  0  0  0  0  0  0  0  0
   18.3561   15.2748   37.0900 N   0  0  0  0  0  0  0  0  0  0  0  0
   25.9667   15.7233   36.3855 O   0  0  0  0  0  0  0  0  0  0  0  0
   24.6092   16.1414   36.1944 C   0  0  1  0  0  0  0  0  0  0  0  0
   21.2949   14.9828   37.5125 O   0  0  0  0  0  0  0  0  0  0  0  0
   24.2999   16.0492   34.7204 C   0  0  1  0  0  0  0  0  0  0  0  0
   21.1366   12.6943   37.3116 O   0  0  0  0  0  0  0  0  0  0  0  0
   22.8448   16.5111   34.4769 C   0  0  0  0  0  0  0  0  0  0  0  0
   19.6064   12.2381   40.5936 O   0  0  0  0  0  0  0  0  0  0  0  0
   21.8998   15.5933   35.3063 C   0  0  1  0  0  0  0  0  0  0  0  0
   17.6023   13.7142   39.3121 O   0  0  0  0  0  0  0  0  0  0  0  0
   22.1364   15.7796   36.7757 C   0  0  2  0  0  0  0  0  0  0  0  0
   20.5004   14.0212   36.8995 C   0  0  1  0  0  0  0  0  0  0  0  0
   21.0853   12.4514   38.7860 C   0  0  2  0  0  0  0  0  0  0  0  0
   21.7159   11.0869   39.1336 C   0  0  0  0  0  0  0  0  0  0  0  0
   19.6510   12.4497   39.2235 C   0  0  2  0  0  0  0  0  0  0  0  0
   18.9763   13.7511   38.9000 C   0  0  1  0  0  0  0  0  0  0  0  0
   19.0393   13.9748   37.4281 C   0  0  1  0  0  0  0  0  0  0  0  0
  5  4  1  1  0  0  0
  5  8  1  0  0  0  0
  5 16  1  0  0  0  0
  8  7  1  6  0  0  0
  8 10  1  0  0  0  0
 10  1  1  6  0  0  0
 10 12  1  0  0  0  0
 11 18  1  0  0  0  0
 12 14  1  0  0  0  0
 14  2  1  1  0  0  0
 14 16  1  0  0  0  0
 16  9  1  1  0  0  0
 17  9  1  1  0  0  0
 17 11  1  0  0  0  0
 17 22  1  0  0  0  0
 18 19  1  6  0  0  0
 18 20  1  0  0  0  0
 19  3  1  0  0  0  0
 20 13  1  1  0  0  0
 20 21  1  0  0  0  0
 21 15  1  6  0  0  0
 21 22  1  0  0  0  0
 22  6  1  1  0  0  0
M  END
>  <CHROM.1>
-105.74604948,108.79659253,164.98945506,21.63694106,14.39509821,37.36349326
0.85802466,0.01897062,-0.82040650

>  <Name>
2et8_lig

>  <RI>
0

>  <Rbt.Current_Directory>
/home/itssahil/PROJECTS/Mol_Feturizer/New_Systems/rnas/2et8

>  <Rbt.Executable>
rbdock ($Id: //depot/dev/client3/rdock/2013.1/src/exe/rbdock.cxx#4 $)

>  <Rbt.Library>
libRbt.so (2013.1, Build901 2013/11/27)

>  <Rbt.Parameter_File>
/export/apps/rDock/src/rDock_2013.1_src/data/scripts/dock_solv.prm

>  <Rbt.Receptor>
prm/pocket_docking_2.prm

>  <SCORE>
-7.63101

>  <SCORE.INTER>
-15.7634

>  <SCORE.INTER.CONST>
1

>  <SCORE.INTER.POLAR>
-0.959166

>  <SCORE.INTER.ROT>
3

>  <SCORE.INTER.SOLV>
13.3812

>  <SCORE.INTER.VDW>
-17.3722

>  <SCORE.INTER.norm>
-0.71652

>  <SCORE.INTRA>
8.13201

>  <SCORE.INTRA.DIHEDRAL>
8.46642

>  <SCORE.INTRA.DIHEDRAL.0>
4.99603

>  <SCORE.INTRA.POLAR>
0

>  <SCORE.INTRA.POLAR.0>
0

>  <SCORE.INTRA.REPUL>
0

>  <SCORE.INTRA.REPUL.0>
0

>  <SCORE.INTRA.SOLV>
3.17544

>  <SCORE.INTRA.SOLV.lig_0>
-74.884

>  <SCORE.INTRA.VDW>
2.31108

>  <SCORE.INTRA.VDW.0>
-0.858933

>  <SCORE.INTRA.norm>
0.369637

>  <SCORE.RESTR>
0.000415845

>  <SCORE.RESTR.CAVITY>
0.000415845

>  <SCORE.RESTR.norm>
1.8902e-05

>  <SCORE.SYSTEM>
0

>  <SCORE.SYSTEM.CONST>
0

>  <SCORE.SYSTEM.DIHEDRAL>
0

>  <SCORE.SYSTEM.SOLV>
0

>  <SCORE.SYSTEM.norm>
0

>  <SCORE.heavy>
22

>  <SCORE.norm>
-0.346864

>  <RMSD>
2.199

$$$$
2et8_lig
 OpenBabel11021811433D
libRbt.so/2013.1/901 2013/11/27
 22 23  0  0  0  0  0  0  0  0999 V2000
   25.0769   16.6774   33.8280 N   0  0  0  0  0  0  0  0  0  0  0  0
   20.3240   16.0643   35.1093 N   0  0  0  0  0  0  0  0  0  0  0  0
   22.7006   11.2796   39.6879 N   0  0  0  0  0  0  0  0  0  0  0  0
   23.8816   15.2714   38.4019 O   0  0  0  0  0  0  0  0  0  0  0  0
   23.4908   15.1572   37.0114 C   0  0  2  0  0  0  0  0  0  0  0  0
   18.3503   15.2398   36.7313 N   0  0  0  0  0  0  0  0  0  0  0  0
   25.8379   15.5232   36.2624 O   0  0  0  0  0  0  0  0  0  0  0  0
   24.4896   15.9871   36.1177 C   0  0  1  0  0  0  0  0  0  0  0  0
   21.1936   14.9794   37.5961 O   0  0  0  0  0  0  0  0  0  0  0  0
   24.1160   15.8755   34.6600 C   0  0  1  0  0  0  0  0  0  0  0  0
   20.9698   12.6950   37.7810 O   0  0  0  0  0  0  0  0  0  0  0  0
   22.6695   16.3855   34.4660 C   0  0  0  0  0  0  0  0  0  0  0  0
   19.0040   12.8617   40.8517 O   0  0  0  0  0  0  0  0  0  0  0  0
   21.7275   15.5208   35.3538 C   0  0  1  0  0  0  0  0  0  0  0  0
   17.2478   14.1168   39.0690 O   0  0  0  0  0  0  0  0  0  0  0  0
   22.0318   15.7290   36.8078 C   0  0  2  0  0  0  0  0  0  0  0  0
   20.4481   13.9367   37.0590 C   0  0  1  0  0  0  0  0  0  0  0  0
   20.7152   12.7219   39.2540 C   0  0  2  0  0  0  0  0  0  0  0  0
   21.2384   11.4318   39.9190 C   0  0  0  0  0  0  0  0  0  0  0  0
   19.2369   12.8229   39.4848 C   0  0  2  0  0  0  0  0  0  0  0  0
   18.6644   14.0561   38.8485 C   0  0  1  0  0  0  0  0  0  0  0  0
   18.9294   14.0105   37.3829 C   0  0  1  0  0  0  0  0  0  0  0  0
  5  4  1  1  0  0  0
  5  8  1  0  0  0  0
  5 16  1  0  0  0  0
  8  7  1  6  0  0  0
  8 10  1  0  0  0  0
 10  1  1  6  0  0  0
 10 12  1  0  0  0  0
 11 18  1  0  0  0  0
 12 14  1  0  0  0  0
 14  2  1  1  0  0  0
 14 16  1  0  0  0  0
 16  9  1  1  0  0  0
 17  9  1  1  0  0  0
 17 11  1  0  0  0  0
 17 22  1  0  0  0  0
 18 19  1  1  0  0  0
 18 20  1  0  0  0  0
 19  3  1  0  0  0  0
 20 13  1  1  0  0  0
 20 21  1  0  0  0  0
 21 15  1  6  0  0  0
 21 22  1  0  0  0  0
 22  6  1  6  0  0  0
M  END
>  <CHROM.1>
-98.64541713,117.26446962,59.41239387,21.46856385,14.45771841,37.39172822
0.79288454,0.05566709,-0.87631811

>  <Name>
2et8_lig

>  <RI>
0

>  <Rbt.Current_Directory>
/home/itssahil/PROJECTS/Mol_Feturizer/New_Systems/rnas/2et8

>  <Rbt.Executable>
rbdock ($Id: //depot/dev/client3/rdock/2013.1/src/exe/rbdock.cxx#4 $)

>  <Rbt.Library>
libRbt.so (2013.1, Build901 2013/11/27)

>  <Rbt.Parameter_File>
/export/apps/rDock/src/rDock_2013.1_src/data/scripts/dock_solv.prm

>  <Rbt.Receptor>
prm/pocket_docking_2.prm

>  <SCORE>
-8.73017

>  <SCORE.INTER>
-15.6799

>  <SCORE.INTER.CONST>
1

>  <SCORE.INTER.POLAR>
-0.959166

>  <SCORE.INTER.ROT>
3

>  <SCORE.INTER.SOLV>
14.217

>  <SCORE.INTER.VDW>
-17.5951

>  <SCORE.INTER.norm>
-0.712724

>  <SCORE.INTRA>
6.87057

>  <SCORE.INTRA.DIHEDRAL>
7.21202

>  <SCORE.INTRA.DIHEDRAL.0>
4.99603

>  <SCORE.INTRA.POLAR>
0

>  <SCORE.INTRA.POLAR.0>
0

>  <SCORE.INTRA.REPUL>
0

>  <SCORE.INTRA.REPUL.0>
0

>  <SCORE.INTRA.SOLV>
2.76703

>  <SCORE.INTRA.SOLV.lig_0>
-74.884

>  <SCORE.INTRA.VDW>
1.88105

>  <SCORE.INTRA.VDW.0>
-0.858933

>  <SCORE.INTRA.norm>
0.312299

>  <SCORE.RESTR>
0.0791812

>  <SCORE.RESTR.CAVITY>
0.0791812

>  <SCORE.RESTR.norm>
0.00359915

>  <SCORE.SYSTEM>
0

>  <SCORE.SYSTEM.CONST>
0

>  <SCORE.SYSTEM.DIHEDRAL>
0

>  <SCORE.SYSTEM.SOLV>
0

>  <SCORE.SYSTEM.norm>
0

>  <SCORE.heavy>
22

>  <SCORE.norm>
-0.396826

>  <RMSD>
2.199

$$$$
2et8_lig
 OpenBabel11021811433D
libRbt.so/2013.1/901 2013/11/27
 22 23  0  0  0  0  0  0  0  0999 V2000
   25.7128   18.8433   35.4364 N   0  0  0  0  0  0  0  0  0  0  0  0
   22.2117   15.3940   34.7642 N   0  0  0  0  0  0  0  0  0  0  0  0
   22.5877   10.4971   39.4822 N   0  0  0  0  0  0  0  0  0  0  0  0
   24.0953   16.1484   39.2374 O   0  0  0  0  0  0  0  0  0  0  0  0
   24.3691   16.1053   37.8153 C   0  0  2  0  0  0  0  0  0  0  0  0
   20.1165   15.9665   36.6730 N   0  0  0  0  0  0  0  0  0  0  0  0
   26.1008   17.8819   38.0369 O   0  0  0  0  0  0  0  0  0  0  0  0
   24.9029   17.5113   37.3428 C   0  0  1  0  0  0  0  0  0  0  0  0
   22.6180   14.5395   37.4517 O   0  0  0  0  0  0  0  0  0  0  0  0
   25.2111   17.4932   35.8658 C   0  0  1  0  0  0  0  0  0  0  0  0
   21.5016   12.5261   37.5004 O   0  0  0  0  0  0  0  0  0  0  0  0
   23.9321   17.1132   35.0848 C   0  0  0  0  0  0  0  0  0  0  0  0
   19.7569   13.2575   40.6217 O   0  0  0  0  0  0  0  0  0  0  0  0
   23.4621   15.7129   35.5764 C   0  0  1  0  0  0  0  0  0  0  0  0
   18.6514   15.2227   38.9625 O   0  0  0  0  0  0  0  0  0  0  0  0
   23.0475   15.7692   37.0168 C   0  0  2  0  0  0  0  0  0  0  0  0
   21.5200   13.9176   36.8691 C   0  0  1  0  0  0  0  0  0  0  0  0
   21.2749   12.5545   38.9779 C   0  0  2  0  0  0  0  0  0  0  0  0
   21.2386   11.1218   39.5492 C   0  0  0  0  0  0  0  0  0  0  0  0
   19.9588   13.2197   39.2498 C   0  0  2  0  0  0  0  0  0  0  0  0
   19.9270   14.6181   38.7048 C   0  0  1  0  0  0  0  0  0  0  0  0
   20.1558   14.5680   37.2333 C   0  0  1  0  0  0  0  0  0  0  0  0
  5  4  1  1  0  0  0
  5  8  1  0  0  0  0
  5 16  1  0  0  0  0
  8  7  1  1  0  0  0
  8 10  1  0  0  0  0
 10  1  1  6  0  0  0
 10 12  1  0  0  0  0
 11 18  1  0  0  0  0
 12 14  1  0  0  0  0
 14  2  1  6  0  0  0
 14 16  1  0  0  0  0
 16  9  1  1  0  0  0
 17  9  1  1  0  0  0
 17 11  1  0  0  0  0
 17 22  1  0  0  0  0
 18 19  1  6  0  0  0
 18 20  1  0  0  0  0
 19  3  1  0  0  0  0
 20 13  1  1  0  0  0
 20 21  1  0  0  0  0
 21 15  1  6  0  0  0
 21 22  1  0  0  0  0
 22  6  1  1  0  0  0
M  END
>  <CHROM.1>
-175.47840455,172.63731101,69.02284946,22.36960173,14.99166414,37.65555513
0.86709932,-0.20708802,-0.70189834

>  <Name>
2et8_lig

>  <RI>
0

>  <Rbt.Current_Directory>
/home/itssahil/PROJECTS/Mol_Feturizer/New_Systems/rnas/2et8

>  <Rbt.Executable>
rbdock ($Id: //depot/dev/client3/rdock/2013.1/src/exe/rbdock.cxx#4 $)

>  <Rbt.Library>
libRbt.so (2013.1, Build901 2013/11/27)

>  <Rbt.Parameter_File>
/export/apps/rDock/src/rDock_2013.1_src/data/scripts/dock_solv.prm

>  <Rbt.Receptor>
prm/pocket_docking_3.prm

>  <SCORE>
-11.4942

>  <SCORE.INTER>
-11.5657

>  <SCORE.INTER.CONST>
1

>  <SCORE.INTER.POLAR>
-0.959166

>  <SCORE.INTER.ROT>
3

>  <SCORE.INTER.SOLV>
12.1496

>  <SCORE.INTER.VDW>
-14.1631

>  <SCORE.INTER.norm>
-0.525712

>  <SCORE.INTRA>
0.0706047

>  <SCORE.INTRA.DIHEDRAL>
-4.15466

>  <SCORE.INTRA.DIHEDRAL.0>
4.99603

>  <SCORE.INTRA.POLAR>
0

>  <SCORE.INTRA.POLAR.0>
0

>  <SCORE.INTRA.REPUL>
0

>  <SCORE.INTRA.REPUL.0>
0

>  <SCORE.INTRA.SOLV>
3.3763

>  <SCORE.INTRA.SOLV.lig_0>
-74.884

>  <SCORE.INTRA.VDW>
0.459783

>  <SCORE.INTRA.VDW.0>
-0.858933

>  <SCORE.INTRA.norm>
0.00320931

>  <SCORE.RESTR>
0.000809179

>  <SCORE.RESTR.CAVITY>
0.000809179

>  <SCORE.RESTR.norm>
3.67809e-05

>  <SCORE.SYSTEM>
0

>  <SCORE.SYSTEM.CONST>
0

>  <SCORE.SYSTEM.DIHEDRAL>
0

>  <SCORE.SYSTEM.SOLV>
0

>  <SCORE.SYSTEM.norm>
0

>  <SCORE.heavy>
22

>  <SCORE.norm>
-0.522466

>  <RMSD>
2.202

$$$$
2et8_lig
 OpenBabel11021811433D
libRbt.so/2013.1/901 2013/11/27
 22 23  0  0  0  0  0  0  0  0999 V2000
   26.7151   17.1570   35.6121 N   0  0  0  0  0  0  0  0  0  0  0  0
   21.7671   17.1083   35.2616 N   0  0  0  0  0  0  0  0  0  0  0  0
   23.0876   11.6149   39.4935 N   0  0  0  0  0  0  0  0  0  0  0  0
   23.9750   15.1431   39.1845 O   0  0  0  0  0  0  0  0  0  0  0  0
   24.0448   15.3548   37.7529 C   0  0  2  0  0  0  0  0  0  0  0  0
   19.0953   15.6327   36.0930 N   0  0  0  0  0  0  0  0  0  0  0  0
   26.5321   15.4617   37.8325 O   0  0  0  0  0  0  0  0  0  0  0  0
   25.3551   16.1601   37.4068 C   0  0  1  0  0  0  0  0  0  0  0  0
   21.6762   15.4526   37.5785 O   0  0  0  0  0  0  0  0  0  0  0  0
   25.4631   16.3840   35.9185 C   0  0  1  0  0  0  0  0  0  0  0  0
   21.6934   13.1612   37.3503 O   0  0  0  0  0  0  0  0  0  0  0  0
   24.2142   17.1525   35.4286 C   0  0  0  0  0  0  0  0  0  0  0  0
   19.0732   12.6207   39.8329 O   0  0  0  0  0  0  0  0  0  0  0  0
   22.9559   16.3052   35.7780 C   0  0  1  0  0  0  0  0  0  0  0  0
   17.6321   14.0270   37.8880 O   0  0  0  0  0  0  0  0  0  0  0  0
   22.7933   16.1869   37.2645 C   0  0  2  0  0  0  0  0  0  0  0  0
   21.2044   14.4653   36.7215 C   0  0  1  0  0  0  0  0  0  0  0  0
   21.1080   12.9054   38.7021 C   0  0  2  0  0  0  0  0  0  0  0  0
   21.6173   11.5640   39.2692 C   0  0  0  0  0  0  0  0  0  0  0  0
   19.6149   12.8443   38.5757 C   0  0  2  0  0  0  0  0  0  0  0  0
   19.0583   14.1207   38.0152 C   0  0  1  0  0  0  0  0  0  0  0  0
   19.6544   14.3578   36.6703 C   0  0  1  0  0  0  0  0  0  0  0  0
  5  4  1  1  0  0  0
  5  8  1  0  0  0  0
  5 16  1  0  0  0  0
  8  7  1  6  0  0  0
  8 10  1  0  0  0  0
 10  1  1  1  0  0  0
 10 12  1  0  0  0  0
 11 18  1  0  0  0  0
 12 14  1  0  0  0  0
 14  2  1  1  0  0  0
 14 16  1  0  0  0  0
 16  9  1  6  0  0  0
 17  9  1  1  0  0  0
 17 11  1  0  0  0  0
 17 22  1  0  0  0  0
 18 19  1  6  0  0  0
 18 20  1  0  0  0  0
 19  3  1  0  0  0  0
 20 13  1  1  0  0  0
 20 21  1  0  0  0  0
 21 15  1  6  0  0  0
 21 22  1  0  0  0  0
 22  6  1  1  0  0  0
M  END
>  <CHROM.1>
-85.45178907,101.41515265,64.28350718,22.18252581,14.75869556,37.47510630
0.55628468,-0.12420180,-0.72288278

>  <Name>
2et8_lig

>  <RI>
0

>  <Rbt.Current_Directory>
/home/itssahil/PROJECTS/Mol_Feturizer/New_Systems/rnas/2et8

>  <Rbt.Executable>
rbdock ($Id: //depot/dev/client3/rdock/2013.1/src/exe/rbdock.cxx#4 $)

>  <Rbt.Library>
libRbt.so (2013.1, Build901 2013/11/27)

>  <Rbt.Parameter_File>
/export/apps/rDock/src/rDock_2013.1_src/data/scripts/dock_solv.prm

>  <Rbt.Receptor>
prm/pocket_docking_2.prm

>  <SCORE>
-9.15112

>  <SCORE.INTER>
-12.91

>  <SCORE.INTER.CONST>
1

>  <SCORE.INTER.POLAR>
-0.82412

>  <SCORE.INTER.ROT>
3

>  <SCORE.INTER.SOLV>
14.2308

>  <SCORE.INTER.VDW>
-16.2032

>  <SCORE.INTER.norm>
-0.586818

>  <SCORE.INTRA>
3.69117

>  <SCORE.INTRA.DIHEDRAL>
3.42682

>  <SCORE.INTRA.DIHEDRAL.0>
4.99603

>  <SCORE.INTRA.POLAR>
0

>  <SCORE.INTRA.POLAR.0>
0

>  <SCORE.INTRA.REPUL>
0

>  <SCORE.INTRA.REPUL.0>
0

>  <SCORE.INTRA.SOLV>
2.59132

>  <SCORE.INTRA.SOLV.lig_0>
-74.884

>  <SCORE.INTRA.VDW>
0.682097

>  <SCORE.INTRA.VDW.0>
-0.858933

>  <SCORE.INTRA.norm>
0.16778

>  <SCORE.RESTR>
0.0677122

>  <SCORE.RESTR.CAVITY>
0.0677122

>  <SCORE.RESTR.norm>
0.00307783

>  <SCORE.SYSTEM>
0

>  <SCORE.SYSTEM.CONST>
0

>  <SCORE.SYSTEM.DIHEDRAL>
0

>  <SCORE.SYSTEM.SOLV>
0

>  <SCORE.SYSTEM.norm>
0

>  <SCORE.heavy>
22

>  <SCORE.norm>
-0.41596

>  <RMSD>
2.263

$$$$
2et8_lig
 OpenBabel11021811433D
libRbt.so/2013.1/901 2013/11/27
 22 23  0  0  0  0  0  0  0  0999 V2000
   24.8165   16.9607   33.9227 N   0  0  0  0  0  0  0  0  0  0  0  0
   20.1353   16.5018   35.4987 N   0  0  0  0  0  0  0  0  0  0  0  0
   22.2131   10.1406   38.9771 N   0  0  0  0  0  0  0  0  0  0  0  0
   23.8488   15.0283   38.3562 O   0  0  0  0  0  0  0  0  0  0  0  0
   23.3508   15.1314   36.9995 C   0  0  2  0  0  0  0  0  0  0  0  0
   18.1698   14.4568   37.6286 N   0  0  0  0  0  0  0  0  0  0  0  0
   25.6590   15.4365   36.1146 O   0  0  0  0  0  0  0  0  0  0  0  0
   24.3441   16.0059   36.1430 C   0  0  1  0  0  0  0  0  0  0  0  0
   21.0950   15.0315   37.7426 O   0  0  0  0  0  0  0  0  0  0  0  0
   23.8585   16.1197   34.7189 C   0  0  1  0  0  0  0  0  0  0  0  0
   21.5831   12.7881   37.5651 O   0  0  0  0  0  0  0  0  0  0  0  0
   22.4460   16.7482   34.7126 C   0  0  0  0  0  0  0  0  0  0  0  0
   20.5828   12.0200   40.9900 O   0  0  0  0  0  0  0  0  0  0  0  0
   21.5060   15.8363   35.5541 C   0  0  1  0  0  0  0  0  0  0  0  0
   18.1217   12.8187   39.9211 O   0  0  0  0  0  0  0  0  0  0  0  0
   21.9299   15.8231   36.9928 C   0  0  2  0  0  0  0  0  0  0  0  0
   20.5543   13.8635   37.2183 C   0  0  1  0  0  0  0  0  0  0  0  0
   21.7506   12.5887   39.0373 C   0  0  2  0  0  0  0  0  0  0  0  0
   22.7786   11.4737   39.3206 C   0  0  0  0  0  0  0  0  0  0  0  0
   20.4283   12.1909   39.6222 C   0  0  2  0  0  0  0  0  0  0  0  0
   19.3789   13.2338   39.3677 C   0  0  1  0  0  0  0  0  0  0  0  0
   19.2284   13.4182   37.8967 C   0  0  1  0  0  0  0  0  0  0  0  0
  5  4  1  1  0  0  0
  5  8  1  0  0  0  0
  5 16  1  0  0  0  0
  8  7  1  6  0  0  0
  8 10  1  0  0  0  0
 10  1  1  6  0  0  0
 10 12  1  0  0  0  0
 11 18  1  0  0  0  0
 12 14  1  0  0  0  0
 14  2  1  1  0  0  0
 14 16  1  0  0  0  0
 16  9  1  1  0  0  0
 17  9  1  1  0  0  0
 17 11  1  0  0  0  0
 17 22  1  0  0  0  0
 18 19  1  6  0  0  0
 18 20  1  0  0  0  0
 19  3  1  0  0  0  0
 20 13  1  1  0  0  0
 20 21  1  0  0  0  0
 21 15  1  6  0  0  0
 21 22  1  0  0  0  0
 22  6  1  1  0  0  0
M  END
>  <CHROM.1>
-78.25761472,89.63081993,-71.76626281,21.72382036,14.23452638,37.50951769
-0.99402222,-0.11604452,2.40343647

>  <Name>
2et8_lig

>  <RI>
0

>  <Rbt.Current_Directory>
/home/itssahil/PROJECTS/Mol_Feturizer/New_Systems/rnas/2et8

>  <Rbt.Executable>
rbdock ($Id: //depot/dev/client3/rdock/2013.1/src/exe/rbdock.cxx#4 $)

>  <Rbt.Library>
libRbt.so (2013.1, Build901 2013/11/27)

>  <Rbt.Parameter_File>
/export/apps/rDock/src/rDock_2013.1_src/data/scripts/dock_solv.prm

>  <Rbt.Receptor>
prm/pocket_docking_2.prm

>  <SCORE>
-7.74757

>  <SCORE.INTER>
-10.1495

>  <SCORE.INTER.CONST>
1

>  <SCORE.INTER.POLAR>
-0.949939

>  <SCORE.INTER.ROT>
3

>  <SCORE.INTER.SOLV>
18.8607

>  <SCORE.INTER.VDW>
-15.4868

>  <SCORE.INTER.norm>
-0.461341

>  <SCORE.INTRA>
2.36422

>  <SCORE.INTRA.DIHEDRAL>
0.60678

>  <SCORE.INTRA.DIHEDRAL.0>
4.99603

>  <SCORE.INTRA.POLAR>
0

>  <SCORE.INTRA.POLAR.0>
0

>  <SCORE.INTRA.REPUL>
0

>  <SCORE.INTRA.REPUL.0>
0

>  <SCORE.INTRA.SOLV>
2.86216

>  <SCORE.INTRA.SOLV.lig_0>
-74.884

>  <SCORE.INTRA.VDW>
0.629746

>  <SCORE.INTRA.VDW.0>
-0.858933

>  <SCORE.INTRA.norm>
0.107464

>  <SCORE.RESTR>
0.037728

>  <SCORE.RESTR.CAVITY>
0.037728

>  <SCORE.RESTR.norm>
0.00171491

>  <SCORE.SYSTEM>
0

>  <SCORE.SYSTEM.CONST>
0

>  <SCORE.SYSTEM.DIHEDRAL>
0

>  <SCORE.SYSTEM.SOLV>
0

>  <SCORE.SYSTEM.norm>
0

>  <SCORE.heavy>
22

>  <SCORE.norm>
-0.352162

>  <RMSD>
2.322

$$$$
2et8_lig
 OpenBabel11021811433D
libRbt.so/2013.1/901 2013/11/27
 22 23  0  0  0  0  0  0  0  0999 V2000
   23.7186   18.8440   33.7717 N   0  0  0  0  0  0  0  0  0  0  0  0
   21.3459   14.4926   33.9798 N   0  0  0  0  0  0  0  0  0  0  0  0
   21.5970   11.5230   40.5748 N   0  0  0  0  0  0  0  0  0  0  0  0
   21.5731   17.3635   37.9587 O   0  0  0  0  0  0  0  0  0  0  0  0
   22.2744   16.8913   36.7821 C   0  0  2  0  0  0  0  0  0  0  0  0
   18.1602   15.4464   36.4734 N   0  0  0  0  0  0  0  0  0  0  0  0
   23.4682   19.0652   36.5512 O   0  0  0  0  0  0  0  0  0  0  0  0
   22.6400   18.1192   35.8635 C   0  0  1  0  0  0  0  0  0  0  0  0
   21.0647   14.8451   36.7930 O   0  0  0  0  0  0  0  0  0  0  0  0
   23.3852   17.6594   34.6346 C   0  0  1  0  0  0  0  0  0  0  0  0
   20.6097   12.6071   37.0874 O   0  0  0  0  0  0  0  0  0  0  0  0
   22.5100   16.6486   33.8584 C   0  0  0  0  0  0  0  0  0  0  0  0
   19.3019   13.0374   40.4676 O   0  0  0  0  0  0  0  0  0  0  0  0
   22.1969   15.4524   34.8041 C   0  0  1  0  0  0  0  0  0  0  0  0
   17.3994   14.4852   39.0109 O   0  0  0  0  0  0  0  0  0  0  0  0
   21.3563   15.8997   35.9631 C   0  0  2  0  0  0  0  0  0  0  0  0
   20.1113   13.8979   36.4389 C   0  0  1  0  0  0  0  0  0  0  0  0
   20.6468   12.6763   38.5804 C   0  0  2  0  0  0  0  0  0  0  0  0
   21.1299   11.3367   39.1741 C   0  0  0  0  0  0  0  0  0  0  0  0
   19.2627   12.9598   39.0832 C   0  0  2  0  0  0  0  0  0  0  0  0
   18.7302   14.2492   38.5287 C   0  0  1  0  0  0  0  0  0  0  0  0
   18.7025   14.1602   37.0415 C   0  0  1  0  0  0  0  0  0  0  0  0
  5  4  1  1  0  0  0
  5  8  1  0  0  0  0
  5 16  1  0  0  0  0
  8  7  1  1  0  0  0
  8 10  1  0  0  0  0
 10  1  1  6  0  0  0
 10 12  1  0  0  0  0
 11 18  1  0  0  0  0
 12 14  1  0  0  0  0
 14  2  1  6  0  0  0
 14 16  1  0  0  0  0
 16  9  1  1  0  0  0
 17  9  1  1  0  0  0
 17 11  1  0  0  0  0
 17 22  1  0  0  0  0
 18 19  1  1  0  0  0
 18 20  1  0  0  0  0
 19  3  1  0  0  0  0
 20 13  1  1  0  0  0
 20 21  1  0  0  0  0
 21 15  1  1  0  0  0
 21 22  1  0  0  0  0
 22  6  1  6  0  0  0
M  END
>  <CHROM.1>
170.22823097,148.69798521,161.24046542,20.94893309,15.07756519,37.01876210
-1.00709708,-0.55529664,2.76615951

>  <Name>
2et8_lig

>  <RI>
0

>  <Rbt.Current_Directory>
/home/itssahil/PROJECTS/Mol_Feturizer/New_Systems/rnas/2et8

>  <Rbt.Executable>
rbdock ($Id: //depot/dev/client3/rdock/2013.1/src/exe/rbdock.cxx#4 $)

>  <Rbt.Library>
libRbt.so (2013.1, Build901 2013/11/27)

>  <Rbt.Parameter_File>
/export/apps/rDock/src/rDock_2013.1_src/data/scripts/dock_solv.prm

>  <Rbt.Receptor>
prm/pocket_docking_3.prm

>  <SCORE>
-11.9045

>  <SCORE.INTER>
-12.8186

>  <SCORE.INTER.CONST>
1

>  <SCORE.INTER.POLAR>
-1.17724

>  <SCORE.INTER.ROT>
3

>  <SCORE.INTER.SOLV>
13.0326

>  <SCORE.INTER.VDW>
-14.5658

>  <SCORE.INTER.norm>
-0.582663

>  <SCORE.INTRA>
0.914114

>  <SCORE.INTRA.DIHEDRAL>
0.572069

>  <SCORE.INTRA.DIHEDRAL.0>
4.99603

>  <SCORE.INTRA.POLAR>
0

>  <SCORE.INTRA.POLAR.0>
0

>  <SCORE.INTRA.REPUL>
0

>  <SCORE.INTRA.REPUL.0>
0

>  <SCORE.INTRA.SOLV>
1.92901

>  <SCORE.INTRA.SOLV.lig_0>
-74.884

>  <SCORE.INTRA.VDW>
-0.336427

>  <SCORE.INTRA.VDW.0>
-0.858933

>  <SCORE.INTRA.norm>
0.0415506

>  <SCORE.RESTR>
0

>  <SCORE.RESTR.CAVITY>
0

>  <SCORE.RESTR.norm>
0

>  <SCORE.SYSTEM>
0

>  <SCORE.SYSTEM.CONST>
0

>  <SCORE.SYSTEM.DIHEDRAL>
0

>  <SCORE.SYSTEM.SOLV>
0

>  <SCORE.SYSTEM.norm>
0

>  <SCORE.heavy>
22

>  <SCORE.norm>
-0.541112

>  <RMSD>
2.356

$$$$
2et8_lig
 OpenBabel11021811433D
libRbt.so/2013.1/901 2013/11/27
 22 23  0  0  0  0  0  0  0  0999 V2000
   23.6556   18.8373   33.8602 N   0  0  0  0  0  0  0  0  0  0  0  0
   21.3278   14.4606   34.0428 N   0  0  0  0  0  0  0  0  0  0  0  0
   21.6119   11.4751   40.6370 N   0  0  0  0  0  0  0  0  0  0  0  0
   21.5390   17.3036   38.0427 O   0  0  0  0  0  0  0  0  0  0  0  0
   22.2412   16.8474   36.8603 C   0  0  2  0  0  0  0  0  0  0  0  0
   18.1444   15.3652   36.5242 N   0  0  0  0  0  0  0  0  0  0  0  0
   23.4121   19.0349   36.6422 O   0  0  0  0  0  0  0  0  0  0  0  0
   22.5912   18.0858   35.9499 C   0  0  1  0  0  0  0  0  0  0  0  0
   21.0522   14.7890   36.8595 O   0  0  0  0  0  0  0  0  0  0  0  0
   23.3371   17.6429   34.7151 C   0  0  1  0  0  0  0  0  0  0  0  0
   20.6151   12.5471   37.1513 O   0  0  0  0  0  0  0  0  0  0  0  0
   22.4696   16.6292   33.9341 C   0  0  0  0  0  0  0  0  0  0  0  0
   19.2852   12.9657   40.5243 O   0  0  0  0  0  0  0  0  0  0  0  0
   22.1717   15.4228   34.8717 C   0  0  1  0  0  0  0  0  0  0  0  0
   17.3782   14.3971   39.0574 O   0  0  0  0  0  0  0  0  0  0  0  0
   21.3304   15.8527   36.0367 C   0  0  2  0  0  0  0  0  0  0  0  0
   20.1090   13.8336   36.5002 C   0  0  1  0  0  0  0  0  0  0  0  0
   20.6434   12.6164   38.6445 C   0  0  2  0  0  0  0  0  0  0  0  0
   21.1349   11.2811   39.2407 C   0  0  0  0  0  0  0  0  0  0  0  0
   19.2542   12.8879   39.1397 C   0  0  2  0  0  0  0  0  0  0  0  0
   18.7135   14.1727   38.5824 C   0  0  1  0  0  0  0  0  0  0  0  0
   18.6948   14.0836   37.0951 C   0  0  1  0  0  0  0  0  0  0  0  0
  5  4  1  1  0  0  0
  5  8  1  0  0  0  0
  5 16  1  0  0  0  0
  8  7  1  1  0  0  0
  8 10  1  0  0  0  0
 10  1  1  6  0  0  0
 10 12  1  0  0  0  0
 11 18  1  0  0  0  0
 12 14  1  0  0  0  0
 14  2  1  6  0  0  0
 14 16  1  0  0  0  0
 16  9  1  1  0  0  0
 17  9  1  1  0  0  0
 17 11  1  0  0  0  0
 17 22  1  0  0  0  0
 18 19  1  1  0  0  0
 18 20  1  0  0  0  0
 19  3  1  0  0  0  0
 20 13  1  1  0  0  0
 20 21  1  0  0  0  0
 21 15  1  1  0  0  0
 21 22  1  0  0  0  0
 22  6  1  6  0  0  0
M  END
>  <CHROM.1>
170.34315875,149.29404311,160.38773446,20.92743551,15.02592850,37.08654306
-1.08481580,-0.28712317,2.60025898

>  <Name>
2et8_lig

>  <RI>
3.42619e+07

>  <Rbt.Current_Directory>
/home/itssahil/PROJECTS/Mol_Feturizer/New_Systems/rnas/2et8

>  <Rbt.Executable>
rbdock ($Id: //depot/dev/client3/rdock/2013.1/src/exe/rbdock.cxx#4 $)

>  <Rbt.Library>
libRbt.so (2013.1, Build901 2013/11/27)

>  <Rbt.Parameter_File>
/export/apps/rDock/src/rDock_2013.1_src/data/scripts/dock_solv.prm

>  <Rbt.Receptor>
prm/pocket_docking_4.prm

>  <SCORE>
-11.9053

>  <SCORE.INTER>
-12.7898

>  <SCORE.INTER.CONST>
1

>  <SCORE.INTER.POLAR>
-1.13916

>  <SCORE.INTER.ROT>
3

>  <SCORE.INTER.SOLV>
13.04

>  <SCORE.INTER.VDW>
-14.676

>  <SCORE.INTER.norm>
-0.581354

>  <SCORE.INTRA>
0.884496

>  <SCORE.INTRA.DIHEDRAL>
0.551624

>  <SCORE.INTRA.DIHEDRAL.0>
4.99603

>  <SCORE.INTRA.POLAR>
0

>  <SCORE.INTRA.POLAR.0>
0

>  <SCORE.INTRA.REPUL>
0

>  <SCORE.INTRA.REPUL.0>
0

>  <SCORE.INTRA.SOLV>
1.94212

>  <SCORE.INTRA.SOLV.lig_0>
-74.884

>  <SCORE.INTRA.VDW>
-0.362376

>  <SCORE.INTRA.VDW.0>
-0.858933

>  <SCORE.INTRA.norm>
0.0402043

>  <SCORE.RESTR>
0

>  <SCORE.RESTR.CAVITY>
0

>  <SCORE.RESTR.norm>
0

>  <SCORE.SYSTEM>
0

>  <SCORE.SYSTEM.CONST>
0

>  <SCORE.SYSTEM.DIHEDRAL>
0

>  <SCORE.SYSTEM.SOLV>
0

>  <SCORE.SYSTEM.norm>
0

>  <SCORE.heavy>
22

>  <SCORE.norm>
-0.54115

>  <RMSD>
2.357

$$$$
2et8_lig
 OpenBabel11021811433D
libRbt.so/2013.1/901 2013/11/27
 22 23  0  0  0  0  0  0  0  0999 V2000
   23.9904   17.8144   33.2608 N   0  0  0  0  0  0  0  0  0  0  0  0
   20.4613   14.4372   34.1253 N   0  0  0  0  0  0  0  0  0  0  0  0
   21.5861   11.0324   39.8242 N   0  0  0  0  0  0  0  0  0  0  0  0
   22.9046   16.4579   37.8767 O   0  0  0  0  0  0  0  0  0  0  0  0
   22.9913   15.9750   36.5134 C   0  0  2  0  0  0  0  0  0  0  0  0
   18.5801   15.5442   36.0458 N   0  0  0  0  0  0  0  0  0  0  0  0
   24.7218   17.6788   35.9597 O   0  0  0  0  0  0  0  0  0  0  0  0
   23.4470   17.1527   35.5697 C   0  0  1  0  0  0  0  0  0  0  0  0
   21.2212   14.4293   36.8712 O   0  0  0  0  0  0  0  0  0  0  0  0
   23.5604   16.6758   34.1426 C   0  0  1  0  0  0  0  0  0  0  0  0
   20.2198   12.4857   37.5938 O   0  0  0  0  0  0  0  0  0  0  0  0
   22.1940   16.1168   33.6838 C   0  0  0  0  0  0  0  0  0  0  0  0
   18.7992   14.0093   40.5907 O   0  0  0  0  0  0  0  0  0  0  0  0
   21.8040   14.9485   34.6358 C   0  0  1  0  0  0  0  0  0  0  0  0
   17.4183   15.4270   38.6106 O   0  0  0  0  0  0  0  0  0  0  0  0
   21.5799   15.4539   36.0301 C   0  0  2  0  0  0  0  0  0  0  0  0
   20.0979   13.6523   36.6143 C   0  0  1  0  0  0  0  0  0  0  0  0
   20.1580   12.9120   39.0255 C   0  0  2  0  0  0  0  0  0  0  0  0
   20.2576   11.6891   39.9608 C   0  0  0  0  0  0  0  0  0  0  0  0
   18.8486   13.6023   39.2655 C   0  0  2  0  0  0  0  0  0  0  0  0
   18.6861   14.7982   38.3727 C   0  0  1  0  0  0  0  0  0  0  0  0
   18.7517   14.3525   36.9523 C   0  0  1  0  0  0  0  0  0  0  0  0
  5  4  1  1  0  0  0
  5  8  1  0  0  0  0
  5 16  1  0  0  0  0
  8  7  1  1  0  0  0
  8 10  1  0  0  0  0
 10  1  1  6  0  0  0
 10 12  1  0  0  0  0
 11 18  1  0  0  0  0
 12 14  1  0  0  0  0
 14  2  1  6  0  0  0
 14 16  1  0  0  0  0
 16  9  1  1  0  0  0
 17  9  1  1  0  0  0
 17 11  1  0  0  0  0
 17 22  1  0  0  0  0
 18 19  1  1  0  0  0
 18 20  1  0  0  0  0
 19  3  1  0  0  0  0
 20 13  1  1  0  0  0
 20 21  1  0  0  0  0
 21 15  1  6  0  0  0
 21 22  1  0  0  0  0
 22  6  1  6  0  0  0
M  END
>  <CHROM.1>
-172.28725116,168.89210867,64.70351001,21.00827929,14.85306295,36.93277633
0.96111567,-0.10350354,-0.96147080

>  <Name>
2et8_lig

>  <RI>
0

>  <Rbt.Current_Directory>
/home/itssahil/PROJECTS/Mol_Feturizer/New_Systems/rnas/2et8

>  <Rbt.Executable>
rbdock ($Id: //depot/dev/client3/rdock/2013.1/src/exe/rbdock.cxx#4 $)

>  <Rbt.Library>
libRbt.so (2013.1, Build901 2013/11/27)

>  <Rbt.Parameter_File>
/export/apps/rDock/src/rDock_2013.1_src/data/scripts/dock_solv.prm

>  <Rbt.Receptor>
prm/pocket_docking_2.prm

>  <SCORE>
-11.0067

>  <SCORE.INTER>
-11.4007

>  <SCORE.INTER.CONST>
1

>  <SCORE.INTER.POLAR>
-0.959166

>  <SCORE.INTER.ROT>
3

>  <SCORE.INTER.SOLV>
13.4434

>  <SCORE.INTER.VDW>
-14.4844

>  <SCORE.INTER.norm>
-0.518214

>  <SCORE.INTRA>
0.394036

>  <SCORE.INTRA.DIHEDRAL>
-3.8615

>  <SCORE.INTRA.DIHEDRAL.0>
4.99603

>  <SCORE.INTRA.POLAR>
0

>  <SCORE.INTRA.POLAR.0>
0

>  <SCORE.INTRA.REPUL>
0

>  <SCORE.INTRA.REPUL.0>
0

>  <SCORE.INTRA.SOLV>
3.31296

>  <SCORE.INTRA.SOLV.lig_0>
-74.884

>  <SCORE.INTRA.VDW>
0.668307

>  <SCORE.INTRA.VDW.0>
-0.858933

>  <SCORE.INTRA.norm>
0.0179107

>  <SCORE.RESTR>
0

>  <SCORE.RESTR.CAVITY>
0

>  <SCORE.RESTR.norm>
0

>  <SCORE.SYSTEM>
0

>  <SCORE.SYSTEM.CONST>
0

>  <SCORE.SYSTEM.DIHEDRAL>
0

>  <SCORE.SYSTEM.SOLV>
0

>  <SCORE.SYSTEM.norm>
0

>  <SCORE.heavy>
22

>  <SCORE.norm>
-0.500304

>  <RMSD>
2.369

$$$$
2et8_lig
 OpenBabel11021811433D
libRbt.so/2013.1/901 2013/11/27
 22 23  0  0  0  0  0  0  0  0999 V2000
   23.5876   19.0483   34.0759 N   0  0  0  0  0  0  0  0  0  0  0  0
   21.4111   14.5916   33.9837 N   0  0  0  0  0  0  0  0  0  0  0  0
   21.4478   11.5126   40.7261 N   0  0  0  0  0  0  0  0  0  0  0  0
   21.6191   17.1416   38.1766 O   0  0  0  0  0  0  0  0  0  0  0  0
   22.3089   16.7974   36.9498 C   0  0  2  0  0  0  0  0  0  0  0  0
   18.3342   15.4410   36.3678 N   0  0  0  0  0  0  0  0  0  0  0  0
   23.4013   19.0344   36.8692 O   0  0  0  0  0  0  0  0  0  0  0  0
   22.5967   18.1101   36.1259 C   0  0  1  0  0  0  0  0  0  0  0  0
   21.1892   14.7044   36.8219 O   0  0  0  0  0  0  0  0  0  0  0  0
   23.3284   17.7845   34.8470 C   0  0  1  0  0  0  0  0  0  0  0  0
   20.6064   12.5056   37.1799 O   0  0  0  0  0  0  0  0  0  0  0  0
   22.4775   16.8007   34.0115 C   0  0  0  0  0  0  0  0  0  0  0  0
   19.1990   13.1321   40.4886 O   0  0  0  0  0  0  0  0  0  0  0  0
   22.2413   15.5196   34.8637 C   0  0  1  0  0  0  0  0  0  0  0  0
   17.4306   14.6184   38.9072 O   0  0  0  0  0  0  0  0  0  0  0  0
   21.4130   15.8342   36.0740 C   0  0  2  0  0  0  0  0  0  0  0  0
   20.2010   13.7944   36.4658 C   0  0  1  0  0  0  0  0  0  0  0  0
   20.5918   12.6302   38.6697 C   0  0  2  0  0  0  0  0  0  0  0  0
   20.9815   11.2915   39.3303 C   0  0  0  0  0  0  0  0  0  0  0  0
   19.2070   13.0035   39.1075 C   0  0  2  0  0  0  0  0  0  0  0  0
   18.7640   14.2961   38.4861 C   0  0  1  0  0  0  0  0  0  0  0  0
   18.7867   14.1515   37.0031 C   0  0  1  0  0  0  0  0  0  0  0  0
  5  4  1  1  0  0  0
  5  8  1  0  0  0  0
  5 16  1  0  0  0  0
  8  7  1  1  0  0  0
  8 10  1  0  0  0  0
 10  1  1  6  0  0  0
 10 12  1  0  0  0  0
 11 18  1  0  0  0  0
 12 14  1  0  0  0  0
 14  2  1  6  0  0  0
 14 16  1  0  0  0  0
 16  9  1  1  0  0  0
 17  9  1  1  0  0  0
 17 11  1  0  0  0  0
 17 22  1  0  0  0  0
 18 19  1  1  0  0  0
 18 20  1  0  0  0  0
 19  3  1  0  0  0  0
 20 13  1  1  0  0  0
 20 21  1  0  0  0  0
 21 15  1  1  0  0  0
 21 22  1  0  0  0  0
 22  6  1  6  0  0  0
M  END
>  <CHROM.1>
165.52732269,159.66672052,159.39932171,20.94591741,15.07977954,37.11495798
-0.60748808,0.99304783,1.59009950

>  <Name>
2et8_lig

>  <RI>
0

>  <Rbt.Current_Directory>
/home/itssahil/PROJECTS/Mol_Feturizer/New_Systems/rnas/2et8

>  <Rbt.Executable>
rbdock ($Id: //depot/dev/client3/rdock/2013.1/src/exe/rbdock.cxx#4 $)

>  <Rbt.Library>
libRbt.so (2013.1, Build901 2013/11/27)

>  <Rbt.Parameter_File>
/export/apps/rDock/src/rDock_2013.1_src/data/scripts/dock_solv.prm

>  <Rbt.Receptor>
prm/pocket_docking_3.prm

>  <SCORE>
-12.0402

>  <SCORE.INTER>
-12.2863

>  <SCORE.INTER.CONST>
1

>  <SCORE.INTER.POLAR>
-1.20475

>  <SCORE.INTER.ROT>
3

>  <SCORE.INTER.SOLV>
12.1661

>  <SCORE.INTER.VDW>
-13.8304

>  <SCORE.INTER.norm>
-0.558469

>  <SCORE.INTRA>
0.246138

>  <SCORE.INTRA.DIHEDRAL>
-0.645817

>  <SCORE.INTRA.DIHEDRAL.0>
4.99603

>  <SCORE.INTRA.POLAR>
0

>  <SCORE.INTRA.POLAR.0>
0

>  <SCORE.INTRA.REPUL>
0

>  <SCORE.INTRA.REPUL.0>
0

>  <SCORE.INTRA.SOLV>
2.32037

>  <SCORE.INTRA.SOLV.lig_0>
-74.884

>  <SCORE.INTRA.VDW>
-0.591137

>  <SCORE.INTRA.VDW.0>
-0.858933

>  <SCORE.INTRA.norm>
0.0111881

>  <SCORE.RESTR>
0

>  <SCORE.RESTR.CAVITY>
0

>  <SCORE.RESTR.norm>
0

>  <SCORE.SYSTEM>
0

>  <SCORE.SYSTEM.CONST>
0

>  <SCORE.SYSTEM.DIHEDRAL>
0

>  <SCORE.SYSTEM.SOLV>
0

>  <SCORE.SYSTEM.norm>
0

>  <SCORE.heavy>
22

>  <SCORE.norm>
-0.547281

>  <RMSD>
2.373

$$$$
2et8_lig
 OpenBabel11021811433D
libRbt.so/2013.1/901 2013/11/27
 22 23  0  0  0  0  0  0  0  0999 V2000
   23.6269   18.9050   33.8331 N   0  0  0  0  0  0  0  0  0  0  0  0
   21.3534   14.4989   33.9931 N   0  0  0  0  0  0  0  0  0  0  0  0
   21.6210   11.5262   40.5850 N   0  0  0  0  0  0  0  0  0  0  0  0
   21.4851   17.3461   37.9935 O   0  0  0  0  0  0  0  0  0  0  0  0
   22.2058   16.8984   36.8189 C   0  0  2  0  0  0  0  0  0  0  0  0
   18.1343   15.3817   36.4495 N   0  0  0  0  0  0  0  0  0  0  0  0
   23.3510   19.1006   36.6122 O   0  0  0  0  0  0  0  0  0  0  0  0
   22.5498   18.1408   35.9116 C   0  0  1  0  0  0  0  0  0  0  0  0
   21.0433   14.8250   36.8065 O   0  0  0  0  0  0  0  0  0  0  0  0
   23.3144   17.7070   34.6852 C   0  0  1  0  0  0  0  0  0  0  0  0
   20.6186   12.5808   37.0991 O   0  0  0  0  0  0  0  0  0  0  0  0
   22.4685   16.6819   33.8955 C   0  0  0  0  0  0  0  0  0  0  0  0
   19.2620   12.9966   40.4619 O   0  0  0  0  0  0  0  0  0  0  0  0
   22.1759   15.4721   34.8305 C   0  0  1  0  0  0  0  0  0  0  0  0
   17.3563   14.4130   38.9789 O   0  0  0  0  0  0  0  0  0  0  0  0
   21.3167   15.8918   35.9861 C   0  0  2  0  0  0  0  0  0  0  0  0
   20.1089   13.8629   36.4422 C   0  0  1  0  0  0  0  0  0  0  0  0
   20.6358   12.6529   38.5924 C   0  0  2  0  0  0  0  0  0  0  0  0
   21.1317   11.3218   39.1945 C   0  0  0  0  0  0  0  0  0  0  0  0
   19.2414   12.9162   39.0772 C   0  0  2  0  0  0  0  0  0  0  0  0
   18.6964   14.1965   38.5138 C   0  0  1  0  0  0  0  0  0  0  0  0
   18.6888   14.1047   37.0266 C   0  0  1  0  0  0  0  0  0  0  0  0
  5  4  1  1  0  0  0
  5  8  1  0  0  0  0
  5 16  1  0  0  0  0
  8  7  1  1  0  0  0
  8 10  1  0  0  0  0
 10  1  1  6  0  0  0
 10 12  1  0  0  0  0
 11 18  1  0  0  0  0
 12 14  1  0  0  0  0
 14  2  1  6  0  0  0
 14 16  1  0  0  0  0
 16  9  1  1  0  0  0
 17  9  1  1  0  0  0
 17 11  1  0  0  0  0
 17 22  1  0  0  0  0
 18 19  1  1  0  0  0
 18 20  1  0  0  0  0
 19  3  1  0  0  0  0
 20 13  1  1  0  0  0
 20 21  1  0  0  0  0
 21 15  1  1  0  0  0
 21 22  1  0  0  0  0
 22  6  1  6  0  0  0
M  END
>  <CHROM.1>
169.85034772,149.54576661,159.33703587,20.91211667,15.06625769,37.03531321
-1.03695981,-0.50454093,2.73577188

>  <Name>
2et8_lig

>  <RI>
3.42619e+07

>  <Rbt.Current_Directory>
/home/itssahil/PROJECTS/Mol_Feturizer/New_Systems/rnas/2et8

>  <Rbt.Executable>
rbdock ($Id: //depot/dev/client3/rdock/2013.1/src/exe/rbdock.cxx#4 $)

>  <Rbt.Library>
libRbt.so (2013.1, Build901 2013/11/27)

>  <Rbt.Parameter_File>
/export/apps/rDock/src/rDock_2013.1_src/data/scripts/dock_solv.prm

>  <Rbt.Receptor>
prm/pocket_docking_4.prm

>  <SCORE>
-11.8949

>  <SCORE.INTER>
-12.7921

>  <SCORE.INTER.CONST>
1

>  <SCORE.INTER.POLAR>
-1.1812

>  <SCORE.INTER.ROT>
3

>  <SCORE.INTER.SOLV>
12.9397

>  <SCORE.INTER.VDW>
-14.504

>  <SCORE.INTER.norm>
-0.581459

>  <SCORE.INTRA>
0.897246

>  <SCORE.INTRA.DIHEDRAL>
0.676082

>  <SCORE.INTRA.DIHEDRAL.0>
4.99603

>  <SCORE.INTRA.POLAR>
0

>  <SCORE.INTRA.POLAR.0>
0

>  <SCORE.INTRA.REPUL>
0

>  <SCORE.INTRA.REPUL.0>
0

>  <SCORE.INTRA.SOLV>
1.91545

>  <SCORE.INTRA.SOLV.lig_0>
-74.884

>  <SCORE.INTRA.VDW>
-0.398519

>  <SCORE.INTRA.VDW.0>
-0.858933

>  <SCORE.INTRA.norm>
0.0407839

>  <SCORE.RESTR>
0

>  <SCORE.RESTR.CAVITY>
0

>  <SCORE.RESTR.norm>
0

>  <SCORE.SYSTEM>
0

>  <SCORE.SYSTEM.CONST>
0

>  <SCORE.SYSTEM.DIHEDRAL>
0

>  <SCORE.SYSTEM.SOLV>
0

>  <SCORE.SYSTEM.norm>
0

>  <SCORE.heavy>
22

>  <SCORE.norm>
-0.540675

>  <RMSD>
2.377

$$$$
2et8_lig
 OpenBabel11021811433D
libRbt.so/2013.1/901 2013/11/27
 22 23  0  0  0  0  0  0  0  0999 V2000
   23.5333   18.4419   33.7200 N   0  0  0  0  0  0  0  0  0  0  0  0
   20.7471   14.3724   34.2531 N   0  0  0  0  0  0  0  0  0  0  0  0
   21.3910   11.4968   41.0995 N   0  0  0  0  0  0  0  0  0  0  0  0
   22.1155   16.9518   38.2028 O   0  0  0  0  0  0  0  0  0  0  0  0
   22.5030   16.4786   36.8894 C   0  0  2  0  0  0  0  0  0  0  0  0
   18.2012   15.2137   36.6397 N   0  0  0  0  0  0  0  0  0  0  0  0
   23.8776   18.5184   36.4973 O   0  0  0  0  0  0  0  0  0  0  0  0
   22.8202   17.7129   35.9615 C   0  0  1  0  0  0  0  0  0  0  0  0
   21.0839   14.5806   37.0746 O   0  0  0  0  0  0  0  0  0  0  0  0
   23.2413   17.2504   34.5883 C   0  0  1  0  0  0  0  0  0  0  0  0
   20.5760   12.3759   37.5036 O   0  0  0  0  0  0  0  0  0  0  0  0
   22.1127   16.3911   33.9735 C   0  0  0  0  0  0  0  0  0  0  0  0
   19.1930   13.0540   40.8124 O   0  0  0  0  0  0  0  0  0  0  0  0
   21.8558   15.1808   34.9181 C   0  0  1  0  0  0  0  0  0  0  0  0
   17.3576   14.4374   39.2140 O   0  0  0  0  0  0  0  0  0  0  0  0
   21.3262   15.6457   36.2423 C   0  0  2  0  0  0  0  0  0  0  0  0
   20.1205   13.6300   36.7586 C   0  0  1  0  0  0  0  0  0  0  0  0
   20.5770   12.5433   38.9893 C   0  0  2  0  0  0  0  0  0  0  0  0
   21.0177   11.2373   39.6824 C   0  0  0  0  0  0  0  0  0  0  0  0
   19.1869   12.8855   39.4356 C   0  0  2  0  0  0  0  0  0  0  0  0
   18.6949   14.1450   38.7836 C   0  0  1  0  0  0  0  0  0  0  0  0
   18.7027   13.9581   37.3053 C   0  0  1  0  0  0  0  0  0  0  0  0
  5  4  1  1  0  0  0
  5  8  1  0  0  0  0
  5 16  1  0  0  0  0
  8  7  1  1  0  0  0
  8 10  1  0  0  0  0
 10  1  1  6  0  0  0
 10 12  1  0  0  0  0
 11 18  1  0  0  0  0
 12 14  1  0  0  0  0
 14  2  1  6  0  0  0
 14 16  1  0  0  0  0
 16  9  1  1  0  0  0
 17  9  1  1  0  0  0
 17 11  1  0  0  0  0
 17 22  1  0  0  0  0
 18 19  1  1  0  0  0
 18 20  1  0  0  0  0
 19  3  1  0  0  0  0
 20 13  1  1  0  0  0
 20 21  1  0  0  0  0
 21 15  1  1  0  0  0
 21 22  1  0  0  0  0
 22  6  1  6  0  0  0
M  END
>  <CHROM.1>
-178.13374857,155.05663404,163.96338176,20.91194424,14.84320106,37.25247360
1.02883233,-0.48348792,-1.03954487

>  <Name>
2et8_lig

>  <RI>
3.42619e+07

>  <Rbt.Current_Directory>
/home/itssahil/PROJECTS/Mol_Feturizer/New_Systems/rnas/2et8

>  <Rbt.Executable>
rbdock ($Id: //depot/dev/client3/rdock/2013.1/src/exe/rbdock.cxx#4 $)

>  <Rbt.Library>
libRbt.so (2013.1, Build901 2013/11/27)

>  <Rbt.Parameter_File>
/export/apps/rDock/src/rDock_2013.1_src/data/scripts/dock_solv.prm

>  <Rbt.Receptor>
prm/pocket_docking_4.prm

>  <SCORE>
-10.7598

>  <SCORE.INTER>
-11.874

>  <SCORE.INTER.CONST>
1

>  <SCORE.INTER.POLAR>
-0.959166

>  <SCORE.INTER.ROT>
3

>  <SCORE.INTER.SOLV>
12.8538

>  <SCORE.INTER.VDW>
-14.6034

>  <SCORE.INTER.norm>
-0.539725

>  <SCORE.INTRA>
1.11415

>  <SCORE.INTRA.DIHEDRAL>
-1.31438

>  <SCORE.INTRA.DIHEDRAL.0>
4.99603

>  <SCORE.INTRA.POLAR>
0

>  <SCORE.INTRA.POLAR.0>
0

>  <SCORE.INTRA.REPUL>
0

>  <SCORE.INTRA.REPUL.0>
0

>  <SCORE.INTRA.SOLV>
2.90313

>  <SCORE.INTRA.SOLV.lig_0>
-74.884

>  <SCORE.INTRA.VDW>
0.319778

>  <SCORE.INTRA.VDW.0>
-0.858933

>  <SCORE.INTRA.norm>
0.0506433

>  <SCORE.RESTR>
0

>  <SCORE.RESTR.CAVITY>
0

>  <SCORE.RESTR.norm>
0

>  <SCORE.SYSTEM>
0

>  <SCORE.SYSTEM.CONST>
0

>  <SCORE.SYSTEM.DIHEDRAL>
0

>  <SCORE.SYSTEM.SOLV>
0

>  <SCORE.SYSTEM.norm>
0

>  <SCORE.heavy>
22

>  <SCORE.norm>
-0.489082

>  <RMSD>
2.383

$$$$
2et8_lig
 OpenBabel11021811433D
libRbt.so/2013.1/901 2013/11/27
 22 23  0  0  0  0  0  0  0  0999 V2000
   23.5637   19.1257   34.0939 N   0  0  0  0  0  0  0  0  0  0  0  0
   21.3983   14.6640   33.9830 N   0  0  0  0  0  0  0  0  0  0  0  0
   21.3145   11.5411   40.7647 N   0  0  0  0  0  0  0  0  0  0  0  0
   21.6315   17.1814   38.1942 O   0  0  0  0  0  0  0  0  0  0  0  0
   22.3128   16.8487   36.9595 C   0  0  2  0  0  0  0  0  0  0  0  0
   18.3389   15.4416   36.3197 N   0  0  0  0  0  0  0  0  0  0  0  0
   23.3987   19.0892   36.8884 O   0  0  0  0  0  0  0  0  0  0  0  0
   22.5909   18.1687   36.1439 C   0  0  1  0  0  0  0  0  0  0  0  0
   21.1977   14.7538   36.8236 O   0  0  0  0  0  0  0  0  0  0  0  0
   23.3137   17.8551   34.8570 C   0  0  1  0  0  0  0  0  0  0  0  0
   20.6468   12.5447   37.1686 O   0  0  0  0  0  0  0  0  0  0  0  0
   22.4591   16.8757   34.0201 C   0  0  0  0  0  0  0  0  0  0  0  0
   19.1702   13.1420   40.4526 O   0  0  0  0  0  0  0  0  0  0  0  0
   22.2327   15.5873   34.8640 C   0  0  1  0  0  0  0  0  0  0  0  0
   17.4047   14.5998   38.8416 O   0  0  0  0  0  0  0  0  0  0  0  0
   21.4129   15.8900   36.0830 C   0  0  2  0  0  0  0  0  0  0  0  0
   20.2318   13.8273   36.4489 C   0  0  1  0  0  0  0  0  0  0  0  0
   20.6036   12.6669   38.6581 C   0  0  2  0  0  0  0  0  0  0  0  0
   21.0045   11.3342   39.3240 C   0  0  0  0  0  0  0  0  0  0  0  0
   19.2049   13.0155   39.0717 C   0  0  2  0  0  0  0  0  0  0  0  0
   18.7507   14.3012   38.4439 C   0  0  1  0  0  0  0  0  0  0  0  0
   18.8022   14.1592   36.9614 C   0  0  1  0  0  0  0  0  0  0  0  0
  5  4  1  1  0  0  0
  5  8  1  0  0  0  0
  5 16  1  0  0  0  0
  8  7  1  1  0  0  0
  8 10  1  0  0  0  0
 10  1  1  6  0  0  0
 10 12  1  0  0  0  0
 11 18  1  0  0  0  0
 12 14  1  0  0  0  0
 14  2  1  6  0  0  0
 14 16  1  0  0  0  0
 16  9  1  1  0  0  0
 17  9  1  1  0  0  0
 17 11  1  0  0  0  0
 17 22  1  0  0  0  0
 18 19  1  1  0  0  0
 18 20  1  0  0  0  0
 19  3  1  0  0  0  0
 20 13  1  1  0  0  0
 20 21  1  0  0  0  0
 21 15  1  6  0  0  0
 21 22  1  0  0  0  0
 22  6  1  6  0  0  0
M  END
>  <CHROM.1>
167.15577076,159.83351296,164.92358184,20.93960469,15.11889150,37.10733111
-0.71625999,0.93502482,1.73113954

>  <Name>
2et8_lig

>  <RI>
0

>  <Rbt.Current_Directory>
/home/itssahil/PROJECTS/Mol_Feturizer/New_Systems/rnas/2et8

>  <Rbt.Executable>
rbdock ($Id: //depot/dev/client3/rdock/2013.1/src/exe/rbdock.cxx#4 $)

>  <Rbt.Library>
libRbt.so (2013.1, Build901 2013/11/27)

>  <Rbt.Parameter_File>
/export/apps/rDock/src/rDock_2013.1_src/data/scripts/dock_solv.prm

>  <Rbt.Receptor>
prm/pocket_docking_3.prm

>  <SCORE>
-12.097

>  <SCORE.INTER>
-12.1853

>  <SCORE.INTER.CONST>
1

>  <SCORE.INTER.POLAR>
-1.19003

>  <SCORE.INTER.ROT>
3

>  <SCORE.INTER.SOLV>
11.9784

>  <SCORE.INTER.VDW>
-13.7496

>  <SCORE.INTER.norm>
-0.55388

>  <SCORE.INTRA>
0.0869835

>  <SCORE.INTRA.DIHEDRAL>
-1.47866

>  <SCORE.INTRA.DIHEDRAL.0>
4.99603

>  <SCORE.INTRA.POLAR>
0

>  <SCORE.INTRA.POLAR.0>
0

>  <SCORE.INTRA.REPUL>
0

>  <SCORE.INTRA.REPUL.0>
0

>  <SCORE.INTRA.SOLV>
2.51736

>  <SCORE.INTRA.SOLV.lig_0>
-74.884

>  <SCORE.INTRA.VDW>
-0.432363

>  <SCORE.INTRA.VDW.0>
-0.858933

>  <SCORE.INTRA.norm>
0.0039538

>  <SCORE.RESTR>
0.00134229

>  <SCORE.RESTR.CAVITY>
0.00134229

>  <SCORE.RESTR.norm>
6.10131e-05

>  <SCORE.SYSTEM>
0

>  <SCORE.SYSTEM.CONST>
0

>  <SCORE.SYSTEM.DIHEDRAL>
0

>  <SCORE.SYSTEM.SOLV>
0

>  <SCORE.SYSTEM.norm>
0

>  <SCORE.heavy>
22

>  <SCORE.norm>
-0.549865

>  <RMSD>
2.392

$$$$
2et8_lig
 OpenBabel11021811433D
libRbt.so/2013.1/901 2013/11/27
 22 23  0  0  0  0  0  0  0  0999 V2000
   23.4276   18.6868   33.7101 N   0  0  0  0  0  0  0  0  0  0  0  0
   21.2183   14.2619   34.0937 N   0  0  0  0  0  0  0  0  0  0  0  0
   21.9474   11.4529   39.9185 N   0  0  0  0  0  0  0  0  0  0  0  0
   21.4246   17.2542   37.9834 O   0  0  0  0  0  0  0  0  0  0  0  0
   22.1179   16.7730   36.8056 C   0  0  2  0  0  0  0  0  0  0  0  0
   18.1944   15.3151   36.0486 N   0  0  0  0  0  0  0  0  0  0  0  0
   23.2273   18.9801   36.4870 O   0  0  0  0  0  0  0  0  0  0  0  0
   22.4196   17.9856   35.8447 C   0  0  1  0  0  0  0  0  0  0  0  0
   20.9832   14.6863   36.9012 O   0  0  0  0  0  0  0  0  0  0  0  0
   23.1552   17.5169   34.6134 C   0  0  1  0  0  0  0  0  0  0  0  0
   20.3426   12.5825   37.5840 O   0  0  0  0  0  0  0  0  0  0  0  0
   22.3011   16.4534   33.8856 C   0  0  0  0  0  0  0  0  0  0  0  0
   18.6295   13.7775   40.5770 O   0  0  0  0  0  0  0  0  0  0  0  0
   22.0511   15.2750   34.8716 C   0  0  1  0  0  0  0  0  0  0  0  0
   17.0399   14.9503   38.5933 O   0  0  0  0  0  0  0  0  0  0  0  0
   21.2192   15.7259   36.0354 C   0  0  2  0  0  0  0  0  0  0  0  0
   20.0234   13.7222   36.6173 C   0  0  1  0  0  0  0  0  0  0  0  0
   20.1856   12.9690   39.0197 C   0  0  2  0  0  0  0  0  0  0  0  0
   20.4937   11.7707   39.9413 C   0  0  0  0  0  0  0  0  0  0  0  0
   18.7694   13.4063   39.2479 C   0  0  2  0  0  0  0  0  0  0  0  0
   18.4038   14.5659   38.3675 C   0  0  1  0  0  0  0  0  0  0  0  0
   18.5681   14.1610   36.9429 C   0  0  1  0  0  0  0  0  0  0  0  0
  5  4  1  1  0  0  0
  5  8  1  0  0  0  0
  5 16  1  0  0  0  0
  8  7  1  1  0  0  0
  8 10  1  0  0  0  0
 10  1  1  6  0  0  0
 10 12  1  0  0  0  0
 11 18  1  0  0  0  0
 12 14  1  0  0  0  0
 14  2  1  6  0  0  0
 14 16  1  0  0  0  0
 16  9  1  1  0  0  0
 17  9  1  1  0  0  0
 17 11  1  0  0  0  0
 17 22  1  0  0  0  0
 18 19  1  1  0  0  0
 18 20  1  0  0  0  0
 19  3  1  0  0  0  0
 20 13  1  1  0  0  0
 20 21  1  0  0  0  0
 21 15  1  6  0  0  0
 21 22  1  0  0  0  0
 22  6  1  6  0  0  0
M  END
>  <CHROM.1>
167.90264952,164.70785432,70.23437355,20.71750363,15.11012299,37.04859742
-1.02739390,-0.36343253,2.60122450

>  <Name>
2et8_lig

>  <RI>
3.42619e+07

>  <Rbt.Current_Directory>
/home/itssahil/PROJECTS/Mol_Feturizer/New_Systems/rnas/2et8

>  <Rbt.Executable>
rbdock ($Id: //depot/dev/client3/rdock/2013.1/src/exe/rbdock.cxx#4 $)

>  <Rbt.Library>
libRbt.so (2013.1, Build901 2013/11/27)

>  <Rbt.Parameter_File>
/export/apps/rDock/src/rDock_2013.1_src/data/scripts/dock_solv.prm

>  <Rbt.Receptor>
prm/pocket_docking_4.prm

>  <SCORE>
-13.7644

>  <SCORE.INTER>
-12.6643

>  <SCORE.INTER.CONST>
1

>  <SCORE.INTER.POLAR>
-1.07718

>  <SCORE.INTER.ROT>
3

>  <SCORE.INTER.SOLV>
12.6575

>  <SCORE.INTER.VDW>
-14.6714

>  <SCORE.INTER.norm>
-0.575649

>  <SCORE.INTRA>
-1.10015

>  <SCORE.INTRA.DIHEDRAL>
-2.68392

>  <SCORE.INTRA.DIHEDRAL.0>
4.99603

>  <SCORE.INTRA.POLAR>
0

>  <SCORE.INTRA.POLAR.0>
0

>  <SCORE.INTRA.REPUL>
0

>  <SCORE.INTRA.REPUL.0>
0

>  <SCORE.INTRA.SOLV>
1.66586

>  <SCORE.INTRA.SOLV.lig_0>
-74.884

>  <SCORE.INTRA.VDW>
-0.591118

>  <SCORE.INTRA.VDW.0>
-0.858933

>  <SCORE.INTRA.norm>
-0.0500067

>  <SCORE.RESTR>
0

>  <SCORE.RESTR.CAVITY>
0

>  <SCORE.RESTR.norm>
0

>  <SCORE.SYSTEM>
0

>  <SCORE.SYSTEM.CONST>
0

>  <SCORE.SYSTEM.DIHEDRAL>
0

>  <SCORE.SYSTEM.SOLV>
0

>  <SCORE.SYSTEM.norm>
0

>  <SCORE.heavy>
22

>  <SCORE.norm>
-0.625656

>  <RMSD>
2.422

$$$$
2et8_lig
 OpenBabel11021811433D
libRbt.so/2013.1/901 2013/11/27
 22 23  0  0  0  0  0  0  0  0999 V2000
   23.2305   18.8383   33.6830 N   0  0  0  0  0  0  0  0  0  0  0  0
   21.2845   14.2871   34.0098 N   0  0  0  0  0  0  0  0  0  0  0  0
   21.9906   11.3966   39.7115 N   0  0  0  0  0  0  0  0  0  0  0  0
   21.1954   17.2859   37.8989 O   0  0  0  0  0  0  0  0  0  0  0  0
   21.9505   16.8479   36.7425 C   0  0  2  0  0  0  0  0  0  0  0  0
   18.1288   15.2933   36.0176 N   0  0  0  0  0  0  0  0  0  0  0  0
   22.9324   19.1186   36.4525 O   0  0  0  0  0  0  0  0  0  0  0  0
   22.2056   18.0768   35.7887 C   0  0  1  0  0  0  0  0  0  0  0  0
   20.9427   14.6961   36.8086 O   0  0  0  0  0  0  0  0  0  0  0  0
   23.0038   17.6539   34.5799 C   0  0  1  0  0  0  0  0  0  0  0  0
   20.3430   12.5813   37.4947 O   0  0  0  0  0  0  0  0  0  0  0  0
   22.2375   16.5404   33.8295 C   0  0  0  0  0  0  0  0  0  0  0  0
   18.6783   13.7411   40.5286 O   0  0  0  0  0  0  0  0  0  0  0  0
   22.0311   15.3489   34.8098 C   0  0  1  0  0  0  0  0  0  0  0  0
   17.0328   14.9026   38.5842 O   0  0  0  0  0  0  0  0  0  0  0  0
   21.1400   15.7481   35.9483 C   0  0  2  0  0  0  0  0  0  0  0  0
   19.9892   13.7211   36.5403 C   0  0  1  0  0  0  0  0  0  0  0  0
   20.2113   12.9593   38.9352 C   0  0  2  0  0  0  0  0  0  0  0  0
   20.5538   11.7609   39.8444 C   0  0  0  0  0  0  0  0  0  0  0  0
   18.7949   13.3776   39.1950 C   0  0  2  0  0  0  0  0  0  0  0  0
   18.3964   14.5365   38.3280 C   0  0  1  0  0  0  0  0  0  0  0  0
   18.5357   14.1400   36.8984 C   0  0  1  0  0  0  0  0  0  0  0  0
  5  4  1  1  0  0  0
  5  8  1  0  0  0  0
  5 16  1  0  0  0  0
  8  7  1  1  0  0  0
  8 10  1  0  0  0  0
 10  1  1  6  0  0  0
 10 12  1  0  0  0  0
 11 18  1  0  0  0  0
 12 14  1  0  0  0  0
 14  2  1  6  0  0  0
 14 16  1  0  0  0  0
 16  9  1  1  0  0  0
 17  9  1  1  0  0  0
 17 11  1  0  0  0  0
 17 22  1  0  0  0  0
 18 19  1  1  0  0  0
 18 20  1  0  0  0  0
 19  3  1  0  0  0  0
 20 13  1  1  0  0  0
 20 21  1  0  0  0  0
 21 15  1  6  0  0  0
 21 22  1  0  0  0  0
 22  6  1  6  0  0  0
M  END
>  <CHROM.1>
163.66218662,165.23200216,65.97292187,20.65599901,15.13591461,36.98226469
-0.99468412,-0.58353010,2.75157187

>  <Name>
2et8_lig

>  <RI>
0

>  <Rbt.Current_Directory>
/home/itssahil/PROJECTS/Mol_Feturizer/New_Systems/rnas/2et8

>  <Rbt.Executable>
rbdock ($Id: //depot/dev/client3/rdock/2013.1/src/exe/rbdock.cxx#4 $)

>  <Rbt.Library>
libRbt.so (2013.1, Build901 2013/11/27)

>  <Rbt.Parameter_File>
/export/apps/rDock/src/rDock_2013.1_src/data/scripts/dock_solv.prm

>  <Rbt.Receptor>
prm/pocket_docking_5.prm

>  <SCORE>
-13.9812

>  <SCORE.INTER>
-12.7982

>  <SCORE.INTER.CONST>
1

>  <SCORE.INTER.POLAR>
-1.15517

>  <SCORE.INTER.ROT>
3

>  <SCORE.INTER.SOLV>
12.8604

>  <SCORE.INTER.VDW>
-14.5684

>  <SCORE.INTER.norm>
-0.581735

>  <SCORE.INTRA>
-1.18299

>  <SCORE.INTRA.DIHEDRAL>
-2.47097

>  <SCORE.INTRA.DIHEDRAL.0>
4.99603

>  <SCORE.INTRA.POLAR>
0

>  <SCORE.INTRA.POLAR.0>
0

>  <SCORE.INTRA.REPUL>
0

>  <SCORE.INTRA.REPUL.0>
0

>  <SCORE.INTRA.SOLV>
1.57345

>  <SCORE.INTRA.SOLV.lig_0>
-74.884

>  <SCORE.INTRA.VDW>
-0.73423

>  <SCORE.INTRA.VDW.0>
-0.858933

>  <SCORE.INTRA.norm>
-0.0537724

>  <SCORE.RESTR>
0

>  <SCORE.RESTR.CAVITY>
0

>  <SCORE.RESTR.norm>
0

>  <SCORE.SYSTEM>
0

>  <SCORE.SYSTEM.CONST>
0

>  <SCORE.SYSTEM.DIHEDRAL>
0

>  <SCORE.SYSTEM.SOLV>
0

>  <SCORE.SYSTEM.norm>
0

>  <SCORE.heavy>
22

>  <SCORE.norm>
-0.635507

>  <RMSD>
2.473

$$$$
2et8_lig
 OpenBabel11021811433D
libRbt.so/2013.1/901 2013/11/27
 22 23  0  0  0  0  0  0  0  0999 V2000
   23.0954   20.0406   34.9607 N   0  0  0  0  0  0  0  0  0  0  0  0
   22.2313   15.1687   34.6056 N   0  0  0  0  0  0  0  0  0  0  0  0
   21.5067   10.4476   39.2385 N   0  0  0  0  0  0  0  0  0  0  0  0
   21.1207   17.5689   38.7446 O   0  0  0  0  0  0  0  0  0  0  0  0
   22.0525   17.4542   37.6410 C   0  0  2  0  0  0  0  0  0  0  0  0
   18.7298   15.0702   36.4549 N   0  0  0  0  0  0  0  0  0  0  0  0
   22.5051   19.9029   37.6939 O   0  0  0  0  0  0  0  0  0  0  0  0
   22.0978   18.8176   36.8511 C   0  0  1  0  0  0  0  0  0  0  0  0
   21.5665   15.1425   37.3759 O   0  0  0  0  0  0  0  0  0  0  0  0
   23.0722   18.7333   35.7021 C   0  0  1  0  0  0  0  0  0  0  0  0
   21.5716   12.8583   37.6676 O   0  0  0  0  0  0  0  0  0  0  0  0
   22.6505   17.5808   34.7620 C   0  0  0  0  0  0  0  0  0  0  0  0
   19.5363   12.9658   40.6953 O   0  0  0  0  0  0  0  0  0  0  0  0
   22.6416   16.2609   35.5872 C   0  0  1  0  0  0  0  0  0  0  0  0
   17.6990   13.9504   38.8266 O   0  0  0  0  0  0  0  0  0  0  0  0
   21.5885   16.3105   36.6541 C   0  0  2  0  0  0  0  0  0  0  0  0
   20.9417   14.0051   36.8782 C   0  0  1  0  0  0  0  0  0  0  0  0
   21.2854   12.9276   39.1334 C   0  0  2  0  0  0  0  0  0  0  0  0
   21.9229   11.7301   39.8682 C   0  0  0  0  0  0  0  0  0  0  0  0
   19.8001   12.8874   39.3358 C   0  0  2  0  0  0  0  0  0  0  0  0
   19.1187   14.0246   38.6316 C   0  0  1  0  0  0  0  0  0  0  0  0
   19.4171   13.9382   37.1742 C   0  0  1  0  0  0  0  0  0  0  0  0
  5  4  1  1  0  0  0
  5  8  1  0  0  0  0
  5 16  1  0  0  0  0
  8  7  1  1  0  0  0
  8 10  1  0  0  0  0
 10  1  1  6  0  0  0
 10 12  1  0  0  0  0
 11 18  1  0  0  0  0
 12 14  1  0  0  0  0
 14  2  1  6  0  0  0
 14 16  1  0  0  0  0
 16  9  1  1  0  0  0
 17  9  1  1  0  0  0
 17 11  1  0  0  0  0
 17 22  1  0  0  0  0
 18 19  1  1  0  0  0
 18 20  1  0  0  0  0
 19  3  1  0  0  0  0
 20 13  1  1  0  0  0
 20 21  1  0  0  0  0
 21 15  1  6  0  0  0
 21 22  1  0  0  0  0
 22  6  1  6  0  0  0
M  END
>  <CHROM.1>
166.59927759,159.30702651,-53.18269072,21.16831256,15.34973609,37.51968012
-1.06405027,-0.83550255,3.06174870

>  <Name>
2et8_lig

>  <RI>
0

>  <Rbt.Current_Directory>
/home/itssahil/PROJECTS/Mol_Feturizer/New_Systems/rnas/2et8

>  <Rbt.Executable>
rbdock ($Id: //depot/dev/client3/rdock/2013.1/src/exe/rbdock.cxx#4 $)

>  <Rbt.Library>
libRbt.so (2013.1, Build901 2013/11/27)

>  <Rbt.Parameter_File>
/export/apps/rDock/src/rDock_2013.1_src/data/scripts/dock_solv.prm

>  <Rbt.Receptor>
prm/pocket_docking_5.prm

>  <SCORE>
-8.96699

>  <SCORE.INTER>
-8.83072

>  <SCORE.INTER.CONST>
1

>  <SCORE.INTER.POLAR>
-0.959166

>  <SCORE.INTER.ROT>
3

>  <SCORE.INTER.SOLV>
13.7374

>  <SCORE.INTER.VDW>
-12.8691

>  <SCORE.INTER.norm>
-0.401397

>  <SCORE.INTRA>
-0.136264

>  <SCORE.INTRA.DIHEDRAL>
-1.93931

>  <SCORE.INTRA.DIHEDRAL.0>
4.99603

>  <SCORE.INTRA.POLAR>
0

>  <SCORE.INTRA.POLAR.0>
0

>  <SCORE.INTRA.REPUL>
0

>  <SCORE.INTRA.REPUL.0>
0

>  <SCORE.INTRA.SOLV>
2.85411

>  <SCORE.INTRA.SOLV.lig_0>
-74.884

>  <SCORE.INTRA.VDW>
-0.593665

>  <SCORE.INTRA.VDW.0>
-0.858933

>  <SCORE.INTRA.norm>
-0.00619381

>  <SCORE.RESTR>
0

>  <SCORE.RESTR.CAVITY>
0

>  <SCORE.RESTR.norm>
0

>  <SCORE.SYSTEM>
0

>  <SCORE.SYSTEM.CONST>
0

>  <SCORE.SYSTEM.DIHEDRAL>
0

>  <SCORE.SYSTEM.SOLV>
0

>  <SCORE.SYSTEM.norm>
0

>  <SCORE.heavy>
22

>  <SCORE.norm>
-0.40759

>  <RMSD>
2.475

$$$$
2et8_lig
 OpenBabel11021811433D
libRbt.so/2013.1/901 2013/11/27
 22 23  0  0  0  0  0  0  0  0999 V2000
   23.0133   17.9006   33.4289 N   0  0  0  0  0  0  0  0  0  0  0  0
   20.2063   13.9738   34.5729 N   0  0  0  0  0  0  0  0  0  0  0  0
   22.5779   10.3151   40.1138 N   0  0  0  0  0  0  0  0  0  0  0  0
   22.3078   16.6183   38.1389 O   0  0  0  0  0  0  0  0  0  0  0  0
   22.4534   16.0867   36.7990 C   0  0  2  0  0  0  0  0  0  0  0  0
   18.3506   15.0844   38.3454 N   0  0  0  0  0  0  0  0  0  0  0  0
   23.8179   18.0519   36.1061 O   0  0  0  0  0  0  0  0  0  0  0  0
   22.6570   17.2756   35.7841 C   0  0  1  0  0  0  0  0  0  0  0  0
   21.0158   14.2583   37.2898 O   0  0  0  0  0  0  0  0  0  0  0  0
   22.8262   16.7514   34.3793 C   0  0  1  0  0  0  0  0  0  0  0  0
   20.4481   12.0352   37.4841 O   0  0  0  0  0  0  0  0  0  0  0  0
   21.5800   15.9219   33.9932 C   0  0  0  0  0  0  0  0  0  0  0  0
   20.7579   11.9919   41.1205 O   0  0  0  0  0  0  0  0  0  0  0  0
   21.4394   14.7549   35.0138 C   0  0  1  0  0  0  0  0  0  0  0  0
   18.6186   13.7734   40.8255 O   0  0  0  0  0  0  0  0  0  0  0  0
   21.1553   15.2846   36.3880 C   0  0  2  0  0  0  0  0  0  0  0  0
   19.8904   13.4429   37.2776 C   0  0  1  0  0  0  0  0  0  0  0  0
   21.1212   11.8585   38.8074 C   0  0  2  0  0  0  0  0  0  0  0  0
   21.6358   10.4127   38.9659 C   0  0  0  0  0  0  0  0  0  0  0  0
   20.1277   12.1428   39.8941 C   0  0  2  0  0  0  0  0  0  0  0  0
   19.5790   13.5359   39.7861 C   0  0  1  0  0  0  0  0  0  0  0  0
   18.9142   13.6916   38.4616 C   0  0  1  0  0  0  0  0  0  0  0  0
  5  4  1  1  0  0  0
  5  8  1  0  0  0  0
  5 16  1  0  0  0  0
  8  7  1  1  0  0  0
  8 10  1  0  0  0  0
 10  1  1  6  0  0  0
 10 12  1  0  0  0  0
 11 18  1  0  0  0  0
 12 14  1  0  0  0  0
 14  2  1  6  0  0  0
 14 16  1  0  0  0  0
 16  9  1  1  0  0  0
 17  9  1  1  0  0  0
 17 11  1  0  0  0  0
 17 22  1  0  0  0  0
 18 19  1  1  0  0  0
 18 20  1  0  0  0  0
 19  3  1  0  0  0  0
 20 13  1  1  0  0  0
 20 21  1  0  0  0  0
 21 15  1  1  0  0  0
 21 22  1  0  0  0  0
 22  6  1  6  0  0  0
M  END
>  <CHROM.1>
173.67543096,137.66157787,166.40494774,21.11834606,14.32540045,37.45448035
-1.05661341,-0.91650116,2.77983357

>  <Name>
2et8_lig

>  <RI>
0

>  <Rbt.Current_Directory>
/home/itssahil/PROJECTS/Mol_Feturizer/New_Systems/rnas/2et8

>  <Rbt.Executable>
rbdock ($Id: //depot/dev/client3/rdock/2013.1/src/exe/rbdock.cxx#4 $)

>  <Rbt.Library>
libRbt.so (2013.1, Build901 2013/11/27)

>  <Rbt.Parameter_File>
/export/apps/rDock/src/rDock_2013.1_src/data/scripts/dock_solv.prm

>  <Rbt.Receptor>
prm/pocket_docking_3.prm

>  <SCORE>
-11.462

>  <SCORE.INTER>
-13.0005

>  <SCORE.INTER.CONST>
1

>  <SCORE.INTER.POLAR>
-0.959166

>  <SCORE.INTER.ROT>
3

>  <SCORE.INTER.SOLV>
13.818

>  <SCORE.INTER.VDW>
-15.6758

>  <SCORE.INTER.norm>
-0.590932

>  <SCORE.INTRA>
1.53849

>  <SCORE.INTRA.DIHEDRAL>
1.65928

>  <SCORE.INTRA.DIHEDRAL.0>
4.99603

>  <SCORE.INTRA.POLAR>
0

>  <SCORE.INTRA.POLAR.0>
0

>  <SCORE.INTRA.REPUL>
0

>  <SCORE.INTRA.REPUL.0>
0

>  <SCORE.INTRA.SOLV>
1.59246

>  <SCORE.INTRA.SOLV.lig_0>
-74.884

>  <SCORE.INTRA.VDW>
-0.0873832

>  <SCORE.INTRA.VDW.0>
-0.858933

>  <SCORE.INTRA.norm>
0.0699312

>  <SCORE.RESTR>
0

>  <SCORE.RESTR.CAVITY>
0

>  <SCORE.RESTR.norm>
0

>  <SCORE.SYSTEM>
0

>  <SCORE.SYSTEM.CONST>
0

>  <SCORE.SYSTEM.DIHEDRAL>
0

>  <SCORE.SYSTEM.SOLV>
0

>  <SCORE.SYSTEM.norm>
0

>  <SCORE.heavy>
22

>  <SCORE.norm>
-0.521001

>  <RMSD>
2.564

$$$$
2et8_lig
 OpenBabel11021811433D
libRbt.so/2013.1/901 2013/11/27
 22 23  0  0  0  0  0  0  0  0999 V2000
   22.9057   18.9080   33.5872 N   0  0  0  0  0  0  0  0  0  0  0  0
   21.2055   14.2639   33.9747 N   0  0  0  0  0  0  0  0  0  0  0  0
   22.0014   11.4333   39.6562 N   0  0  0  0  0  0  0  0  0  0  0  0
   20.9357   17.3112   37.8176 O   0  0  0  0  0  0  0  0  0  0  0  0
   21.7191   16.8974   36.6711 C   0  0  2  0  0  0  0  0  0  0  0  0
   17.9849   15.2067   36.0204 N   0  0  0  0  0  0  0  0  0  0  0  0
   22.5789   19.2130   36.3508 O   0  0  0  0  0  0  0  0  0  0  0  0
   21.9126   18.1238   35.6998 C   0  0  1  0  0  0  0  0  0  0  0  0
   20.8281   14.6956   36.7655 O   0  0  0  0  0  0  0  0  0  0  0  0
   22.7384   17.7265   34.5010 C   0  0  1  0  0  0  0  0  0  0  0  0
   20.2969   12.5783   37.4986 O   0  0  0  0  0  0  0  0  0  0  0  0
   22.0368   16.5624   33.7644 C   0  0  0  0  0  0  0  0  0  0  0  0
   18.6615   13.7472   40.5450 O   0  0  0  0  0  0  0  0  0  0  0  0
   21.8899   15.3762   34.7617 C   0  0  1  0  0  0  0  0  0  0  0  0
   16.9491   14.8323   38.6143 O   0  0  0  0  0  0  0  0  0  0  0  0
   20.9728   15.7438   35.8903 C   0  0  2  0  0  0  0  0  0  0  0  0
   19.8953   13.6920   36.5325 C   0  0  1  0  0  0  0  0  0  0  0  0
   20.1833   12.9776   38.9349 C   0  0  2  0  0  0  0  0  0  0  0  0
   20.5743   11.8042   39.8572 C   0  0  0  0  0  0  0  0  0  0  0  0
   18.7618   13.3638   39.2157 C   0  0  2  0  0  0  0  0  0  0  0  0
   18.3166   14.4970   38.3374 C   0  0  1  0  0  0  0  0  0  0  0  0
   18.4385   14.0797   36.9121 C   0  0  1  0  0  0  0  0  0  0  0  0
  5  4  1  1  0  0  0
  5  8  1  0  0  0  0
  5 16  1  0  0  0  0
  8  7  1  1  0  0  0
  8 10  1  0  0  0  0
 10  1  1  6  0  0  0
 10 12  1  0  0  0  0
 11 18  1  0  0  0  0
 12 14  1  0  0  0  0
 14  2  1  6  0  0  0
 14 16  1  0  0  0  0
 16  9  1  1  0  0  0
 17  9  1  1  0  0  0
 17 11  1  0  0  0  0
 17 22  1  0  0  0  0
 18 19  1  1  0  0  0
 18 20  1  0  0  0  0
 19  3  1  0  0  0  0
 20 13  1  1  0  0  0
 20 21  1  0  0  0  0
 21 15  1  1  0  0  0
 21 22  1  0  0  0  0
 22  6  1  6  0  0  0
M  END
>  <CHROM.1>
161.29508779,165.83108270,63.35321037,20.51852719,15.14423915,36.94957245
-1.02067466,-0.64046444,2.75450189

>  <Name>
2et8_lig

>  <RI>
0

>  <Rbt.Current_Directory>
/home/itssahil/PROJECTS/Mol_Feturizer/New_Systems/rnas/2et8

>  <Rbt.Executable>
rbdock ($Id: //depot/dev/client3/rdock/2013.1/src/exe/rbdock.cxx#4 $)

>  <Rbt.Library>
libRbt.so (2013.1, Build901 2013/11/27)

>  <Rbt.Parameter_File>
/export/apps/rDock/src/rDock_2013.1_src/data/scripts/dock_solv.prm

>  <Rbt.Receptor>
prm/pocket_docking_5.prm

>  <SCORE>
-13.9931

>  <SCORE.INTER>
-12.8197

>  <SCORE.INTER.CONST>
1

>  <SCORE.INTER.POLAR>
-1.15871

>  <SCORE.INTER.ROT>
3

>  <SCORE.INTER.SOLV>
12.7876

>  <SCORE.INTER.VDW>
-14.5466

>  <SCORE.INTER.norm>
-0.582713

>  <SCORE.INTRA>
-1.17342

>  <SCORE.INTRA.DIHEDRAL>
-2.29143

>  <SCORE.INTRA.DIHEDRAL.0>
4.99603

>  <SCORE.INTRA.POLAR>
0

>  <SCORE.INTRA.POLAR.0>
0

>  <SCORE.INTRA.REPUL>
0

>  <SCORE.INTRA.REPUL.0>
0

>  <SCORE.INTRA.SOLV>
1.54522

>  <SCORE.INTRA.SOLV.lig_0>
-74.884

>  <SCORE.INTRA.VDW>
-0.800309

>  <SCORE.INTRA.VDW.0>
-0.858933

>  <SCORE.INTRA.norm>
-0.0533372

>  <SCORE.RESTR>
0

>  <SCORE.RESTR.CAVITY>
0

>  <SCORE.RESTR.norm>
0

>  <SCORE.SYSTEM>
0

>  <SCORE.SYSTEM.CONST>
0

>  <SCORE.SYSTEM.DIHEDRAL>
0

>  <SCORE.SYSTEM.SOLV>
0

>  <SCORE.SYSTEM.norm>
0

>  <SCORE.heavy>
22

>  <SCORE.norm>
-0.636051

>  <RMSD>
2.575

$$$$
2et8_lig
 OpenBabel11021811433D
libRbt.so/2013.1/901 2013/11/27
 22 23  0  0  0  0  0  0  0  0999 V2000
   22.9217   19.2722   33.8506 N   0  0  0  0  0  0  0  0  0  0  0  0
   21.2709   14.5943   33.8610 N   0  0  0  0  0  0  0  0  0  0  0  0
   21.5499   11.5566   40.5355 N   0  0  0  0  0  0  0  0  0  0  0  0
   20.9546   17.3238   37.9324 O   0  0  0  0  0  0  0  0  0  0  0  0
   21.7464   17.0106   36.7601 C   0  0  2  0  0  0  0  0  0  0  0  0
   17.9541   15.3485   36.4707 N   0  0  0  0  0  0  0  0  0  0  0  0
   22.5821   19.3533   36.6284 O   0  0  0  0  0  0  0  0  0  0  0  0
   21.9299   18.3123   35.8901 C   0  0  1  0  0  0  0  0  0  0  0  0
   20.8791   14.7990   36.6757 O   0  0  0  0  0  0  0  0  0  0  0  0
   22.7641   18.0202   34.6671 C   0  0  1  0  0  0  0  0  0  0  0  0
   20.4737   12.5618   37.0406 O   0  0  0  0  0  0  0  0  0  0  0  0
   22.0778   16.9109   33.8374 C   0  0  0  0  0  0  0  0  0  0  0  0
   19.3080   13.0512   40.4644 O   0  0  0  0  0  0  0  0  0  0  0  0
   21.9404   15.6477   34.7367 C   0  0  1  0  0  0  0  0  0  0  0  0
   17.3205   14.4354   39.0604 O   0  0  0  0  0  0  0  0  0  0  0  0
   21.0155   15.9149   35.8870 C   0  0  2  0  0  0  0  0  0  0  0  0
   19.9266   13.8294   36.3855 C   0  0  1  0  0  0  0  0  0  0  0  0
   20.5748   12.6664   38.5286 C   0  0  2  0  0  0  0  0  0  0  0  0
   21.1051   11.3487   39.1307 C   0  0  0  0  0  0  0  0  0  0  0  0
   19.2096   12.9406   39.0852 C   0  0  2  0  0  0  0  0  0  0  0  0
   18.6326   14.2084   38.5256 C   0  0  1  0  0  0  0  0  0  0  0  0
   18.5415   14.0843   37.0434 C   0  0  1  0  0  0  0  0  0  0  0  0
  5  4  1  1  0  0  0
  5  8  1  0  0  0  0
  5 16  1  0  0  0  0
  8  7  1  1  0  0  0
  8 10  1  0  0  0  0
 10  1  1  6  0  0  0
 10 12  1  0  0  0  0
 11 18  1  0  0  0  0
 12 14  1  0  0  0  0
 14  2  1  6  0  0  0
 14 16  1  0  0  0  0
 16  9  1  1  0  0  0
 17  9  1  1  0  0  0
 17 11  1  0  0  0  0
 17 22  1  0  0  0  0
 18 19  1  1  0  0  0
 18 20  1  0  0  0  0
 19  3  1  0  0  0  0
 20 13  1  1  0  0  0
 20 21  1  0  0  0  0
 21 15  1  1  0  0  0
 21 22  1  0  0  0  0
 22  6  1  6  0  0  0
M  END
>  <CHROM.1>
159.06510337,155.94446021,164.83900432,20.65262703,15.14531952,36.99986307
-0.86511187,-0.97140019,3.08543072

>  <Name>
2et8_lig

>  <RI>
3.14397e+07

>  <Rbt.Current_Directory>
/home/itssahil/PROJECTS/Mol_Feturizer/New_Systems/rnas/2et8

>  <Rbt.Executable>
rbdock ($Id: //depot/dev/client3/rdock/2013.1/src/exe/rbdock.cxx#4 $)

>  <Rbt.Library>
libRbt.so (2013.1, Build901 2013/11/27)

>  <Rbt.Parameter_File>
/export/apps/rDock/src/rDock_2013.1_src/data/scripts/dock_solv.prm

>  <Rbt.Receptor>
prm/pocket_docking_6.prm

>  <SCORE>
-12.721

>  <SCORE.INTER>
-13.2097

>  <SCORE.INTER.CONST>
1

>  <SCORE.INTER.POLAR>
-1.27825

>  <SCORE.INTER.ROT>
3

>  <SCORE.INTER.SOLV>
11.7596

>  <SCORE.INTER.VDW>
-14.0655

>  <SCORE.INTER.norm>
-0.60044

>  <SCORE.INTRA>
0.488633

>  <SCORE.INTRA.DIHEDRAL>
0.319252

>  <SCORE.INTRA.DIHEDRAL.0>
4.99603

>  <SCORE.INTRA.POLAR>
0

>  <SCORE.INTRA.POLAR.0>
0

>  <SCORE.INTRA.REPUL>
0

>  <SCORE.INTRA.REPUL.0>
0

>  <SCORE.INTRA.SOLV>
2.08349

>  <SCORE.INTRA.SOLV.lig_0>
-74.884

>  <SCORE.INTRA.VDW>
-0.712739

>  <SCORE.INTRA.VDW.0>
-0.858933

>  <SCORE.INTRA.norm>
0.0222106

>  <SCORE.RESTR>
0

>  <SCORE.RESTR.CAVITY>
0

>  <SCORE.RESTR.norm>
0

>  <SCORE.SYSTEM>
0

>  <SCORE.SYSTEM.CONST>
0

>  <SCORE.SYSTEM.DIHEDRAL>
0

>  <SCORE.SYSTEM.SOLV>
0

>  <SCORE.SYSTEM.norm>
0

>  <SCORE.heavy>
22

>  <SCORE.norm>
-0.578229

>  <RMSD>
2.582

$$$$
2et8_lig
 OpenBabel11021811433D
libRbt.so/2013.1/901 2013/11/27
 22 23  0  0  0  0  0  0  0  0999 V2000
   22.8389   18.8606   33.4801 N   0  0  0  0  0  0  0  0  0  0  0  0
   21.1105   14.2336   33.9392 N   0  0  0  0  0  0  0  0  0  0  0  0
   22.0021   11.4539   39.6225 N   0  0  0  0  0  0  0  0  0  0  0  0
   20.9150   17.3225   37.7532 O   0  0  0  0  0  0  0  0  0  0  0  0
   21.6797   16.8910   36.6007 C   0  0  2  0  0  0  0  0  0  0  0  0
   17.9180   15.2214   36.0468 N   0  0  0  0  0  0  0  0  0  0  0  0
   22.5519   19.1967   36.2446 O   0  0  0  0  0  0  0  0  0  0  0  0
   21.8689   18.1059   35.6141 C   0  0  1  0  0  0  0  0  0  0  0  0
   20.7742   14.6970   36.7302 O   0  0  0  0  0  0  0  0  0  0  0  0
   22.6755   17.6900   34.4085 C   0  0  1  0  0  0  0  0  0  0  0  0
   20.2483   12.5842   37.4799 O   0  0  0  0  0  0  0  0  0  0  0  0
   21.9556   16.5235   33.6936 C   0  0  0  0  0  0  0  0  0  0  0  0
   18.6867   13.7685   40.5588 O   0  0  0  0  0  0  0  0  0  0  0  0
   21.8136   15.3488   34.7052 C   0  0  1  0  0  0  0  0  0  0  0  0
   16.9378   14.8583   38.6638 O   0  0  0  0  0  0  0  0  0  0  0  0
   20.9146   15.7349   35.8421 C   0  0  2  0  0  0  0  0  0  0  0  0
   19.8312   13.6978   36.5202 C   0  0  1  0  0  0  0  0  0  0  0  0
   20.1685   12.9873   38.9174 C   0  0  2  0  0  0  0  0  0  0  0  0
   20.5736   11.8139   39.8335 C   0  0  0  0  0  0  0  0  0  0  0  0
   18.7555   13.3816   39.2285 C   0  0  2  0  0  0  0  0  0  0  0  0
   18.2970   14.5151   38.3576 C   0  0  1  0  0  0  0  0  0  0  0  0
   18.3853   14.0940   36.9310 C   0  0  1  0  0  0  0  0  0  0  0  0
  5  4  1  1  0  0  0
  5  8  1  0  0  0  0
  5 16  1  0  0  0  0
  8  7  1  1  0  0  0
  8 10  1  0  0  0  0
 10  1  1  6  0  0  0
 10 12  1  0  0  0  0
 11 18  1  0  0  0  0
 12 14  1  0  0  0  0
 14  2  1  6  0  0  0
 14 16  1  0  0  0  0
 16  9  1  1  0  0  0
 17  9  1  1  0  0  0
 17 11  1  0  0  0  0
 17 22  1  0  0  0  0
 18 19  1  1  0  0  0
 18 20  1  0  0  0  0
 19  3  1  0  0  0  0
 20 13  1  1  0  0  0
 20 21  1  0  0  0  0
 21 15  1  1  0  0  0
 21 22  1  0  0  0  0
 22  6  1  6  0  0  0
M  END
>  <CHROM.1>
161.30699337,165.13838243,64.54437295,20.47909422,15.14224912,36.91630697
-1.02376079,-0.65410610,2.74265148

>  <Name>
2et8_lig

>  <RI>
3.14397e+07

>  <Rbt.Current_Directory>
/home/itssahil/PROJECTS/Mol_Feturizer/New_Systems/rnas/2et8

>  <Rbt.Executable>
rbdock ($Id: //depot/dev/client3/rdock/2013.1/src/exe/rbdock.cxx#4 $)

>  <Rbt.Library>
libRbt.so (2013.1, Build901 2013/11/27)

>  <Rbt.Parameter_File>
/export/apps/rDock/src/rDock_2013.1_src/data/scripts/dock_solv.prm

>  <Rbt.Receptor>
prm/pocket_docking_6.prm

>  <SCORE>
-14.0191

>  <SCORE.INTER>
-12.8795

>  <SCORE.INTER.CONST>
1

>  <SCORE.INTER.POLAR>
-1.1301

>  <SCORE.INTER.ROT>
3

>  <SCORE.INTER.SOLV>
12.8648

>  <SCORE.INTER.VDW>
-14.7076

>  <SCORE.INTER.norm>
-0.58543

>  <SCORE.INTRA>
-1.13962

>  <SCORE.INTRA.DIHEDRAL>
-2.17139

>  <SCORE.INTRA.DIHEDRAL.0>
4.99603

>  <SCORE.INTRA.POLAR>
0

>  <SCORE.INTRA.POLAR.0>
0

>  <SCORE.INTRA.REPUL>
0

>  <SCORE.INTRA.REPUL.0>
0

>  <SCORE.INTRA.SOLV>
1.50117

>  <SCORE.INTRA.SOLV.lig_0>
-74.884

>  <SCORE.INTRA.VDW>
-0.804516

>  <SCORE.INTRA.VDW.0>
-0.858933

>  <SCORE.INTRA.norm>
-0.0518011

>  <SCORE.RESTR>
0

>  <SCORE.RESTR.CAVITY>
0

>  <SCORE.RESTR.norm>
0

>  <SCORE.SYSTEM>
0

>  <SCORE.SYSTEM.CONST>
0

>  <SCORE.SYSTEM.DIHEDRAL>
0

>  <SCORE.SYSTEM.SOLV>
0

>  <SCORE.SYSTEM.norm>
0

>  <SCORE.heavy>
22

>  <SCORE.norm>
-0.637231

>  <RMSD>
2.608

$$$$
2et8_lig
 OpenBabel11021811433D
libRbt.so/2013.1/901 2013/11/27
 22 23  0  0  0  0  0  0  0  0999 V2000
   22.5410   19.0631   33.4891 N   0  0  0  0  0  0  0  0  0  0  0  0
   20.0858   14.7778   33.9536 N   0  0  0  0  0  0  0  0  0  0  0  0
   21.5840   11.4614   40.5553 N   0  0  0  0  0  0  0  0  0  0  0  0
   21.9216   17.0046   37.9281 O   0  0  0  0  0  0  0  0  0  0  0  0
   22.1224   16.7035   36.5252 C   0  0  2  0  0  0  0  0  0  0  0  0
   17.9241   15.2767   36.5782 N   0  0  0  0  0  0  0  0  0  0  0  0
   23.3118   18.8634   36.1730 O   0  0  0  0  0  0  0  0  0  0  0  0
   22.2263   18.0494   35.7112 C   0  0  1  0  0  0  0  0  0  0  0  0
   20.8493   14.7034   36.6975 O   0  0  0  0  0  0  0  0  0  0  0  0
   22.4504   17.7677   34.2458 C   0  0  1  0  0  0  0  0  0  0  0  0
   20.4365   12.4708   37.0816 O   0  0  0  0  0  0  0  0  0  0  0  0
   21.2851   16.9040   33.7108 C   0  0  0  0  0  0  0  0  0  0  0  0
   19.3778   12.9803   40.5372 O   0  0  0  0  0  0  0  0  0  0  0  0
   21.2419   15.5842   34.5350 C   0  0  1  0  0  0  0  0  0  0  0  0
   17.3607   14.3768   39.1887 O   0  0  0  0  0  0  0  0  0  0  0  0
   20.9032   15.8661   35.9687 C   0  0  2  0  0  0  0  0  0  0  0  0
   19.8806   13.7409   36.4391 C   0  0  1  0  0  0  0  0  0  0  0  0
   20.5830   12.5791   38.5656 C   0  0  2  0  0  0  0  0  0  0  0  0
   21.1201   11.2588   39.1559 C   0  0  0  0  0  0  0  0  0  0  0  0
   19.2373   12.8664   39.1619 C   0  0  2  0  0  0  0  0  0  0  0  0
   18.6543   14.1373   38.6156 C   0  0  1  0  0  0  0  0  0  0  0  0
   18.5179   14.0094   37.1372 C   0  0  1  0  0  0  0  0  0  0  0  0
  5  4  1  1  0  0  0
  5  8  1  0  0  0  0
  5 16  1  0  0  0  0
  8  7  1  1  0  0  0
  8 10  1  0  0  0  0
 10  1  1  6  0  0  0
 10 12  1  0  0  0  0
 11 18  1  0  0  0  0
 12 14  1  0  0  0  0
 14  2  1  6  0  0  0
 14 16  1  0  0  0  0
 16  9  1  1  0  0  0
 17  9  1  1  0  0  0
 17 11  1  0  0  0  0
 17 22  1  0  0  0  0
 18 19  1  1  0  0  0
 18 20  1  0  0  0  0
 19  3  1  0  0  0  0
 20 13  1  1  0  0  0
 20 21  1  0  0  0  0
 21 15  1  1  0  0  0
 21 22  1  0  0  0  0
 22  6  1  6  0  0  0
M  END
>  <CHROM.1>
-179.51822817,161.21208095,165.93928847,20.61720092,15.01839550,36.95343682
1.16625426,-0.50619059,-0.92098482

>  <Name>
2et8_lig

>  <RI>
0

>  <Rbt.Current_Directory>
/home/itssahil/PROJECTS/Mol_Feturizer/New_Systems/rnas/2et8

>  <Rbt.Executable>
rbdock ($Id: //depot/dev/client3/rdock/2013.1/src/exe/rbdock.cxx#4 $)

>  <Rbt.Library>
libRbt.so (2013.1, Build901 2013/11/27)

>  <Rbt.Parameter_File>
/export/apps/rDock/src/rDock_2013.1_src/data/scripts/dock_solv.prm

>  <Rbt.Receptor>
prm/pocket_docking_3.prm

>  <SCORE>
-11.5219

>  <SCORE.INTER>
-12.1576

>  <SCORE.INTER.CONST>
1

>  <SCORE.INTER.POLAR>
-0.959166

>  <SCORE.INTER.ROT>
3

>  <SCORE.INTER.SOLV>
9.58471

>  <SCORE.INTER.VDW>
-13.7027

>  <SCORE.INTER.norm>
-0.552616

>  <SCORE.INTRA>
0.635637

>  <SCORE.INTRA.DIHEDRAL>
-2.55049

>  <SCORE.INTRA.DIHEDRAL.0>
4.99603

>  <SCORE.INTRA.POLAR>
0

>  <SCORE.INTRA.POLAR.0>
0

>  <SCORE.INTRA.REPUL>
0

>  <SCORE.INTRA.REPUL.0>
0

>  <SCORE.INTRA.SOLV>
3.27245

>  <SCORE.INTRA.SOLV.lig_0>
-74.884

>  <SCORE.INTRA.VDW>
0.274657

>  <SCORE.INTRA.VDW.0>
-0.858933

>  <SCORE.INTRA.norm>
0.0288926

>  <SCORE.RESTR>
0

>  <SCORE.RESTR.CAVITY>
0

>  <SCORE.RESTR.norm>
0

>  <SCORE.SYSTEM>
0

>  <SCORE.SYSTEM.CONST>
0

>  <SCORE.SYSTEM.DIHEDRAL>
0

>  <SCORE.SYSTEM.SOLV>
0

>  <SCORE.SYSTEM.norm>
0

>  <SCORE.heavy>
22

>  <SCORE.norm>
-0.523724

>  <RMSD>
2.696

$$$$
2et8_lig
 OpenBabel11021811433D
libRbt.so/2013.1/901 2013/11/27
 22 23  0  0  0  0  0  0  0  0999 V2000
   22.5502   18.9413   33.5632 N   0  0  0  0  0  0  0  0  0  0  0  0
   20.5714   14.4026   33.8672 N   0  0  0  0  0  0  0  0  0  0  0  0
   21.9445   11.5034   39.8871 N   0  0  0  0  0  0  0  0  0  0  0  0
   21.3878   17.0089   37.9497 O   0  0  0  0  0  0  0  0  0  0  0  0
   21.8718   16.6771   36.6249 C   0  0  2  0  0  0  0  0  0  0  0  0
   18.0075   15.2268   36.0292 N   0  0  0  0  0  0  0  0  0  0  0  0
   22.8433   18.9537   36.3474 O   0  0  0  0  0  0  0  0  0  0  0  0
   21.9618   17.9900   35.7572 C   0  0  1  0  0  0  0  0  0  0  0  0
   20.8321   14.5408   36.7010 O   0  0  0  0  0  0  0  0  0  0  0  0
   22.4774   17.6778   34.3738 C   0  0  1  0  0  0  0  0  0  0  0  0
   20.1793   12.4949   37.5322 O   0  0  0  0  0  0  0  0  0  0  0  0
   21.5370   16.6517   33.7010 C   0  0  0  0  0  0  0  0  0  0  0  0
   18.7381   13.8876   40.5826 O   0  0  0  0  0  0  0  0  0  0  0  0
   21.5013   15.3727   34.5876 C   0  0  1  0  0  0  0  0  0  0  0  0
   17.0396   15.0219   38.6679 O   0  0  0  0  0  0  0  0  0  0  0  0
   20.8794   15.6693   35.9200 C   0  0  2  0  0  0  0  0  0  0  0  0
   19.8234   13.5988   36.5372 C   0  0  1  0  0  0  0  0  0  0  0  0
   20.1446   12.9532   38.9550 C   0  0  2  0  0  0  0  0  0  0  0  0
   20.4841   11.7890   39.9087 C   0  0  0  0  0  0  0  0  0  0  0  0
   18.7644   13.4501   39.2665 C   0  0  2  0  0  0  0  0  0  0  0  0
   18.3695   14.5796   38.3600 C   0  0  1  0  0  0  0  0  0  0  0  0
   18.4117   14.1033   36.9487 C   0  0  1  0  0  0  0  0  0  0  0  0
  5  4  1  1  0  0  0
  5  8  1  0  0  0  0
  5 16  1  0  0  0  0
  8  7  1  1  0  0  0
  8 10  1  0  0  0  0
 10  1  1  6  0  0  0
 10 12  1  0  0  0  0
 11 18  1  0  0  0  0
 12 14  1  0  0  0  0
 14  2  1  6  0  0  0
 14 16  1  0  0  0  0
 16  9  1  1  0  0  0
 17  9  1  1  0  0  0
 17 11  1  0  0  0  0
 17 22  1  0  0  0  0
 18 19  1  1  0  0  0
 18 20  1  0  0  0  0
 19  3  1  0  0  0  0
 20 13  1  1  0  0  0
 20 21  1  0  0  0  0
 21 15  1  1  0  0  0
 21 22  1  0  0  0  0
 22  6  1  6  0  0  0
M  END
>  <CHROM.1>
164.53652367,177.22260782,75.51061005,20.45919663,15.11817200,36.95839604
-1.13383392,0.40369018,2.19575864

>  <Name>
2et8_lig

>  <RI>
2.82936e+07

>  <Rbt.Current_Directory>
/home/itssahil/PROJECTS/Mol_Feturizer/New_Systems/rnas/2et8

>  <Rbt.Executable>
rbdock ($Id: //depot/dev/client3/rdock/2013.1/src/exe/rbdock.cxx#4 $)

>  <Rbt.Library>
libRbt.so (2013.1, Build901 2013/11/27)

>  <Rbt.Parameter_File>
/export/apps/rDock/src/rDock_2013.1_src/data/scripts/dock_solv.prm

>  <Rbt.Receptor>
prm/pocket_docking_8.prm

>  <SCORE>
-13.3465

>  <SCORE.INTER>
-12.4591

>  <SCORE.INTER.CONST>
1

>  <SCORE.INTER.POLAR>
-0.959166

>  <SCORE.INTER.ROT>
3

>  <SCORE.INTER.SOLV>
10.1875

>  <SCORE.INTER.VDW>
-14.1047

>  <SCORE.INTER.norm>
-0.566323

>  <SCORE.INTRA>
-0.88736

>  <SCORE.INTRA.DIHEDRAL>
-2.85462

>  <SCORE.INTRA.DIHEDRAL.0>
4.99603

>  <SCORE.INTRA.POLAR>
0

>  <SCORE.INTRA.POLAR.0>
0

>  <SCORE.INTRA.REPUL>
0

>  <SCORE.INTRA.REPUL.0>
0

>  <SCORE.INTRA.SOLV>
2.361

>  <SCORE.INTRA.SOLV.lig_0>
-74.884

>  <SCORE.INTRA.VDW>
-0.640548

>  <SCORE.INTRA.VDW.0>
-0.858933

>  <SCORE.INTRA.norm>
-0.0403345

>  <SCORE.RESTR>
0

>  <SCORE.RESTR.CAVITY>
0

>  <SCORE.RESTR.norm>
0

>  <SCORE.SYSTEM>
0

>  <SCORE.SYSTEM.CONST>
0

>  <SCORE.SYSTEM.DIHEDRAL>
0

>  <SCORE.SYSTEM.SOLV>
0

>  <SCORE.SYSTEM.norm>
0

>  <SCORE.heavy>
22

>  <SCORE.norm>
-0.606657

>  <RMSD>
2.696

$$$$
2et8_lig
 OpenBabel11021811433D
libRbt.so/2013.1/901 2013/11/27
 22 23  0  0  0  0  0  0  0  0999 V2000
   22.6290   17.6617   33.1721 N   0  0  0  0  0  0  0  0  0  0  0  0
   19.9783   13.7147   34.5871 N   0  0  0  0  0  0  0  0  0  0  0  0
   22.6758   10.2890   40.1405 N   0  0  0  0  0  0  0  0  0  0  0  0
   22.1924   16.5260   37.9518 O   0  0  0  0  0  0  0  0  0  0  0  0
   22.2831   15.9522   36.6244 C   0  0  2  0  0  0  0  0  0  0  0  0
   18.2997   14.9315   38.4222 N   0  0  0  0  0  0  0  0  0  0  0  0
   23.5634   17.9225   35.7982 O   0  0  0  0  0  0  0  0  0  0  0  0
   22.4067   17.1099   35.5617 C   0  0  1  0  0  0  0  0  0  0  0  0
   20.9164   14.1100   37.2482 O   0  0  0  0  0  0  0  0  0  0  0  0
   22.5176   16.5418   34.1682 C   0  0  1  0  0  0  0  0  0  0  0  0
   20.3999   11.8867   37.5520 O   0  0  0  0  0  0  0  0  0  0  0  0
   21.2738   15.6720   33.8739 C   0  0  0  0  0  0  0  0  0  0  0  0
   20.9120   11.9794   41.1645 O   0  0  0  0  0  0  0  0  0  0  0  0
   21.2128   14.5377   34.9383 C   0  0  1  0  0  0  0  0  0  0  0  0
   18.7284   13.7151   40.9278 O   0  0  0  0  0  0  0  0  0  0  0  0
   20.9857   15.1077   36.3071 C   0  0  2  0  0  0  0  0  0  0  0  0
   19.8067   13.2770   37.3279 C   0  0  1  0  0  0  0  0  0  0  0  0
   21.1485   11.7684   38.8408 C   0  0  2  0  0  0  0  0  0  0  0  0
   21.6968   10.3376   39.0208 C   0  0  0  0  0  0  0  0  0  0  0  0
   20.2121   12.0760   39.9709 C   0  0  2  0  0  0  0  0  0  0  0  0
   19.6335   13.4555   39.8451 C   0  0  1  0  0  0  0  0  0  0  0  0
   18.8936   13.5528   38.5553 C   0  0  1  0  0  0  0  0  0  0  0  0
  5  4  1  1  0  0  0
  5  8  1  0  0  0  0
  5 16  1  0  0  0  0
  8  7  1  1  0  0  0
  8 10  1  0  0  0  0
 10  1  1  6  0  0  0
 10 12  1  0  0  0  0
 11 18  1  0  0  0  0
 12 14  1  0  0  0  0
 14  2  1  6  0  0  0
 14 16  1  0  0  0  0
 16  9  1  1  0  0  0
 17  9  1  1  0  0  0
 17 11  1  0  0  0  0
 17 22  1  0  0  0  0
 18 19  1  1  0  0  0
 18 20  1  0  0  0  0
 19  3  1  0  0  0  0
 20 13  1  1  0  0  0
 20 21  1  0  0  0  0
 21 15  1  1  0  0  0
 21 22  1  0  0  0  0
 22  6  1  6  0  0  0
M  END
>  <CHROM.1>
173.12026999,137.85390176,167.91241750,21.02402925,14.18909580,37.40972370
-1.09229462,-1.00072950,2.72980052

>  <Name>
2et8_lig

>  <RI>
0

>  <Rbt.Current_Directory>
/home/itssahil/PROJECTS/Mol_Feturizer/New_Systems/rnas/2et8

>  <Rbt.Executable>
rbdock ($Id: //depot/dev/client3/rdock/2013.1/src/exe/rbdock.cxx#4 $)

>  <Rbt.Library>
libRbt.so (2013.1, Build901 2013/11/27)

>  <Rbt.Parameter_File>
/export/apps/rDock/src/rDock_2013.1_src/data/scripts/dock_solv.prm

>  <Rbt.Receptor>
prm/pocket_docking_5.prm

>  <SCORE>
-11.4883

>  <SCORE.INTER>
-12.9956

>  <SCORE.INTER.CONST>
1

>  <SCORE.INTER.POLAR>
-0.959166

>  <SCORE.INTER.ROT>
3

>  <SCORE.INTER.SOLV>
14.0378

>  <SCORE.INTER.VDW>
-15.7458

>  <SCORE.INTER.norm>
-0.590711

>  <SCORE.INTRA>
1.50735

>  <SCORE.INTRA.DIHEDRAL>
1.5358

>  <SCORE.INTRA.DIHEDRAL.0>
4.99603

>  <SCORE.INTRA.POLAR>
0

>  <SCORE.INTRA.POLAR.0>
0

>  <SCORE.INTRA.REPUL>
0

>  <SCORE.INTRA.REPUL.0>
0

>  <SCORE.INTRA.SOLV>
1.62518

>  <SCORE.INTRA.SOLV.lig_0>
-74.884

>  <SCORE.INTRA.VDW>
-0.0731417

>  <SCORE.INTRA.VDW.0>
-0.858933

>  <SCORE.INTRA.norm>
0.0685157

>  <SCORE.RESTR>
0

>  <SCORE.RESTR.CAVITY>
0

>  <SCORE.RESTR.norm>
0

>  <SCORE.SYSTEM>
0

>  <SCORE.SYSTEM.CONST>
0

>  <SCORE.SYSTEM.DIHEDRAL>
0

>  <SCORE.SYSTEM.SOLV>
0

>  <SCORE.SYSTEM.norm>
0

>  <SCORE.heavy>
22

>  <SCORE.norm>
-0.522195

>  <RMSD>
2.699

$$$$
2et8_lig
 OpenBabel11021811433D
libRbt.so/2013.1/901 2013/11/27
 22 23  0  0  0  0  0  0  0  0999 V2000
   22.4932   18.5321   33.2278 N   0  0  0  0  0  0  0  0  0  0  0  0
   20.3883   14.0856   33.8647 N   0  0  0  0  0  0  0  0  0  0  0  0
   21.8838   11.3288   39.8076 N   0  0  0  0  0  0  0  0  0  0  0  0
   21.4103   16.9037   37.7557 O   0  0  0  0  0  0  0  0  0  0  0  0
   21.8424   16.4779   36.4399 C   0  0  2  0  0  0  0  0  0  0  0  0
   17.9030   15.0554   36.0486 N   0  0  0  0  0  0  0  0  0  0  0  0
   22.8733   18.7015   35.9963 O   0  0  0  0  0  0  0  0  0  0  0  0
   21.9451   17.7331   35.4918 C   0  0  1  0  0  0  0  0  0  0  0  0
   20.7414   14.3845   36.6761 O   0  0  0  0  0  0  0  0  0  0  0  0
   22.4075   17.3223   34.1155 C   0  0  1  0  0  0  0  0  0  0  0  0
   20.1047   12.3686   37.5891 O   0  0  0  0  0  0  0  0  0  0  0  0
   21.4159   16.2885   33.5340 C   0  0  0  0  0  0  0  0  0  0  0  0
   18.7381   13.8642   40.6250 O   0  0  0  0  0  0  0  0  0  0  0  0
   21.3692   15.0666   34.4974 C   0  0  1  0  0  0  0  0  0  0  0  0
   16.9971   14.9395   38.7146 O   0  0  0  0  0  0  0  0  0  0  0  0
   20.7985   15.4622   35.8269 C   0  0  2  0  0  0  0  0  0  0  0  0
   19.7274   13.4402   36.5670 C   0  0  1  0  0  0  0  0  0  0  0  0
   20.1042   12.8733   38.9964 C   0  0  2  0  0  0  0  0  0  0  0  0
   20.4640   11.7402   39.9797 C   0  0  0  0  0  0  0  0  0  0  0  0
   18.7327   13.3838   39.3238 C   0  0  2  0  0  0  0  0  0  0  0  0
   18.3186   14.4840   38.3902 C   0  0  1  0  0  0  0  0  0  0  0  0
   18.3267   13.9615   36.9947 C   0  0  1  0  0  0  0  0  0  0  0  0
  5  4  1  1  0  0  0
  5  8  1  0  0  0  0
  5 16  1  0  0  0  0
  8  7  1  1  0  0  0
  8 10  1  0  0  0  0
 10  1  1  6  0  0  0
 10 12  1  0  0  0  0
 11 18  1  0  0  0  0
 12 14  1  0  0  0  0
 14  2  1  6  0  0  0
 14 16  1  0  0  0  0
 16  9  1  1  0  0  0
 17  9  1  1  0  0  0
 17 11  1  0  0  0  0
 17 22  1  0  0  0  0
 18 19  1  1  0  0  0
 18 20  1  0  0  0  0
 19  3  1  0  0  0  0
 20 13  1  1  0  0  0
 20 21  1  0  0  0  0
 21 15  1  1  0  0  0
 21 22  1  0  0  0  0
 22  6  1  6  0  0  0
M  END
>  <CHROM.1>
166.95935367,174.92793434,68.13981044,20.39994853,14.93434910,36.88538040
1.16271241,-0.20022542,-0.90578370

>  <Name>
2et8_lig

>  <RI>
0

>  <Rbt.Current_Directory>
/home/itssahil/PROJECTS/Mol_Feturizer/New_Systems/rnas/2et8

>  <Rbt.Executable>
rbdock ($Id: //depot/dev/client3/rdock/2013.1/src/exe/rbdock.cxx#4 $)

>  <Rbt.Library>
libRbt.so (2013.1, Build901 2013/11/27)

>  <Rbt.Parameter_File>
/export/apps/rDock/src/rDock_2013.1_src/data/scripts/dock_solv.prm

>  <Rbt.Receptor>
prm/pocket_docking_3.prm

>  <SCORE>
-13.8147

>  <SCORE.INTER>
-12.5909

>  <SCORE.INTER.CONST>
1

>  <SCORE.INTER.POLAR>
-0.959166

>  <SCORE.INTER.ROT>
3

>  <SCORE.INTER.SOLV>
11.774

>  <SCORE.INTER.VDW>
-14.7214

>  <SCORE.INTER.norm>
-0.572315

>  <SCORE.INTRA>
-1.22376

>  <SCORE.INTRA.DIHEDRAL>
-3.65747

>  <SCORE.INTRA.DIHEDRAL.0>
4.99603

>  <SCORE.INTRA.POLAR>
0

>  <SCORE.INTRA.POLAR.0>
0

>  <SCORE.INTRA.REPUL>
0

>  <SCORE.INTRA.REPUL.0>
0

>  <SCORE.INTRA.SOLV>
2.34724

>  <SCORE.INTRA.SOLV.lig_0>
-74.884

>  <SCORE.INTRA.VDW>
-0.568642

>  <SCORE.INTRA.VDW.0>
-0.858933

>  <SCORE.INTRA.norm>
-0.0556254

>  <SCORE.RESTR>
0

>  <SCORE.RESTR.CAVITY>
0

>  <SCORE.RESTR.norm>
0

>  <SCORE.SYSTEM>
0

>  <SCORE.SYSTEM.CONST>
0

>  <SCORE.SYSTEM.DIHEDRAL>
0

>  <SCORE.SYSTEM.SOLV>
0

>  <SCORE.SYSTEM.norm>
0

>  <SCORE.heavy>
22

>  <SCORE.norm>
-0.627941

>  <RMSD>
2.729

$$$$
2et8_lig
 OpenBabel11021811433D
libRbt.so/2013.1/901 2013/11/27
 22 23  0  0  0  0  0  0  0  0999 V2000
   22.4589   19.1436   33.4609 N   0  0  0  0  0  0  0  0  0  0  0  0
   21.1514   14.3751   33.8609 N   0  0  0  0  0  0  0  0  0  0  0  0
   22.0357   11.6215   39.5102 N   0  0  0  0  0  0  0  0  0  0  0  0
   20.4795   17.4359   37.6433 O   0  0  0  0  0  0  0  0  0  0  0  0
   21.3372   17.0769   36.5320 C   0  0  2  0  0  0  0  0  0  0  0  0
   17.7510   15.2391   36.0045 N   0  0  0  0  0  0  0  0  0  0  0  0
   22.0058   19.4540   36.2061 O   0  0  0  0  0  0  0  0  0  0  0  0
   21.4600   18.3032   35.5491 C   0  0  1  0  0  0  0  0  0  0  0  0
   20.6360   14.8077   36.6294 O   0  0  0  0  0  0  0  0  0  0  0  0
   22.3604   17.9637   34.3868 C   0  0  1  0  0  0  0  0  0  0  0  0
   20.1951   12.6770   37.3833 O   0  0  0  0  0  0  0  0  0  0  0  0
   21.7891   16.7341   33.6441 C   0  0  0  0  0  0  0  0  0  0  0  0
   18.6572   13.8024   40.4961 O   0  0  0  0  0  0  0  0  0  0  0  0
   21.7083   15.5523   34.6541 C   0  0  1  0  0  0  0  0  0  0  0  0
   16.8358   14.8381   38.6395 O   0  0  0  0  0  0  0  0  0  0  0  0
   20.7221   15.8534   35.7435 C   0  0  2  0  0  0  0  0  0  0  0  0
   19.7225   13.7784   36.4353 C   0  0  1  0  0  0  0  0  0  0  0  0
   20.1308   13.0742   38.8233 C   0  0  2  0  0  0  0  0  0  0  0  0
   20.5926   11.9128   39.7279 C   0  0  0  0  0  0  0  0  0  0  0  0
   18.7121   13.4210   39.1636 C   0  0  2  0  0  0  0  0  0  0  0  0
   18.1992   14.5406   38.3053 C   0  0  1  0  0  0  0  0  0  0  0  0
   18.2727   14.1258   36.8760 C   0  0  1  0  0  0  0  0  0  0  0  0
  5  4  1  1  0  0  0
  5  8  1  0  0  0  0
  5 16  1  0  0  0  0
  8  7  1  1  0  0  0
  8 10  1  0  0  0  0
 10  1  1  6  0  0  0
 10 12  1  0  0  0  0
 11 18  1  0  0  0  0
 12 14  1  0  0  0  0
 14  2  1  6  0  0  0
 14 16  1  0  0  0  0
 16  9  1  1  0  0  0
 17  9  1  1  0  0  0
 17 11  1  0  0  0  0
 17 22  1  0  0  0  0
 18 19  1  1  0  0  0
 18 20  1  0  0  0  0
 19  3  1  0  0  0  0
 20 13  1  1  0  0  0
 20 21  1  0  0  0  0
 21 15  1  1  0  0  0
 21 22  1  0  0  0  0
 22  6  1  6  0  0  0
M  END
>  <CHROM.1>
155.93099427,165.30213386,65.85968440,20.30978538,15.26625181,36.84806367
-1.07605360,-0.68167123,2.73538477

>  <Name>
2et8_lig

>  <RI>
2.82936e+07

>  <Rbt.Current_Directory>
/home/itssahil/PROJECTS/Mol_Feturizer/New_Systems/rnas/2et8

>  <Rbt.Executable>
rbdock ($Id: //depot/dev/client3/rdock/2013.1/src/exe/rbdock.cxx#4 $)

>  <Rbt.Library>
libRbt.so (2013.1, Build901 2013/11/27)

>  <Rbt.Parameter_File>
/export/apps/rDock/src/rDock_2013.1_src/data/scripts/dock_solv.prm

>  <Rbt.Receptor>
prm/pocket_docking_8.prm

>  <SCORE>
-13.9233

>  <SCORE.INTER>
-13.0175

>  <SCORE.INTER.CONST>
1

>  <SCORE.INTER.POLAR>
-1.2463

>  <SCORE.INTER.ROT>
3

>  <SCORE.INTER.SOLV>
12.074

>  <SCORE.INTER.VDW>
-14.1487

>  <SCORE.INTER.norm>
-0.591703

>  <SCORE.INTRA>
-0.905823

>  <SCORE.INTRA.DIHEDRAL>
-1.26217

>  <SCORE.INTRA.DIHEDRAL.0>
4.99603

>  <SCORE.INTRA.POLAR>
0

>  <SCORE.INTRA.POLAR.0>
0

>  <SCORE.INTRA.REPUL>
0

>  <SCORE.INTRA.REPUL.0>
0

>  <SCORE.INTRA.SOLV>
1.33801

>  <SCORE.INTRA.SOLV.lig_0>
-74.884

>  <SCORE.INTRA.VDW>
-0.943743

>  <SCORE.INTRA.VDW.0>
-0.858933

>  <SCORE.INTRA.norm>
-0.0411738

>  <SCORE.RESTR>
0

>  <SCORE.RESTR.CAVITY>
0

>  <SCORE.RESTR.norm>
0

>  <SCORE.SYSTEM>
0

>  <SCORE.SYSTEM.CONST>
0

>  <SCORE.SYSTEM.DIHEDRAL>
0

>  <SCORE.SYSTEM.SOLV>
0

>  <SCORE.SYSTEM.norm>
0

>  <SCORE.heavy>
22

>  <SCORE.norm>
-0.632877

>  <RMSD>
2.759

$$$$
2et8_lig
 OpenBabel11021811433D
libRbt.so/2013.1/901 2013/11/27
 22 23  0  0  0  0  0  0  0  0999 V2000
   22.5038   19.3342   33.4917 N   0  0  0  0  0  0  0  0  0  0  0  0
   21.1577   14.5661   33.7383 N   0  0  0  0  0  0  0  0  0  0  0  0
   21.9973   11.6506   39.3411 N   0  0  0  0  0  0  0  0  0  0  0  0
   20.5191   17.5067   37.6205 O   0  0  0  0  0  0  0  0  0  0  0  0
   21.3714   17.1773   36.4960 C   0  0  2  0  0  0  0  0  0  0  0  0
   17.7790   15.3516   35.8464 N   0  0  0  0  0  0  0  0  0  0  0  0
   22.0591   19.5582   36.2466 O   0  0  0  0  0  0  0  0  0  0  0  0
   21.5024   18.4340   35.5535 C   0  0  1  0  0  0  0  0  0  0  0  0
   20.6517   14.9119   36.5207 O   0  0  0  0  0  0  0  0  0  0  0  0
   22.3975   18.1255   34.3786 C   0  0  1  0  0  0  0  0  0  0  0  0
   20.2014   12.7622   37.2126 O   0  0  0  0  0  0  0  0  0  0  0  0
   21.8145   16.9255   33.5973 C   0  0  0  0  0  0  0  0  0  0  0  0
   18.5957   13.8069   40.3194 O   0  0  0  0  0  0  0  0  0  0  0  0
   21.7259   15.7120   34.5683 C   0  0  1  0  0  0  0  0  0  0  0  0
   16.8103   14.8836   38.4511 O   0  0  0  0  0  0  0  0  0  0  0  0
   20.7446   15.9853   35.6693 C   0  0  2  0  0  0  0  0  0  0  0  0
   19.7454   13.8855   36.2823 C   0  0  1  0  0  0  0  0  0  0  0  0
   20.1060   13.1236   38.6603 C   0  0  2  0  0  0  0  0  0  0  0  0
   20.5522   11.9414   39.5455 C   0  0  0  0  0  0  0  0  0  0  0  0
   18.6795   13.4585   38.9793 C   0  0  2  0  0  0  0  0  0  0  0  0
   18.1813   14.5977   38.1382 C   0  0  1  0  0  0  0  0  0  0  0  0
   18.2858   14.2184   36.7010 C   0  0  1  0  0  0  0  0  0  0  0  0
  5  4  1  1  0  0  0
  5  8  1  0  0  0  0
  5 16  1  0  0  0  0
  8  7  1  1  0  0  0
  8 10  1  0  0  0  0
 10  1  1  6  0  0  0
 10 12  1  0  0  0  0
 11 18  1  0  0  0  0
 12 14  1  0  0  0  0
 14  2  1  6  0  0  0
 14 16  1  0  0  0  0
 16  9  1  1  0  0  0
 17  9  1  1  0  0  0
 17 11  1  0  0  0  0
 17 22  1  0  0  0  0
 18 19  1  1  0  0  0
 18 20  1  0  0  0  0
 19  3  1  0  0  0  0
 20 13  1  1  0  0  0
 20 21  1  0  0  0  0
 21 15  1  1  0  0  0
 21 22  1  0  0  0  0
 22  6  1  6  0  0  0
M  END
>  <CHROM.1>
157.06764648,165.90325702,65.31034167,20.31719906,15.36433528,36.74272813
-1.06892834,-0.66615940,2.76651839

>  <Name>
2et8_lig

>  <RI>
3.42619e+07

>  <Rbt.Current_Directory>
/home/itssahil/PROJECTS/Mol_Feturizer/New_Systems/rnas/2et8

>  <Rbt.Executable>
rbdock ($Id: //depot/dev/client3/rdock/2013.1/src/exe/rbdock.cxx#4 $)

>  <Rbt.Library>
libRbt.so (2013.1, Build901 2013/11/27)

>  <Rbt.Parameter_File>
/export/apps/rDock/src/rDock_2013.1_src/data/scripts/dock_solv.prm

>  <Rbt.Receptor>
prm/pocket_docking_4.prm

>  <SCORE>
-13.9447

>  <SCORE.INTER>
-12.9559

>  <SCORE.INTER.CONST>
1

>  <SCORE.INTER.POLAR>
-1.32306

>  <SCORE.INTER.ROT>
3

>  <SCORE.INTER.SOLV>
11.6356

>  <SCORE.INTER.VDW>
-13.7056

>  <SCORE.INTER.norm>
-0.588905

>  <SCORE.INTRA>
-0.988767

>  <SCORE.INTRA.DIHEDRAL>
-1.55566

>  <SCORE.INTRA.DIHEDRAL.0>
4.99603

>  <SCORE.INTRA.POLAR>
0

>  <SCORE.INTRA.POLAR.0>
0

>  <SCORE.INTRA.REPUL>
0

>  <SCORE.INTRA.REPUL.0>
0

>  <SCORE.INTRA.SOLV>
1.40421

>  <SCORE.INTRA.SOLV.lig_0>
-74.884

>  <SCORE.INTRA.VDW>
-0.913041

>  <SCORE.INTRA.VDW.0>
-0.858933

>  <SCORE.INTRA.norm>
-0.0449439

>  <SCORE.RESTR>
0

>  <SCORE.RESTR.CAVITY>
0

>  <SCORE.RESTR.norm>
0

>  <SCORE.SYSTEM>
0

>  <SCORE.SYSTEM.CONST>
0

>  <SCORE.SYSTEM.DIHEDRAL>
0

>  <SCORE.SYSTEM.SOLV>
0

>  <SCORE.SYSTEM.norm>
0

>  <SCORE.heavy>
22

>  <SCORE.norm>
-0.633849

>  <RMSD>
2.798

$$$$
2et8_lig
 OpenBabel11021811433D
libRbt.so/2013.1/901 2013/11/27
 22 23  0  0  0  0  0  0  0  0999 V2000
   22.2685   18.4752   33.0258 N   0  0  0  0  0  0  0  0  0  0  0  0
   20.1449   14.0521   33.7562 N   0  0  0  0  0  0  0  0  0  0  0  0
   21.8899   11.3840   39.7718 N   0  0  0  0  0  0  0  0  0  0  0  0
   21.4499   16.8191   37.5989 O   0  0  0  0  0  0  0  0  0  0  0  0
   21.7922   16.3999   36.2549 C   0  0  2  0  0  0  0  0  0  0  0  0
   17.8352   15.0425   36.0010 N   0  0  0  0  0  0  0  0  0  0  0  0
   22.8247   18.6133   35.7661 O   0  0  0  0  0  0  0  0  0  0  0  0
   21.8528   17.6624   35.3129 C   0  0  1  0  0  0  0  0  0  0  0  0
   20.6785   14.3195   36.5421 O   0  0  0  0  0  0  0  0  0  0  0  0
   22.2217   17.2583   33.9067 C   0  0  1  0  0  0  0  0  0  0  0  0
   20.0292   12.3473   37.5377 O   0  0  0  0  0  0  0  0  0  0  0  0
   21.1809   16.2438   33.3801 C   0  0  0  0  0  0  0  0  0  0  0  0
   18.8148   13.9632   40.5766 O   0  0  0  0  0  0  0  0  0  0  0  0
   21.1776   15.0136   34.3340 C   0  0  1  0  0  0  0  0  0  0  0  0
   17.0286   15.0260   38.7012 O   0  0  0  0  0  0  0  0  0  0  0  0
   20.6974   15.4044   35.7003 C   0  0  2  0  0  0  0  0  0  0  0  0
   19.6390   13.3980   36.4990 C   0  0  1  0  0  0  0  0  0  0  0  0
   20.0942   12.8922   38.9284 C   0  0  2  0  0  0  0  0  0  0  0  0
   20.4640   11.7792   39.9308 C   0  0  0  0  0  0  0  0  0  0  0  0
   18.7486   13.4458   39.2913 C   0  0  2  0  0  0  0  0  0  0  0  0
   18.3256   14.5286   38.3415 C   0  0  1  0  0  0  0  0  0  0  0  0
   18.2684   13.9661   36.9628 C   0  0  1  0  0  0  0  0  0  0  0  0
  5  4  1  1  0  0  0
  5  8  1  0  0  0  0
  5 16  1  0  0  0  0
  8  7  1  1  0  0  0
  8 10  1  0  0  0  0
 10  1  1  6  0  0  0
 10 12  1  0  0  0  0
 11 18  1  0  0  0  0
 12 14  1  0  0  0  0
 14  2  1  6  0  0  0
 14 16  1  0  0  0  0
 16  9  1  1  0  0  0
 17  9  1  1  0  0  0
 17 11  1  0  0  0  0
 17 22  1  0  0  0  0
 18 19  1  1  0  0  0
 18 20  1  0  0  0  0
 19  3  1  0  0  0  0
 20 13  1  1  0  0  0
 20 21  1  0  0  0  0
 21 15  1  1  0  0  0
 21 22  1  0  0  0  0
 22  6  1  6  0  0  0
M  END
>  <CHROM.1>
166.26170752,177.92098661,71.47576684,20.33169745,14.91824392,36.77906933
-1.17469215,0.34446458,2.15224202

>  <Name>
2et8_lig

>  <RI>
0

>  <Rbt.Current_Directory>
/home/itssahil/PROJECTS/Mol_Feturizer/New_Systems/rnas/2et8

>  <Rbt.Executable>
rbdock ($Id: //depot/dev/client3/rdock/2013.1/src/exe/rbdock.cxx#4 $)

>  <Rbt.Library>
libRbt.so (2013.1, Build901 2013/11/27)

>  <Rbt.Parameter_File>
/export/apps/rDock/src/rDock_2013.1_src/data/scripts/dock_solv.prm

>  <Rbt.Receptor>
prm/pocket_docking_3.prm

>  <SCORE>
-13.6654

>  <SCORE.INTER>
-12.646

>  <SCORE.INTER.CONST>
1

>  <SCORE.INTER.POLAR>
-0.959166

>  <SCORE.INTER.ROT>
3

>  <SCORE.INTER.SOLV>
11.1512

>  <SCORE.INTER.VDW>
-14.5505

>  <SCORE.INTER.norm>
-0.574819

>  <SCORE.INTRA>
-1.01941

>  <SCORE.INTRA.DIHEDRAL>
-3.45094

>  <SCORE.INTRA.DIHEDRAL.0>
4.99603

>  <SCORE.INTRA.POLAR>
0

>  <SCORE.INTRA.POLAR.0>
0

>  <SCORE.INTRA.REPUL>
0

>  <SCORE.INTRA.REPUL.0>
0

>  <SCORE.INTRA.SOLV>
2.52516

>  <SCORE.INTRA.SOLV.lig_0>
-74.884

>  <SCORE.INTRA.VDW>
-0.556522

>  <SCORE.INTRA.VDW.0>
-0.858933

>  <SCORE.INTRA.norm>
-0.046337

>  <SCORE.RESTR>
0

>  <SCORE.RESTR.CAVITY>
0

>  <SCORE.RESTR.norm>
0

>  <SCORE.SYSTEM>
0

>  <SCORE.SYSTEM.CONST>
0

>  <SCORE.SYSTEM.DIHEDRAL>
0

>  <SCORE.SYSTEM.SOLV>
0

>  <SCORE.SYSTEM.norm>
0

>  <SCORE.heavy>
22

>  <SCORE.norm>
-0.621156

>  <RMSD>
2.829

$$$$
2et8_lig
 OpenBabel11021811433D
libRbt.so/2013.1/901 2013/11/27
 22 23  0  0  0  0  0  0  0  0999 V2000
   21.9752   19.6155   34.0315 N   0  0  0  0  0  0  0  0  0  0  0  0
   21.1509   14.7405   33.6281 N   0  0  0  0  0  0  0  0  0  0  0  0
   21.4329   11.8154   40.6226 N   0  0  0  0  0  0  0  0  0  0  0  0
   20.3844   17.0190   37.9114 O   0  0  0  0  0  0  0  0  0  0  0  0
   21.2144   16.9468   36.7260 C   0  0  2  0  0  0  0  0  0  0  0  0
   17.8227   15.2339   36.2527 N   0  0  0  0  0  0  0  0  0  0  0  0
   21.6356   19.4005   36.8021 O   0  0  0  0  0  0  0  0  0  0  0  0
   21.1692   18.3300   35.9712 C   0  0  1  0  0  0  0  0  0  0  0  0
   20.7389   14.6348   36.4453 O   0  0  0  0  0  0  0  0  0  0  0  0
   22.0373   18.2901   34.7375 C   0  0  1  0  0  0  0  0  0  0  0  0
   20.2923   12.4619   37.0632 O   0  0  0  0  0  0  0  0  0  0  0  0
   21.5487   17.1545   33.8093 C   0  0  0  0  0  0  0  0  0  0  0  0
   19.2312   13.3518   40.4401 O   0  0  0  0  0  0  0  0  0  0  0  0
   21.6327   15.8145   34.5972 C   0  0  1  0  0  0  0  0  0  0  0  0
   17.2388   14.6254   38.9417 O   0  0  0  0  0  0  0  0  0  0  0  0
   20.6794   15.8205   35.7552 C   0  0  2  0  0  0  0  0  0  0  0  0
   19.7569   13.6642   36.2866 C   0  0  1  0  0  0  0  0  0  0  0  0
   20.4360   12.7257   38.5278 C   0  0  2  0  0  0  0  0  0  0  0  0
   20.9520   11.4682   39.2578 C   0  0  0  0  0  0  0  0  0  0  0  0
   19.0930   13.0941   39.0842 C   0  0  2  0  0  0  0  0  0  0  0  0
   18.5303   14.3077   38.4031 C   0  0  1  0  0  0  0  0  0  0  0  0
   18.3962   14.0250   36.9462 C   0  0  1  0  0  0  0  0  0  0  0  0
  5  4  1  1  0  0  0
  5  8  1  0  0  0  0
  5 16  1  0  0  0  0
  8  7  1  1  0  0  0
  8 10  1  0  0  0  0
 10  1  1  6  0  0  0
 10 12  1  0  0  0  0
 11 18  1  0  0  0  0
 12 14  1  0  0  0  0
 14  2  1  6  0  0  0
 14 16  1  0  0  0  0
 16  9  1  1  0  0  0
 17  9  1  1  0  0  0
 17 11  1  0  0  0  0
 17 22  1  0  0  0  0
 18 19  1  1  0  0  0
 18 20  1  0  0  0  0
 19  3  1  0  0  0  0
 20 13  1  1  0  0  0
 20 21  1  0  0  0  0
 21 15  1  1  0  0  0
 21 22  1  0  0  0  0
 22  6  1  6  0  0  0
M  END
>  <CHROM.1>
143.22840416,172.57129330,165.12987116,20.31946963,15.20484474,36.96595484
0.85741955,1.13851624,-0.00595609

>  <Name>
2et8_lig

>  <RI>
0

>  <Rbt.Current_Directory>
/home/itssahil/PROJECTS/Mol_Feturizer/New_Systems/rnas/2et8

>  <Rbt.Executable>
rbdock ($Id: //depot/dev/client3/rdock/2013.1/src/exe/rbdock.cxx#4 $)

>  <Rbt.Library>
libRbt.so (2013.1, Build901 2013/11/27)

>  <Rbt.Parameter_File>
/export/apps/rDock/src/rDock_2013.1_src/data/scripts/dock_solv.prm

>  <Rbt.Receptor>
prm/pocket_docking_5.prm

>  <SCORE>
-12.6899

>  <SCORE.INTER>
-13.4007

>  <SCORE.INTER.CONST>
1

>  <SCORE.INTER.POLAR>
-1.44291

>  <SCORE.INTER.ROT>
3

>  <SCORE.INTER.SOLV>
10.7135

>  <SCORE.INTER.VDW>
-13.2953

>  <SCORE.INTER.norm>
-0.609122

>  <SCORE.INTRA>
0.710751

>  <SCORE.INTRA.DIHEDRAL>
0.921272

>  <SCORE.INTRA.DIHEDRAL.0>
4.99603

>  <SCORE.INTRA.POLAR>
0

>  <SCORE.INTRA.POLAR.0>
0

>  <SCORE.INTRA.REPUL>
0

>  <SCORE.INTRA.REPUL.0>
0

>  <SCORE.INTRA.SOLV>
2.5618

>  <SCORE.INTRA.SOLV.lig_0>
-74.884

>  <SCORE.INTRA.VDW>
-1.03079

>  <SCORE.INTRA.VDW.0>
-0.858933

>  <SCORE.INTRA.norm>
0.0323069

>  <SCORE.RESTR>
0

>  <SCORE.RESTR.CAVITY>
0

>  <SCORE.RESTR.norm>
0

>  <SCORE.SYSTEM>
0

>  <SCORE.SYSTEM.CONST>
0

>  <SCORE.SYSTEM.DIHEDRAL>
0

>  <SCORE.SYSTEM.SOLV>
0

>  <SCORE.SYSTEM.norm>
0

>  <SCORE.heavy>
22

>  <SCORE.norm>
-0.576816

>  <RMSD>
2.885

$$$$
2et8_lig
 OpenBabel11021811433D
libRbt.so/2013.1/901 2013/11/27
 22 23  0  0  0  0  0  0  0  0999 V2000
   22.2887   18.6807   32.7323 N   0  0  0  0  0  0  0  0  0  0  0  0
   20.6374   14.0610   33.4671 N   0  0  0  0  0  0  0  0  0  0  0  0
   21.6343   11.8899   40.3719 N   0  0  0  0  0  0  0  0  0  0  0  0
   20.7236   17.2641   37.1899 O   0  0  0  0  0  0  0  0  0  0  0  0
   21.3972   16.8014   35.9934 C   0  0  2  0  0  0  0  0  0  0  0  0
   17.5942   15.1836   36.2573 N   0  0  0  0  0  0  0  0  0  0  0  0
   22.2207   19.0997   35.4995 O   0  0  0  0  0  0  0  0  0  0  0  0
   21.4978   17.9865   34.9588 C   0  0  1  0  0  0  0  0  0  0  0  0
   20.5214   14.6078   36.2609 O   0  0  0  0  0  0  0  0  0  0  0  0
   22.2087   17.5382   33.7056 C   0  0  1  0  0  0  0  0  0  0  0  0
   20.1354   12.4440   36.9475 O   0  0  0  0  0  0  0  0  0  0  0  0
   21.4429   16.3467   33.0859 C   0  0  0  0  0  0  0  0  0  0  0  0
   19.3002   13.3900   40.3723 O   0  0  0  0  0  0  0  0  0  0  0  0
   21.3910   15.2028   34.1405 C   0  0  1  0  0  0  0  0  0  0  0  0
   17.2000   14.6218   38.9905 O   0  0  0  0  0  0  0  0  0  0  0  0
   20.5827   15.6188   35.3336 C   0  0  2  0  0  0  0  0  0  0  0  0
   19.5386   13.6278   36.1875 C   0  0  1  0  0  0  0  0  0  0  0  0
   20.3766   12.7362   38.3939 C   0  0  2  0  0  0  0  0  0  0  0  0
   20.9512   11.4961   39.1097 C   0  0  0  0  0  0  0  0  0  0  0  0
   19.0718   13.1059   39.0339 C   0  0  2  0  0  0  0  0  0  0  0  0
   18.4542   14.3027   38.3708 C   0  0  1  0  0  0  0  0  0  0  0  0
   18.2233   13.9918   36.9319 C   0  0  1  0  0  0  0  0  0  0  0  0
  5  4  1  1  0  0  0
  5  8  1  0  0  0  0
  5 16  1  0  0  0  0
  8  7  1  1  0  0  0
  8 10  1  0  0  0  0
 10  1  1  6  0  0  0
 10 12  1  0  0  0  0
 11 18  1  0  0  0  0
 12 14  1  0  0  0  0
 14  2  1  6  0  0  0
 14 16  1  0  0  0  0
 16  9  1  1  0  0  0
 17  9  1  1  0  0  0
 17 11  1  0  0  0  0
 17 22  1  0  0  0  0
 18 19  1  1  0  0  0
 18 20  1  0  0  0  0
 19  3  1  0  0  0  0
 20 13  1  1  0  0  0
 20 21  1  0  0  0  0
 21 15  1  1  0  0  0
 21 22  1  0  0  0  0
 22  6  1  6  0  0  0
M  END
>  <CHROM.1>
158.69278680,156.64493664,159.82053922,20.32577708,15.00601844,36.56147212
-0.88885476,-1.05499011,2.93519585

>  <Name>
2et8_lig

>  <RI>
0

>  <Rbt.Current_Directory>
/home/itssahil/PROJECTS/Mol_Feturizer/New_Systems/rnas/2et8

>  <Rbt.Executable>
rbdock ($Id: //depot/dev/client3/rdock/2013.1/src/exe/rbdock.cxx#4 $)

>  <Rbt.Library>
libRbt.so (2013.1, Build901 2013/11/27)

>  <Rbt.Parameter_File>
/export/apps/rDock/src/rDock_2013.1_src/data/scripts/dock_solv.prm

>  <Rbt.Receptor>
prm/pocket_docking_3.prm

>  <SCORE>
-11.0327

>  <SCORE.INTER>
-11.6157

>  <SCORE.INTER.CONST>
1

>  <SCORE.INTER.POLAR>
-1.00564

>  <SCORE.INTER.ROT>
3

>  <SCORE.INTER.SOLV>
12.8479

>  <SCORE.INTER.VDW>
-14.2743

>  <SCORE.INTER.norm>
-0.527985

>  <SCORE.INTRA>
0.583019

>  <SCORE.INTRA.DIHEDRAL>
0.809801

>  <SCORE.INTRA.DIHEDRAL.0>
4.99603

>  <SCORE.INTRA.POLAR>
0

>  <SCORE.INTRA.POLAR.0>
0

>  <SCORE.INTRA.REPUL>
0

>  <SCORE.INTRA.REPUL.0>
0

>  <SCORE.INTRA.SOLV>
1.98409

>  <SCORE.INTRA.SOLV.lig_0>
-74.884

>  <SCORE.INTRA.VDW>
-0.813926

>  <SCORE.INTRA.VDW.0>
-0.858933

>  <SCORE.INTRA.norm>
0.0265008

>  <SCORE.RESTR>
0

>  <SCORE.RESTR.CAVITY>
0

>  <SCORE.RESTR.norm>
0

>  <SCORE.SYSTEM>
0

>  <SCORE.SYSTEM.CONST>
0

>  <SCORE.SYSTEM.DIHEDRAL>
0

>  <SCORE.SYSTEM.SOLV>
0

>  <SCORE.SYSTEM.norm>
0

>  <SCORE.heavy>
22

>  <SCORE.norm>
-0.501485

>  <RMSD>
2.899

$$$$
2et8_lig
 OpenBabel11021811433D
libRbt.so/2013.1/901 2013/11/27
 22 23  0  0  0  0  0  0  0  0999 V2000
   28.6896   17.9238   36.0451 N   0  0  0  0  0  0  0  0  0  0  0  0
   24.9173   15.7012   38.3769 N   0  0  0  0  0  0  0  0  0  0  0  0
   20.5782   12.9745   37.0285 N   0  0  0  0  0  0  0  0  0  0  0  0
   24.0387   18.7458   34.6239 O   0  0  0  0  0  0  0  0  0  0  0  0
   24.8711   18.4800   35.7797 C   0  0  2  0  0  0  0  0  0  0  0  0
   20.7478   18.9841   36.1610 N   0  0  0  0  0  0  0  0  0  0  0  0
   26.8444   19.5166   34.6682 O   0  0  0  0  0  0  0  0  0  0  0  0
   26.3717   18.3311   35.3202 C   0  0  1  0  0  0  0  0  0  0  0  0
   23.1123   17.3080   36.8676 O   0  0  0  0  0  0  0  0  0  0  0  0
   27.2664   18.0674   36.5063 C   0  0  1  0  0  0  0  0  0  0  0  0
   21.9399   15.3836   36.3936 O   0  0  0  0  0  0  0  0  0  0  0  0
   26.7933   16.7821   37.2235 C   0  0  0  0  0  0  0  0  0  0  0  0
   19.9001   15.5561   39.4153 O   0  0  0  0  0  0  0  0  0  0  0  0
   25.3172   16.9921   37.6708 C   0  0  1  0  0  0  0  0  0  0  0  0
   19.0307   17.8675   38.0965 O   0  0  0  0  0  0  0  0  0  0  0  0
   24.4182   17.1371   36.4788 C   0  0  2  0  0  0  0  0  0  0  0  0
   22.0639   16.8712   36.0665 C   0  0  1  0  0  0  0  0  0  0  0  0
   21.5609   15.1248   37.8165 C   0  0  2  0  0  0  0  0  0  0  0  0
   21.4242   13.6099   38.0750 C   0  0  0  0  0  0  0  0  0  0  0  0
   20.2431   15.7857   38.0910 C   0  0  2  0  0  0  0  0  0  0  0  0
   20.3084   17.2650   37.8445 C   0  0  1  0  0  0  0  0  0  0  0  0
   20.6883   17.5012   36.4231 C   0  0  1  0  0  0  0  0  0  0  0  0
  5  4  1  6  0  0  0
  5  8  1  0  0  0  0
  5 16  1  0  0  0  0
  8  7  1  1  0  0  0
  8 10  1  0  0  0  0
 10  1  1  6  0  0  0
 10 12  1  0  0  0  0
 11 18  1  0  0  0  0
 12 14  1  0  0  0  0
 14  2  1  6  0  0  0
 14 16  1  0  0  0  0
 16  9  1  1  0  0  0
 17  9  1  1  0  0  0
 17 11  1  0  0  0  0
 17 22  1  0  0  0  0
 18 19  1  6  0  0  0
 18 20  1  0  0  0  0
 19  3  1  0  0  0  0
 20 13  1  1  0  0  0
 20 21  1  0  0  0  0
 21 15  1  6  0  0  0
 21 22  1  0  0  0  0
 22  6  1  1  0  0  0
M  END
>  <CHROM.1>
95.44867641,82.47305815,-48.98324305,23.20150671,16.91568844,36.85735215
-0.44598027,-0.09429367,2.66343769

>  <Name>
2et8_lig

>  <RI>
0

>  <Rbt.Current_Directory>
/home/itssahil/PROJECTS/Mol_Feturizer/New_Systems/rnas/2et8

>  <Rbt.Executable>
rbdock ($Id: //depot/dev/client3/rdock/2013.1/src/exe/rbdock.cxx#4 $)

>  <Rbt.Library>
libRbt.so (2013.1, Build901 2013/11/27)

>  <Rbt.Parameter_File>
/export/apps/rDock/src/rDock_2013.1_src/data/scripts/dock_solv.prm

>  <Rbt.Receptor>
prm/pocket_docking_5.prm

>  <SCORE>
-6.16137

>  <SCORE.INTER>
-7.27182

>  <SCORE.INTER.CONST>
1

>  <SCORE.INTER.POLAR>
-1.82784

>  <SCORE.INTER.ROT>
3

>  <SCORE.INTER.SOLV>
14.3822

>  <SCORE.INTER.VDW>
-9.14913

>  <SCORE.INTER.norm>
-0.330537

>  <SCORE.INTRA>
1.11045

>  <SCORE.INTRA.DIHEDRAL>
2.26623

>  <SCORE.INTRA.DIHEDRAL.0>
4.99603

>  <SCORE.INTRA.POLAR>
0

>  <SCORE.INTRA.POLAR.0>
0

>  <SCORE.INTRA.REPUL>
0

>  <SCORE.INTRA.REPUL.0>
0

>  <SCORE.INTRA.SOLV>
2.24028

>  <SCORE.INTRA.SOLV.lig_0>
-74.884

>  <SCORE.INTRA.VDW>
-1.1428

>  <SCORE.INTRA.VDW.0>
-0.858933

>  <SCORE.INTRA.norm>
0.0504752

>  <SCORE.RESTR>
0

>  <SCORE.RESTR.CAVITY>
0

>  <SCORE.RESTR.norm>
0

>  <SCORE.SYSTEM>
0

>  <SCORE.SYSTEM.CONST>
0

>  <SCORE.SYSTEM.DIHEDRAL>
0

>  <SCORE.SYSTEM.SOLV>
0

>  <SCORE.SYSTEM.norm>
0

>  <SCORE.heavy>
22

>  <SCORE.norm>
-0.280062

>  <RMSD>
2.993

$$$$
2et8_lig
 OpenBabel11021811433D
libRbt.so/2013.1/901 2013/11/27
 22 23  0  0  0  0  0  0  0  0999 V2000
   23.6591   18.8958   32.9900 N   0  0  0  0  0  0  0  0  0  0  0  0
   22.9981   17.0466   37.5454 N   0  0  0  0  0  0  0  0  0  0  0  0
   18.0241   18.0360   37.5461 N   0  0  0  0  0  0  0  0  0  0  0  0
   21.3396   14.5902   33.6286 O   0  0  0  0  0  0  0  0  0  0  0  0
   21.5514   15.8953   34.2211 C   0  0  2  0  0  0  0  0  0  0  0  0
   21.7594   12.4700   37.9301 N   0  0  0  0  0  0  0  0  0  0  0  0
   21.9650   16.9074   31.9831 O   0  0  0  0  0  0  0  0  0  0  0  0
   22.5106   16.7393   33.2977 C   0  0  1  0  0  0  0  0  0  0  0  0
   21.3551   15.0100   36.4185 O   0  0  0  0  0  0  0  0  0  0  0  0
   22.7389   18.1114   33.8827 C   0  0  1  0  0  0  0  0  0  0  0  0
   20.6236   16.0746   38.3247 O   0  0  0  0  0  0  0  0  0  0  0  0
   23.3449   17.9658   35.2975 C   0  0  0  0  0  0  0  0  0  0  0  0
   17.3813   14.3988   38.3455 O   0  0  0  0  0  0  0  0  0  0  0  0
   22.3505   17.1437   36.1684 C   0  0  1  0  0  0  0  0  0  0  0  0
   19.0758   12.2072   38.7492 O   0  0  0  0  0  0  0  0  0  0  0  0
   22.2202   15.7441   35.6449 C   0  0  2  0  0  0  0  0  0  0  0  0
   21.5078   14.9450   37.7983 C   0  0  1  0  0  0  0  0  0  0  0  0
   19.1735   15.8761   38.0197 C   0  0  2  0  0  0  0  0  0  0  0  0
   18.3333   17.0324   38.6005 C   0  0  0  0  0  0  0  0  0  0  0  0
   18.7233   14.5879   38.6415 C   0  0  2  0  0  0  0  0  0  0  0  0
   19.5147   13.4220   38.1241 C   0  0  1  0  0  0  0  0  0  0  0  0
   20.9553   13.6397   38.4367 C   0  0  1  0  0  0  0  0  0  0  0  0
  5  4  1  6  0  0  0
  5  8  1  0  0  0  0
  5 16  1  0  0  0  0
  8  7  1  6  0  0  0
  8 10  1  0  0  0  0
 10  1  1  6  0  0  0
 10 12  1  0  0  0  0
 11 18  1  0  0  0  0
 12 14  1  0  0  0  0
 14  2  1  1  0  0  0
 14 16  1  0  0  0  0
 16  9  1  1  0  0  0
 17  9  1  6  0  0  0
 17 11  1  0  0  0  0
 17 22  1  0  0  0  0
 18 19  1  1  0  0  0
 18 20  1  0  0  0  0
 19  3  1  0  0  0  0
 20 13  1  6  0  0  0
 20 21  1  0  0  0  0
 21 15  1  1  0  0  0
 21 22  1  0  0  0  0
 22  6  1  6  0  0  0
M  END
>  <CHROM.1>
-165.89765001,92.60483314,98.71182346,20.92827187,15.73135271,36.42908252
0.69262883,0.81798212,-0.27129619

>  <Name>
2et8_lig

>  <RI>
0

>  <Rbt.Current_Directory>
/home/itssahil/PROJECTS/Mol_Feturizer/New_Systems/rnas/2et8

>  <Rbt.Executable>
rbdock ($Id: //depot/dev/client3/rdock/2013.1/src/exe/rbdock.cxx#4 $)

>  <Rbt.Library>
libRbt.so (2013.1, Build901 2013/11/27)

>  <Rbt.Parameter_File>
/export/apps/rDock/src/rDock_2013.1_src/data/scripts/dock_solv.prm

>  <Rbt.Receptor>
prm/pocket_docking_3.prm

>  <SCORE>
-1.4543

>  <SCORE.INTER>
-5.22472

>  <SCORE.INTER.CONST>
1

>  <SCORE.INTER.POLAR>
-1.29927

>  <SCORE.INTER.ROT>
3

>  <SCORE.INTER.SOLV>
13.3044

>  <SCORE.INTER.VDW>
-9.18705

>  <SCORE.INTER.norm>
-0.237487

>  <SCORE.INTRA>
3.76875

>  <SCORE.INTRA.DIHEDRAL>
3.90676

>  <SCORE.INTRA.DIHEDRAL.0>
4.99603

>  <SCORE.INTRA.POLAR>
0

>  <SCORE.INTRA.POLAR.0>
0

>  <SCORE.INTRA.REPUL>
0

>  <SCORE.INTRA.REPUL.0>
0

>  <SCORE.INTRA.SOLV>
0.913379

>  <SCORE.INTRA.SOLV.lig_0>
-74.884

>  <SCORE.INTRA.VDW>
1.35868

>  <SCORE.INTRA.VDW.0>
-0.858933

>  <SCORE.INTRA.norm>
0.171307

>  <SCORE.RESTR>
0.00166744

>  <SCORE.RESTR.CAVITY>
0.00166744

>  <SCORE.RESTR.norm>
7.57927e-05

>  <SCORE.SYSTEM>
0

>  <SCORE.SYSTEM.CONST>
0

>  <SCORE.SYSTEM.DIHEDRAL>
0

>  <SCORE.SYSTEM.SOLV>
0

>  <SCORE.SYSTEM.norm>
0

>  <SCORE.heavy>
22

>  <SCORE.norm>
-0.0661047

>  <RMSD>
3.431

$$$$
2et8_lig
 OpenBabel11021811433D
libRbt.so/2013.1/901 2013/11/27
 22 23  0  0  0  0  0  0  0  0999 V2000
   19.4799   18.2920   32.1696 N   0  0  0  0  0  0  0  0  0  0  0  0
   20.1261   17.3965   37.0057 N   0  0  0  0  0  0  0  0  0  0  0  0
   21.9215   11.5836   39.4030 N   0  0  0  0  0  0  0  0  0  0  0  0
   20.9460   13.8435   33.7148 O   0  0  0  0  0  0  0  0  0  0  0  0
   20.1223   14.9826   34.0659 C   0  0  2  0  0  0  0  0  0  0  0  0
   17.6243   15.1835   35.8782 N   0  0  0  0  0  0  0  0  0  0  0  0
   19.7917   15.5561   31.6647 O   0  0  0  0  0  0  0  0  0  0  0  0
   20.2240   16.0712   32.9303 C   0  0  1  0  0  0  0  0  0  0  0  0
   20.5139   14.6428   36.3858 O   0  0  0  0  0  0  0  0  0  0  0  0
   19.3639   17.2659   33.2616 C   0  0  1  0  0  0  0  0  0  0  0  0
   20.0121   12.5805   37.2788 O   0  0  0  0  0  0  0  0  0  0  0  0
   19.8166   17.8577   34.6162 C   0  0  0  0  0  0  0  0  0  0  0  0
   18.6903   13.9472   40.3943 O   0  0  0  0  0  0  0  0  0  0  0  0
   19.6775   16.7491   35.7001 C   0  0  1  0  0  0  0  0  0  0  0  0
   16.8272   14.9712   38.5728 O   0  0  0  0  0  0  0  0  0  0  0  0
   20.6222   15.6172   35.4241 C   0  0  2  0  0  0  0  0  0  0  0  0
   19.5441   13.6515   36.2944 C   0  0  1  0  0  0  0  0  0  0  0  0
   20.0404   13.0573   38.6956 C   0  0  2  0  0  0  0  0  0  0  0  0
   20.4925   11.9246   39.6406 C   0  0  0  0  0  0  0  0  0  0  0  0
   18.6589   13.4924   39.0843 C   0  0  2  0  0  0  0  0  0  0  0  0
   18.1562   14.5884   38.1902 C   0  0  1  0  0  0  0  0  0  0  0  0
   18.1368   14.0941   36.7846 C   0  0  1  0  0  0  0  0  0  0  0  0
  5  4  1  6  0  0  0
  5  8  1  0  0  0  0
  5 16  1  0  0  0  0
  8  7  1  6  0  0  0
  8 10  1  0  0  0  0
 10  1  1  6  0  0  0
 10 12  1  0  0  0  0
 11 18  1  0  0  0  0
 12 14  1  0  0  0  0
 14  2  1  1  0  0  0
 14 16  1  0  0  0  0
 16  9  1  1  0  0  0
 17  9  1  1  0  0  0
 17 11  1  0  0  0  0
 17 22  1  0  0  0  0
 18 19  1  1  0  0  0
 18 20  1  0  0  0  0
 19  3  1  0  0  0  0
 20 13  1  1  0  0  0
 20 21  1  0  0  0  0
 21 15  1  1  0  0  0
 21 22  1  0  0  0  0
 22  6  1  6  0  0  0
M  END
>  <CHROM.1>
-29.42627264,163.89410305,67.87690032,19.58085556,14.85304407,36.24444408
1.50949813,0.83894793,-0.98184261

>  <Name>
2et8_lig

>  <RI>
2.82936e+07

>  <Rbt.Current_Directory>
/home/itssahil/PROJECTS/Mol_Feturizer/New_Systems/rnas/2et8

>  <Rbt.Executable>
rbdock ($Id: //depot/dev/client3/rdock/2013.1/src/exe/rbdock.cxx#4 $)

>  <Rbt.Library>
libRbt.so (2013.1, Build901 2013/11/27)

>  <Rbt.Parameter_File>
/export/apps/rDock/src/rDock_2013.1_src/data/scripts/dock_solv.prm

>  <Rbt.Receptor>
prm/pocket_docking_8.prm

>  <SCORE>
-8.8492

>  <SCORE.INTER>
-13.9912

>  <SCORE.INTER.CONST>
1

>  <SCORE.INTER.POLAR>
-1.313

>  <SCORE.INTER.ROT>
3

>  <SCORE.INTER.SOLV>
9.2155

>  <SCORE.INTER.VDW>
-13.6226

>  <SCORE.INTER.norm>
-0.635966

>  <SCORE.INTRA>
5.14205

>  <SCORE.INTRA.DIHEDRAL>
0.194618

>  <SCORE.INTRA.DIHEDRAL.0>
4.99603

>  <SCORE.INTRA.POLAR>
0

>  <SCORE.INTRA.POLAR.0>
0

>  <SCORE.INTRA.REPUL>
0

>  <SCORE.INTRA.REPUL.0>
0

>  <SCORE.INTRA.SOLV>
4.70646

>  <SCORE.INTRA.SOLV.lig_0>
-74.884

>  <SCORE.INTRA.VDW>
2.69151

>  <SCORE.INTRA.VDW.0>
-0.858933

>  <SCORE.INTRA.norm>
0.233729

>  <SCORE.RESTR>
0

>  <SCORE.RESTR.CAVITY>
0

>  <SCORE.RESTR.norm>
0

>  <SCORE.SYSTEM>
0

>  <SCORE.SYSTEM.CONST>
0

>  <SCORE.SYSTEM.DIHEDRAL>
0

>  <SCORE.SYSTEM.SOLV>
0

>  <SCORE.SYSTEM.norm>
0

>  <SCORE.heavy>
22

>  <SCORE.norm>
-0.402236

>  <RMSD>
3.450

$$$$
2et8_lig
 OpenBabel11021811433D
libRbt.so/2013.1/901 2013/11/27
 22 23  0  0  0  0  0  0  0  0999 V2000
   21.4283   19.8328   32.8070 N   0  0  0  0  0  0  0  0  0  0  0  0
   20.9430   14.9034   33.0776 N   0  0  0  0  0  0  0  0  0  0  0  0
   21.5472   11.6011   38.1676 N   0  0  0  0  0  0  0  0  0  0  0  0
   19.4560   17.7303   36.8091 O   0  0  0  0  0  0  0  0  0  0  0  0
   20.4471   17.5460   35.7683 C   0  0  2  0  0  0  0  0  0  0  0  0
   17.2098   15.5244   35.3902 N   0  0  0  0  0  0  0  0  0  0  0  0
   20.7154   20.0087   35.5086 O   0  0  0  0  0  0  0  0  0  0  0  0
   20.4310   18.7933   34.8043 C   0  0  1  0  0  0  0  0  0  0  0  0
   20.1459   15.1883   35.7981 O   0  0  0  0  0  0  0  0  0  0  0  0
   21.4646   18.6365   33.7162 C   0  0  1  0  0  0  0  0  0  0  0  0
   19.8332   13.0412   36.5694 O   0  0  0  0  0  0  0  0  0  0  0  0
   21.1756   17.3407   32.9241 C   0  0  0  0  0  0  0  0  0  0  0  0
   18.4928   14.1027   39.7940 O   0  0  0  0  0  0  0  0  0  0  0  0
   21.2230   16.1440   33.9186 C   0  0  1  0  0  0  0  0  0  0  0  0
   16.5057   15.0832   38.0830 O   0  0  0  0  0  0  0  0  0  0  0  0
   20.1176   16.2495   34.9270 C   0  0  2  0  0  0  0  0  0  0  0  0
   19.2554   14.1295   35.6656 C   0  0  1  0  0  0  0  0  0  0  0  0
   19.8623   13.4307   38.0126 C   0  0  2  0  0  0  0  0  0  0  0  0
   20.4282   12.2822   38.8735 C   0  0  0  0  0  0  0  0  0  0  0  0
   18.4619   13.7282   38.4587 C   0  0  2  0  0  0  0  0  0  0  0  0
   17.8498   14.8331   37.6474 C   0  0  1  0  0  0  0  0  0  0  0  0
   17.8314   14.4261   36.2140 C   0  0  1  0  0  0  0  0  0  0  0  0
  5  4  1  1  0  0  0
  5  8  1  0  0  0  0
  5 16  1  0  0  0  0
  8  7  1  1  0  0  0
  8 10  1  0  0  0  0
 10  1  1  6  0  0  0
 10 12  1  0  0  0  0
 11 18  1  0  0  0  0
 12 14  1  0  0  0  0
 14  2  1  6  0  0  0
 14 16  1  0  0  0  0
 16  9  1  1  0  0  0
 17  9  1  1  0  0  0
 17 11  1  0  0  0  0
 17 22  1  0  0  0  0
 18 19  1  1  0  0  0
 18 20  1  0  0  0  0
 19  3  1  0  0  0  0
 20 13  1  1  0  0  0
 20 21  1  0  0  0  0
 21 15  1  1  0  0  0
 21 22  1  0  0  0  0
 22  6  1  6  0  0  0
M  END
>  <CHROM.1>
143.49490038,166.32521233,38.44057702,19.74506611,15.66498884,36.08711522
-1.18653268,-0.76006798,2.72385040

>  <Name>
2et8_lig

>  <RI>
3.14397e+07

>  <Rbt.Current_Directory>
/home/itssahil/PROJECTS/Mol_Feturizer/New_Systems/rnas/2et8

>  <Rbt.Executable>
rbdock ($Id: //depot/dev/client3/rdock/2013.1/src/exe/rbdock.cxx#4 $)

>  <Rbt.Library>
libRbt.so (2013.1, Build901 2013/11/27)

>  <Rbt.Parameter_File>
/export/apps/rDock/src/rDock_2013.1_src/data/scripts/dock_solv.prm

>  <Rbt.Receptor>
prm/pocket_docking_6.prm

>  <SCORE>
-13.5501

>  <SCORE.INTER>
-14.216

>  <SCORE.INTER.CONST>
1

>  <SCORE.INTER.POLAR>
-2.13364

>  <SCORE.INTER.ROT>
3

>  <SCORE.INTER.SOLV>
13.233

>  <SCORE.INTER.VDW>
-12.3762

>  <SCORE.INTER.norm>
-0.646183

>  <SCORE.INTRA>
0.665971

>  <SCORE.INTRA.DIHEDRAL>
2.22547

>  <SCORE.INTRA.DIHEDRAL.0>
4.99603

>  <SCORE.INTRA.POLAR>
0

>  <SCORE.INTRA.POLAR.0>
0

>  <SCORE.INTRA.REPUL>
0

>  <SCORE.INTRA.REPUL.0>
0

>  <SCORE.INTRA.SOLV>
1.40539

>  <SCORE.INTRA.SOLV.lig_0>
-74.884

>  <SCORE.INTRA.VDW>
-1.14946

>  <SCORE.INTRA.VDW.0>
-0.858933

>  <SCORE.INTRA.norm>
0.0302714

>  <SCORE.RESTR>
0

>  <SCORE.RESTR.CAVITY>
0

>  <SCORE.RESTR.norm>
0

>  <SCORE.SYSTEM>
0

>  <SCORE.SYSTEM.CONST>
0

>  <SCORE.SYSTEM.DIHEDRAL>
0

>  <SCORE.SYSTEM.SOLV>
0

>  <SCORE.SYSTEM.norm>
0

>  <SCORE.heavy>
22

>  <SCORE.norm>
-0.615912

>  <RMSD>
3.484

$$$$
2et8_lig
 OpenBabel11021811433D
libRbt.so/2013.1/901 2013/11/27
 22 23  0  0  0  0  0  0  0  0999 V2000
   24.8684   21.0889   35.2870 N   0  0  0  0  0  0  0  0  0  0  0  0
   23.8784   16.2730   35.9460 N   0  0  0  0  0  0  0  0  0  0  0  0
   20.8141   14.6687   33.1510 N   0  0  0  0  0  0  0  0  0  0  0  0
   20.3590   19.6266   36.6481 O   0  0  0  0  0  0  0  0  0  0  0  0
   21.7695   19.3252   36.7859 C   0  0  2  0  0  0  0  0  0  0  0  0
   19.4179   16.7561   39.2659 N   0  0  0  0  0  0  0  0  0  0  0  0
   22.3753   21.7100   36.3987 O   0  0  0  0  0  0  0  0  0  0  0  0
   22.6105   20.3678   35.9547 C   0  0  1  0  0  0  0  0  0  0  0  0
   21.3271   16.9983   36.9863 O   0  0  0  0  0  0  0  0  0  0  0  0
   24.0869   20.0877   36.0906 C   0  0  1  0  0  0  0  0  0  0  0  0
   19.7559   16.1555   35.5290 O   0  0  0  0  0  0  0  0  0  0  0  0
   24.3782   18.6500   35.6023 C   0  0  0  0  0  0  0  0  0  0  0  0
   20.0749   12.7265   36.7378 O   0  0  0  0  0  0  0  0  0  0  0  0
   23.5390   17.6650   36.4676 C   0  0  1  0  0  0  0  0  0  0  0  0
   19.0633   13.9701   39.0329 O   0  0  0  0  0  0  0  0  0  0  0  0
   22.0719   17.8748   36.2362 C   0  0  2  0  0  0  0  0  0  0  0  0
   19.9474   16.9217   36.8373 C   0  0  1  0  0  0  0  0  0  0  0  0
   20.2838   14.7578   35.5844 C   0  0  2  0  0  0  0  0  0  0  0  0
   20.0353   14.0303   34.2467 C   0  0  0  0  0  0  0  0  0  0  0  0
   19.5738   14.0186   36.6790 C   0  0  2  0  0  0  0  0  0  0  0  0
   19.7679   14.6872   38.0090 C   0  0  1  0  0  0  0  0  0  0  0  0
   19.2371   16.0775   37.9324 C   0  0  1  0  0  0  0  0  0  0  0  0
  5  4  1  6  0  0  0
  5  8  1  0  0  0  0
  5 16  1  0  0  0  0
  8  7  1  1  0  0  0
  8 10  1  0  0  0  0
 10  1  1  6  0  0  0
 10 12  1  0  0  0  0
 11 18  1  0  0  0  0
 12 14  1  0  0  0  0
 14  2  1  6  0  0  0
 14 16  1  0  0  0  0
 16  9  1  1  0  0  0
 17  9  1  1  0  0  0
 17 11  1  0  0  0  0
 17 22  1  0  0  0  0
 18 19  1  6  0  0  0
 18 20  1  0  0  0  0
 19  3  1  0  0  0  0
 20 13  1  1  0  0  0
 20 21  1  0  0  0  0
 21 15  1  1  0  0  0
 21 22  1  0  0  0  0
 22  6  1  1  0  0  0
M  END
>  <CHROM.1>
72.05964216,75.70756879,65.21439760,21.29804549,17.00876127,36.43793614,-0.72945996
-0.79081459,-2.60556748

>  <Name>
2et8_lig

>  <RI>
3.14397e+07

>  <Rbt.Current_Directory>
/home/itssahil/PROJECTS/Mol_Feturizer/New_Systems/rnas/2et8

>  <Rbt.Executable>
rbdock ($Id: //depot/dev/client3/rdock/2013.1/src/exe/rbdock.cxx#4 $)

>  <Rbt.Library>
libRbt.so (2013.1, Build901 2013/11/27)

>  <Rbt.Parameter_File>
/export/apps/rDock/src/rDock_2013.1_src/data/scripts/dock_solv.prm

>  <Rbt.Receptor>
prm/pocket_docking_6.prm

>  <SCORE>
-10.9753

>  <SCORE.INTER>
-9.0394

>  <SCORE.INTER.CONST>
1

>  <SCORE.INTER.POLAR>
-2.54478

>  <SCORE.INTER.ROT>
3

>  <SCORE.INTER.SOLV>
10.2142

>  <SCORE.INTER.VDW>
-6.54838

>  <SCORE.INTER.norm>
-0.410882

>  <SCORE.INTRA>
-1.9359

>  <SCORE.INTRA.DIHEDRAL>
-2.90562

>  <SCORE.INTRA.DIHEDRAL.0>
4.99603

>  <SCORE.INTRA.POLAR>
0

>  <SCORE.INTRA.POLAR.0>
0

>  <SCORE.INTRA.REPUL>
0

>  <SCORE.INTRA.REPUL.0>
0

>  <SCORE.INTRA.SOLV>
-0.547563

>  <SCORE.INTRA.SOLV.lig_0>
-74.884

>  <SCORE.INTRA.VDW>
-0.20931

>  <SCORE.INTRA.VDW.0>
-0.858933

>  <SCORE.INTRA.norm>
-0.0879954

>  <SCORE.RESTR>
0

>  <SCORE.RESTR.CAVITY>
0

>  <SCORE.RESTR.norm>
0

>  <SCORE.SYSTEM>
0

>  <SCORE.SYSTEM.CONST>
0

>  <SCORE.SYSTEM.DIHEDRAL>
0

>  <SCORE.SYSTEM.SOLV>
0

>  <SCORE.SYSTEM.norm>
0

>  <SCORE.heavy>
22

>  <SCORE.norm>
-0.498877

>  <RMSD>
3.752

$$$$
2et8_lig
 OpenBabel11021811433D
libRbt.so/2013.1/901 2013/11/27
 22 23  0  0  0  0  0  0  0  0999 V2000
   22.3188   17.2962   31.3551 N   0  0  0  0  0  0  0  0  0  0  0  0
   18.8745   15.1208   34.1857 N   0  0  0  0  0  0  0  0  0  0  0  0
   19.1659   17.6709   39.6440 N   0  0  0  0  0  0  0  0  0  0  0  0
   23.4158   15.8067   35.9272 O   0  0  0  0  0  0  0  0  0  0  0  0
   22.6166   15.4880   34.7614 C   0  0  2  0  0  0  0  0  0  0  0  0
   21.5639   12.3388   38.0008 N   0  0  0  0  0  0  0  0  0  0  0  0
   24.2537   16.6152   33.2603 O   0  0  0  0  0  0  0  0  0  0  0  0
   22.8729   16.5670   33.6410 C   0  0  1  0  0  0  0  0  0  0  0  0
   20.8984   14.5456   36.1068 O   0  0  0  0  0  0  0  0  0  0  0  0
   22.0635   16.2533   32.4068 C   0  0  1  0  0  0  0  0  0  0  0  0
   20.6438   16.0227   37.8549 O   0  0  0  0  0  0  0  0  0  0  0  0
   20.5638   16.2112   32.7801 C   0  0  0  0  0  0  0  0  0  0  0  0
   17.4454   14.6284   38.9260 O   0  0  0  0  0  0  0  0  0  0  0  0
   20.3667   15.1193   33.8720 C   0  0  1  0  0  0  0  0  0  0  0  0
   19.1275   12.4441   39.4129 O   0  0  0  0  0  0  0  0  0  0  0  0
   21.0812   15.4986   35.1351 C   0  0  2  0  0  0  0  0  0  0  0  0
   21.3560   14.7483   37.4034 C   0  0  1  0  0  0  0  0  0  0  0  0
   19.1574   15.8741   37.9172 C   0  0  2  0  0  0  0  0  0  0  0  0
   18.5011   17.1821   38.4056 C   0  0  0  0  0  0  0  0  0  0  0  0
   18.8241   14.7739   38.8802 C   0  0  2  0  0  0  0  0  0  0  0  0
   19.4470   13.4728   38.4649 C   0  0  1  0  0  0  0  0  0  0  0  0
   20.9264   13.6423   38.4077 C   0  0  1  0  0  0  0  0  0  0  0  0
  5  4  1  1  0  0  0
  5  8  1  0  0  0  0
  5 16  1  0  0  0  0
  8  7  1  6  0  0  0
  8 10  1  0  0  0  0
 10  1  1  6  0  0  0
 10 12  1  0  0  0  0
 11 18  1  0  0  0  0
 12 14  1  0  0  0  0
 14  2  1  1  0  0  0
 14 16  1  0  0  0  0
 16  9  1  1  0  0  0
 17  9  1  6  0  0  0
 17 11  1  0  0  0  0
 17 22  1  0  0  0  0
 18 19  1  1  0  0  0
 18 20  1  0  0  0  0
 19  3  1  0  0  0  0
 20 13  1  6  0  0  0
 20 21  1  0  0  0  0
 21 15  1  1  0  0  0
 21 22  1  0  0  0  0
 22  6  1  6  0  0  0
M  END
>  <CHROM.1>
72.33830076,58.59164692,-49.77267942,20.70839399,15.32652250,36.24676083
0.95226789,0.61371208,-0.88376863

>  <Name>
2et8_lig

>  <RI>
0

>  <Rbt.Current_Directory>
/home/itssahil/PROJECTS/Mol_Feturizer/New_Systems/rnas/2et8

>  <Rbt.Executable>
rbdock ($Id: //depot/dev/client3/rdock/2013.1/src/exe/rbdock.cxx#4 $)

>  <Rbt.Library>
libRbt.so (2013.1, Build901 2013/11/27)

>  <Rbt.Parameter_File>
/export/apps/rDock/src/rDock_2013.1_src/data/scripts/dock_solv.prm

>  <Rbt.Receptor>
prm/pocket_docking_5.prm

>  <SCORE>
-10.8551

>  <SCORE.INTER>
-9.16749

>  <SCORE.INTER.CONST>
1

>  <SCORE.INTER.POLAR>
-0.956898

>  <SCORE.INTER.ROT>
3

>  <SCORE.INTER.SOLV>
12.5297

>  <SCORE.INTER.VDW>
-12.6986

>  <SCORE.INTER.norm>
-0.416704

>  <SCORE.INTRA>
-1.68762

>  <SCORE.INTRA.DIHEDRAL>
-3.71658

>  <SCORE.INTRA.DIHEDRAL.0>
4.99603

>  <SCORE.INTRA.POLAR>
0

>  <SCORE.INTRA.POLAR.0>
0

>  <SCORE.INTRA.REPUL>
0

>  <SCORE.INTRA.REPUL.0>
0

>  <SCORE.INTRA.SOLV>
0.529919

>  <SCORE.INTRA.SOLV.lig_0>
-74.884

>  <SCORE.INTRA.VDW>
-0.0942873

>  <SCORE.INTRA.VDW.0>
-0.858933

>  <SCORE.INTRA.norm>
-0.07671

>  <SCORE.RESTR>
0

>  <SCORE.RESTR.CAVITY>
0

>  <SCORE.RESTR.norm>
0

>  <SCORE.SYSTEM>
0

>  <SCORE.SYSTEM.CONST>
0

>  <SCORE.SYSTEM.DIHEDRAL>
0

>  <SCORE.SYSTEM.SOLV>
0

>  <SCORE.SYSTEM.norm>
0

>  <SCORE.heavy>
22

>  <SCORE.norm>
-0.493414

>  <RMSD>
4.065

$$$$
2et8_lig
 OpenBabel11021811433D
libRbt.so/2013.1/901 2013/11/27
 22 23  0  0  0  0  0  0  0  0999 V2000
   20.0257   16.0225   31.9111 N   0  0  0  0  0  0  0  0  0  0  0  0
   18.1257   13.2631   35.5695 N   0  0  0  0  0  0  0  0  0  0  0  0
   19.3615   17.3635   38.1285 N   0  0  0  0  0  0  0  0  0  0  0  0
   22.6871   15.0456   35.9471 O   0  0  0  0  0  0  0  0  0  0  0  0
   21.6865   14.4975   35.0539 C   0  0  2  0  0  0  0  0  0  0  0  0
   21.7936   11.2729   38.7517 N   0  0  0  0  0  0  0  0  0  0  0  0
   22.5240   15.8921   33.1677 O   0  0  0  0  0  0  0  0  0  0  0  0
   21.3579   15.5505   33.9277 C   0  0  1  0  0  0  0  0  0  0  0  0
   20.6868   13.2565   36.8177 O   0  0  0  0  0  0  0  0  0  0  0  0
   20.3274   15.0015   32.9720 C   0  0  1  0  0  0  0  0  0  0  0  0
   21.0826   14.9776   38.2954 O   0  0  0  0  0  0  0  0  0  0  0  0
   19.0473   14.6384   33.7591 C   0  0  0  0  0  0  0  0  0  0  0  0
   18.3157   14.0840   40.5016 O   0  0  0  0  0  0  0  0  0  0  0  0
   19.4258   13.5849   34.8408 C   0  0  1  0  0  0  0  0  0  0  0  0
   19.9402   11.8239   40.8018 O   0  0  0  0  0  0  0  0  0  0  0  0
   20.3611   14.1776   35.8527 C   0  0  2  0  0  0  0  0  0  0  0  0
   21.5424   13.5862   37.8622 C   0  0  1  0  0  0  0  0  0  0  0  0
   19.6867   14.9946   38.8308 C   0  0  2  0  0  0  0  0  0  0  0  0
   19.2933   16.4184   39.2761 C   0  0  0  0  0  0  0  0  0  0  0  0
   19.6147   14.0775   40.0151 C   0  0  2  0  0  0  0  0  0  0  0  0
   20.0000   12.6740   39.6473 C   0  0  1  0  0  0  0  0  0  0  0  0
   21.3920   12.6791   39.1156 C   0  0  1  0  0  0  0  0  0  0  0  0
  5  4  1  1  0  0  0
  5  8  1  0  0  0  0
  5 16  1  0  0  0  0
  8  7  1  6  0  0  0
  8 10  1  0  0  0  0
 10  1  1  6  0  0  0
 10 12  1  0  0  0  0
 11 18  1  0  0  0  0
 12 14  1  0  0  0  0
 14  2  1  1  0  0  0
 14 16  1  0  0  0  0
 16  9  1  1  0  0  0
 17  9  1  6  0  0  0
 17 11  1  0  0  0  0
 17 22  1  0  0  0  0
 18 19  1  1  0  0  0
 18 20  1  0  0  0  0
 19  3  1  0  0  0  0
 20 13  1  6  0  0  0
 20 21  1  0  0  0  0
 21 15  1  1  0  0  0
 21 22  1  0  0  0  0
 22  6  1  6  0  0  0
M  END
>  <CHROM.1>
65.89036373,42.95302067,60.19616109,20.39005523,14.31518263,36.89523228,1.35708122
0.94460472,-1.10569969

>  <Name>
2et8_lig

>  <RI>
0

>  <Rbt.Current_Directory>
/home/itssahil/PROJECTS/Mol_Feturizer/New_Systems/rnas/2et8

>  <Rbt.Executable>
rbdock ($Id: //depot/dev/client3/rdock/2013.1/src/exe/rbdock.cxx#4 $)

>  <Rbt.Library>
libRbt.so (2013.1, Build901 2013/11/27)

>  <Rbt.Parameter_File>
/export/apps/rDock/src/rDock_2013.1_src/data/scripts/dock_solv.prm

>  <Rbt.Receptor>
prm/pocket_docking_7.prm

>  <SCORE>
-12.7503

>  <SCORE.INTER>
-11.5298

>  <SCORE.INTER.CONST>
1

>  <SCORE.INTER.POLAR>
-0.934346

>  <SCORE.INTER.ROT>
3

>  <SCORE.INTER.SOLV>
16.4756

>  <SCORE.INTER.VDW>
-15.6639

>  <SCORE.INTER.norm>
-0.524084

>  <SCORE.INTRA>
-1.2205

>  <SCORE.INTRA.DIHEDRAL>
-3.32608

>  <SCORE.INTRA.DIHEDRAL.0>
4.99603

>  <SCORE.INTRA.POLAR>
0

>  <SCORE.INTRA.POLAR.0>
0

>  <SCORE.INTRA.REPUL>
0

>  <SCORE.INTRA.REPUL.0>
0

>  <SCORE.INTRA.SOLV>
-0.478376

>  <SCORE.INTRA.SOLV.lig_0>
-74.884

>  <SCORE.INTRA.VDW>
0.681727

>  <SCORE.INTRA.VDW.0>
-0.858933

>  <SCORE.INTRA.norm>
-0.0554773

>  <SCORE.RESTR>
0

>  <SCORE.RESTR.CAVITY>
0

>  <SCORE.RESTR.norm>
0

>  <SCORE.SYSTEM>
0

>  <SCORE.SYSTEM.CONST>
0

>  <SCORE.SYSTEM.DIHEDRAL>
0

>  <SCORE.SYSTEM.SOLV>
0

>  <SCORE.SYSTEM.norm>
0

>  <SCORE.heavy>
22

>  <SCORE.norm>
-0.579561

>  <RMSD>
4.381

$$$$
2et8_lig
 OpenBabel11021811433D
libRbt.so/2013.1/901 2013/11/27
 22 23  0  0  0  0  0  0  0  0999 V2000
   19.7763   16.1760   31.6668 N   0  0  0  0  0  0  0  0  0  0  0  0
   17.7819   13.6330   35.4302 N   0  0  0  0  0  0  0  0  0  0  0  0
   19.1945   17.4405   38.2440 N   0  0  0  0  0  0  0  0  0  0  0  0
   22.4934   15.0091   35.6141 O   0  0  0  0  0  0  0  0  0  0  0  0
   21.4152   14.5425   34.7662 C   0  0  2  0  0  0  0  0  0  0  0  0
   21.6004   11.2893   38.2845 N   0  0  0  0  0  0  0  0  0  0  0  0
   22.2995   15.8382   32.8315 O   0  0  0  0  0  0  0  0  0  0  0  0
   21.1378   15.6088   33.6388 C   0  0  1  0  0  0  0  0  0  0  0  0
   20.3783   13.4129   36.5826 O   0  0  0  0  0  0  0  0  0  0  0  0
   20.0272   15.1432   32.7295 C   0  0  1  0  0  0  0  0  0  0  0  0
   20.9502   15.0294   38.1195 O   0  0  0  0  0  0  0  0  0  0  0  0
   18.7511   14.9029   33.5684 C   0  0  0  0  0  0  0  0  0  0  0  0
   18.3689   14.0577   40.5100 O   0  0  0  0  0  0  0  0  0  0  0  0
   19.0765   13.8312   34.6495 C   0  0  1  0  0  0  0  0  0  0  0  0
   19.9532   11.7496   40.5241 O   0  0  0  0  0  0  0  0  0  0  0  0
   20.0982   14.3492   35.6179 C   0  0  2  0  0  0  0  0  0  0  0  0
   21.3323   13.6585   37.5630 C   0  0  1  0  0  0  0  0  0  0  0  0
   19.6087   15.0422   38.7796 C   0  0  2  0  0  0  0  0  0  0  0  0
   19.2946   16.4432   39.3441 C   0  0  0  0  0  0  0  0  0  0  0  0
   19.6186   14.0544   39.9079 C   0  0  2  0  0  0  0  0  0  0  0  0
   19.9320   12.6689   39.4225 C   0  0  1  0  0  0  0  0  0  0  0  0
   21.2705   12.6781   38.7677 C   0  0  1  0  0  0  0  0  0  0  0  0
  5  4  1  1  0  0  0
  5  8  1  0  0  0  0
  5 16  1  0  0  0  0
  8  7  1  6  0  0  0
  8 10  1  0  0  0  0
 10  1  1  6  0  0  0
 10 12  1  0  0  0  0
 11 18  1  0  0  0  0
 12 14  1  0  0  0  0
 14  2  1  1  0  0  0
 14 16  1  0  0  0  0
 16  9  1  1  0  0  0
 17  9  1  6  0  0  0
 17 11  1  0  0  0  0
 17 22  1  0  0  0  0
 18 19  1  1  0  0  0
 18 20  1  0  0  0  0
 19  3  1  0  0  0  0
 20 13  1  6  0  0  0
 20 21  1  0  0  0  0
 21 15  1  1  0  0  0
 21 22  1  0  0  0  0
 22  6  1  6  0  0  0
M  END
>  <CHROM.1>
63.64628358,50.17714482,64.00309631,20.21401689,14.38863029,36.69141600,1.40693041
0.94828838,-1.15011014

>  <Name>
2et8_lig

>  <RI>
0

>  <Rbt.Current_Directory>
/home/itssahil/PROJECTS/Mol_Feturizer/New_Systems/rnas/2et8

>  <Rbt.Executable>
rbdock ($Id: //depot/dev/client3/rdock/2013.1/src/exe/rbdock.cxx#4 $)

>  <Rbt.Library>
libRbt.so (2013.1, Build901 2013/11/27)

>  <Rbt.Parameter_File>
/export/apps/rDock/src/rDock_2013.1_src/data/scripts/dock_solv.prm

>  <Rbt.Receptor>
prm/pocket_docking_5.prm

>  <SCORE>
-12.858

>  <SCORE.INTER>
-11.1128

>  <SCORE.INTER.CONST>
1

>  <SCORE.INTER.POLAR>
-1.00197

>  <SCORE.INTER.ROT>
3

>  <SCORE.INTER.SOLV>
16.3942

>  <SCORE.INTER.VDW>
-15.1334

>  <SCORE.INTER.norm>
-0.505129

>  <SCORE.INTRA>
-1.74511

>  <SCORE.INTRA.DIHEDRAL>
-4.22404

>  <SCORE.INTRA.DIHEDRAL.0>
4.99603

>  <SCORE.INTRA.POLAR>
0

>  <SCORE.INTRA.POLAR.0>
0

>  <SCORE.INTRA.REPUL>
0

>  <SCORE.INTRA.REPUL.0>
0

>  <SCORE.INTRA.SOLV>
-0.732285

>  <SCORE.INTRA.SOLV.lig_0>
-74.884

>  <SCORE.INTRA.VDW>
0.733049

>  <SCORE.INTRA.VDW.0>
-0.858933

>  <SCORE.INTRA.norm>
-0.0793233

>  <SCORE.RESTR>
0

>  <SCORE.RESTR.CAVITY>
0

>  <SCORE.RESTR.norm>
0

>  <SCORE.SYSTEM>
0

>  <SCORE.SYSTEM.CONST>
0

>  <SCORE.SYSTEM.DIHEDRAL>
0

>  <SCORE.SYSTEM.SOLV>
0

>  <SCORE.SYSTEM.norm>
0

>  <SCORE.heavy>
22

>  <SCORE.norm>
-0.584453

>  <RMSD>
4.489

$$$$
2et8_lig
 OpenBabel11021811433D
libRbt.so/2013.1/901 2013/11/27
 22 23  0  0  0  0  0  0  0  0999 V2000
   21.5906   21.6837   38.3236 N   0  0  0  0  0  0  0  0  0  0  0  0
   22.3782   16.8656   37.4442 N   0  0  0  0  0  0  0  0  0  0  0  0
   17.4399   14.2576   35.1840 N   0  0  0  0  0  0  0  0  0  0  0  0
   18.2559   18.3153   39.6873 O   0  0  0  0  0  0  0  0  0  0  0  0
   19.6778   18.5460   39.5306 C   0  0  2  0  0  0  0  0  0  0  0  0
   19.1134   14.2923   41.0195 N   0  0  0  0  0  0  0  0  0  0  0  0
   19.3788   20.9919   39.8942 O   0  0  0  0  0  0  0  0  0  0  0  0
   19.9140   20.0106   38.9973 C   0  0  1  0  0  0  0  0  0  0  0  0
   20.0626   16.2632   38.9910 O   0  0  0  0  0  0  0  0  0  0  0  0
   21.3890   20.2857   38.8373 C   0  0  1  0  0  0  0  0  0  0  0  0
   18.4278   15.5914   37.5150 O   0  0  0  0  0  0  0  0  0  0  0  0
   21.9952   19.2529   37.8596 C   0  0  0  0  0  0  0  0  0  0  0  0
   20.0792   12.4415   36.6949 O   0  0  0  0  0  0  0  0  0  0  0  0
   21.7506   17.8309   38.4439 C   0  0  1  0  0  0  0  0  0  0  0  0
   19.5206   12.0185   39.4053 O   0  0  0  0  0  0  0  0  0  0  0  0
   20.2834   17.5226   38.4899 C   0  0  2  0  0  0  0  0  0  0  0  0
   18.7886   15.7077   38.9954 C   0  0  1  0  0  0  0  0  0  0  0  0
   19.3250   14.6612   36.7632 C   0  0  2  0  0  0  0  0  0  0  0  0
   18.8923   14.5656   35.2854 C   0  0  0  0  0  0  0  0  0  0  0  0
   19.2356   13.2995   37.3851 C   0  0  2  0  0  0  0  0  0  0  0  0
   19.6336   13.3292   38.8322 C   0  0  1  0  0  0  0  0  0  0  0  0
   18.7293   14.2616   39.5625 C   0  0  1  0  0  0  0  0  0  0  0  0
  5  4  1  6  0  0  0
  5  8  1  0  0  0  0
  5 16  1  0  0  0  0
  8  7  1  1  0  0  0
  8 10  1  0  0  0  0
 10  1  1  6  0  0  0
 10 12  1  0  0  0  0
 11 18  1  0  0  0  0
 12 14  1  0  0  0  0
 14  2  1  6  0  0  0
 14 16  1  0  0  0  0
 16  9  1  1  0  0  0
 17  9  1  6  0  0  0
 17 11  1  0  0  0  0
 17 22  1  0  0  0  0
 18 19  1  6  0  0  0
 18 20  1  0  0  0  0
 19  3  1  0  0  0  0
 20 13  1  6  0  0  0
 20 21  1  0  0  0  0
 21 15  1  1  0  0  0
 21 22  1  0  0  0  0
 22  6  1  1  0  0  0
M  END
>  <CHROM.1>
72.61892967,63.47140069,-51.41923996,19.78981721,16.43150805,38.33052501
-0.88049649,-1.21120016,-2.29816454

>  <Name>
2et8_lig

>  <RI>
2.82936e+07

>  <Rbt.Current_Directory>
/home/itssahil/PROJECTS/Mol_Feturizer/New_Systems/rnas/2et8

>  <Rbt.Executable>
rbdock ($Id: //depot/dev/client3/rdock/2013.1/src/exe/rbdock.cxx#4 $)

>  <Rbt.Library>
libRbt.so (2013.1, Build901 2013/11/27)

>  <Rbt.Parameter_File>
/export/apps/rDock/src/rDock_2013.1_src/data/scripts/dock_solv.prm

>  <Rbt.Receptor>
prm/pocket_docking_8.prm

>  <SCORE>
-8.20477

>  <SCORE.INTER>
-6.45079

>  <SCORE.INTER.CONST>
1

>  <SCORE.INTER.POLAR>
-0.951459

>  <SCORE.INTER.ROT>
3

>  <SCORE.INTER.SOLV>
13.4981

>  <SCORE.INTER.VDW>
-11.2284

>  <SCORE.INTER.norm>
-0.293218

>  <SCORE.INTRA>
-1.75397

>  <SCORE.INTRA.DIHEDRAL>
-3.74486

>  <SCORE.INTRA.DIHEDRAL.0>
4.99603

>  <SCORE.INTRA.POLAR>
0

>  <SCORE.INTRA.POLAR.0>
0

>  <SCORE.INTRA.REPUL>
0

>  <SCORE.INTRA.REPUL.0>
0

>  <SCORE.INTRA.SOLV>
0.586527

>  <SCORE.INTRA.SOLV.lig_0>
-74.884

>  <SCORE.INTRA.VDW>
-0.174806

>  <SCORE.INTRA.VDW.0>
-0.858933

>  <SCORE.INTRA.norm>
-0.0797261

>  <SCORE.RESTR>
0

>  <SCORE.RESTR.CAVITY>
0

>  <SCORE.RESTR.norm>
0

>  <SCORE.SYSTEM>
0

>  <SCORE.SYSTEM.CONST>
0

>  <SCORE.SYSTEM.DIHEDRAL>
0

>  <SCORE.SYSTEM.SOLV>
0

>  <SCORE.SYSTEM.norm>
0

>  <SCORE.heavy>
22

>  <SCORE.norm>
-0.372944

>  <RMSD>
4.831

$$$$
2et8_lig
 OpenBabel11021811433D
libRbt.so/2013.1/901 2013/11/27
 22 23  0  0  0  0  0  0  0  0999 V2000
   23.2835   11.9173   41.7971 N   0  0  0  0  0  0  0  0  0  0  0  0
   23.2186   14.3828   37.4931 N   0  0  0  0  0  0  0  0  0  0  0  0
   19.6820   11.8689   32.8323 N   0  0  0  0  0  0  0  0  0  0  0  0
   19.1710   12.0969   39.0801 O   0  0  0  0  0  0  0  0  0  0  0  0
   20.6169   12.0515   38.9984 C   0  0  2  0  0  0  0  0  0  0  0  0
   19.6515   15.9736   37.9956 N   0  0  0  0  0  0  0  0  0  0  0  0
   20.7604   10.8693   41.1860 O   0  0  0  0  0  0  0  0  0  0  0  0
   21.2218   12.0115   40.4536 C   0  0  1  0  0  0  0  0  0  0  0  0
   20.6167   13.3334   36.9966 O   0  0  0  0  0  0  0  0  0  0  0  0
   22.7285   11.9493   40.4007 C   0  0  1  0  0  0  0  0  0  0  0  0
   20.2785   13.9902   34.8156 O   0  0  0  0  0  0  0  0  0  0  0  0
   23.2608   13.1796   39.6305 C   0  0  0  0  0  0  0  0  0  0  0  0
   16.6441   13.7161   35.0091 O   0  0  0  0  0  0  0  0  0  0  0  0
   22.6485   13.1577   38.1995 C   0  0  1  0  0  0  0  0  0  0  0  0
   17.0850   15.7805   36.8479 O   0  0  0  0  0  0  0  0  0  0  0  0
   21.1604   13.3372   38.2576 C   0  0  2  0  0  0  0  0  0  0  0  0
   20.5868   14.4899   36.2264 C   0  0  1  0  0  0  0  0  0  0  0  0
   18.9383   13.3369   34.7038 C   0  0  2  0  0  0  0  0  0  0  0  0
   18.6757   12.8813   33.2534 C   0  0  0  0  0  0  0  0  0  0  0  0
   17.8854   14.3284   35.1001 C   0  0  2  0  0  0  0  0  0  0  0  0
   18.0944   14.8207   36.5028 C   0  0  1  0  0  0  0  0  0  0  0  0
   19.4343   15.4665   36.5932 C   0  0  1  0  0  0  0  0  0  0  0  0
  5  4  1  1  0  0  0
  5  8  1  0  0  0  0
  5 16  1  0  0  0  0
  8  7  1  6  0  0  0
  8 10  1  0  0  0  0
 10  1  1  1  0  0  0
 10 12  1  0  0  0  0
 11 18  1  0  0  0  0
 12 14  1  0  0  0  0
 14  2  1  6  0  0  0
 14 16  1  0  0  0  0
 16  9  1  6  0  0  0
 17  9  1  1  0  0  0
 17 11  1  0  0  0  0
 17 22  1  0  0  0  0
 18 19  1  6  0  0  0
 18 20  1  0  0  0  0
 19  3  1  0  0  0  0
 20 13  1  1  0  0  0
 20 21  1  0  0  0  0
 21 15  1  6  0  0  0
 21 22  1  0  0  0  0
 22  6  1  1  0  0  0
M  END
>  <CHROM.1>
161.85114855,165.00740802,61.99068820,20.20935306,13.39928568,37.37306677
-0.92967445,0.39740595,-1.54215123

>  <Name>
2et8_lig

>  <RI>
0

>  <Rbt.Current_Directory>
/home/itssahil/PROJECTS/Mol_Feturizer/New_Systems/rnas/2et8

>  <Rbt.Executable>
rbdock ($Id: //depot/dev/client3/rdock/2013.1/src/exe/rbdock.cxx#4 $)

>  <Rbt.Library>
libRbt.so (2013.1, Build901 2013/11/27)

>  <Rbt.Parameter_File>
/export/apps/rDock/src/rDock_2013.1_src/data/scripts/dock_solv.prm

>  <Rbt.Receptor>
prm/pocket_docking_7.prm

>  <SCORE>
-15.7321

>  <SCORE.INTER>
-14.5622

>  <SCORE.INTER.CONST>
1

>  <SCORE.INTER.POLAR>
-1.92244

>  <SCORE.INTER.ROT>
3

>  <SCORE.INTER.SOLV>
17.2291

>  <SCORE.INTER.VDW>
-14.643

>  <SCORE.INTER.norm>
-0.661917

>  <SCORE.INTRA>
-1.1699

>  <SCORE.INTRA.DIHEDRAL>
-2.29665

>  <SCORE.INTRA.DIHEDRAL.0>
4.99603

>  <SCORE.INTRA.POLAR>
0

>  <SCORE.INTRA.POLAR.0>
0

>  <SCORE.INTRA.REPUL>
0

>  <SCORE.INTRA.REPUL.0>
0

>  <SCORE.INTRA.SOLV>
1.53028

>  <SCORE.INTRA.SOLV.lig_0>
-74.884

>  <SCORE.INTRA.VDW>
-0.786713

>  <SCORE.INTRA.VDW.0>
-0.858933

>  <SCORE.INTRA.norm>
-0.0531772

>  <SCORE.RESTR>
0

>  <SCORE.RESTR.CAVITY>
0

>  <SCORE.RESTR.norm>
0

>  <SCORE.SYSTEM>
0

>  <SCORE.SYSTEM.CONST>
0

>  <SCORE.SYSTEM.DIHEDRAL>
0

>  <SCORE.SYSTEM.SOLV>
0

>  <SCORE.SYSTEM.norm>
0

>  <SCORE.heavy>
22

>  <SCORE.norm>
-0.715094

>  <RMSD>
5.405

$$$$
2et8_lig
 OpenBabel11021811433D
libRbt.so/2013.1/901 2013/11/27
 22 23  0  0  0  0  0  0  0  0999 V2000
   23.2699   11.9489   41.7679 N   0  0  0  0  0  0  0  0  0  0  0  0
   23.1793   14.3948   37.4532 N   0  0  0  0  0  0  0  0  0  0  0  0
   19.7236   11.8634   32.7914 N   0  0  0  0  0  0  0  0  0  0  0  0
   19.1467   12.1004   39.0656 O   0  0  0  0  0  0  0  0  0  0  0  0
   20.5924   12.0603   38.9787 C   0  0  2  0  0  0  0  0  0  0  0  0
   19.5023   15.9225   37.9881 N   0  0  0  0  0  0  0  0  0  0  0  0
   20.7487   10.8884   41.1710 O   0  0  0  0  0  0  0  0  0  0  0  0
   21.2029   12.0291   40.4318 C   0  0  1  0  0  0  0  0  0  0  0  0
   20.5797   13.3331   36.9711 O   0  0  0  0  0  0  0  0  0  0  0  0
   22.7096   11.9726   40.3735 C   0  0  1  0  0  0  0  0  0  0  0  0
   20.2273   13.9958   34.7942 O   0  0  0  0  0  0  0  0  0  0  0  0
   23.2343   13.2014   39.5958 C   0  0  0  0  0  0  0  0  0  0  0  0
   16.6061   13.5723   34.9634 O   0  0  0  0  0  0  0  0  0  0  0  0
   22.6166   13.1707   38.1672 C   0  0  1  0  0  0  0  0  0  0  0  0
   16.9522   15.6359   36.8233 O   0  0  0  0  0  0  0  0  0  0  0  0
   21.1281   13.3447   38.2301 C   0  0  2  0  0  0  0  0  0  0  0  0
   20.5071   14.4946   36.2113 C   0  0  1  0  0  0  0  0  0  0  0  0
   18.9155   13.2896   34.6685 C   0  0  2  0  0  0  0  0  0  0  0  0
   18.6799   12.8370   33.2125 C   0  0  0  0  0  0  0  0  0  0  0  0
   17.8209   14.2338   35.0674 C   0  0  2  0  0  0  0  0  0  0  0  0
   18.0017   14.7211   36.4756 C   0  0  1  0  0  0  0  0  0  0  0  0
   19.3137   15.4200   36.5798 C   0  0  1  0  0  0  0  0  0  0  0  0
  5  4  1  1  0  0  0
  5  8  1  0  0  0  0
  5 16  1  0  0  0  0
  8  7  1  6  0  0  0
  8 10  1  0  0  0  0
 10  1  1  1  0  0  0
 10 12  1  0  0  0  0
 11 18  1  0  0  0  0
 12 14  1  0  0  0  0
 14  2  1  6  0  0  0
 14 16  1  0  0  0  0
 16  9  1  6  0  0  0
 17  9  1  1  0  0  0
 17 11  1  0  0  0  0
 17 22  1  0  0  0  0
 18 19  1  6  0  0  0
 18 20  1  0  0  0  0
 19  3  1  0  0  0  0
 20 13  1  1  0  0  0
 20 21  1  0  0  0  0
 21 15  1  6  0  0  0
 21 22  1  0  0  0  0
 22  6  1  1  0  0  0
M  END
>  <CHROM.1>
159.95496470,164.33720465,62.37071924,20.16461140,13.37531147,37.34618583
-0.93761784,0.34902086,-1.52306054

>  <Name>
2et8_lig

>  <RI>
3.14397e+07

>  <Rbt.Current_Directory>
/home/itssahil/PROJECTS/Mol_Feturizer/New_Systems/rnas/2et8

>  <Rbt.Executable>
rbdock ($Id: //depot/dev/client3/rdock/2013.1/src/exe/rbdock.cxx#4 $)

>  <Rbt.Library>
libRbt.so (2013.1, Build901 2013/11/27)

>  <Rbt.Parameter_File>
/export/apps/rDock/src/rDock_2013.1_src/data/scripts/dock_solv.prm

>  <Rbt.Receptor>
prm/pocket_docking_6.prm

>  <SCORE>
-15.6074

>  <SCORE.INTER>
-14.5251

>  <SCORE.INTER.CONST>
1

>  <SCORE.INTER.POLAR>
-1.90615

>  <SCORE.INTER.ROT>
3

>  <SCORE.INTER.SOLV>
17.4272

>  <SCORE.INTER.VDW>
-14.7386

>  <SCORE.INTER.norm>
-0.660233

>  <SCORE.INTRA>
-1.0823

>  <SCORE.INTRA.DIHEDRAL>
-1.91043

>  <SCORE.INTRA.DIHEDRAL.0>
4.99603

>  <SCORE.INTRA.POLAR>
0

>  <SCORE.INTRA.POLAR.0>
0

>  <SCORE.INTRA.REPUL>
0

>  <SCORE.INTRA.REPUL.0>
0

>  <SCORE.INTRA.SOLV>
1.43337

>  <SCORE.INTRA.SOLV.lig_0>
-74.884

>  <SCORE.INTRA.VDW>
-0.84377

>  <SCORE.INTRA.VDW.0>
-0.858933

>  <SCORE.INTRA.norm>
-0.0491955

>  <SCORE.RESTR>
0

>  <SCORE.RESTR.CAVITY>
0

>  <SCORE.RESTR.norm>
0

>  <SCORE.SYSTEM>
0

>  <SCORE.SYSTEM.CONST>
0

>  <SCORE.SYSTEM.DIHEDRAL>
0

>  <SCORE.SYSTEM.SOLV>
0

>  <SCORE.SYSTEM.norm>
0

>  <SCORE.heavy>
22

>  <SCORE.norm>
-0.709428

>  <RMSD>
5.407

$$$$
2et8_lig
 OpenBabel11021811433D
libRbt.so/2013.1/901 2013/11/27
 22 23  0  0  0  0  0  0  0  0999 V2000
   16.9356   17.1371   35.3346 N   0  0  0  0  0  0  0  0  0  0  0  0
   20.0525   13.2801   35.4622 N   0  0  0  0  0  0  0  0  0  0  0  0
   18.7666   10.7064   42.7982 N   0  0  0  0  0  0  0  0  0  0  0  0
   17.1379   14.2159   39.3035 O   0  0  0  0  0  0  0  0  0  0  0  0
   17.9383   14.7898   38.2407 C   0  0  2  0  0  0  0  0  0  0  0  0
   22.2858   12.6717   37.5829 N   0  0  0  0  0  0  0  0  0  0  0  0
   16.3954   16.7360   38.0521 O   0  0  0  0  0  0  0  0  0  0  0  0
   17.0205   15.6771   37.3159 C   0  0  1  0  0  0  0  0  0  0  0  0
   19.3765   12.8975   38.2034 O   0  0  0  0  0  0  0  0  0  0  0  0
   17.8303   16.3008   36.2059 C   0  0  1  0  0  0  0  0  0  0  0  0
   19.8448   13.4474   40.3898 O   0  0  0  0  0  0  0  0  0  0  0  0
   18.5055   15.1822   35.3795 C   0  0  0  0  0  0  0  0  0  0  0  0
   20.8041   10.0524   41.3251 O   0  0  0  0  0  0  0  0  0  0  0  0
   19.4112   14.3526   36.3359 C   0  0  1  0  0  0  0  0  0  0  0  0
   22.8116   10.6411   39.4649 O   0  0  0  0  0  0  0  0  0  0  0  0
   18.5834   13.6428   37.3658 C   0  0  2  0  0  0  0  0  0  0  0  0
   20.3789   13.4942   38.9588 C   0  0  1  0  0  0  0  0  0  0  0  0
   19.6594   12.0552   40.9023 C   0  0  2  0  0  0  0  0  0  0  0  0
   19.1469   12.0760   42.3573 C   0  0  0  0  0  0  0  0  0  0  0  0
   20.9812   11.3481   40.8624 C   0  0  2  0  0  0  0  0  0  0  0  0
   21.5399   11.3058   39.4698 C   0  0  1  0  0  0  0  0  0  0  0  0
   21.7159   12.7013   38.9777 C   0  0  1  0  0  0  0  0  0  0  0  0
  5  4  1  1  0  0  0
  5  8  1  0  0  0  0
  5 16  1  0  0  0  0
  8  7  1  1  0  0  0
  8 10  1  0  0  0  0
 10  1  1  6  0  0  0
 10 12  1  0  0  0  0
 11 18  1  0  0  0  0
 12 14  1  0  0  0  0
 14  2  1  6  0  0  0
 14 16  1  0  0  0  0
 16  9  1  1  0  0  0
 17  9  1  6  0  0  0
 17 11  1  0  0  0  0
 17 22  1  0  0  0  0
 18 19  1  1  0  0  0
 18 20  1  0  0  0  0
 19  3  1  0  0  0  0
 20 13  1  6  0  0  0
 20 21  1  0  0  0  0
 21 15  1  1  0  0  0
 21 22  1  0  0  0  0
 22  6  1  6  0  0  0
M  END
>  <CHROM.1>
-55.14757636,108.24920496,171.43033440,19.41090622,13.37524234,38.68652249
2.14015187,0.58189639,-1.09017836

>  <Name>
2et8_lig

>  <RI>
0

>  <Rbt.Current_Directory>
/home/itssahil/PROJECTS/Mol_Feturizer/New_Systems/rnas/2et8

>  <Rbt.Executable>
rbdock ($Id: //depot/dev/client3/rdock/2013.1/src/exe/rbdock.cxx#4 $)

>  <Rbt.Library>
libRbt.so (2013.1, Build901 2013/11/27)

>  <Rbt.Parameter_File>
/export/apps/rDock/src/rDock_2013.1_src/data/scripts/dock_solv.prm

>  <Rbt.Receptor>
prm/pocket_docking_5.prm

>  <SCORE>
-9.75762

>  <SCORE.INTER>
-12.6589

>  <SCORE.INTER.CONST>
1

>  <SCORE.INTER.POLAR>
-0.852067

>  <SCORE.INTER.ROT>
3

>  <SCORE.INTER.SOLV>
19.2967

>  <SCORE.INTER.VDW>
-17.6313

>  <SCORE.INTER.norm>
-0.575404

>  <SCORE.INTRA>
2.90126

>  <SCORE.INTRA.DIHEDRAL>
1.9573

>  <SCORE.INTRA.DIHEDRAL.0>
4.99603

>  <SCORE.INTRA.POLAR>
0

>  <SCORE.INTRA.POLAR.0>
0

>  <SCORE.INTRA.REPUL>
0

>  <SCORE.INTRA.REPUL.0>
0

>  <SCORE.INTRA.SOLV>
3.09906

>  <SCORE.INTRA.SOLV.lig_0>
-74.884

>  <SCORE.INTRA.VDW>
0.373079

>  <SCORE.INTRA.VDW.0>
-0.858933

>  <SCORE.INTRA.norm>
0.131875

>  <SCORE.RESTR>
0

>  <SCORE.RESTR.CAVITY>
0

>  <SCORE.RESTR.norm>
0

>  <SCORE.SYSTEM>
0

>  <SCORE.SYSTEM.CONST>
0

>  <SCORE.SYSTEM.DIHEDRAL>
0

>  <SCORE.SYSTEM.SOLV>
0

>  <SCORE.SYSTEM.norm>
0

>  <SCORE.heavy>
22

>  <SCORE.norm>
-0.443528

>  <RMSD>
5.435

$$$$
2et8_lig
 OpenBabel11021811433D
libRbt.so/2013.1/901 2013/11/27
 22 23  0  0  0  0  0  0  0  0999 V2000
   16.1214   15.2931   33.5263 N   0  0  0  0  0  0  0  0  0  0  0  0
   16.6995   16.0270   38.3982 N   0  0  0  0  0  0  0  0  0  0  0  0
   18.8079   12.0870   42.5635 N   0  0  0  0  0  0  0  0  0  0  0  0
   19.6977   12.9643   35.9988 O   0  0  0  0  0  0  0  0  0  0  0  0
   18.3444   13.4691   36.1133 C   0  0  2  0  0  0  0  0  0  0  0  0
   21.2344   14.8678   37.2877 N   0  0  0  0  0  0  0  0  0  0  0  0
   17.9763   13.2008   33.6645 O   0  0  0  0  0  0  0  0  0  0  0  0
   17.9178   14.1351   34.7497 C   0  0  1  0  0  0  0  0  0  0  0  0
   18.6375   13.9388   38.4250 O   0  0  0  0  0  0  0  0  0  0  0  0
   16.5050   14.6586   34.8337 C   0  0  1  0  0  0  0  0  0  0  0  0
   19.6070   13.6306   40.4908 O   0  0  0  0  0  0  0  0  0  0  0  0
   16.4113   15.6848   35.9861 C   0  0  0  0  0  0  0  0  0  0  0  0
   21.4009   10.6098   39.5018 O   0  0  0  0  0  0  0  0  0  0  0  0
   16.8235   14.9701   37.3062 C   0  0  1  0  0  0  0  0  0  0  0  0
   22.6435   12.4912   37.8423 O   0  0  0  0  0  0  0  0  0  0  0  0
   18.2646   14.5569   37.2568 C   0  0  2  0  0  0  0  0  0  0  0  0
   19.6879   14.4301   39.1911 C   0  0  1  0  0  0  0  0  0  0  0  0
   19.8358   12.1662   40.2946 C   0  0  2  0  0  0  0  0  0  0  0  0
   19.7697   11.4208   41.6438 C   0  0  0  0  0  0  0  0  0  0  0  0
   21.1963   11.9680   39.6958 C   0  0  2  0  0  0  0  0  0  0  0  0
   21.3278   12.6824   38.3822 C   0  0  1  0  0  0  0  0  0  0  0  0
   21.0953   14.1382   38.5990 C   0  0  1  0  0  0  0  0  0  0  0  0
  5  4  1  6  0  0  0
  5  8  1  0  0  0  0
  5 16  1  0  0  0  0
  8  7  1  6  0  0  0
  8 10  1  0  0  0  0
 10  1  1  6  0  0  0
 10 12  1  0  0  0  0
 11 18  1  0  0  0  0
 12 14  1  0  0  0  0
 14  2  1  1  0  0  0
 14 16  1  0  0  0  0
 16  9  1  1  0  0  0
 17  9  1  6  0  0  0
 17 11  1  0  0  0  0
 17 22  1  0  0  0  0
 18 19  1  1  0  0  0
 18 20  1  0  0  0  0
 19  3  1  0  0  0  0
 20 13  1  6  0  0  0
 20 21  1  0  0  0  0
 21 15  1  1  0  0  0
 21 22  1  0  0  0  0
 22  6  1  6  0  0  0
M  END
>  <CHROM.1>
123.59683709,170.16577056,32.09759244,19.12555264,13.57426149,37.80635426
2.20248504,0.52029466,-1.47041660

>  <Name>
2et8_lig

>  <RI>
2.82936e+07

>  <Rbt.Current_Directory>
/home/itssahil/PROJECTS/Mol_Feturizer/New_Systems/rnas/2et8

>  <Rbt.Executable>
rbdock ($Id: //depot/dev/client3/rdock/2013.1/src/exe/rbdock.cxx#4 $)

>  <Rbt.Library>
libRbt.so (2013.1, Build901 2013/11/27)

>  <Rbt.Parameter_File>
/export/apps/rDock/src/rDock_2013.1_src/data/scripts/dock_solv.prm

>  <Rbt.Receptor>
prm/pocket_docking_8.prm

>  <SCORE>
-10.2358

>  <SCORE.INTER>
-12.7182

>  <SCORE.INTER.CONST>
1

>  <SCORE.INTER.POLAR>
-0.505165

>  <SCORE.INTER.ROT>
3

>  <SCORE.INTER.SOLV>
15.1622

>  <SCORE.INTER.VDW>
-17.4489

>  <SCORE.INTER.norm>
-0.578098

>  <SCORE.INTRA>
2.48239

>  <SCORE.INTRA.DIHEDRAL>
4.91964

>  <SCORE.INTRA.DIHEDRAL.0>
4.99603

>  <SCORE.INTRA.POLAR>
0

>  <SCORE.INTRA.POLAR.0>
0

>  <SCORE.INTRA.REPUL>
0

>  <SCORE.INTRA.REPUL.0>
0

>  <SCORE.INTRA.SOLV>
2.26664

>  <SCORE.INTRA.SOLV.lig_0>
-74.884

>  <SCORE.INTRA.VDW>
-1.11075

>  <SCORE.INTRA.VDW.0>
-0.858933

>  <SCORE.INTRA.norm>
0.112836

>  <SCORE.RESTR>
0

>  <SCORE.RESTR.CAVITY>
0

>  <SCORE.RESTR.norm>
0

>  <SCORE.SYSTEM>
0

>  <SCORE.SYSTEM.CONST>
0

>  <SCORE.SYSTEM.DIHEDRAL>
0

>  <SCORE.SYSTEM.SOLV>
0

>  <SCORE.SYSTEM.norm>
0

>  <SCORE.heavy>
22

>  <SCORE.norm>
-0.465262

>  <RMSD>
5.484

$$$$
2et8_lig
 OpenBabel11021811433D
libRbt.so/2013.1/901 2013/11/27
 22 23  0  0  0  0  0  0  0  0999 V2000
   23.3873   12.3697   39.9674 N   0  0  0  0  0  0  0  0  0  0  0  0
   21.3526   14.9884   36.2782 N   0  0  0  0  0  0  0  0  0  0  0  0
   19.7034   12.3546   33.1657 N   0  0  0  0  0  0  0  0  0  0  0  0
   18.4991   12.9855   39.7383 O   0  0  0  0  0  0  0  0  0  0  0  0
   19.6895   12.8247   38.9281 C   0  0  2  0  0  0  0  0  0  0  0  0
   16.7383   16.3209   37.5463 N   0  0  0  0  0  0  0  0  0  0  0  0
   20.8244   11.5553   40.7459 O   0  0  0  0  0  0  0  0  0  0  0  0
   20.9466   12.6819   39.8685 C   0  0  1  0  0  0  0  0  0  0  0  0
   18.7807   14.1748   37.1955 O   0  0  0  0  0  0  0  0  0  0  0  0
   22.2022   12.4983   39.0520 C   0  0  1  0  0  0  0  0  0  0  0  0
   18.9485   14.6468   34.9479 O   0  0  0  0  0  0  0  0  0  0  0  0
   22.3735   13.7082   38.1049 C   0  0  0  0  0  0  0  0  0  0  0  0
   15.7417   13.1192   34.1088 O   0  0  0  0  0  0  0  0  0  0  0  0
   21.1168   13.7891   37.1898 C   0  0  1  0  0  0  0  0  0  0  0  0
   14.8771   15.2281   35.7343 O   0  0  0  0  0  0  0  0  0  0  0  0
   19.8903   14.0878   37.9999 C   0  0  2  0  0  0  0  0  0  0  0  0
   18.6154   15.2388   36.3167 C   0  0  1  0  0  0  0  0  0  0  0  0
   18.0053   13.5642   34.5310 C   0  0  2  0  0  0  0  0  0  0  0  0
   18.3772   13.0290   33.1326 C   0  0  0  0  0  0  0  0  0  0  0  0
   16.6168   14.1286   34.4822 C   0  0  2  0  0  0  0  0  0  0  0  0
   16.2002   14.6787   35.8153 C   0  0  1  0  0  0  0  0  0  0  0  0
   17.1524   15.7539   36.2127 C   0  0  1  0  0  0  0  0  0  0  0  0
  5  4  1  1  0  0  0
  5  8  1  0  0  0  0
  5 16  1  0  0  0  0
  8  7  1  1  0  0  0
  8 10  1  0  0  0  0
 10  1  1  1  0  0  0
 10 12  1  0  0  0  0
 11 18  1  0  0  0  0
 12 14  1  0  0  0  0
 14  2  1  6  0  0  0
 14 16  1  0  0  0  0
 16  9  1  6  0  0  0
 17  9  1  1  0  0  0
 17 11  1  0  0  0  0
 17 22  1  0  0  0  0
 18 19  1  6  0  0  0
 18 20  1  0  0  0  0
 19  3  1  0  0  0  0
 20 13  1  1  0  0  0
 20 21  1  0  0  0  0
 21 15  1  6  0  0  0
 21 22  1  0  0  0  0
 22  6  1  1  0  0  0
M  END
>  <CHROM.1>
175.93158630,103.81166157,65.45051266,19.05019783,13.79468108,36.86894682
-0.72020977,0.36153666,-1.61770740

>  <Name>
2et8_lig

>  <RI>
3.14397e+07

>  <Rbt.Current_Directory>
/home/itssahil/PROJECTS/Mol_Feturizer/New_Systems/rnas/2et8

>  <Rbt.Executable>
rbdock ($Id: //depot/dev/client3/rdock/2013.1/src/exe/rbdock.cxx#4 $)

>  <Rbt.Library>
libRbt.so (2013.1, Build901 2013/11/27)

>  <Rbt.Parameter_File>
/export/apps/rDock/src/rDock_2013.1_src/data/scripts/dock_solv.prm

>  <Rbt.Receptor>
prm/pocket_docking_6.prm

>  <SCORE>
-11.7742

>  <SCORE.INTER>
-12.5096

>  <SCORE.INTER.CONST>
1

>  <SCORE.INTER.POLAR>
-0.866339

>  <SCORE.INTER.ROT>
3

>  <SCORE.INTER.SOLV>
14.5095

>  <SCORE.INTER.VDW>
-15.8885

>  <SCORE.INTER.norm>
-0.56862

>  <SCORE.INTRA>
0.735442

>  <SCORE.INTRA.DIHEDRAL>
1.22794

>  <SCORE.INTRA.DIHEDRAL.0>
4.99603

>  <SCORE.INTRA.POLAR>
0

>  <SCORE.INTRA.POLAR.0>
0

>  <SCORE.INTRA.REPUL>
0

>  <SCORE.INTRA.REPUL.0>
0

>  <SCORE.INTRA.SOLV>
0.758832

>  <SCORE.INTRA.SOLV.lig_0>
-74.884

>  <SCORE.INTRA.VDW>
-0.257944

>  <SCORE.INTRA.VDW.0>
-0.858933

>  <SCORE.INTRA.norm>
0.0334292

>  <SCORE.RESTR>
0

>  <SCORE.RESTR.CAVITY>
0

>  <SCORE.RESTR.norm>
0

>  <SCORE.SYSTEM>
0

>  <SCORE.SYSTEM.CONST>
0

>  <SCORE.SYSTEM.DIHEDRAL>
0

>  <SCORE.SYSTEM.SOLV>
0

>  <SCORE.SYSTEM.norm>
0

>  <SCORE.heavy>
22

>  <SCORE.norm>
-0.535191

>  <RMSD>
5.571

$$$$
2et8_lig
 OpenBabel11021811433D
libRbt.so/2013.1/901 2013/11/27
 22 23  0  0  0  0  0  0  0  0999 V2000
   23.0755    9.9980   41.3334 N   0  0  0  0  0  0  0  0  0  0  0  0
   20.4192   11.5847   37.4560 N   0  0  0  0  0  0  0  0  0  0  0  0
   19.6537   12.5904   33.6061 N   0  0  0  0  0  0  0  0  0  0  0  0
   23.9471   14.4292   39.3506 O   0  0  0  0  0  0  0  0  0  0  0  0
   22.8996   13.4702   39.6381 C   0  0  2  0  0  0  0  0  0  0  0  0
   22.4871   16.8992   36.9595 N   0  0  0  0  0  0  0  0  0  0  0  0
   24.1859   12.5574   41.5659 O   0  0  0  0  0  0  0  0  0  0  0  0
   23.5265   12.2070   40.3426 C   0  0  1  0  0  0  0  0  0  0  0  0
   21.6651   14.1335   37.7181 O   0  0  0  0  0  0  0  0  0  0  0  0
   22.4558   11.1947   40.6679 C   0  0  1  0  0  0  0  0  0  0  0  0
   21.1280   13.6506   35.5316 O   0  0  0  0  0  0  0  0  0  0  0  0
   21.7349   10.7812   39.3643 C   0  0  0  0  0  0  0  0  0  0  0  0
   18.0699   15.6427   35.5560 O   0  0  0  0  0  0  0  0  0  0  0  0
   21.1208   12.0601   38.7235 C   0  0  1  0  0  0  0  0  0  0  0  0
   19.9781   17.6577   35.9244 O   0  0  0  0  0  0  0  0  0  0  0  0
   22.2009   13.0097   38.2975 C   0  0  2  0  0  0  0  0  0  0  0  0
   22.0177   14.5111   36.4279 C   0  0  1  0  0  0  0  0  0  0  0  0
   19.6704   13.9349   35.7043 C   0  0  2  0  0  0  0  0  0  0  0  0
   18.8297   13.0568   34.7542 C   0  0  0  0  0  0  0  0  0  0  0  0
   19.4203   15.3778   35.3816 C   0  0  2  0  0  0  0  0  0  0  0  0
   20.2226   16.2860   36.2675 C   0  0  1  0  0  0  0  0  0  0  0  0
   21.6704   15.9862   36.0815 C   0  0  1  0  0  0  0  0  0  0  0  0
  5  4  1  6  0  0  0
  5  8  1  0  0  0  0
  5 16  1  0  0  0  0
  8  7  1  1  0  0  0
  8 10  1  0  0  0  0
 10  1  1  6  0  0  0
 10 12  1  0  0  0  0
 11 18  1  0  0  0  0
 12 14  1  0  0  0  0
 14  2  1  6  0  0  0
 14 16  1  0  0  0  0
 16  9  1  1  0  0  0
 17  9  1  1  0  0  0
 17 11  1  0  0  0  0
 17 22  1  0  0  0  0
 18 19  1  6  0  0  0
 18 20  1  0  0  0  0
 19  3  1  0  0  0  0
 20 13  1  1  0  0  0
 20 21  1  0  0  0  0
 21 15  1  6  0  0  0
 21 22  1  0  0  0  0
 22  6  1  1  0  0  0
M  END
>  <CHROM.1>
122.94055901,82.27670717,-22.01694116,21.38071008,13.71698869,37.57063696
0.77916804,0.83843974,2.81388895

>  <Name>
2et8_lig

>  <RI>
0

>  <Rbt.Current_Directory>
/home/itssahil/PROJECTS/Mol_Feturizer/New_Systems/rnas/2et8

>  <Rbt.Executable>
rbdock ($Id: //depot/dev/client3/rdock/2013.1/src/exe/rbdock.cxx#4 $)

>  <Rbt.Library>
libRbt.so (2013.1, Build901 2013/11/27)

>  <Rbt.Parameter_File>
/export/apps/rDock/src/rDock_2013.1_src/data/scripts/dock_solv.prm

>  <Rbt.Receptor>
prm/pocket_docking_7.prm

>  <SCORE>
-7.19486

>  <SCORE.INTER>
-11.6397

>  <SCORE.INTER.CONST>
1

>  <SCORE.INTER.POLAR>
-1.58683

>  <SCORE.INTER.ROT>
3

>  <SCORE.INTER.SOLV>
17.28

>  <SCORE.INTER.VDW>
-13.8304

>  <SCORE.INTER.norm>
-0.529078

>  <SCORE.INTRA>
4.44486

>  <SCORE.INTRA.DIHEDRAL>
7.98426

>  <SCORE.INTRA.DIHEDRAL.0>
4.99603

>  <SCORE.INTRA.POLAR>
0

>  <SCORE.INTRA.POLAR.0>
0

>  <SCORE.INTRA.REPUL>
0

>  <SCORE.INTRA.REPUL.0>
0

>  <SCORE.INTRA.SOLV>
3.25692

>  <SCORE.INTRA.SOLV.lig_0>
-74.884

>  <SCORE.INTRA.VDW>
-1.17573

>  <SCORE.INTRA.VDW.0>
-0.858933

>  <SCORE.INTRA.norm>
0.202039

>  <SCORE.RESTR>
0

>  <SCORE.RESTR.CAVITY>
0

>  <SCORE.RESTR.norm>
0

>  <SCORE.SYSTEM>
0

>  <SCORE.SYSTEM.CONST>
0

>  <SCORE.SYSTEM.DIHEDRAL>
0

>  <SCORE.SYSTEM.SOLV>
0

>  <SCORE.SYSTEM.norm>
0

>  <SCORE.heavy>
22

>  <SCORE.norm>
-0.327039

>  <RMSD>
5.581

$$$$
2et8_lig
 OpenBabel11021811433D
libRbt.so/2013.1/901 2013/11/27
 22 23  0  0  0  0  0  0  0  0999 V2000
   23.2721   11.9697   41.7442 N   0  0  0  0  0  0  0  0  0  0  0  0
   23.1881   14.5373   37.5007 N   0  0  0  0  0  0  0  0  0  0  0  0
   19.1347   16.8918   39.2733 N   0  0  0  0  0  0  0  0  0  0  0  0
   19.2308   11.9956   38.9170 O   0  0  0  0  0  0  0  0  0  0  0  0
   20.6787   12.0308   38.8752 C   0  0  2  0  0  0  0  0  0  0  0  0
   19.4149   12.5064   34.3339 N   0  0  0  0  0  0  0  0  0  0  0  0
   20.8278   10.8025   41.0369 O   0  0  0  0  0  0  0  0  0  0  0  0
   21.2454   11.9864   40.3456 C   0  0  1  0  0  0  0  0  0  0  0  0
   20.6621   13.3615   36.9056 O   0  0  0  0  0  0  0  0  0  0  0  0
   22.7541   12.0073   40.3339 C   0  0  1  0  0  0  0  0  0  0  0  0
   18.7532   14.5055   37.4970 O   0  0  0  0  0  0  0  0  0  0  0  0
   23.2387   13.2839   39.6089 C   0  0  0  0  0  0  0  0  0  0  0  0
   19.3349   17.2382   35.1485 O   0  0  0  0  0  0  0  0  0  0  0  0
   22.6673   13.2655   38.1610 C   0  0  1  0  0  0  0  0  0  0  0  0
   18.9766   15.1144   33.3602 O   0  0  0  0  0  0  0  0  0  0  0  0
   21.1706   13.3625   38.1812 C   0  0  2  0  0  0  0  0  0  0  0  0
   19.2907   13.3302   36.6817 C   0  0  1  0  0  0  0  0  0  0  0  0
   19.2595   15.8298   37.0223 C   0  0  2  0  0  0  0  0  0  0  0  0
   18.6597   16.9742   37.8654 C   0  0  0  0  0  0  0  0  0  0  0  0
   18.8523   16.0154   35.5910 C   0  0  2  0  0  0  0  0  0  0  0  0
   19.3969   14.9218   34.7187 C   0  0  1  0  0  0  0  0  0  0  0  0
   18.8821   13.6121   35.2086 C   0  0  1  0  0  0  0  0  0  0  0  0
  5  4  1  1  0  0  0
  5  8  1  0  0  0  0
  5 16  1  0  0  0  0
  8  7  1  6  0  0  0
  8 10  1  0  0  0  0
 10  1  1  1  0  0  0
 10 12  1  0  0  0  0
 11 18  1  0  0  0  0
 12 14  1  0  0  0  0
 14  2  1  6  0  0  0
 14 16  1  0  0  0  0
 16  9  1  6  0  0  0
 17  9  1  6  0  0  0
 17 11  1  0  0  0  0
 17 22  1  0  0  0  0
 18 19  1  1  0  0  0
 18 20  1  0  0  0  0
 19  3  1  0  0  0  0
 20 13  1  6  0  0  0
 20 21  1  0  0  0  0
 21 15  1  6  0  0  0
 21 22  1  0  0  0  0
 22  6  1  6  0  0  0
M  END
>  <CHROM.1>
60.33242602,53.75621938,65.37344610,20.37391146,13.89449968,37.63552840,-0.05683551
-1.10740142,0.53427547

>  <Name>
2et8_lig

>  <RI>
2.82936e+07

>  <Rbt.Current_Directory>
/home/itssahil/PROJECTS/Mol_Feturizer/New_Systems/rnas/2et8

>  <Rbt.Executable>
rbdock ($Id: //depot/dev/client3/rdock/2013.1/src/exe/rbdock.cxx#4 $)

>  <Rbt.Library>
libRbt.so (2013.1, Build901 2013/11/27)

>  <Rbt.Parameter_File>
/export/apps/rDock/src/rDock_2013.1_src/data/scripts/dock_solv.prm

>  <Rbt.Receptor>
prm/pocket_docking_8.prm

>  <SCORE>
-10.4138

>  <SCORE.INTER>
-8.75794

>  <SCORE.INTER.CONST>
1

>  <SCORE.INTER.POLAR>
-1.20191

>  <SCORE.INTER.ROT>
3

>  <SCORE.INTER.SOLV>
18.1887

>  <SCORE.INTER.VDW>
-13.4952

>  <SCORE.INTER.norm>
-0.398088

>  <SCORE.INTRA>
-1.65585

>  <SCORE.INTRA.DIHEDRAL>
-4.50928

>  <SCORE.INTRA.DIHEDRAL.0>
4.99603

>  <SCORE.INTRA.POLAR>
0

>  <SCORE.INTRA.POLAR.0>
0

>  <SCORE.INTRA.REPUL>
0

>  <SCORE.INTRA.REPUL.0>
0

>  <SCORE.INTRA.SOLV>
-0.852422

>  <SCORE.INTRA.SOLV.lig_0>
-74.884

>  <SCORE.INTRA.VDW>
1.025

>  <SCORE.INTRA.VDW.0>
-0.858933

>  <SCORE.INTRA.norm>
-0.075266

>  <SCORE.RESTR>
0

>  <SCORE.RESTR.CAVITY>
0

>  <SCORE.RESTR.norm>
0

>  <SCORE.SYSTEM>
0

>  <SCORE.SYSTEM.CONST>
0

>  <SCORE.SYSTEM.DIHEDRAL>
0

>  <SCORE.SYSTEM.SOLV>
0

>  <SCORE.SYSTEM.norm>
0

>  <SCORE.heavy>
22

>  <SCORE.norm>
-0.473354

>  <RMSD>
5.592

$$$$
2et8_lig
 OpenBabel11021811433D
libRbt.so/2013.1/901 2013/11/27
 22 23  0  0  0  0  0  0  0  0999 V2000
   23.3426   12.4062   39.9128 N   0  0  0  0  0  0  0  0  0  0  0  0
   21.2889   14.9919   36.2109 N   0  0  0  0  0  0  0  0  0  0  0  0
   19.7485   12.3813   33.1281 N   0  0  0  0  0  0  0  0  0  0  0  0
   18.4513   13.0002   39.6905 O   0  0  0  0  0  0  0  0  0  0  0  0
   19.6406   12.8390   38.8788 C   0  0  2  0  0  0  0  0  0  0  0  0
   16.6574   16.3068   37.4317 N   0  0  0  0  0  0  0  0  0  0  0  0
   20.7848   11.5863   40.7024 O   0  0  0  0  0  0  0  0  0  0  0  0
   20.9004   12.7076   39.8173 C   0  0  1  0  0  0  0  0  0  0  0  0
   18.7225   14.1738   37.1392 O   0  0  0  0  0  0  0  0  0  0  0  0
   22.1549   12.5239   38.9993 C   0  0  1  0  0  0  0  0  0  0  0  0
   18.9136   14.6123   34.8868 O   0  0  0  0  0  0  0  0  0  0  0  0
   22.3192   13.7281   38.0438 C   0  0  0  0  0  0  0  0  0  0  0  0
   15.7307   13.0435   34.0329 O   0  0  0  0  0  0  0  0  0  0  0  0
   21.0601   13.7977   37.1310 C   0  0  1  0  0  0  0  0  0  0  0  0
   14.8280   15.1696   35.6147 O   0  0  0  0  0  0  0  0  0  0  0  0
   19.8341   14.0967   37.9418 C   0  0  2  0  0  0  0  0  0  0  0  0
   18.5586   15.2225   36.2420 C   0  0  1  0  0  0  0  0  0  0  0  0
   17.9850   13.5150   34.4755 C   0  0  2  0  0  0  0  0  0  0  0  0
   18.3786   12.9615   33.0902 C   0  0  0  0  0  0  0  0  0  0  0  0
   16.5924   14.0662   34.4011 C   0  0  2  0  0  0  0  0  0  0  0  0
   16.1547   14.6333   35.7203 C   0  0  1  0  0  0  0  0  0  0  0  0
   17.0926   15.7229   36.1123 C   0  0  1  0  0  0  0  0  0  0  0  0
  5  4  1  1  0  0  0
  5  8  1  0  0  0  0
  5 16  1  0  0  0  0
  8  7  1  1  0  0  0
  8 10  1  0  0  0  0
 10  1  1  1  0  0  0
 10 12  1  0  0  0  0
 11 18  1  0  0  0  0
 12 14  1  0  0  0  0
 14  2  1  6  0  0  0
 14 16  1  0  0  0  0
 16  9  1  6  0  0  0
 17  9  1  1  0  0  0
 17 11  1  0  0  0  0
 17 22  1  0  0  0  0
 18 19  1  6  0  0  0
 18 20  1  0  0  0  0
 19  3  1  0  0  0  0
 20 13  1  1  0  0  0
 20 21  1  0  0  0  0
 21 15  1  6  0  0  0
 21 22  1  0  0  0  0
 22  6  1  1  0  0  0
M  END
>  <CHROM.1>
176.73264184,102.66577989,61.62676548,19.00950132,13.78343196,36.80265234
-0.72545677,0.35259481,-1.61976522

>  <Name>
2et8_lig

>  <RI>
3.14397e+07

>  <Rbt.Current_Directory>
/home/itssahil/PROJECTS/Mol_Feturizer/New_Systems/rnas/2et8

>  <Rbt.Executable>
rbdock ($Id: //depot/dev/client3/rdock/2013.1/src/exe/rbdock.cxx#4 $)

>  <Rbt.Library>
libRbt.so (2013.1, Build901 2013/11/27)

>  <Rbt.Parameter_File>
/export/apps/rDock/src/rDock_2013.1_src/data/scripts/dock_solv.prm

>  <Rbt.Receptor>
prm/pocket_docking_6.prm

>  <SCORE>
-11.7772

>  <SCORE.INTER>
-12.5245

>  <SCORE.INTER.CONST>
1

>  <SCORE.INTER.POLAR>
-0.878729

>  <SCORE.INTER.ROT>
3

>  <SCORE.INTER.SOLV>
14.5207

>  <SCORE.INTER.VDW>
-15.8608

>  <SCORE.INTER.norm>
-0.569296

>  <SCORE.INTRA>
0.747347

>  <SCORE.INTRA.DIHEDRAL>
0.939862

>  <SCORE.INTRA.DIHEDRAL.0>
4.99603

>  <SCORE.INTRA.POLAR>
0

>  <SCORE.INTRA.POLAR.0>
0

>  <SCORE.INTRA.REPUL>
0

>  <SCORE.INTRA.REPUL.0>
0

>  <SCORE.INTRA.SOLV>
0.949396

>  <SCORE.INTRA.SOLV.lig_0>
-74.884

>  <SCORE.INTRA.VDW>
-0.197282

>  <SCORE.INTRA.VDW.0>
-0.858933

>  <SCORE.INTRA.norm>
0.0339703

>  <SCORE.RESTR>
0

>  <SCORE.RESTR.CAVITY>
0

>  <SCORE.RESTR.norm>
0

>  <SCORE.SYSTEM>
0

>  <SCORE.SYSTEM.CONST>
0

>  <SCORE.SYSTEM.DIHEDRAL>
0

>  <SCORE.SYSTEM.SOLV>
0

>  <SCORE.SYSTEM.norm>
0

>  <SCORE.heavy>
22

>  <SCORE.norm>
-0.535326

>  <RMSD>
5.593

$$$$
2et8_lig
 OpenBabel11021811433D
libRbt.so/2013.1/901 2013/11/27
 22 23  0  0  0  0  0  0  0  0999 V2000
   23.3789   10.9075   41.8338 N   0  0  0  0  0  0  0  0  0  0  0  0
   22.9465   13.9319   37.9256 N   0  0  0  0  0  0  0  0  0  0  0  0
   19.5236   12.4194   33.5899 N   0  0  0  0  0  0  0  0  0  0  0  0
   18.9258   12.2113   40.1616 O   0  0  0  0  0  0  0  0  0  0  0  0
   20.2828   11.9180   39.7471 C   0  0  2  0  0  0  0  0  0  0  0  0
   19.2760   16.0790   39.0534 N   0  0  0  0  0  0  0  0  0  0  0  0
   20.6229   10.4298   41.7153 O   0  0  0  0  0  0  0  0  0  0  0  0
   21.1511   11.5625   41.0139 C   0  0  1  0  0  0  0  0  0  0  0  0
   20.1383   13.4508   37.9360 O   0  0  0  0  0  0  0  0  0  0  0  0
   22.5687   11.2377   40.6117 C   0  0  1  0  0  0  0  0  0  0  0  0
   20.0386   14.2846   35.7918 O   0  0  0  0  0  0  0  0  0  0  0  0
   23.1753   12.4487   39.8663 C   0  0  0  0  0  0  0  0  0  0  0  0
   16.3910   14.2744   35.6652 O   0  0  0  0  0  0  0  0  0  0  0  0
   22.2919   12.7418   38.6185 C   0  0  1  0  0  0  0  0  0  0  0  0
   16.8124   16.1636   37.6877 O   0  0  0  0  0  0  0  0  0  0  0  0
   20.9175   13.1767   39.0331 C   0  0  2  0  0  0  0  0  0  0  0  0
   20.2566   14.6580   37.2575 C   0  0  1  0  0  0  0  0  0  0  0  0
   18.6710   13.7446   35.5205 C   0  0  2  0  0  0  0  0  0  0  0  0
   18.5051   13.4144   34.0227 C   0  0  0  0  0  0  0  0  0  0  0  0
   17.6592   14.7826   35.9046 C   0  0  2  0  0  0  0  0  0  0  0  0
   17.7787   15.1568   37.3535 C   0  0  1  0  0  0  0  0  0  0  0  0
   19.1473   15.6908   37.6029 C   0  0  1  0  0  0  0  0  0  0  0  0
  5  4  1  1  0  0  0
  5  8  1  0  0  0  0
  5 16  1  0  0  0  0
  8  7  1  6  0  0  0
  8 10  1  0  0  0  0
 10  1  1  1  0  0  0
 10 12  1  0  0  0  0
 11 18  1  0  0  0  0
 12 14  1  0  0  0  0
 14  2  1  1  0  0  0
 14 16  1  0  0  0  0
 16  9  1  6  0  0  0
 17  9  1  1  0  0  0
 17 11  1  0  0  0  0
 17 22  1  0  0  0  0
 18 19  1  6  0  0  0
 18 20  1  0  0  0  0
 19  3  1  0  0  0  0
 20 13  1  1  0  0  0
 20 21  1  0  0  0  0
 21 15  1  6  0  0  0
 21 22  1  0  0  0  0
 22  6  1  1  0  0  0
M  END
>  <CHROM.1>
166.22531694,144.03769770,58.67324366,19.97311543,13.39527107,38.08386750
-0.83113495,0.57053144,-1.48515107

>  <Name>
2et8_lig

>  <RI>
3.42619e+07

>  <Rbt.Current_Directory>
/home/itssahil/PROJECTS/Mol_Feturizer/New_Systems/rnas/2et8

>  <Rbt.Executable>
rbdock ($Id: //depot/dev/client3/rdock/2013.1/src/exe/rbdock.cxx#4 $)

>  <Rbt.Library>
libRbt.so (2013.1, Build901 2013/11/27)

>  <Rbt.Parameter_File>
/export/apps/rDock/src/rDock_2013.1_src/data/scripts/dock_solv.prm

>  <Rbt.Receptor>
prm/pocket_docking_4.prm

>  <SCORE>
-10.4881

>  <SCORE.INTER>
-10.5499

>  <SCORE.INTER.CONST>
1

>  <SCORE.INTER.POLAR>
-0.645093

>  <SCORE.INTER.ROT>
3

>  <SCORE.INTER.SOLV>
15.027

>  <SCORE.INTER.VDW>
-15.4919

>  <SCORE.INTER.norm>
-0.479539

>  <SCORE.INTRA>
0.0617898

>  <SCORE.INTRA.DIHEDRAL>
0.669707

>  <SCORE.INTRA.DIHEDRAL.0>
4.99603

>  <SCORE.INTRA.POLAR>
0

>  <SCORE.INTRA.POLAR.0>
0

>  <SCORE.INTRA.REPUL>
0

>  <SCORE.INTRA.REPUL.0>
0

>  <SCORE.INTRA.SOLV>
0.62036

>  <SCORE.INTRA.SOLV.lig_0>
-74.884

>  <SCORE.INTRA.VDW>
-0.583244

>  <SCORE.INTRA.VDW.0>
-0.858933

>  <SCORE.INTRA.norm>
0.00280863

>  <SCORE.RESTR>
0

>  <SCORE.RESTR.CAVITY>
0

>  <SCORE.RESTR.norm>
0

>  <SCORE.SYSTEM>
0

>  <SCORE.SYSTEM.CONST>
0

>  <SCORE.SYSTEM.DIHEDRAL>
0

>  <SCORE.SYSTEM.SOLV>
0

>  <SCORE.SYSTEM.norm>
0

>  <SCORE.heavy>
22

>  <SCORE.norm>
-0.47673

>  <RMSD>
5.635

$$$$
2et8_lig
 OpenBabel11021811433D
libRbt.so/2013.1/901 2013/11/27
 22 23  0  0  0  0  0  0  0  0999 V2000
   23.2936   11.9254   41.7761 N   0  0  0  0  0  0  0  0  0  0  0  0
   23.2274   14.5458   37.5647 N   0  0  0  0  0  0  0  0  0  0  0  0
   19.4821   18.2361   37.8436 N   0  0  0  0  0  0  0  0  0  0  0  0
   19.2692   11.9754   38.9253 O   0  0  0  0  0  0  0  0  0  0  0  0
   20.7172   12.0151   38.8926 C   0  0  2  0  0  0  0  0  0  0  0  0
   19.4666   12.6363   34.3284 N   0  0  0  0  0  0  0  0  0  0  0  0
   20.8570   10.7602   41.0396 O   0  0  0  0  0  0  0  0  0  0  0  0
   21.2752   11.9539   40.3657 C   0  0  1  0  0  0  0  0  0  0  0  0
   20.7084   13.3704   36.9397 O   0  0  0  0  0  0  0  0  0  0  0  0
   22.7839   11.9792   40.3633 C   0  0  1  0  0  0  0  0  0  0  0  0
   18.8084   14.5094   37.5683 O   0  0  0  0  0  0  0  0  0  0  0  0
   23.2691   13.2662   39.6573 C   0  0  0  0  0  0  0  0  0  0  0  0
   19.4320   17.3308   35.3385 O   0  0  0  0  0  0  0  0  0  0  0  0
   22.7064   13.2643   38.2059 C   0  0  1  0  0  0  0  0  0  0  0  0
   19.0613   15.2869   33.4617 O   0  0  0  0  0  0  0  0  0  0  0  0
   21.2093   13.3569   38.2183 C   0  0  2  0  0  0  0  0  0  0  0  0
   19.3381   13.3632   36.7077 C   0  0  1  0  0  0  0  0  0  0  0  0
   19.3313   15.8468   37.1517 C   0  0  2  0  0  0  0  0  0  0  0  0
   18.7389   16.9616   38.0385 C   0  0  0  0  0  0  0  0  0  0  0  0
   18.9341   16.0959   35.7273 C   0  0  2  0  0  0  0  0  0  0  0  0
   19.4720   15.0337   34.8131 C   0  0  1  0  0  0  0  0  0  0  0  0
   18.9407   13.7103   35.2455 C   0  0  1  0  0  0  0  0  0  0  0  0
  5  4  1  1  0  0  0
  5  8  1  0  0  0  0
  5 16  1  0  0  0  0
  8  7  1  6  0  0  0
  8 10  1  0  0  0  0
 10  1  1  1  0  0  0
 10 12  1  0  0  0  0
 11 18  1  0  0  0  0
 12 14  1  0  0  0  0
 14  2  1  6  0  0  0
 14 16  1  0  0  0  0
 16  9  1  6  0  0  0
 17  9  1  6  0  0  0
 17 11  1  0  0  0  0
 17 22  1  0  0  0  0
 18 19  1  1  0  0  0
 18 20  1  0  0  0  0
 19  3  1  0  0  0  0
 20 13  1  6  0  0  0
 20 21  1  0  0  0  0
 21 15  1  6  0  0  0
 21 22  1  0  0  0  0
 22  6  1  6  0  0  0
M  END
>  <CHROM.1>
61.54135429,51.62335706,166.89134970,20.43916417,13.97997376,37.63010836
-0.50969578,-1.05512684,0.10047759

>  <Name>
2et8_lig

>  <RI>
3.14397e+07

>  <Rbt.Current_Directory>
/home/itssahil/PROJECTS/Mol_Feturizer/New_Systems/rnas/2et8

>  <Rbt.Executable>
rbdock ($Id: //depot/dev/client3/rdock/2013.1/src/exe/rbdock.cxx#4 $)

>  <Rbt.Library>
libRbt.so (2013.1, Build901 2013/11/27)

>  <Rbt.Parameter_File>
/export/apps/rDock/src/rDock_2013.1_src/data/scripts/dock_solv.prm

>  <Rbt.Receptor>
prm/pocket_docking_6.prm

>  <SCORE>
-9.79822

>  <SCORE.INTER>
-9.09906

>  <SCORE.INTER.CONST>
1

>  <SCORE.INTER.POLAR>
-1.17043

>  <SCORE.INTER.ROT>
3

>  <SCORE.INTER.SOLV>
15.7676

>  <SCORE.INTER.VDW>
-13.0205

>  <SCORE.INTER.norm>
-0.413594

>  <SCORE.INTRA>
-0.699151

>  <SCORE.INTRA.DIHEDRAL>
-3.86145

>  <SCORE.INTRA.DIHEDRAL.0>
4.99603

>  <SCORE.INTRA.POLAR>
0

>  <SCORE.INTRA.POLAR.0>
0

>  <SCORE.INTRA.REPUL>
0

>  <SCORE.INTRA.REPUL.0>
0

>  <SCORE.INTRA.SOLV>
0.0634783

>  <SCORE.INTRA.SOLV.lig_0>
-74.884

>  <SCORE.INTRA.VDW>
1.19983

>  <SCORE.INTRA.VDW.0>
-0.858933

>  <SCORE.INTRA.norm>
-0.0317796

>  <SCORE.RESTR>
0

>  <SCORE.RESTR.CAVITY>
0

>  <SCORE.RESTR.norm>
0

>  <SCORE.SYSTEM>
0

>  <SCORE.SYSTEM.CONST>
0

>  <SCORE.SYSTEM.DIHEDRAL>
0

>  <SCORE.SYSTEM.SOLV>
0

>  <SCORE.SYSTEM.norm>
0

>  <SCORE.heavy>
22

>  <SCORE.norm>
-0.445373

>  <RMSD>
5.642

$$$$
2et8_lig
 OpenBabel11021811433D
libRbt.so/2013.1/901 2013/11/27
 22 23  0  0  0  0  0  0  0  0999 V2000
   23.3253   10.8583   41.6958 N   0  0  0  0  0  0  0  0  0  0  0  0
   22.8645   13.8804   37.7891 N   0  0  0  0  0  0  0  0  0  0  0  0
   19.5422   12.4232   33.5353 N   0  0  0  0  0  0  0  0  0  0  0  0
   18.8648   12.2991   40.1616 O   0  0  0  0  0  0  0  0  0  0  0  0
   20.1976   11.9605   39.7051 C   0  0  2  0  0  0  0  0  0  0  0  0
   19.0594   16.0730   39.0146 N   0  0  0  0  0  0  0  0  0  0  0  0
   20.5530   10.4695   41.6684 O   0  0  0  0  0  0  0  0  0  0  0  0
   21.0945   11.5820   40.9450 C   0  0  1  0  0  0  0  0  0  0  0  0
   20.0440   13.4903   37.8921 O   0  0  0  0  0  0  0  0  0  0  0  0
   22.4871   11.2100   40.4989 C   0  0  1  0  0  0  0  0  0  0  0  0
   19.9905   14.3519   35.7573 O   0  0  0  0  0  0  0  0  0  0  0  0
   23.1079   12.3979   39.7285 C   0  0  0  0  0  0  0  0  0  0  0  0
   16.3516   14.2272   35.5045 O   0  0  0  0  0  0  0  0  0  0  0  0
   22.1946   12.7147   38.5084 C   0  0  1  0  0  0  0  0  0  0  0  0
   16.6424   16.0989   37.5659 O   0  0  0  0  0  0  0  0  0  0  0  0
   20.8491   13.1954   38.9649 C   0  0  2  0  0  0  0  0  0  0  0  0
   20.1462   14.7105   37.2346 C   0  0  1  0  0  0  0  0  0  0  0  0
   18.6512   13.7725   35.4316 C   0  0  2  0  0  0  0  0  0  0  0  0
   18.5472   13.4592   33.9246 C   0  0  0  0  0  0  0  0  0  0  0  0
   17.5938   14.7720   35.7945 C   0  0  2  0  0  0  0  0  0  0  0  0
   17.6516   15.1285   37.2516 C   0  0  1  0  0  0  0  0  0  0  0  0
   18.9928   15.7022   37.5554 C   0  0  1  0  0  0  0  0  0  0  0  0
  5  4  1  1  0  0  0
  5  8  1  0  0  0  0
  5 16  1  0  0  0  0
  8  7  1  6  0  0  0
  8 10  1  0  0  0  0
 10  1  1  1  0  0  0
 10 12  1  0  0  0  0
 11 18  1  0  0  0  0
 12 14  1  0  0  0  0
 14  2  1  6  0  0  0
 14 16  1  0  0  0  0
 16  9  1  6  0  0  0
 17  9  1  1  0  0  0
 17 11  1  0  0  0  0
 17 22  1  0  0  0  0
 18 19  1  6  0  0  0
 18 20  1  0  0  0  0
 19  3  1  0  0  0  0
 20 13  1  1  0  0  0
 20 21  1  0  0  0  0
 21 15  1  6  0  0  0
 21 22  1  0  0  0  0
 22  6  1  1  0  0  0
M  END
>  <CHROM.1>
163.87234091,140.22593094,63.13599432,19.89566727,13.39996553,38.00313494
-0.83733431,0.56018784,-1.46862572

>  <Name>
2et8_lig

>  <RI>
3.42619e+07

>  <Rbt.Current_Directory>
/home/itssahil/PROJECTS/Mol_Feturizer/New_Systems/rnas/2et8

>  <Rbt.Executable>
rbdock ($Id: //depot/dev/client3/rdock/2013.1/src/exe/rbdock.cxx#4 $)

>  <Rbt.Library>
libRbt.so (2013.1, Build901 2013/11/27)

>  <Rbt.Parameter_File>
/export/apps/rDock/src/rDock_2013.1_src/data/scripts/dock_solv.prm

>  <Rbt.Receptor>
prm/pocket_docking_4.prm

>  <SCORE>
-10.3862

>  <SCORE.INTER>
-10.7916

>  <SCORE.INTER.CONST>
1

>  <SCORE.INTER.POLAR>
-0.671238

>  <SCORE.INTER.ROT>
3

>  <SCORE.INTER.SOLV>
14.9768

>  <SCORE.INTER.VDW>
-15.5492

>  <SCORE.INTER.norm>
-0.490525

>  <SCORE.INTRA>
0.405385

>  <SCORE.INTRA.DIHEDRAL>
1.64466

>  <SCORE.INTRA.DIHEDRAL.0>
4.99603

>  <SCORE.INTRA.POLAR>
0

>  <SCORE.INTRA.POLAR.0>
0

>  <SCORE.INTRA.REPUL>
0

>  <SCORE.INTRA.REPUL.0>
0

>  <SCORE.INTRA.SOLV>
0.548449

>  <SCORE.INTRA.SOLV.lig_0>
-74.884

>  <SCORE.INTRA.VDW>
-0.691172

>  <SCORE.INTRA.VDW.0>
-0.858933

>  <SCORE.INTRA.norm>
0.0184266

>  <SCORE.RESTR>
0

>  <SCORE.RESTR.CAVITY>
0

>  <SCORE.RESTR.norm>
0

>  <SCORE.SYSTEM>
0

>  <SCORE.SYSTEM.CONST>
0

>  <SCORE.SYSTEM.DIHEDRAL>
0

>  <SCORE.SYSTEM.SOLV>
0

>  <SCORE.SYSTEM.norm>
0

>  <SCORE.heavy>
22

>  <SCORE.norm>
-0.472099

>  <RMSD>
5.654

$$$$
2et8_lig
 OpenBabel11021811433D
libRbt.so/2013.1/901 2013/11/27
 22 23  0  0  0  0  0  0  0  0999 V2000
   23.2197   11.9363   41.7413 N   0  0  0  0  0  0  0  0  0  0  0  0
   23.2548   14.5614   37.5323 N   0  0  0  0  0  0  0  0  0  0  0  0
   17.4981   17.2756   37.5809 N   0  0  0  0  0  0  0  0  0  0  0  0
   19.2420   12.0419   38.8270 O   0  0  0  0  0  0  0  0  0  0  0  0
   20.6908   12.0626   38.8174 C   0  0  2  0  0  0  0  0  0  0  0  0
   19.4758   12.5786   34.2937 N   0  0  0  0  0  0  0  0  0  0  0  0
   20.7800   10.8040   40.9649 O   0  0  0  0  0  0  0  0  0  0  0  0
   21.2245   11.9927   40.2990 C   0  0  1  0  0  0  0  0  0  0  0  0
   20.7308   13.4197   36.8661 O   0  0  0  0  0  0  0  0  0  0  0  0
   22.7333   11.9982   40.3206 C   0  0  1  0  0  0  0  0  0  0  0  0
   18.8999   14.7181   37.3808 O   0  0  0  0  0  0  0  0  0  0  0  0
   23.2464   13.2793   39.6238 C   0  0  0  0  0  0  0  0  0  0  0  0
   19.7286   17.3267   34.9663 O   0  0  0  0  0  0  0  0  0  0  0  0
   22.7068   13.2862   38.1637 C   0  0  1  0  0  0  0  0  0  0  0  0
   19.2506   15.1801   33.2339 O   0  0  0  0  0  0  0  0  0  0  0  0
   21.2111   13.3984   38.1525 C   0  0  2  0  0  0  0  0  0  0  0  0
   19.3657   13.4818   36.6128 C   0  0  1  0  0  0  0  0  0  0  0  0
   19.5119   15.9864   36.8787 C   0  0  2  0  0  0  0  0  0  0  0  0
   18.9813   17.1972   37.6740 C   0  0  0  0  0  0  0  0  0  0  0  0
   19.1484   16.1567   35.4338 C   0  0  2  0  0  0  0  0  0  0  0  0
   19.6282   14.9997   34.6065 C   0  0  1  0  0  0  0  0  0  0  0  0
   19.0086   13.7469   35.1232 C   0  0  1  0  0  0  0  0  0  0  0  0
  5  4  1  1  0  0  0
  5  8  1  0  0  0  0
  5 16  1  0  0  0  0
  8  7  1  6  0  0  0
  8 10  1  0  0  0  0
 10  1  1  1  0  0  0
 10 12  1  0  0  0  0
 11 18  1  0  0  0  0
 12 14  1  0  0  0  0
 14  2  1  6  0  0  0
 14 16  1  0  0  0  0
 16  9  1  6  0  0  0
 17  9  1  6  0  0  0
 17 11  1  0  0  0  0
 17 22  1  0  0  0  0
 18 19  1  1  0  0  0
 18 20  1  0  0  0  0
 19  3  1  0  0  0  0
 20 13  1  6  0  0  0
 20 21  1  0  0  0  0
 21 15  1  6  0  0  0
 21 22  1  0  0  0  0
 22  6  1  6  0  0  0
M  END
>  <CHROM.1>
63.99850545,54.96597524,-57.86510041,20.40526532,13.98029324,37.48850396
0.01342801,-1.12551853,0.66175850

>  <Name>
2et8_lig

>  <RI>
0

>  <Rbt.Current_Directory>
/home/itssahil/PROJECTS/Mol_Feturizer/New_Systems/rnas/2et8

>  <Rbt.Executable>
rbdock ($Id: //depot/dev/client3/rdock/2013.1/src/exe/rbdock.cxx#4 $)

>  <Rbt.Library>
libRbt.so (2013.1, Build901 2013/11/27)

>  <Rbt.Parameter_File>
/export/apps/rDock/src/rDock_2013.1_src/data/scripts/dock_solv.prm

>  <Rbt.Receptor>
prm/pocket_docking_5.prm

>  <SCORE>
-10.0384

>  <SCORE.INTER>
-8.66312

>  <SCORE.INTER.CONST>
1

>  <SCORE.INTER.POLAR>
-1.17565

>  <SCORE.INTER.ROT>
3

>  <SCORE.INTER.SOLV>
16.282

>  <SCORE.INTER.VDW>
-12.8839

>  <SCORE.INTER.norm>
-0.393778

>  <SCORE.INTRA>
-1.37524

>  <SCORE.INTRA.DIHEDRAL>
-4.5863

>  <SCORE.INTRA.DIHEDRAL.0>
4.99603

>  <SCORE.INTRA.POLAR>
0

>  <SCORE.INTRA.POLAR.0>
0

>  <SCORE.INTRA.REPUL>
0

>  <SCORE.INTRA.REPUL.0>
0

>  <SCORE.INTRA.SOLV>
0.460501

>  <SCORE.INTRA.SOLV.lig_0>
-74.884

>  <SCORE.INTRA.VDW>
0.687662

>  <SCORE.INTRA.VDW.0>
-0.858933

>  <SCORE.INTRA.norm>
-0.0625108

>  <SCORE.RESTR>
0

>  <SCORE.RESTR.CAVITY>
0

>  <SCORE.RESTR.norm>
0

>  <SCORE.SYSTEM>
0

>  <SCORE.SYSTEM.CONST>
0

>  <SCORE.SYSTEM.DIHEDRAL>
0

>  <SCORE.SYSTEM.SOLV>
0

>  <SCORE.SYSTEM.norm>
0

>  <SCORE.heavy>
22

>  <SCORE.norm>
-0.456289

>  <RMSD>
5.706

$$$$
2et8_lig
 OpenBabel11021811433D
libRbt.so/2013.1/901 2013/11/27
 22 23  0  0  0  0  0  0  0  0999 V2000
   25.6592   15.6700   28.2357 N   0  0  0  0  0  0  0  0  0  0  0  0
   21.1272   16.0807   30.2104 N   0  0  0  0  0  0  0  0  0  0  0  0
   17.9169   13.2960   33.0319 N   0  0  0  0  0  0  0  0  0  0  0  0
   25.0873   16.0925   33.1163 O   0  0  0  0  0  0  0  0  0  0  0  0
   24.4835   15.5448   31.9184 C   0  0  2  0  0  0  0  0  0  0  0  0
   21.4979   17.8336   34.8708 N   0  0  0  0  0  0  0  0  0  0  0  0
   26.7078   15.3603   30.8129 O   0  0  0  0  0  0  0  0  0  0  0  0
   25.3847   15.8928   30.6727 C   0  0  1  0  0  0  0  0  0  0  0  0
   22.2952   15.8415   32.7981 O   0  0  0  0  0  0  0  0  0  0  0  0
   24.7878   15.3222   29.4098 C   0  0  1  0  0  0  0  0  0  0  0  0
   20.1128   15.1419   32.5740 O   0  0  0  0  0  0  0  0  0  0  0  0
   23.3632   15.8915   29.2190 C   0  0  0  0  0  0  0  0  0  0  0  0
   20.0816   13.3285   35.7413 O   0  0  0  0  0  0  0  0  0  0  0  0
   22.5150   15.5027   30.4651 C   0  0  1  0  0  0  0  0  0  0  0  0
   20.4316   15.9458   36.6710 O   0  0  0  0  0  0  0  0  0  0  0  0
   23.0488   16.1696   31.6980 C   0  0  2  0  0  0  0  0  0  0  0  0
   21.0017   16.3266   32.9502 C   0  0  1  0  0  0  0  0  0  0  0  0
   20.2698   13.9743   33.4946 C   0  0  2  0  0  0  0  0  0  0  0  0
   19.3278   12.8252   33.0795 C   0  0  0  0  0  0  0  0  0  0  0  0
   19.9218   14.4094   34.8868 C   0  0  2  0  0  0  0  0  0  0  0  0
   20.7989   15.5382   35.3451 C   0  0  1  0  0  0  0  0  0  0  0  0
   20.6288   16.6899   34.4149 C   0  0  1  0  0  0  0  0  0  0  0  0
  5  4  1  1  0  0  0
  5  8  1  0  0  0  0
  5 16  1  0  0  0  0
  8  7  1  1  0  0  0
  8 10  1  0  0  0  0
 10  1  1  6  0  0  0
 10 12  1  0  0  0  0
 11 18  1  0  0  0  0
 12 14  1  0  0  0  0
 14  2  1  6  0  0  0
 14 16  1  0  0  0  0
 16  9  1  1  0  0  0
 17  9  1  1  0  0  0
 17 11  1  0  0  0  0
 17 22  1  0  0  0  0
 18 19  1  6  0  0  0
 18 20  1  0  0  0  0
 19  3  1  0  0  0  0
 20 13  1  1  0  0  0
 20 21  1  0  0  0  0
 21 15  1  1  0  0  0
 21 22  1  0  0  0  0
 22  6  1  1  0  0  0
M  END
>  <CHROM.1>
175.50439370,102.62267720,-55.98643707,22.11888925,15.38556522,32.56996076
0.63161992,-0.42039312,-1.86193257

>  <Name>
2et8_lig

>  <RI>
0

>  <Rbt.Current_Directory>
/home/itssahil/PROJECTS/Mol_Feturizer/New_Systems/rnas/2et8

>  <Rbt.Executable>
rbdock ($Id: //depot/dev/client3/rdock/2013.1/src/exe/rbdock.cxx#4 $)

>  <Rbt.Library>
libRbt.so (2013.1, Build901 2013/11/27)

>  <Rbt.Parameter_File>
/export/apps/rDock/src/rDock_2013.1_src/data/scripts/dock_solv.prm

>  <Rbt.Receptor>
prm/pocket_docking_7.prm

>  <SCORE>
-10.0148

>  <SCORE.INTER>
-11.5425

>  <SCORE.INTER.CONST>
1

>  <SCORE.INTER.POLAR>
-1.35702

>  <SCORE.INTER.ROT>
3

>  <SCORE.INTER.SOLV>
13.0786

>  <SCORE.INTER.VDW>
-13.1311

>  <SCORE.INTER.norm>
-0.52466

>  <SCORE.INTRA>
1.46847

>  <SCORE.INTRA.DIHEDRAL>
1.02786

>  <SCORE.INTRA.DIHEDRAL.0>
4.99603

>  <SCORE.INTRA.POLAR>
0

>  <SCORE.INTRA.POLAR.0>
0

>  <SCORE.INTRA.REPUL>
0

>  <SCORE.INTRA.REPUL.0>
0

>  <SCORE.INTRA.SOLV>
2.25109

>  <SCORE.INTRA.SOLV.lig_0>
-74.884

>  <SCORE.INTRA.VDW>
-0.171

>  <SCORE.INTRA.VDW.0>
-0.858933

>  <SCORE.INTRA.norm>
0.0667488

>  <SCORE.RESTR>
0.0592428

>  <SCORE.RESTR.CAVITY>
0.0592428

>  <SCORE.RESTR.norm>
0.00269285

>  <SCORE.SYSTEM>
0

>  <SCORE.SYSTEM.CONST>
0

>  <SCORE.SYSTEM.DIHEDRAL>
0

>  <SCORE.SYSTEM.SOLV>
0

>  <SCORE.SYSTEM.norm>
0

>  <SCORE.heavy>
22

>  <SCORE.norm>
-0.455218

>  <RMSD>
5.772

$$$$
2et8_lig
 OpenBabel11021811433D
libRbt.so/2013.1/901 2013/11/27
 22 23  0  0  0  0  0  0  0  0999 V2000
   23.1497   10.7191   41.1931 N   0  0  0  0  0  0  0  0  0  0  0  0
   22.6340   14.1459   37.6437 N   0  0  0  0  0  0  0  0  0  0  0  0
   21.0088   18.6740   39.2709 N   0  0  0  0  0  0  0  0  0  0  0  0
   18.7033   12.5720   40.1335 O   0  0  0  0  0  0  0  0  0  0  0  0
   19.9776   12.2029   39.5509 C   0  0  2  0  0  0  0  0  0  0  0  0
   17.5336   14.0998   35.9887 N   0  0  0  0  0  0  0  0  0  0  0  0
   20.3619   10.5010   41.3284 O   0  0  0  0  0  0  0  0  0  0  0  0
   20.9272   11.6472   40.6798 C   0  0  1  0  0  0  0  0  0  0  0  0
   19.8069   13.9161   37.9118 O   0  0  0  0  0  0  0  0  0  0  0  0
   22.2596   11.2403   40.1000 C   0  0  1  0  0  0  0  0  0  0  0  0
   18.8650   15.5428   39.2420 O   0  0  0  0  0  0  0  0  0  0  0  0
   22.9058   12.4615   39.4064 C   0  0  0  0  0  0  0  0  0  0  0  0
   19.7004   18.2720   36.9673 O   0  0  0  0  0  0  0  0  0  0  0  0
   21.9370   12.9550   38.2923 C   0  0  1  0  0  0  0  0  0  0  0  0
   17.9164   16.8223   35.3696 O   0  0  0  0  0  0  0  0  0  0  0  0
   20.6595   13.4659   38.8896 C   0  0  2  0  0  0  0  0  0  0  0  0
   18.5588   14.4357   38.2342 C   0  0  1  0  0  0  0  0  0  0  0  0
   19.6826   16.6533   38.6642 C   0  0  2  0  0  0  0  0  0  0  0  0
   19.9327   17.7496   39.7205 C   0  0  0  0  0  0  0  0  0  0  0  0
   18.9341   17.2513   37.5105 C   0  0  2  0  0  0  0  0  0  0  0  0
   18.6485   16.2272   36.4508 C   0  0  1  0  0  0  0  0  0  0  0  0
   17.8350   15.1301   37.0465 C   0  0  1  0  0  0  0  0  0  0  0  0
  5  4  1  1  0  0  0
  5  8  1  0  0  0  0
  5 16  1  0  0  0  0
  8  7  1  6  0  0  0
  8 10  1  0  0  0  0
 10  1  1  1  0  0  0
 10 12  1  0  0  0  0
 11 18  1  0  0  0  0
 12 14  1  0  0  0  0
 14  2  1  1  0  0  0
 14 16  1  0  0  0  0
 16  9  1  6  0  0  0
 17  9  1  6  0  0  0
 17 11  1  0  0  0  0
 17 22  1  0  0  0  0
 18 19  1  1  0  0  0
 18 20  1  0  0  0  0
 19  3  1  0  0  0  0
 20 13  1  6  0  0  0
 20 21  1  0  0  0  0
 21 15  1  6  0  0  0
 21 22  1  0  0  0  0
 22  6  1  6  0  0  0
M  END
>  <CHROM.1>
65.79154568,54.55358979,165.87406352,20.05969219,14.41166862,38.61563223
-1.09211050,-0.57792492,-0.23355504

>  <Name>
2et8_lig

>  <RI>
0

>  <Rbt.Current_Directory>
/home/itssahil/PROJECTS/Mol_Feturizer/New_Systems/rnas/2et8

>  <Rbt.Executable>
rbdock ($Id: //depot/dev/client3/rdock/2013.1/src/exe/rbdock.cxx#4 $)

>  <Rbt.Library>
libRbt.so (2013.1, Build901 2013/11/27)

>  <Rbt.Parameter_File>
/export/apps/rDock/src/rDock_2013.1_src/data/scripts/dock_solv.prm

>  <Rbt.Receptor>
prm/pocket_docking_5.prm

>  <SCORE>
-10.2393

>  <SCORE.INTER>
-9.01984

>  <SCORE.INTER.CONST>
1

>  <SCORE.INTER.POLAR>
0

>  <SCORE.INTER.ROT>
3

>  <SCORE.INTER.SOLV>
11.7996

>  <SCORE.INTER.VDW>
-15.5464

>  <SCORE.INTER.norm>
-0.409993

>  <SCORE.INTRA>
-1.21947

>  <SCORE.INTRA.DIHEDRAL>
-3.81255

>  <SCORE.INTRA.DIHEDRAL.0>
4.99603

>  <SCORE.INTRA.POLAR>
0

>  <SCORE.INTRA.POLAR.0>
0

>  <SCORE.INTRA.REPUL>
0

>  <SCORE.INTRA.REPUL.0>
0

>  <SCORE.INTRA.SOLV>
0.0613393

>  <SCORE.INTRA.SOLV.lig_0>
-74.884

>  <SCORE.INTRA.VDW>
0.656138

>  <SCORE.INTRA.VDW.0>
-0.858933

>  <SCORE.INTRA.norm>
-0.0554304

>  <SCORE.RESTR>
0

>  <SCORE.RESTR.CAVITY>
0

>  <SCORE.RESTR.norm>
0

>  <SCORE.SYSTEM>
0

>  <SCORE.SYSTEM.CONST>
0

>  <SCORE.SYSTEM.DIHEDRAL>
0

>  <SCORE.SYSTEM.SOLV>
0

>  <SCORE.SYSTEM.norm>
0

>  <SCORE.heavy>
22

>  <SCORE.norm>
-0.465423

>  <RMSD>
5.801

$$$$
2et8_lig
 OpenBabel11021811433D
libRbt.so/2013.1/901 2013/11/27
 22 23  0  0  0  0  0  0  0  0999 V2000
   23.1689   10.6279   40.9994 N   0  0  0  0  0  0  0  0  0  0  0  0
   22.6564   14.4177   37.8399 N   0  0  0  0  0  0  0  0  0  0  0  0
   21.1412   18.9994   39.5972 N   0  0  0  0  0  0  0  0  0  0  0  0
   18.7621   12.7347   40.3154 O   0  0  0  0  0  0  0  0  0  0  0  0
   19.9985   12.3830   39.6469 C   0  0  2  0  0  0  0  0  0  0  0  0
   17.4382   14.5344   36.4422 N   0  0  0  0  0  0  0  0  0  0  0  0
   20.3816   10.4948   41.2254 O   0  0  0  0  0  0  0  0  0  0  0  0
   20.9668   11.6811   40.6739 C   0  0  1  0  0  0  0  0  0  0  0  0
   19.8343   14.2607   38.1984 O   0  0  0  0  0  0  0  0  0  0  0  0
   22.2600   11.2897   40.0020 C   0  0  1  0  0  0  0  0  0  0  0  0
   19.0082   15.8540   39.6411 O   0  0  0  0  0  0  0  0  0  0  0  0
   22.9273   12.5524   39.4101 C   0  0  0  0  0  0  0  0  0  0  0  0
   19.7253   18.6462   37.4027 O   0  0  0  0  0  0  0  0  0  0  0  0
   21.9379   13.1915   38.3922 C   0  0  1  0  0  0  0  0  0  0  0  0
   17.8164   17.2709   35.8854 O   0  0  0  0  0  0  0  0  0  0  0  0
   20.7043   13.6826   39.0899 C   0  0  2  0  0  0  0  0  0  0  0  0
   18.6185   14.7843   38.6218 C   0  0  1  0  0  0  0  0  0  0  0  0
   19.8001   16.9730   39.0444 C   0  0  2  0  0  0  0  0  0  0  0  0
   20.1370   18.0311   40.1155 C   0  0  0  0  0  0  0  0  0  0  0  0
   18.9835   17.6174   37.9643 C   0  0  2  0  0  0  0  0  0  0  0  0
   18.6119   16.6321   36.8945 C   0  0  1  0  0  0  0  0  0  0  0  0
   17.8254   15.5258   37.5092 C   0  0  1  0  0  0  0  0  0  0  0  0
  5  4  1  1  0  0  0
  5  8  1  0  0  0  0
  5 16  1  0  0  0  0
  8  7  1  6  0  0  0
  8 10  1  0  0  0  0
 10  1  1  1  0  0  0
 10 12  1  0  0  0  0
 11 18  1  0  0  0  0
 12 14  1  0  0  0  0
 14  2  1  1  0  0  0
 14 16  1  0  0  0  0
 16  9  1  6  0  0  0
 17  9  1  6  0  0  0
 17 11  1  0  0  0  0
 17 22  1  0  0  0  0
 18 19  1  1  0  0  0
 18 20  1  0  0  0  0
 19  3  1  0  0  0  0
 20 13  1  6  0  0  0
 20 21  1  0  0  0  0
 21 15  1  6  0  0  0
 21 22  1  0  0  0  0
 22  6  1  6  0  0  0
M  END
>  <CHROM.1>
65.60192953,59.21115026,168.82686068,20.09445968,14.66233898,38.85901824
-1.13177645,-0.49331903,-0.18863692

>  <Name>
2et8_lig

>  <RI>
3.14397e+07

>  <Rbt.Current_Directory>
/home/itssahil/PROJECTS/Mol_Feturizer/New_Systems/rnas/2et8

>  <Rbt.Executable>
rbdock ($Id: //depot/dev/client3/rdock/2013.1/src/exe/rbdock.cxx#4 $)

>  <Rbt.Library>
libRbt.so (2013.1, Build901 2013/11/27)

>  <Rbt.Parameter_File>
/export/apps/rDock/src/rDock_2013.1_src/data/scripts/dock_solv.prm

>  <Rbt.Receptor>
prm/pocket_docking_6.prm

>  <SCORE>
-10.9605

>  <SCORE.INTER>
-9.59363

>  <SCORE.INTER.CONST>
1

>  <SCORE.INTER.POLAR>
0

>  <SCORE.INTER.ROT>
3

>  <SCORE.INTER.SOLV>
10.7269

>  <SCORE.INTER.VDW>
-15.5714

>  <SCORE.INTER.norm>
-0.436074

>  <SCORE.INTRA>
-1.36685

>  <SCORE.INTRA.DIHEDRAL>
-4.21194

>  <SCORE.INTRA.DIHEDRAL.0>
4.99603

>  <SCORE.INTRA.POLAR>
0

>  <SCORE.INTRA.POLAR.0>
0

>  <SCORE.INTRA.REPUL>
0

>  <SCORE.INTRA.REPUL.0>
0

>  <SCORE.INTRA.SOLV>
0.101327

>  <SCORE.INTRA.SOLV.lig_0>
-74.884

>  <SCORE.INTRA.VDW>
0.688452

>  <SCORE.INTRA.VDW.0>
-0.858933

>  <SCORE.INTRA.norm>
-0.0621297

>  <SCORE.RESTR>
0

>  <SCORE.RESTR.CAVITY>
0

>  <SCORE.RESTR.norm>
0

>  <SCORE.SYSTEM>
0

>  <SCORE.SYSTEM.CONST>
0

>  <SCORE.SYSTEM.DIHEDRAL>
0

>  <SCORE.SYSTEM.SOLV>
0

>  <SCORE.SYSTEM.norm>
0

>  <SCORE.heavy>
22

>  <SCORE.norm>
-0.498204

>  <RMSD>
5.822

$$$$
2et8_lig
 OpenBabel11021811433D
libRbt.so/2013.1/901 2013/11/27
 22 23  0  0  0  0  0  0  0  0999 V2000
   23.0561   10.5934   40.8276 N   0  0  0  0  0  0  0  0  0  0  0  0
   22.5081   14.4001   37.6945 N   0  0  0  0  0  0  0  0  0  0  0  0
   19.3952   18.8915   40.4906 N   0  0  0  0  0  0  0  0  0  0  0  0
   18.7034   12.8732   40.4000 O   0  0  0  0  0  0  0  0  0  0  0  0
   19.8833   12.4727   39.6604 C   0  0  2  0  0  0  0  0  0  0  0  0
   17.1660   14.7151   36.7003 N   0  0  0  0  0  0  0  0  0  0  0  0
   20.2840   10.5710   41.2183 O   0  0  0  0  0  0  0  0  0  0  0  0
   20.8821   11.7331   40.6302 C   0  0  1  0  0  0  0  0  0  0  0  0
   19.7081   14.3552   38.2196 O   0  0  0  0  0  0  0  0  0  0  0  0
   22.1167   11.2906   39.8840 C   0  0  1  0  0  0  0  0  0  0  0  0
   19.1735   16.1126   39.6083 O   0  0  0  0  0  0  0  0  0  0  0  0
   22.7973   12.5257   39.2506 C   0  0  0  0  0  0  0  0  0  0  0  0
   19.8662   18.6665   37.0945 O   0  0  0  0  0  0  0  0  0  0  0  0
   21.7756   13.2034   38.2914 C   0  0  1  0  0  0  0  0  0  0  0  0
   17.7002   17.3617   35.8931 O   0  0  0  0  0  0  0  0  0  0  0  0
   20.6058   13.7432   39.0595 C   0  0  2  0  0  0  0  0  0  0  0  0
   18.5912   15.0124   38.7218 C   0  0  1  0  0  0  0  0  0  0  0  0
   19.9835   17.1127   38.8473 C   0  0  2  0  0  0  0  0  0  0  0  0
   20.5181   18.2096   39.7914 C   0  0  0  0  0  0  0  0  0  0  0  0
   19.1093   17.7491   37.8084 C   0  0  2  0  0  0  0  0  0  0  0  0
   18.5463   16.7277   36.8633 C   0  0  1  0  0  0  0  0  0  0  0  0
   17.7446   15.7410   37.6405 C   0  0  1  0  0  0  0  0  0  0  0  0
  5  4  1  1  0  0  0
  5  8  1  0  0  0  0
  5 16  1  0  0  0  0
  8  7  1  6  0  0  0
  8 10  1  0  0  0  0
 10  1  1  1  0  0  0
 10 12  1  0  0  0  0
 11 18  1  0  0  0  0
 12 14  1  0  0  0  0
 14  2  1  1  0  0  0
 14 16  1  0  0  0  0
 16  9  1  6  0  0  0
 17  9  1  6  0  0  0
 17 11  1  0  0  0  0
 17 22  1  0  0  0  0
 18 19  1  1  0  0  0
 18 20  1  0  0  0  0
 19  3  1  0  0  0  0
 20 13  1  6  0  0  0
 20 21  1  0  0  0  0
 21 15  1  6  0  0  0
 21 22  1  0  0  0  0
 22  6  1  6  0  0  0
M  END
>  <CHROM.1>
70.39737607,60.55672170,-57.93305567,19.97850812,14.74817901,38.84457385
-1.12434263,-0.49697709,-0.15943357

>  <Name>
2et8_lig

>  <RI>
2.82936e+07

>  <Rbt.Current_Directory>
/home/itssahil/PROJECTS/Mol_Feturizer/New_Systems/rnas/2et8

>  <Rbt.Executable>
rbdock ($Id: //depot/dev/client3/rdock/2013.1/src/exe/rbdock.cxx#4 $)

>  <Rbt.Library>
libRbt.so (2013.1, Build901 2013/11/27)

>  <Rbt.Parameter_File>
/export/apps/rDock/src/rDock_2013.1_src/data/scripts/dock_solv.prm

>  <Rbt.Receptor>
prm/pocket_docking_8.prm

>  <SCORE>
-11.0898

>  <SCORE.INTER>
-9.29881

>  <SCORE.INTER.CONST>
1

>  <SCORE.INTER.POLAR>
0

>  <SCORE.INTER.ROT>
3

>  <SCORE.INTER.SOLV>
10.8319

>  <SCORE.INTER.VDW>
-15.4098

>  <SCORE.INTER.norm>
-0.422673

>  <SCORE.INTRA>
-1.79103

>  <SCORE.INTRA.DIHEDRAL>
-4.27893

>  <SCORE.INTRA.DIHEDRAL.0>
4.99603

>  <SCORE.INTRA.POLAR>
0

>  <SCORE.INTRA.POLAR.0>
0

>  <SCORE.INTRA.REPUL>
0

>  <SCORE.INTRA.REPUL.0>
0

>  <SCORE.INTRA.SOLV>
0.589153

>  <SCORE.INTRA.SOLV.lig_0>
-74.884

>  <SCORE.INTRA.VDW>
0.0538608

>  <SCORE.INTRA.VDW.0>
-0.858933

>  <SCORE.INTRA.norm>
-0.0814104

>  <SCORE.RESTR>
0

>  <SCORE.RESTR.CAVITY>
0

>  <SCORE.RESTR.norm>
0

>  <SCORE.SYSTEM>
0

>  <SCORE.SYSTEM.CONST>
0

>  <SCORE.SYSTEM.DIHEDRAL>
0

>  <SCORE.SYSTEM.SOLV>
0

>  <SCORE.SYSTEM.norm>
0

>  <SCORE.heavy>
22

>  <SCORE.norm>
-0.504084

>  <RMSD>
5.896

$$$$
2et8_lig
 OpenBabel11021811433D
libRbt.so/2013.1/901 2013/11/27
 22 23  0  0  0  0  0  0  0  0999 V2000
   21.5727   11.1108   42.4767 N   0  0  0  0  0  0  0  0  0  0  0  0
   22.9824   12.3811   37.8935 N   0  0  0  0  0  0  0  0  0  0  0  0
   19.5465   11.8094   32.9686 N   0  0  0  0  0  0  0  0  0  0  0  0
   18.3504   13.1386   39.3414 O   0  0  0  0  0  0  0  0  0  0  0  0
   19.5004   12.2608   39.4199 C   0  0  2  0  0  0  0  0  0  0  0  0
   19.5218   15.6427   38.3060 N   0  0  0  0  0  0  0  0  0  0  0  0
   18.9149   11.6087   41.7515 O   0  0  0  0  0  0  0  0  0  0  0  0
   19.9596   12.1340   40.9226 C   0  0  1  0  0  0  0  0  0  0  0  0
   20.2590   12.9428   37.2729 O   0  0  0  0  0  0  0  0  0  0  0  0
   21.1491   11.2128   41.0383 C   0  0  1  0  0  0  0  0  0  0  0  0
   20.1481   13.6998   35.1010 O   0  0  0  0  0  0  0  0  0  0  0  0
   22.3028   11.7615   40.1678 C   0  0  0  0  0  0  0  0  0  0  0  0
   16.5010   13.8286   35.0434 O   0  0  0  0  0  0  0  0  0  0  0  0
   21.8014   11.8472   38.6965 C   0  0  1  0  0  0  0  0  0  0  0  0
   17.0361   15.7735   36.9847 O   0  0  0  0  0  0  0  0  0  0  0  0
   20.6953   12.8526   38.5719 C   0  0  2  0  0  0  0  0  0  0  0  0
   20.4101   14.1184   36.5471 C   0  0  1  0  0  0  0  0  0  0  0  0
   18.7555   13.2044   34.8761 C   0  0  2  0  0  0  0  0  0  0  0  0
   18.5465   12.8256   33.3952 C   0  0  0  0  0  0  0  0  0  0  0  0
   17.7926   14.2950   35.2395 C   0  0  2  0  0  0  0  0  0  0  0  0
   17.9557   14.7177   36.6707 C   0  0  1  0  0  0  0  0  0  0  0  0
   19.3487   15.2062   36.8739 C   0  0  1  0  0  0  0  0  0  0  0  0
  5  4  1  1  0  0  0
  5  8  1  0  0  0  0
  5 16  1  0  0  0  0
  8  7  1  1  0  0  0
  8 10  1  0  0  0  0
 10  1  1  1  0  0  0
 10 12  1  0  0  0  0
 11 18  1  0  0  0  0
 12 14  1  0  0  0  0
 14  2  1  6  0  0  0
 14 16  1  0  0  0  0
 16  9  1  6  0  0  0
 17  9  1  1  0  0  0
 17 11  1  0  0  0  0
 17 22  1  0  0  0  0
 18 19  1  6  0  0  0
 18 20  1  0  0  0  0
 19  3  1  0  0  0  0
 20 13  1  1  0  0  0
 20 21  1  0  0  0  0
 21 15  1  6  0  0  0
 21 22  1  0  0  0  0
 22  6  1  1  0  0  0
M  END
>  <CHROM.1>
130.16700915,165.83785867,56.75912171,19.63825506,13.12033542,37.69662894
-1.10290538,0.57633075,-1.50286263

>  <Name>
2et8_lig

>  <RI>
2.82936e+07

>  <Rbt.Current_Directory>
/home/itssahil/PROJECTS/Mol_Feturizer/New_Systems/rnas/2et8

>  <Rbt.Executable>
rbdock ($Id: //depot/dev/client3/rdock/2013.1/src/exe/rbdock.cxx#4 $)

>  <Rbt.Library>
libRbt.so (2013.1, Build901 2013/11/27)

>  <Rbt.Parameter_File>
/export/apps/rDock/src/rDock_2013.1_src/data/scripts/dock_solv.prm

>  <Rbt.Receptor>
prm/pocket_docking_8.prm

>  <SCORE>
-16.1566

>  <SCORE.INTER>
-16.932

>  <SCORE.INTER.CONST>
1

>  <SCORE.INTER.POLAR>
-1.93896

>  <SCORE.INTER.ROT>
3

>  <SCORE.INTER.SOLV>
19.3327

>  <SCORE.INTER.VDW>
-16.869

>  <SCORE.INTER.norm>
-0.769637

>  <SCORE.INTRA>
0.775445

>  <SCORE.INTRA.DIHEDRAL>
2.65674

>  <SCORE.INTRA.DIHEDRAL.0>
4.99603

>  <SCORE.INTRA.POLAR>
0

>  <SCORE.INTRA.POLAR.0>
0

>  <SCORE.INTRA.REPUL>
0

>  <SCORE.INTRA.REPUL.0>
0

>  <SCORE.INTRA.SOLV>
1.65684

>  <SCORE.INTRA.SOLV.lig_0>
-74.884

>  <SCORE.INTRA.VDW>
-1.38135

>  <SCORE.INTRA.VDW.0>
-0.858933

>  <SCORE.INTRA.norm>
0.0352475

>  <SCORE.RESTR>
0

>  <SCORE.RESTR.CAVITY>
0

>  <SCORE.RESTR.norm>
0

>  <SCORE.SYSTEM>
0

>  <SCORE.SYSTEM.CONST>
0

>  <SCORE.SYSTEM.DIHEDRAL>
0

>  <SCORE.SYSTEM.SOLV>
0

>  <SCORE.SYSTEM.norm>
0

>  <SCORE.heavy>
22

>  <SCORE.norm>
-0.734389

>  <RMSD>
5.933

$$$$
2et8_lig
 OpenBabel11021811433D
libRbt.so/2013.1/901 2013/11/27
 22 23  0  0  0  0  0  0  0  0999 V2000
   15.4110   14.0322   31.5219 N   0  0  0  0  0  0  0  0  0  0  0  0
   16.5268   15.4717   36.1360 N   0  0  0  0  0  0  0  0  0  0  0  0
   21.7079   10.8829   39.3188 N   0  0  0  0  0  0  0  0  0  0  0  0
   19.3639   12.1930   33.8280 O   0  0  0  0  0  0  0  0  0  0  0  0
   18.0109   12.6665   34.0391 C   0  0  2  0  0  0  0  0  0  0  0  0
   19.7044   16.2150   36.0065 N   0  0  0  0  0  0  0  0  0  0  0  0
   17.3683   12.0399   31.7156 O   0  0  0  0  0  0  0  0  0  0  0  0
   17.3938   13.1174   32.6604 C   0  0  1  0  0  0  0  0  0  0  0  0
   18.5532   13.4703   36.2094 O   0  0  0  0  0  0  0  0  0  0  0  0
   15.9773   13.6031   32.8463 C   0  0  1  0  0  0  0  0  0  0  0  0
   18.9927   13.4099   38.4690 O   0  0  0  0  0  0  0  0  0  0  0  0
   15.9714   14.7799   33.8489 C   0  0  0  0  0  0  0  0  0  0  0  0
   22.5879   12.9546   38.0352 O   0  0  0  0  0  0  0  0  0  0  0  0
   16.5714   14.2742   35.1933 C   0  0  1  0  0  0  0  0  0  0  0  0
   22.2726   15.5047   36.9239 O   0  0  0  0  0  0  0  0  0  0  0  0
   18.0148   13.9033   35.0227 C   0  0  2  0  0  0  0  0  0  0  0  0
   18.6934   14.3339   37.2893 C   0  0  1  0  0  0  0  0  0  0  0  0
   20.2782   12.6617   38.3176 C   0  0  2  0  0  0  0  0  0  0  0  0
   20.5362   11.7707   39.5504 C   0  0  0  0  0  0  0  0  0  0  0  0
   21.3981   13.6507   38.1895 C   0  0  2  0  0  0  0  0  0  0  0  0
   21.1975   14.5583   37.0107 C   0  0  1  0  0  0  0  0  0  0  0  0
   19.9121   15.2928   37.1803 C   0  0  1  0  0  0  0  0  0  0  0  0
  5  4  1  6  0  0  0
  5  8  1  0  0  0  0
  5 16  1  0  0  0  0
  8  7  1  6  0  0  0
  8 10  1  0  0  0  0
 10  1  1  6  0  0  0
 10 12  1  0  0  0  0
 11 18  1  0  0  0  0
 12 14  1  0  0  0  0
 14  2  1  1  0  0  0
 14 16  1  0  0  0  0
 16  9  1  1  0  0  0
 17  9  1  6  0  0  0
 17 11  1  0  0  0  0
 17 22  1  0  0  0  0
 18 19  1  1  0  0  0
 18 20  1  0  0  0  0
 19  3  1  0  0  0  0
 20 13  1  6  0  0  0
 20 21  1  0  0  0  0
 21 15  1  1  0  0  0
 21 22  1  0  0  0  0
 22  6  1  6  0  0  0
M  END
>  <CHROM.1>
-179.95444857,166.71592150,171.90830123,18.97079809,13.65200854,35.88069032
2.84087228,0.82084961,-2.66327056

>  <Name>
2et8_lig

>  <RI>
0

>  <Rbt.Current_Directory>
/home/itssahil/PROJECTS/Mol_Feturizer/New_Systems/rnas/2et8

>  <Rbt.Executable>
rbdock ($Id: //depot/dev/client3/rdock/2013.1/src/exe/rbdock.cxx#4 $)

>  <Rbt.Library>
libRbt.so (2013.1, Build901 2013/11/27)

>  <Rbt.Parameter_File>
/export/apps/rDock/src/rDock_2013.1_src/data/scripts/dock_solv.prm

>  <Rbt.Receptor>
prm/pocket_docking_7.prm

>  <SCORE>
-9.22635

>  <SCORE.INTER>
-9.71118

>  <SCORE.INTER.CONST>
1

>  <SCORE.INTER.POLAR>
-0.551798

>  <SCORE.INTER.ROT>
3

>  <SCORE.INTER.SOLV>
10.4085

>  <SCORE.INTER.VDW>
-13.7043

>  <SCORE.INTER.norm>
-0.441417

>  <SCORE.INTRA>
0.484825

>  <SCORE.INTRA.DIHEDRAL>
-3.75233

>  <SCORE.INTRA.DIHEDRAL.0>
4.99603

>  <SCORE.INTRA.POLAR>
0

>  <SCORE.INTRA.POLAR.0>
0

>  <SCORE.INTRA.REPUL>
0

>  <SCORE.INTRA.REPUL.0>
0

>  <SCORE.INTRA.SOLV>
3.84644

>  <SCORE.INTRA.SOLV.lig_0>
-74.884

>  <SCORE.INTRA.VDW>
0.437769

>  <SCORE.INTRA.VDW.0>
-0.858933

>  <SCORE.INTRA.norm>
0.0220375

>  <SCORE.RESTR>
0

>  <SCORE.RESTR.CAVITY>
0

>  <SCORE.RESTR.norm>
0

>  <SCORE.SYSTEM>
0

>  <SCORE.SYSTEM.CONST>
0

>  <SCORE.SYSTEM.DIHEDRAL>
0

>  <SCORE.SYSTEM.SOLV>
0

>  <SCORE.SYSTEM.norm>
0

>  <SCORE.heavy>
22

>  <SCORE.norm>
-0.41938

>  <RMSD>
5.936

$$$$
2et8_lig
 OpenBabel11021811433D
libRbt.so/2013.1/901 2013/11/27
 22 23  0  0  0  0  0  0  0  0999 V2000
   21.4435   11.1558   42.4020 N   0  0  0  0  0  0  0  0  0  0  0  0
   22.9480   12.4062   37.8435 N   0  0  0  0  0  0  0  0  0  0  0  0
   19.6840   11.8748   32.8525 N   0  0  0  0  0  0  0  0  0  0  0  0
   18.3062   13.2387   39.2169 O   0  0  0  0  0  0  0  0  0  0  0  0
   19.4402   12.3420   39.3133 C   0  0  2  0  0  0  0  0  0  0  0  0
   19.3755   15.6698   38.2217 N   0  0  0  0  0  0  0  0  0  0  0  0
   18.8064   11.6979   41.6343 O   0  0  0  0  0  0  0  0  0  0  0  0
   19.8728   12.2065   40.8231 C   0  0  1  0  0  0  0  0  0  0  0  0
   20.2446   13.0131   37.1795 O   0  0  0  0  0  0  0  0  0  0  0  0
   21.0450   11.2658   40.9570 C   0  0  1  0  0  0  0  0  0  0  0  0
   20.1789   13.7962   35.0150 O   0  0  0  0  0  0  0  0  0  0  0  0
   22.2216   11.7961   40.1058 C   0  0  0  0  0  0  0  0  0  0  0  0
   16.5335   13.7946   34.8355 O   0  0  0  0  0  0  0  0  0  0  0  0
   21.7455   11.8911   38.6268 C   0  0  1  0  0  0  0  0  0  0  0  0
   16.9322   15.7299   36.8187 O   0  0  0  0  0  0  0  0  0  0  0  0
   20.6583   12.9147   38.4852 C   0  0  2  0  0  0  0  0  0  0  0  0
   20.3770   14.2035   36.4744 C   0  0  1  0  0  0  0  0  0  0  0  0
   18.8135   13.2543   34.7366 C   0  0  2  0  0  0  0  0  0  0  0  0
   18.6681   12.8891   33.2447 C   0  0  0  0  0  0  0  0  0  0  0  0
   17.7999   14.3043   35.0812 C   0  0  2  0  0  0  0  0  0  0  0  0
   17.8997   14.7123   36.5224 C   0  0  1  0  0  0  0  0  0  0  0  0
   19.2664   15.2477   36.7791 C   0  0  1  0  0  0  0  0  0  0  0  0
  5  4  1  1  0  0  0
  5  8  1  0  0  0  0
  5 16  1  0  0  0  0
  8  7  1  1  0  0  0
  8 10  1  0  0  0  0
 10  1  1  1  0  0  0
 10 12  1  0  0  0  0
 11 18  1  0  0  0  0
 12 14  1  0  0  0  0
 14  2  1  6  0  0  0
 14 16  1  0  0  0  0
 16  9  1  6  0  0  0
 17  9  1  1  0  0  0
 17 11  1  0  0  0  0
 17 22  1  0  0  0  0
 18 19  1  6  0  0  0
 18 20  1  0  0  0  0
 19  3  1  0  0  0  0
 20 13  1  1  0  0  0
 20 21  1  0  0  0  0
 21 15  1  6  0  0  0
 21 22  1  0  0  0  0
 22  6  1  1  0  0  0
M  END
>  <CHROM.1>
127.50929950,164.87512028,59.01877113,19.60269079,13.16715520,37.58698529
-1.13121471,0.56444584,-1.48892174

>  <Name>
2et8_lig

>  <RI>
3.14397e+07

>  <Rbt.Current_Directory>
/home/itssahil/PROJECTS/Mol_Feturizer/New_Systems/rnas/2et8

>  <Rbt.Executable>
rbdock ($Id: //depot/dev/client3/rdock/2013.1/src/exe/rbdock.cxx#4 $)

>  <Rbt.Library>
libRbt.so (2013.1, Build901 2013/11/27)

>  <Rbt.Parameter_File>
/export/apps/rDock/src/rDock_2013.1_src/data/scripts/dock_solv.prm

>  <Rbt.Receptor>
prm/pocket_docking_6.prm

>  <SCORE>
-16.1421

>  <SCORE.INTER>
-17.1356

>  <SCORE.INTER.CONST>
1

>  <SCORE.INTER.POLAR>
-1.93896

>  <SCORE.INTER.ROT>
3

>  <SCORE.INTER.SOLV>
19.2238

>  <SCORE.INTER.VDW>
-16.9685

>  <SCORE.INTER.norm>
-0.778893

>  <SCORE.INTRA>
0.993556

>  <SCORE.INTRA.DIHEDRAL>
2.96234

>  <SCORE.INTRA.DIHEDRAL.0>
4.99603

>  <SCORE.INTRA.POLAR>
0

>  <SCORE.INTRA.POLAR.0>
0

>  <SCORE.INTRA.REPUL>
0

>  <SCORE.INTRA.REPUL.0>
0

>  <SCORE.INTRA.SOLV>
1.73262

>  <SCORE.INTRA.SOLV.lig_0>
-74.884

>  <SCORE.INTRA.VDW>
-1.35392

>  <SCORE.INTRA.VDW.0>
-0.858933

>  <SCORE.INTRA.norm>
0.0451616

>  <SCORE.RESTR>
0

>  <SCORE.RESTR.CAVITY>
0

>  <SCORE.RESTR.norm>
0

>  <SCORE.SYSTEM>
0

>  <SCORE.SYSTEM.CONST>
0

>  <SCORE.SYSTEM.DIHEDRAL>
0

>  <SCORE.SYSTEM.SOLV>
0

>  <SCORE.SYSTEM.norm>
0

>  <SCORE.heavy>
22

>  <SCORE.norm>
-0.733731

>  <RMSD>
5.938

$$$$
2et8_lig
 OpenBabel11021811433D
libRbt.so/2013.1/901 2013/11/27
 22 23  0  0  0  0  0  0  0  0999 V2000
   21.4754   11.0957   42.4549 N   0  0  0  0  0  0  0  0  0  0  0  0
   22.9762   12.3767   37.9036 N   0  0  0  0  0  0  0  0  0  0  0  0
   19.6219   11.8974   32.9121 N   0  0  0  0  0  0  0  0  0  0  0  0
   18.3307   13.1834   39.2803 O   0  0  0  0  0  0  0  0  0  0  0  0
   19.4682   12.2907   39.3721 C   0  0  2  0  0  0  0  0  0  0  0  0
   19.3810   15.5995   38.3506 N   0  0  0  0  0  0  0  0  0  0  0  0
   18.8364   11.6315   41.6895 O   0  0  0  0  0  0  0  0  0  0  0  0
   19.9010   12.1487   40.8812 C   0  0  1  0  0  0  0  0  0  0  0  0
   20.2705   12.9765   37.2421 O   0  0  0  0  0  0  0  0  0  0  0  0
   21.0769   11.2120   41.0104 C   0  0  1  0  0  0  0  0  0  0  0  0
   20.1391   13.7947   35.0937 O   0  0  0  0  0  0  0  0  0  0  0  0
   22.2515   11.7515   40.1625 C   0  0  0  0  0  0  0  0  0  0  0  0
   16.4909   13.7317   35.0012 O   0  0  0  0  0  0  0  0  0  0  0  0
   21.7755   11.8526   38.6838 C   0  0  1  0  0  0  0  0  0  0  0  0
   16.9040   15.6399   37.0075 O   0  0  0  0  0  0  0  0  0  0  0  0
   20.6842   12.8727   38.5475 C   0  0  2  0  0  0  0  0  0  0  0  0
   20.3652   14.1808   36.5549 C   0  0  1  0  0  0  0  0  0  0  0  0
   18.7769   13.2334   34.8387 C   0  0  2  0  0  0  0  0  0  0  0  0
   18.6019   12.8911   33.3446 C   0  0  0  0  0  0  0  0  0  0  0  0
   17.7540   14.2595   35.2254 C   0  0  2  0  0  0  0  0  0  0  0  0
   17.8814   14.6448   36.6707 C   0  0  1  0  0  0  0  0  0  0  0  0
   19.2445   15.1999   36.9039 C   0  0  1  0  0  0  0  0  0  0  0  0
  5  4  1  1  0  0  0
  5  8  1  0  0  0  0
  5 16  1  0  0  0  0
  8  7  1  1  0  0  0
  8 10  1  0  0  0  0
 10  1  1  1  0  0  0
 10 12  1  0  0  0  0
 11 18  1  0  0  0  0
 12 14  1  0  0  0  0
 14  2  1  6  0  0  0
 14 16  1  0  0  0  0
 16  9  1  6  0  0  0
 17  9  1  1  0  0  0
 17 11  1  0  0  0  0
 17 22  1  0  0  0  0
 18 19  1  6  0  0  0
 18 20  1  0  0  0  0
 19  3  1  0  0  0  0
 20 13  1  1  0  0  0
 20 21  1  0  0  0  0
 21 15  1  6  0  0  0
 21 22  1  0  0  0  0
 22  6  1  1  0  0  0
M  END
>  <CHROM.1>
125.76608518,166.63741962,59.24713435,19.60004966,13.12413672,37.67667440
-1.12042388,0.54731610,-1.48435689

>  <Name>
2et8_lig

>  <RI>
0

>  <Rbt.Current_Directory>
/home/itssahil/PROJECTS/Mol_Feturizer/New_Systems/rnas/2et8

>  <Rbt.Executable>
rbdock ($Id: //depot/dev/client3/rdock/2013.1/src/exe/rbdock.cxx#4 $)

>  <Rbt.Library>
libRbt.so (2013.1, Build901 2013/11/27)

>  <Rbt.Parameter_File>
/export/apps/rDock/src/rDock_2013.1_src/data/scripts/dock_solv.prm

>  <Rbt.Receptor>
prm/pocket_docking_7.prm

>  <SCORE>
-16.1911

>  <SCORE.INTER>
-17.2284

>  <SCORE.INTER.CONST>
1

>  <SCORE.INTER.POLAR>
-1.93896

>  <SCORE.INTER.ROT>
3

>  <SCORE.INTER.SOLV>
19.2398

>  <SCORE.INTER.VDW>
-17.0357

>  <SCORE.INTER.norm>
-0.783108

>  <SCORE.INTRA>
1.0373

>  <SCORE.INTRA.DIHEDRAL>
2.84937

>  <SCORE.INTRA.DIHEDRAL.0>
4.99603

>  <SCORE.INTRA.POLAR>
0

>  <SCORE.INTRA.POLAR.0>
0

>  <SCORE.INTRA.REPUL>
0

>  <SCORE.INTRA.REPUL.0>
0

>  <SCORE.INTRA.SOLV>
1.83758

>  <SCORE.INTRA.SOLV.lig_0>
-74.884

>  <SCORE.INTRA.VDW>
-1.30617

>  <SCORE.INTRA.VDW.0>
-0.858933

>  <SCORE.INTRA.norm>
0.0471501

>  <SCORE.RESTR>
0

>  <SCORE.RESTR.CAVITY>
0

>  <SCORE.RESTR.norm>
0

>  <SCORE.SYSTEM>
0

>  <SCORE.SYSTEM.CONST>
0

>  <SCORE.SYSTEM.DIHEDRAL>
0

>  <SCORE.SYSTEM.SOLV>
0

>  <SCORE.SYSTEM.norm>
0

>  <SCORE.heavy>
22

>  <SCORE.norm>
-0.735958

>  <RMSD>
5.939

$$$$
2et8_lig
 OpenBabel11021811433D
libRbt.so/2013.1/901 2013/11/27
 22 23  0  0  0  0  0  0  0  0999 V2000
   21.5117   11.1584   42.4716 N   0  0  0  0  0  0  0  0  0  0  0  0
   22.9512   12.3955   37.8885 N   0  0  0  0  0  0  0  0  0  0  0  0
   19.5588   11.7600   32.9478 N   0  0  0  0  0  0  0  0  0  0  0  0
   18.3077   13.1554   39.2979 O   0  0  0  0  0  0  0  0  0  0  0  0
   19.4588   12.2804   39.3914 C   0  0  2  0  0  0  0  0  0  0  0  0
   19.4771   15.6550   38.2440 N   0  0  0  0  0  0  0  0  0  0  0  0
   18.8582   11.6455   41.7239 O   0  0  0  0  0  0  0  0  0  0  0  0
   19.9076   12.1663   40.8983 C   0  0  1  0  0  0  0  0  0  0  0  0
   20.2312   12.9471   37.2445 O   0  0  0  0  0  0  0  0  0  0  0  0
   21.0981   11.2483   41.0295 C   0  0  1  0  0  0  0  0  0  0  0  0
   20.1434   13.6837   35.0645 O   0  0  0  0  0  0  0  0  0  0  0  0
   22.2569   11.7924   40.1627 C   0  0  0  0  0  0  0  0  0  0  0  0
   16.4969   13.8045   34.9646 O   0  0  0  0  0  0  0  0  0  0  0  0
   21.7656   11.8656   38.6874 C   0  0  1  0  0  0  0  0  0  0  0  0
   17.0063   15.7684   36.8936 O   0  0  0  0  0  0  0  0  0  0  0  0
   20.6585   12.8679   38.5471 C   0  0  2  0  0  0  0  0  0  0  0  0
   20.3882   14.1163   36.5095 C   0  0  1  0  0  0  0  0  0  0  0  0
   18.7543   13.1834   34.8286 C   0  0  2  0  0  0  0  0  0  0  0  0
   18.5629   12.7904   33.3490 C   0  0  0  0  0  0  0  0  0  0  0  0
   17.7853   14.2754   35.1709 C   0  0  2  0  0  0  0  0  0  0  0  0
   17.9314   14.7116   36.5998 C   0  0  1  0  0  0  0  0  0  0  0  0
   19.3211   15.2049   36.8142 C   0  0  1  0  0  0  0  0  0  0  0  0
  5  4  1  1  0  0  0
  5  8  1  0  0  0  0
  5 16  1  0  0  0  0
  8  7  1  1  0  0  0
  8 10  1  0  0  0  0
 10  1  1  1  0  0  0
 10 12  1  0  0  0  0
 11 18  1  0  0  0  0
 12 14  1  0  0  0  0
 14  2  1  6  0  0  0
 14 16  1  0  0  0  0
 16  9  1  6  0  0  0
 17  9  1  1  0  0  0
 17 11  1  0  0  0  0
 17 22  1  0  0  0  0
 18 19  1  6  0  0  0
 18 20  1  0  0  0  0
 19  3  1  0  0  0  0
 20 13  1  1  0  0  0
 20 21  1  0  0  0  0
 21 15  1  6  0  0  0
 21 22  1  0  0  0  0
 22  6  1  1  0  0  0
M  END
>  <CHROM.1>
130.33008928,165.53453720,57.45857412,19.61016991,13.12488933,37.65839878
-1.11223691,0.57587878,-1.50710159

>  <Name>
2et8_lig

>  <RI>
3.14397e+07

>  <Rbt.Current_Directory>
/home/itssahil/PROJECTS/Mol_Feturizer/New_Systems/rnas/2et8

>  <Rbt.Executable>
rbdock ($Id: //depot/dev/client3/rdock/2013.1/src/exe/rbdock.cxx#4 $)

>  <Rbt.Library>
libRbt.so (2013.1, Build901 2013/11/27)

>  <Rbt.Parameter_File>
/export/apps/rDock/src/rDock_2013.1_src/data/scripts/dock_solv.prm

>  <Rbt.Receptor>
prm/pocket_docking_6.prm

>  <SCORE>
-16.2007

>  <SCORE.INTER>
-16.9675

>  <SCORE.INTER.CONST>
1

>  <SCORE.INTER.POLAR>
-1.93896

>  <SCORE.INTER.ROT>
3

>  <SCORE.INTER.SOLV>
19.4942

>  <SCORE.INTER.VDW>
-16.9465

>  <SCORE.INTER.norm>
-0.771251

>  <SCORE.INTRA>
0.766821

>  <SCORE.INTRA.DIHEDRAL>
2.6651

>  <SCORE.INTRA.DIHEDRAL.0>
4.99603

>  <SCORE.INTRA.POLAR>
0

>  <SCORE.INTRA.POLAR.0>
0

>  <SCORE.INTRA.REPUL>
0

>  <SCORE.INTRA.REPUL.0>
0

>  <SCORE.INTRA.SOLV>
1.63837

>  <SCORE.INTRA.SOLV.lig_0>
-74.884

>  <SCORE.INTRA.VDW>
-1.38492

>  <SCORE.INTRA.VDW.0>
-0.858933

>  <SCORE.INTRA.norm>
0.0348555

>  <SCORE.RESTR>
0

>  <SCORE.RESTR.CAVITY>
0

>  <SCORE.RESTR.norm>
0

>  <SCORE.SYSTEM>
0

>  <SCORE.SYSTEM.CONST>
0

>  <SCORE.SYSTEM.DIHEDRAL>
0

>  <SCORE.SYSTEM.SOLV>
0

>  <SCORE.SYSTEM.norm>
0

>  <SCORE.heavy>
22

>  <SCORE.norm>
-0.736395

>  <RMSD>
5.941

$$$$
2et8_lig
 OpenBabel11021811433D
libRbt.so/2013.1/901 2013/11/27
 22 23  0  0  0  0  0  0  0  0999 V2000
   21.4961   11.0717   42.4294 N   0  0  0  0  0  0  0  0  0  0  0  0
   22.9586   12.3555   37.8664 N   0  0  0  0  0  0  0  0  0  0  0  0
   19.5820   11.8276   32.9239 N   0  0  0  0  0  0  0  0  0  0  0  0
   18.3319   13.1855   39.2916 O   0  0  0  0  0  0  0  0  0  0  0  0
   19.4651   12.2860   39.3698 C   0  0  2  0  0  0  0  0  0  0  0  0
   19.5448   15.6852   38.2553 N   0  0  0  0  0  0  0  0  0  0  0  0
   18.8527   11.6247   41.6918 O   0  0  0  0  0  0  0  0  0  0  0  0
   19.9121   12.1378   40.8742 C   0  0  1  0  0  0  0  0  0  0  0  0
   20.2500   12.9725   37.2336 O   0  0  0  0  0  0  0  0  0  0  0  0
   21.0838   11.1939   40.9893 C   0  0  1  0  0  0  0  0  0  0  0  0
   20.2043   13.7352   35.0613 O   0  0  0  0  0  0  0  0  0  0  0  0
   22.2530   11.7288   40.1309 C   0  0  0  0  0  0  0  0  0  0  0  0
   16.5629   13.9389   34.9208 O   0  0  0  0  0  0  0  0  0  0  0  0
   21.7628   11.8364   38.6573 C   0  0  1  0  0  0  0  0  0  0  0  0
   17.0932   15.8692   36.8779 O   0  0  0  0  0  0  0  0  0  0  0  0
   20.6761   12.8630   38.5345 C   0  0  2  0  0  0  0  0  0  0  0  0
   20.4417   14.1460   36.5140 C   0  0  1  0  0  0  0  0  0  0  0  0
   18.8074   13.2688   34.8037 C   0  0  2  0  0  0  0  0  0  0  0  0
   18.6246   12.8968   33.3176 C   0  0  0  0  0  0  0  0  0  0  0  0
   17.8589   14.3784   35.1473 C   0  0  2  0  0  0  0  0  0  0  0  0
   17.9979   14.7952   36.5827 C   0  0  1  0  0  0  0  0  0  0  0  0
   19.3956   15.2548   36.8187 C   0  0  1  0  0  0  0  0  0  0  0  0
  5  4  1  1  0  0  0
  5  8  1  0  0  0  0
  5 16  1  0  0  0  0
  8  7  1  1  0  0  0
  8 10  1  0  0  0  0
 10  1  1  1  0  0  0
 10 12  1  0  0  0  0
 11 18  1  0  0  0  0
 12 14  1  0  0  0  0
 14  2  1  6  0  0  0
 14 16  1  0  0  0  0
 16  9  1  6  0  0  0
 17  9  1  1  0  0  0
 17 11  1  0  0  0  0
 17 22  1  0  0  0  0
 18 19  1  6  0  0  0
 18 20  1  0  0  0  0
 19  3  1  0  0  0  0
 20 13  1  1  0  0  0
 20 21  1  0  0  0  0
 21 15  1  6  0  0  0
 21 22  1  0  0  0  0
 22  6  1  1  0  0  0
M  END
>  <CHROM.1>
130.94772012,164.65393219,58.70291943,19.64343059,13.15217649,37.63852010
-1.11733720,0.60200978,-1.49146756

>  <Name>
2et8_lig

>  <RI>
2.82936e+07

>  <Rbt.Current_Directory>
/home/itssahil/PROJECTS/Mol_Feturizer/New_Systems/rnas/2et8

>  <Rbt.Executable>
rbdock ($Id: //depot/dev/client3/rdock/2013.1/src/exe/rbdock.cxx#4 $)

>  <Rbt.Library>
libRbt.so (2013.1, Build901 2013/11/27)

>  <Rbt.Parameter_File>
/export/apps/rDock/src/rDock_2013.1_src/data/scripts/dock_solv.prm

>  <Rbt.Receptor>
prm/pocket_docking_8.prm

>  <SCORE>
-16.164

>  <SCORE.INTER>
-16.916

>  <SCORE.INTER.CONST>
1

>  <SCORE.INTER.POLAR>
-1.93882

>  <SCORE.INTER.ROT>
3

>  <SCORE.INTER.SOLV>
19.0922

>  <SCORE.INTER.VDW>
-16.7787

>  <SCORE.INTER.norm>
-0.768909

>  <SCORE.INTRA>
0.751995

>  <SCORE.INTRA.DIHEDRAL>
2.70247

>  <SCORE.INTRA.DIHEDRAL.0>
4.99603

>  <SCORE.INTRA.POLAR>
0

>  <SCORE.INTRA.POLAR.0>
0

>  <SCORE.INTRA.REPUL>
0

>  <SCORE.INTRA.REPUL.0>
0

>  <SCORE.INTRA.SOLV>
1.58514

>  <SCORE.INTRA.SOLV.lig_0>
-74.884

>  <SCORE.INTRA.VDW>
-1.39181

>  <SCORE.INTRA.VDW.0>
-0.858933

>  <SCORE.INTRA.norm>
0.0341816

>  <SCORE.RESTR>
0

>  <SCORE.RESTR.CAVITY>
0

>  <SCORE.RESTR.norm>
0

>  <SCORE.SYSTEM>
0

>  <SCORE.SYSTEM.CONST>
0

>  <SCORE.SYSTEM.DIHEDRAL>
0

>  <SCORE.SYSTEM.SOLV>
0

>  <SCORE.SYSTEM.norm>
0

>  <SCORE.heavy>
22

>  <SCORE.norm>
-0.734727

>  <RMSD>
5.949

$$$$
2et8_lig
 OpenBabel11021811433D
libRbt.so/2013.1/901 2013/11/27
 22 23  0  0  0  0  0  0  0  0999 V2000
   21.4331   10.9848   42.5092 N   0  0  0  0  0  0  0  0  0  0  0  0
   23.0090   12.2862   37.9892 N   0  0  0  0  0  0  0  0  0  0  0  0
   19.6805   12.0038   32.9512 N   0  0  0  0  0  0  0  0  0  0  0  0
   18.3704   13.1858   39.3308 O   0  0  0  0  0  0  0  0  0  0  0  0
   19.4856   12.2653   39.4223 C   0  0  2  0  0  0  0  0  0  0  0  0
   19.5356   15.6009   38.4461 N   0  0  0  0  0  0  0  0  0  0  0  0
   18.8153   11.5927   41.7250 O   0  0  0  0  0  0  0  0  0  0  0  0
   19.8998   12.0944   40.9337 C   0  0  1  0  0  0  0  0  0  0  0  0
   20.3251   12.9582   37.3091 O   0  0  0  0  0  0  0  0  0  0  0  0
   21.0518   11.1285   41.0625 C   0  0  1  0  0  0  0  0  0  0  0  0
   20.2243   13.8037   35.1697 O   0  0  0  0  0  0  0  0  0  0  0  0
   22.2474   11.6504   40.2328 C   0  0  0  0  0  0  0  0  0  0  0  0
   16.5764   13.8797   35.0785 O   0  0  0  0  0  0  0  0  0  0  0  0
   21.7886   11.7812   38.7510 C   0  0  1  0  0  0  0  0  0  0  0  0
   17.0616   15.7494   37.1049 O   0  0  0  0  0  0  0  0  0  0  0  0
   20.7232   12.8284   38.6170 C   0  0  2  0  0  0  0  0  0  0  0  0
   20.4651   14.1653   36.6347 C   0  0  1  0  0  0  0  0  0  0  0  0
   18.8419   13.2972   34.9094 C   0  0  2  0  0  0  0  0  0  0  0  0
   18.6538   12.9777   33.4118 C   0  0  0  0  0  0  0  0  0  0  0  0
   17.8585   14.3569   35.3077 C   0  0  2  0  0  0  0  0  0  0  0  0
   18.0006   14.7217   36.7569 C   0  0  1  0  0  0  0  0  0  0  0  0
   19.3838   15.2223   36.9953 C   0  0  1  0  0  0  0  0  0  0  0  0
  5  4  1  1  0  0  0
  5  8  1  0  0  0  0
  5 16  1  0  0  0  0
  8  7  1  1  0  0  0
  8 10  1  0  0  0  0
 10  1  1  1  0  0  0
 10 12  1  0  0  0  0
 11 18  1  0  0  0  0
 12 14  1  0  0  0  0
 14  2  1  6  0  0  0
 14 16  1  0  0  0  0
 16  9  1  6  0  0  0
 17  9  1  1  0  0  0
 17 11  1  0  0  0  0
 17 22  1  0  0  0  0
 18 19  1  6  0  0  0
 18 20  1  0  0  0  0
 19  3  1  0  0  0  0
 20 13  1  1  0  0  0
 20 21  1  0  0  0  0
 21 15  1  6  0  0  0
 21 22  1  0  0  0  0
 22  6  1  1  0  0  0
M  END
>  <CHROM.1>
126.29626356,167.25936036,56.30143690,19.65607052,13.12876363,37.74556123
-1.13277978,0.57306221,-1.46156277

>  <Name>
2et8_lig

>  <RI>
0

>  <Rbt.Current_Directory>
/home/itssahil/PROJECTS/Mol_Feturizer/New_Systems/rnas/2et8

>  <Rbt.Executable>
rbdock ($Id: //depot/dev/client3/rdock/2013.1/src/exe/rbdock.cxx#4 $)

>  <Rbt.Library>
libRbt.so (2013.1, Build901 2013/11/27)

>  <Rbt.Parameter_File>
/export/apps/rDock/src/rDock_2013.1_src/data/scripts/dock_solv.prm

>  <Rbt.Receptor>
prm/pocket_docking_5.prm

>  <SCORE>
-16.1182

>  <SCORE.INTER>
-17.132

>  <SCORE.INTER.CONST>
1

>  <SCORE.INTER.POLAR>
-1.93527

>  <SCORE.INTER.ROT>
3

>  <SCORE.INTER.SOLV>
19.08

>  <SCORE.INTER.VDW>
-16.9304

>  <SCORE.INTER.norm>
-0.778728

>  <SCORE.INTRA>
1.01379

>  <SCORE.INTRA.DIHEDRAL>
2.7937

>  <SCORE.INTRA.DIHEDRAL.0>
4.99603

>  <SCORE.INTRA.POLAR>
0

>  <SCORE.INTRA.POLAR.0>
0

>  <SCORE.INTRA.REPUL>
0

>  <SCORE.INTRA.REPUL.0>
0

>  <SCORE.INTRA.SOLV>
1.85064

>  <SCORE.INTRA.SOLV.lig_0>
-74.884

>  <SCORE.INTRA.VDW>
-1.30838

>  <SCORE.INTRA.VDW.0>
-0.858933

>  <SCORE.INTRA.norm>
0.0460814

>  <SCORE.RESTR>
0

>  <SCORE.RESTR.CAVITY>
0

>  <SCORE.RESTR.norm>
0

>  <SCORE.SYSTEM>
0

>  <SCORE.SYSTEM.CONST>
0

>  <SCORE.SYSTEM.DIHEDRAL>
0

>  <SCORE.SYSTEM.SOLV>
0

>  <SCORE.SYSTEM.norm>
0

>  <SCORE.heavy>
22

>  <SCORE.norm>
-0.732646

>  <RMSD>
5.955

$$$$
2et8_lig
 OpenBabel11021811433D
libRbt.so/2013.1/901 2013/11/27
 22 23  0  0  0  0  0  0  0  0999 V2000
   21.6363   11.0100   42.3401 N   0  0  0  0  0  0  0  0  0  0  0  0
   22.9909   12.4214   37.7815 N   0  0  0  0  0  0  0  0  0  0  0  0
   16.1705   13.3993   34.0683 N   0  0  0  0  0  0  0  0  0  0  0  0
   18.3757   13.1292   39.3064 O   0  0  0  0  0  0  0  0  0  0  0  0
   19.5272   12.2506   39.3445 C   0  0  2  0  0  0  0  0  0  0  0  0
   20.4840   15.7149   38.4242 N   0  0  0  0  0  0  0  0  0  0  0  0
   18.9698   11.5270   41.6618 O   0  0  0  0  0  0  0  0  0  0  0  0
   20.0042   12.0784   40.8371 C   0  0  1  0  0  0  0  0  0  0  0  0
   20.2599   12.9989   37.2105 O   0  0  0  0  0  0  0  0  0  0  0  0
   21.1957   11.1555   40.9105 C   0  0  1  0  0  0  0  0  0  0  0  0
   19.7872   13.9145   35.1513 O   0  0  0  0  0  0  0  0  0  0  0  0
   22.3387   11.7318   40.0436 C   0  0  0  0  0  0  0  0  0  0  0  0
   16.3880   14.8855   36.0588 O   0  0  0  0  0  0  0  0  0  0  0  0
   21.8198   11.8618   38.5817 C   0  0  1  0  0  0  0  0  0  0  0  0
   17.8520   16.5102   37.8065 O   0  0  0  0  0  0  0  0  0  0  0  0
   20.7116   12.8694   38.5009 C   0  0  2  0  0  0  0  0  0  0  0  0
   20.5010   14.1567   36.4805 C   0  0  1  0  0  0  0  0  0  0  0  0
   18.3062   13.7713   35.2975 C   0  0  2  0  0  0  0  0  0  0  0  0
   17.6428   13.5580   33.9210 C   0  0  0  0  0  0  0  0  0  0  0  0
   17.7601   15.0259   35.9112 C   0  0  2  0  0  0  0  0  0  0  0  0
   18.3785   15.2959   37.2522 C   0  0  1  0  0  0  0  0  0  0  0  0
   19.8527   15.4339   37.0849 C   0  0  1  0  0  0  0  0  0  0  0  0
  5  4  1  1  0  0  0
  5  8  1  0  0  0  0
  5 16  1  0  0  0  0
  8  7  1  1  0  0  0
  8 10  1  0  0  0  0
 10  1  1  1  0  0  0
 10 12  1  0  0  0  0
 11 18  1  0  0  0  0
 12 14  1  0  0  0  0
 14  2  1  6  0  0  0
 14 16  1  0  0  0  0
 16  9  1  6  0  0  0
 17  9  1  1  0  0  0
 17 11  1  0  0  0  0
 17 22  1  0  0  0  0
 18 19  1  6  0  0  0
 18 20  1  0  0  0  0
 19  3  1  0  0  0  0
 20 13  1  1  0  0  0
 20 21  1  0  0  0  0
 21 15  1  6  0  0  0
 21 22  1  0  0  0  0
 22  6  1  1  0  0  0
M  END
>  <CHROM.1>
135.64526228,-177.46699513,179.32517544,19.54400761,13.41218810,37.90264992
1.01260841,-0.35409870,1.86143582

>  <Name>
2et8_lig

>  <RI>
0

>  <Rbt.Current_Directory>
/home/itssahil/PROJECTS/Mol_Feturizer/New_Systems/rnas/2et8

>  <Rbt.Executable>
rbdock ($Id: //depot/dev/client3/rdock/2013.1/src/exe/rbdock.cxx#4 $)

>  <Rbt.Library>
libRbt.so (2013.1, Build901 2013/11/27)

>  <Rbt.Parameter_File>
/export/apps/rDock/src/rDock_2013.1_src/data/scripts/dock_solv.prm

>  <Rbt.Receptor>
prm/pocket_docking_5.prm

>  <SCORE>
-9.73653

>  <SCORE.INTER>
-11.6303

>  <SCORE.INTER.CONST>
1

>  <SCORE.INTER.POLAR>
-0.959166

>  <SCORE.INTER.ROT>
3

>  <SCORE.INTER.SOLV>
17.9088

>  <SCORE.INTER.VDW>
-16.1259

>  <SCORE.INTER.norm>
-0.528649

>  <SCORE.INTRA>
1.89306

>  <SCORE.INTRA.DIHEDRAL>
1.10476

>  <SCORE.INTRA.DIHEDRAL.0>
4.99603

>  <SCORE.INTRA.POLAR>
0

>  <SCORE.INTRA.POLAR.0>
0

>  <SCORE.INTRA.REPUL>
0

>  <SCORE.INTRA.REPUL.0>
0

>  <SCORE.INTRA.SOLV>
3.43478

>  <SCORE.INTRA.SOLV.lig_0>
-74.884

>  <SCORE.INTRA.VDW>
-0.376716

>  <SCORE.INTRA.VDW.0>
-0.858933

>  <SCORE.INTRA.norm>
0.086048

>  <SCORE.RESTR>
0.000691015

>  <SCORE.RESTR.CAVITY>
0.000691015

>  <SCORE.RESTR.norm>
3.14098e-05

>  <SCORE.SYSTEM>
0

>  <SCORE.SYSTEM.CONST>
0

>  <SCORE.SYSTEM.DIHEDRAL>
0

>  <SCORE.SYSTEM.SOLV>
0

>  <SCORE.SYSTEM.norm>
0

>  <SCORE.heavy>
22

>  <SCORE.norm>
-0.44257

>  <RMSD>
5.974

$$$$
2et8_lig
 OpenBabel11021811433D
libRbt.so/2013.1/901 2013/11/27
 22 23  0  0  0  0  0  0  0  0999 V2000
   21.0779   11.7321   40.2654 N   0  0  0  0  0  0  0  0  0  0  0  0
   18.5049   13.7924   36.5583 N   0  0  0  0  0  0  0  0  0  0  0  0
   19.7790   12.1123   32.9194 N   0  0  0  0  0  0  0  0  0  0  0  0
   23.3129   14.6890   37.0116 O   0  0  0  0  0  0  0  0  0  0  0  0
   22.0655   14.4666   37.7144 C   0  0  2  0  0  0  0  0  0  0  0  0
   21.7405   18.0437   35.0494 N   0  0  0  0  0  0  0  0  0  0  0  0
   23.2586   13.3556   39.5976 O   0  0  0  0  0  0  0  0  0  0  0  0
   22.2053   13.1973   38.6386 C   0  0  1  0  0  0  0  0  0  0  0  0
   20.8033   15.3424   35.9005 O   0  0  0  0  0  0  0  0  0  0  0  0
   20.9241   12.9482   39.3958 C   0  0  1  0  0  0  0  0  0  0  0  0
   21.3524   14.4606   33.8455 O   0  0  0  0  0  0  0  0  0  0  0  0
   19.7679   12.7551   38.3878 C   0  0  0  0  0  0  0  0  0  0  0  0
   18.5265   16.0008   32.1242 O   0  0  0  0  0  0  0  0  0  0  0  0
   19.6635   14.0417   37.5177 C   0  0  1  0  0  0  0  0  0  0  0  0
   19.9496   18.2877   32.8873 O   0  0  0  0  0  0  0  0  0  0  0  0
   20.8963   14.2165   36.6812 C   0  0  2  0  0  0  0  0  0  0  0  0
   21.6881   15.5610   34.8512 C   0  0  1  0  0  0  0  0  0  0  0  0
   19.9653   14.5684   33.2982 C   0  0  2  0  0  0  0  0  0  0  0  0
   19.6987   13.4491   32.2704 C   0  0  0  0  0  0  0  0  0  0  0  0
   19.8182   15.8972   32.6190 C   0  0  2  0  0  0  0  0  0  0  0  0
   20.0787   17.0310   33.5678 C   0  0  1  0  0  0  0  0  0  0  0  0
   21.4640   16.9046   34.1022 C   0  0  1  0  0  0  0  0  0  0  0  0
  5  4  1  6  0  0  0
  5  8  1  0  0  0  0
  5 16  1  0  0  0  0
  8  7  1  1  0  0  0
  8 10  1  0  0  0  0
 10  1  1  6  0  0  0
 10 12  1  0  0  0  0
 11 18  1  0  0  0  0
 12 14  1  0  0  0  0
 14  2  1  6  0  0  0
 14 16  1  0  0  0  0
 16  9  1  6  0  0  0
 17  9  1  1  0  0  0
 17 11  1  0  0  0  0
 17 22  1  0  0  0  0
 18 19  1  6  0  0  0
 18 20  1  0  0  0  0
 19  3  1  0  0  0  0
 20 13  1  1  0  0  0
 20 21  1  0  0  0  0
 21 15  1  6  0  0  0
 21 22  1  0  0  0  0
 22  6  1  1  0  0  0
M  END
>  <CHROM.1>
79.26242130,66.84014493,62.96355122,20.76505651,14.69456479,35.66846797,1.18711273
0.90360972,2.34051608

>  <Name>
2et8_lig

>  <RI>
0

>  <Rbt.Current_Directory>
/home/itssahil/PROJECTS/Mol_Feturizer/New_Systems/rnas/2et8

>  <Rbt.Executable>
rbdock ($Id: //depot/dev/client3/rdock/2013.1/src/exe/rbdock.cxx#4 $)

>  <Rbt.Library>
libRbt.so (2013.1, Build901 2013/11/27)

>  <Rbt.Parameter_File>
/export/apps/rDock/src/rDock_2013.1_src/data/scripts/dock_solv.prm

>  <Rbt.Receptor>
prm/pocket_docking_7.prm

>  <SCORE>
-12.2605

>  <SCORE.INTER>
-10.1477

>  <SCORE.INTER.CONST>
1

>  <SCORE.INTER.POLAR>
-1.32632

>  <SCORE.INTER.ROT>
3

>  <SCORE.INTER.SOLV>
13.7888

>  <SCORE.INTER.VDW>
-12.5403

>  <SCORE.INTER.norm>
-0.461257

>  <SCORE.INTRA>
-2.1128

>  <SCORE.INTRA.DIHEDRAL>
-2.91581

>  <SCORE.INTRA.DIHEDRAL.0>
4.99603

>  <SCORE.INTRA.POLAR>
0

>  <SCORE.INTRA.POLAR.0>
0

>  <SCORE.INTRA.REPUL>
0

>  <SCORE.INTRA.REPUL.0>
0

>  <SCORE.INTRA.SOLV>
-0.0335406

>  <SCORE.INTRA.SOLV.lig_0>
-74.884

>  <SCORE.INTRA.VDW>
-0.63813

>  <SCORE.INTRA.VDW.0>
-0.858933

>  <SCORE.INTRA.norm>
-0.0960365

>  <SCORE.RESTR>
0

>  <SCORE.RESTR.CAVITY>
0

>  <SCORE.RESTR.norm>
0

>  <SCORE.SYSTEM>
0

>  <SCORE.SYSTEM.CONST>
0

>  <SCORE.SYSTEM.DIHEDRAL>
0

>  <SCORE.SYSTEM.SOLV>
0

>  <SCORE.SYSTEM.norm>
0

>  <SCORE.heavy>
22

>  <SCORE.norm>
-0.557294

>  <RMSD>
5.988

$$$$
2et8_lig
 OpenBabel11021811433D
libRbt.so/2013.1/901 2013/11/27
 22 23  0  0  0  0  0  0  0  0999 V2000
   21.0901   11.7403   40.2540 N   0  0  0  0  0  0  0  0  0  0  0  0
   18.4815   13.8046   36.5742 N   0  0  0  0  0  0  0  0  0  0  0  0
   19.7662   12.1262   32.8982 N   0  0  0  0  0  0  0  0  0  0  0  0
   23.2952   14.6946   36.9774 O   0  0  0  0  0  0  0  0  0  0  0  0
   22.0549   14.4738   37.6932 C   0  0  2  0  0  0  0  0  0  0  0  0
   21.6954   18.0640   35.0585 N   0  0  0  0  0  0  0  0  0  0  0  0
   23.2660   13.3609   39.5636 O   0  0  0  0  0  0  0  0  0  0  0  0
   22.2025   13.2041   38.6157 C   0  0  1  0  0  0  0  0  0  0  0  0
   20.7750   15.3516   35.8927 O   0  0  0  0  0  0  0  0  0  0  0  0
   20.9289   12.9568   39.3862 C   0  0  1  0  0  0  0  0  0  0  0  0
   21.3456   14.4825   33.8380 O   0  0  0  0  0  0  0  0  0  0  0  0
   19.7620   12.7654   38.3903 C   0  0  0  0  0  0  0  0  0  0  0  0
   18.5187   16.0060   32.1033 O   0  0  0  0  0  0  0  0  0  0  0  0
   19.6504   14.0522   37.5215 C   0  0  1  0  0  0  0  0  0  0  0  0
   19.9174   18.3016   32.8851 O   0  0  0  0  0  0  0  0  0  0  0  0
   20.8746   14.2254   36.6722 C   0  0  2  0  0  0  0  0  0  0  0  0
   21.6651   15.5817   34.8504 C   0  0  1  0  0  0  0  0  0  0  0  0
   19.9613   14.5809   33.2816 C   0  0  2  0  0  0  0  0  0  0  0  0
   19.7111   13.4635   32.2476 C   0  0  0  0  0  0  0  0  0  0  0  0
   19.8078   15.9111   32.6066 C   0  0  2  0  0  0  0  0  0  0  0  0
   20.0523   17.0433   33.5616 C   0  0  1  0  0  0  0  0  0  0  0  0
   21.4349   16.9263   34.1050 C   0  0  1  0  0  0  0  0  0  0  0  0
  5  4  1  6  0  0  0
  5  8  1  0  0  0  0
  5 16  1  0  0  0  0
  8  7  1  1  0  0  0
  8 10  1  0  0  0  0
 10  1  1  6  0  0  0
 10 12  1  0  0  0  0
 11 18  1  0  0  0  0
 12 14  1  0  0  0  0
 14  2  1  6  0  0  0
 14 16  1  0  0  0  0
 16  9  1  6  0  0  0
 17  9  1  1  0  0  0
 17 11  1  0  0  0  0
 17 22  1  0  0  0  0
 18 19  1  6  0  0  0
 18 20  1  0  0  0  0
 19  3  1  0  0  0  0
 20 13  1  1  0  0  0
 20 21  1  0  0  0  0
 21 15  1  6  0  0  0
 21 22  1  0  0  0  0
 22  6  1  1  0  0  0
M  END
>  <CHROM.1>
78.01289391,67.04412032,64.30548968,20.75210175,14.70644928,35.65785262,1.18107475
0.90922582,2.34791536

>  <Name>
2et8_lig

>  <RI>
0

>  <Rbt.Current_Directory>
/home/itssahil/PROJECTS/Mol_Feturizer/New_Systems/rnas/2et8

>  <Rbt.Executable>
rbdock ($Id: //depot/dev/client3/rdock/2013.1/src/exe/rbdock.cxx#4 $)

>  <Rbt.Library>
libRbt.so (2013.1, Build901 2013/11/27)

>  <Rbt.Parameter_File>
/export/apps/rDock/src/rDock_2013.1_src/data/scripts/dock_solv.prm

>  <Rbt.Receptor>
prm/pocket_docking_5.prm

>  <SCORE>
-12.2995

>  <SCORE.INTER>
-10.0954

>  <SCORE.INTER.CONST>
1

>  <SCORE.INTER.POLAR>
-1.33321

>  <SCORE.INTER.ROT>
3

>  <SCORE.INTER.SOLV>
13.6466

>  <SCORE.INTER.VDW>
-12.4351

>  <SCORE.INTER.norm>
-0.458883

>  <SCORE.INTRA>
-2.20404

>  <SCORE.INTRA.DIHEDRAL>
-3.05621

>  <SCORE.INTRA.DIHEDRAL.0>
4.99603

>  <SCORE.INTRA.POLAR>
0

>  <SCORE.INTRA.POLAR.0>
0

>  <SCORE.INTRA.REPUL>
0

>  <SCORE.INTRA.REPUL.0>
0

>  <SCORE.INTRA.SOLV>
-0.158109

>  <SCORE.INTRA.SOLV.lig_0>
-74.884

>  <SCORE.INTRA.VDW>
-0.596882

>  <SCORE.INTRA.VDW.0>
-0.858933

>  <SCORE.INTRA.norm>
-0.100184

>  <SCORE.RESTR>
0

>  <SCORE.RESTR.CAVITY>
0

>  <SCORE.RESTR.norm>
0

>  <SCORE.SYSTEM>
0

>  <SCORE.SYSTEM.CONST>
0

>  <SCORE.SYSTEM.DIHEDRAL>
0

>  <SCORE.SYSTEM.SOLV>
0

>  <SCORE.SYSTEM.norm>
0

>  <SCORE.heavy>
22

>  <SCORE.norm>
-0.559067

>  <RMSD>
5.990

$$$$
2et8_lig
 OpenBabel11021811433D
libRbt.so/2013.1/901 2013/11/27
 22 23  0  0  0  0  0  0  0  0999 V2000
   21.2605   10.6698   42.7419 N   0  0  0  0  0  0  0  0  0  0  0  0
   23.1479   11.9661   38.3413 N   0  0  0  0  0  0  0  0  0  0  0  0
   19.9470   12.1149   33.1420 N   0  0  0  0  0  0  0  0  0  0  0  0
   18.5187   13.1512   39.4782 O   0  0  0  0  0  0  0  0  0  0  0  0
   19.5630   12.1541   39.5992 C   0  0  2  0  0  0  0  0  0  0  0  0
   20.1120   15.5485   38.7132 N   0  0  0  0  0  0  0  0  0  0  0  0
   18.7328   11.4749   41.8472 O   0  0  0  0  0  0  0  0  0  0  0  0
   19.8875   11.9194   41.1239 C   0  0  1  0  0  0  0  0  0  0  0  0
   20.5535   12.8374   37.5492 O   0  0  0  0  0  0  0  0  0  0  0  0
   20.9636   10.8736   41.2827 C   0  0  1  0  0  0  0  0  0  0  0  0
   20.6128   13.7168   35.4218 O   0  0  0  0  0  0  0  0  0  0  0  0
   22.2322   11.3314   40.5269 C   0  0  0  0  0  0  0  0  0  0  0  0
   17.0126   14.2956   35.2659 O   0  0  0  0  0  0  0  0  0  0  0  0
   21.8591   11.5285   39.0285 C   0  0  1  0  0  0  0  0  0  0  0  0
   17.7094   16.0539   37.3299 O   0  0  0  0  0  0  0  0  0  0  0  0
   20.8750   12.6496   38.8710 C   0  0  2  0  0  0  0  0  0  0  0  0
   20.8716   14.0225   36.8965 C   0  0  1  0  0  0  0  0  0  0  0  0
   19.1794   13.4089   35.1287 C   0  0  2  0  0  0  0  0  0  0  0  0
   18.9793   13.1380   33.6231 C   0  0  0  0  0  0  0  0  0  0  0  0
   18.3432   14.5887   35.5258 C   0  0  2  0  0  0  0  0  0  0  0  0
   18.5050   14.9113   36.9829 C   0  0  1  0  0  0  0  0  0  0  0  0
   19.9388   15.2135   37.2541 C   0  0  1  0  0  0  0  0  0  0  0  0
  5  4  1  1  0  0  0
  5  8  1  0  0  0  0
  5 16  1  0  0  0  0
  8  7  1  1  0  0  0
  8 10  1  0  0  0  0
 10  1  1  1  0  0  0
 10 12  1  0  0  0  0
 11 18  1  0  0  0  0
 12 14  1  0  0  0  0
 14  2  1  6  0  0  0
 14 16  1  0  0  0  0
 16  9  1  6  0  0  0
 17  9  1  1  0  0  0
 17 11  1  0  0  0  0
 17 22  1  0  0  0  0
 18 19  1  6  0  0  0
 18 20  1  0  0  0  0
 19  3  1  0  0  0  0
 20 13  1  1  0  0  0
 20 21  1  0  0  0  0
 21 15  1  6  0  0  0
 21 22  1  0  0  0  0
 22  6  1  1  0  0  0
M  END
>  <CHROM.1>
129.67355323,168.84322798,51.76832344,19.90210758,13.08933564,37.97264488
-1.19741182,0.66563809,-1.39060761

>  <Name>
2et8_lig

>  <RI>
3.42619e+07

>  <Rbt.Current_Directory>
/home/itssahil/PROJECTS/Mol_Feturizer/New_Systems/rnas/2et8

>  <Rbt.Executable>
rbdock ($Id: //depot/dev/client3/rdock/2013.1/src/exe/rbdock.cxx#4 $)

>  <Rbt.Library>
libRbt.so (2013.1, Build901 2013/11/27)

>  <Rbt.Parameter_File>
/export/apps/rDock/src/rDock_2013.1_src/data/scripts/dock_solv.prm

>  <Rbt.Receptor>
prm/pocket_docking_4.prm

>  <SCORE>
-14.4522

>  <SCORE.INTER>
-15.7844

>  <SCORE.INTER.CONST>
1

>  <SCORE.INTER.POLAR>
-1.96792

>  <SCORE.INTER.ROT>
3

>  <SCORE.INTER.SOLV>
19.7504

>  <SCORE.INTER.VDW>
-16.1466

>  <SCORE.INTER.norm>
-0.717471

>  <SCORE.INTRA>
0.850553

>  <SCORE.INTRA.DIHEDRAL>
2.56395

>  <SCORE.INTRA.DIHEDRAL.0>
4.99603

>  <SCORE.INTRA.POLAR>
0

>  <SCORE.INTRA.POLAR.0>
0

>  <SCORE.INTRA.REPUL>
0

>  <SCORE.INTRA.REPUL.0>
0

>  <SCORE.INTRA.SOLV>
1.77409

>  <SCORE.INTRA.SOLV.lig_0>
-74.884

>  <SCORE.INTRA.VDW>
-1.31847

>  <SCORE.INTRA.VDW.0>
-0.858933

>  <SCORE.INTRA.norm>
0.0386615

>  <SCORE.RESTR>
0.481609

>  <SCORE.RESTR.CAVITY>
0.481609

>  <SCORE.RESTR.norm>
0.0218913

>  <SCORE.SYSTEM>
0

>  <SCORE.SYSTEM.CONST>
0

>  <SCORE.SYSTEM.DIHEDRAL>
0

>  <SCORE.SYSTEM.SOLV>
0

>  <SCORE.SYSTEM.norm>
0

>  <SCORE.heavy>
22

>  <SCORE.norm>
-0.656918

>  <RMSD>
6.019

$$$$
2et8_lig
 OpenBabel11021811433D
libRbt.so/2013.1/901 2013/11/27
 22 23  0  0  0  0  0  0  0  0999 V2000
   21.2451   10.9268   42.4578 N   0  0  0  0  0  0  0  0  0  0  0  0
   23.1191   12.2753   38.0672 N   0  0  0  0  0  0  0  0  0  0  0  0
   20.4220   13.9260   32.3201 N   0  0  0  0  0  0  0  0  0  0  0  0
   18.4635   13.3627   39.1935 O   0  0  0  0  0  0  0  0  0  0  0  0
   19.5274   12.3866   39.3146 C   0  0  2  0  0  0  0  0  0  0  0  0
   20.1976   15.9617   38.0395 N   0  0  0  0  0  0  0  0  0  0  0  0
   18.7044   11.6834   41.5579 O   0  0  0  0  0  0  0  0  0  0  0  0
   19.8520   12.1535   40.8395 C   0  0  1  0  0  0  0  0  0  0  0  0
   20.5100   13.0964   37.2698 O   0  0  0  0  0  0  0  0  0  0  0  0
   20.9486   11.1293   40.9983 C   0  0  1  0  0  0  0  0  0  0  0  0
   20.9670   13.6899   35.0923 O   0  0  0  0  0  0  0  0  0  0  0  0
   22.2099   11.6152   40.2479 C   0  0  0  0  0  0  0  0  0  0  0  0
   17.5087   14.5605   34.3158 O   0  0  0  0  0  0  0  0  0  0  0  0
   21.8374   11.8095   38.7490 C   0  0  1  0  0  0  0  0  0  0  0  0
   18.0857   16.4980   36.2524 O   0  0  0  0  0  0  0  0  0  0  0  0
   20.8313   12.9108   38.5920 C   0  0  2  0  0  0  0  0  0  0  0  0
   21.0428   14.1562   36.5456 C   0  0  1  0  0  0  0  0  0  0  0  0
   19.5659   13.4753   34.6168 C   0  0  2  0  0  0  0  0  0  0  0  0
   19.5560   13.0343   33.1384 C   0  0  0  0  0  0  0  0  0  0  0  0
   18.8120   14.7653   34.7444 C   0  0  2  0  0  0  0  0  0  0  0  0
   18.7966   15.2547   36.1634 C   0  0  1  0  0  0  0  0  0  0  0  0
   20.2006   15.4608   36.6181 C   0  0  1  0  0  0  0  0  0  0  0  0
  5  4  1  1  0  0  0
  5  8  1  0  0  0  0
  5 16  1  0  0  0  0
  8  7  1  1  0  0  0
  8 10  1  0  0  0  0
 10  1  1  1  0  0  0
 10 12  1  0  0  0  0
 11 18  1  0  0  0  0
 12 14  1  0  0  0  0
 14  2  1  6  0  0  0
 14 16  1  0  0  0  0
 16  9  1  6  0  0  0
 17  9  1  1  0  0  0
 17 11  1  0  0  0  0
 17 22  1  0  0  0  0
 18 19  1  6  0  0  0
 18 20  1  0  0  0  0
 19  3  1  0  0  0  0
 20 13  1  1  0  0  0
 20 21  1  0  0  0  0
 21 15  1  6  0  0  0
 21 22  1  0  0  0  0
 22  6  1  1  0  0  0
M  END
>  <CHROM.1>
143.28914776,156.16957359,-48.53159284,20.06711938,13.38729394,37.49055351
-1.32794005,0.61381193,-1.29613722

>  <Name>
2et8_lig

>  <RI>
0

>  <Rbt.Current_Directory>
/home/itssahil/PROJECTS/Mol_Feturizer/New_Systems/rnas/2et8

>  <Rbt.Executable>
rbdock ($Id: //depot/dev/client3/rdock/2013.1/src/exe/rbdock.cxx#4 $)

>  <Rbt.Library>
libRbt.so (2013.1, Build901 2013/11/27)

>  <Rbt.Parameter_File>
/export/apps/rDock/src/rDock_2013.1_src/data/scripts/dock_solv.prm

>  <Rbt.Receptor>
prm/pocket_docking_5.prm

>  <SCORE>
-12.5853

>  <SCORE.INTER>
-13.9867

>  <SCORE.INTER.CONST>
1

>  <SCORE.INTER.POLAR>
-1.68134

>  <SCORE.INTER.ROT>
3

>  <SCORE.INTER.SOLV>
17.3872

>  <SCORE.INTER.VDW>
-15.1158

>  <SCORE.INTER.norm>
-0.635759

>  <SCORE.INTRA>
1.40136

>  <SCORE.INTRA.DIHEDRAL>
2.7539

>  <SCORE.INTRA.DIHEDRAL.0>
4.99603

>  <SCORE.INTRA.POLAR>
0

>  <SCORE.INTRA.POLAR.0>
0

>  <SCORE.INTRA.REPUL>
0

>  <SCORE.INTRA.REPUL.0>
0

>  <SCORE.INTRA.SOLV>
2.42011

>  <SCORE.INTRA.SOLV.lig_0>
-74.884

>  <SCORE.INTRA.VDW>
-1.18564

>  <SCORE.INTRA.VDW.0>
-0.858933

>  <SCORE.INTRA.norm>
0.0636984

>  <SCORE.RESTR>
0

>  <SCORE.RESTR.CAVITY>
0

>  <SCORE.RESTR.norm>
0

>  <SCORE.SYSTEM>
0

>  <SCORE.SYSTEM.CONST>
0

>  <SCORE.SYSTEM.DIHEDRAL>
0

>  <SCORE.SYSTEM.SOLV>
0

>  <SCORE.SYSTEM.norm>
0

>  <SCORE.heavy>
22

>  <SCORE.norm>
-0.572061

>  <RMSD>
6.037

$$$$
2et8_lig
 OpenBabel11021811433D
libRbt.so/2013.1/901 2013/11/27
 22 23  0  0  0  0  0  0  0  0999 V2000
   23.3992    8.7251   41.1271 N   0  0  0  0  0  0  0  0  0  0  0  0
   19.2892   11.4819   41.4672 N   0  0  0  0  0  0  0  0  0  0  0  0
   20.3478   18.4580   39.7367 N   0  0  0  0  0  0  0  0  0  0  0  0
   22.7789   12.6587   38.2171 O   0  0  0  0  0  0  0  0  0  0  0  0
   22.5028   12.1367   39.5402 C   0  0  2  0  0  0  0  0  0  0  0  0
   19.7517   12.5140   36.9071 N   0  0  0  0  0  0  0  0  0  0  0  0
   24.5092   10.6642   39.4403 O   0  0  0  0  0  0  0  0  0  0  0  0
   23.0932   10.6801   39.6613 C   0  0  1  0  0  0  0  0  0  0  0  0
   20.4684   13.3587   39.6770 O   0  0  0  0  0  0  0  0  0  0  0  0
   22.8332   10.1145   41.0358 C   0  0  1  0  0  0  0  0  0  0  0  0
   18.8308   14.9774   39.6499 O   0  0  0  0  0  0  0  0  0  0  0  0
   21.3100   10.1011   41.2997 C   0  0  0  0  0  0  0  0  0  0  0  0
   20.6795   17.1976   37.4197 O   0  0  0  0  0  0  0  0  0  0  0  0
   20.7858   11.5626   41.1868 C   0  0  1  0  0  0  0  0  0  0  0  0
   20.2632   15.0160   35.7155 O   0  0  0  0  0  0  0  0  0  0  0  0
   20.9429   12.0746   39.7857 C   0  0  2  0  0  0  0  0  0  0  0  0
   19.2409   13.6200   39.0800 C   0  0  1  0  0  0  0  0  0  0  0  0
   19.7644   16.0809   39.2679 C   0  0  2  0  0  0  0  0  0  0  0  0
   19.2813   17.4261   39.8486 C   0  0  0  0  0  0  0  0  0  0  0  0
   19.8023   16.1826   37.7722 C   0  0  2  0  0  0  0  0  0  0  0  0
   20.2546   14.8958   37.1453 C   0  0  1  0  0  0  0  0  0  0  0  0
   19.3129   13.8100   37.5389 C   0  0  1  0  0  0  0  0  0  0  0  0
  5  4  1  6  0  0  0
  5  8  1  0  0  0  0
  5 16  1  0  0  0  0
  8  7  1  1  0  0  0
  8 10  1  0  0  0  0
 10  1  1  6  0  0  0
 10 12  1  0  0  0  0
 11 18  1  0  0  0  0
 12 14  1  0  0  0  0
 14  2  1  6  0  0  0
 14 16  1  0  0  0  0
 16  9  1  1  0  0  0
 17  9  1  1  0  0  0
 17 11  1  0  0  0  0
 17 22  1  0  0  0  0
 18 19  1  1  0  0  0
 18 20  1  0  0  0  0
 19  3  1  0  0  0  0
 20 13  1  1  0  0  0
 20 21  1  0  0  0  0
 21 15  1  6  0  0  0
 21 22  1  0  0  0  0
 22  6  1  6  0  0  0
M  END
>  <CHROM.1>
142.14458954,157.52523638,167.27764153,20.89895217,13.38340081,39.17291927
0.91318582,-0.86814387,2.25710965

>  <Name>
2et8_lig

>  <RI>
0

>  <Rbt.Current_Directory>
/home/itssahil/PROJECTS/Mol_Feturizer/New_Systems/rnas/2et8

>  <Rbt.Executable>
rbdock ($Id: //depot/dev/client3/rdock/2013.1/src/exe/rbdock.cxx#4 $)

>  <Rbt.Library>
libRbt.so (2013.1, Build901 2013/11/27)

>  <Rbt.Parameter_File>
/export/apps/rDock/src/rDock_2013.1_src/data/scripts/dock_solv.prm

>  <Rbt.Receptor>
prm/pocket_docking_7.prm

>  <SCORE>
-10.1709

>  <SCORE.INTER>
-11.6852

>  <SCORE.INTER.CONST>
1

>  <SCORE.INTER.POLAR>
-0.95143

>  <SCORE.INTER.ROT>
3

>  <SCORE.INTER.SOLV>
17.4285

>  <SCORE.INTER.VDW>
-16.0282

>  <SCORE.INTER.norm>
-0.531148

>  <SCORE.INTRA>
1.51435

>  <SCORE.INTRA.DIHEDRAL>
2.81247

>  <SCORE.INTRA.DIHEDRAL.0>
4.99603

>  <SCORE.INTRA.POLAR>
0

>  <SCORE.INTRA.POLAR.0>
0

>  <SCORE.INTRA.REPUL>
0

>  <SCORE.INTRA.REPUL.0>
0

>  <SCORE.INTRA.SOLV>
2.19856

>  <SCORE.INTRA.SOLV.lig_0>
-74.884

>  <SCORE.INTRA.VDW>
-0.991167

>  <SCORE.INTRA.VDW.0>
-0.858933

>  <SCORE.INTRA.norm>
0.068834

>  <SCORE.RESTR>
0

>  <SCORE.RESTR.CAVITY>
0

>  <SCORE.RESTR.norm>
0

>  <SCORE.SYSTEM>
0

>  <SCORE.SYSTEM.CONST>
0

>  <SCORE.SYSTEM.DIHEDRAL>
0

>  <SCORE.SYSTEM.SOLV>
0

>  <SCORE.SYSTEM.norm>
0

>  <SCORE.heavy>
22

>  <SCORE.norm>
-0.462314

>  <RMSD>
6.064

$$$$
2et8_lig
 OpenBabel11021811433D
libRbt.so/2013.1/901 2013/11/27
 22 23  0  0  0  0  0  0  0  0999 V2000
   21.5857   10.5053   41.5979 N   0  0  0  0  0  0  0  0  0  0  0  0
   22.5918   13.3504   37.6608 N   0  0  0  0  0  0  0  0  0  0  0  0
   23.3870   18.0552   37.3313 N   0  0  0  0  0  0  0  0  0  0  0  0
   18.3218   13.8565   40.0351 O   0  0  0  0  0  0  0  0  0  0  0  0
   19.3387   12.9271   39.5863 C   0  0  2  0  0  0  0  0  0  0  0  0
   17.6525   15.0732   35.9654 N   0  0  0  0  0  0  0  0  0  0  0  0
   18.9555   11.4637   41.5650 O   0  0  0  0  0  0  0  0  0  0  0  0
   19.9548   12.1842   40.8327 C   0  0  1  0  0  0  0  0  0  0  0  0
   19.9187   14.3315   37.7582 O   0  0  0  0  0  0  0  0  0  0  0  0
   21.0089   11.1974   40.3949 C   0  0  1  0  0  0  0  0  0  0  0  0
   20.1120   16.5094   38.4808 O   0  0  0  0  0  0  0  0  0  0  0  0
   22.1137   11.9468   39.6152 C   0  0  0  0  0  0  0  0  0  0  0  0
   21.6363   17.6901   35.3818 O   0  0  0  0  0  0  0  0  0  0  0  0
   21.4541   12.6431   38.3890 C   0  0  1  0  0  0  0  0  0  0  0  0
   19.1096   16.9402   34.4382 O   0  0  0  0  0  0  0  0  0  0  0  0
   20.4927   13.7039   38.8364 C   0  0  2  0  0  0  0  0  0  0  0  0
   19.1395   15.4703   37.9242 C   0  0  1  0  0  0  0  0  0  0  0  0
   21.2149   16.8498   37.5304 C   0  0  2  0  0  0  0  0  0  0  0  0
   22.1435   17.9217   38.1379 C   0  0  0  0  0  0  0  0  0  0  0  0
   20.6122   17.3881   36.2672 C   0  0  2  0  0  0  0  0  0  0  0  0
   19.6853   16.3921   35.6328 C   0  0  1  0  0  0  0  0  0  0  0  0
   18.5955   16.0657   36.5953 C   0  0  1  0  0  0  0  0  0  0  0  0
  5  4  1  1  0  0  0
  5  8  1  0  0  0  0
  5 16  1  0  0  0  0
  8  7  1  6  0  0  0
  8 10  1  0  0  0  0
 10  1  1  1  0  0  0
 10 12  1  0  0  0  0
 11 18  1  0  0  0  0
 12 14  1  0  0  0  0
 14  2  1  6  0  0  0
 14 16  1  0  0  0  0
 16  9  1  6  0  0  0
 17  9  1  6  0  0  0
 17 11  1  0  0  0  0
 17 22  1  0  0  0  0
 18 19  1  1  0  0  0
 18 20  1  0  0  0  0
 19  3  1  0  0  0  0
 20 13  1  6  0  0  0
 20 21  1  0  0  0  0
 21 15  1  6  0  0  0
 21 22  1  0  0  0  0
 22  6  1  6  0  0  0
M  END
>  <CHROM.1>
74.88897028,63.82248669,168.14624127,20.39042578,14.68143245,38.17023239
-1.59130083,-0.22059790,-0.68548275

>  <Name>
2et8_lig

>  <RI>
0

>  <Rbt.Current_Directory>
/home/itssahil/PROJECTS/Mol_Feturizer/New_Systems/rnas/2et8

>  <Rbt.Executable>
rbdock ($Id: //depot/dev/client3/rdock/2013.1/src/exe/rbdock.cxx#4 $)

>  <Rbt.Library>
libRbt.so (2013.1, Build901 2013/11/27)

>  <Rbt.Parameter_File>
/export/apps/rDock/src/rDock_2013.1_src/data/scripts/dock_solv.prm

>  <Rbt.Receptor>
prm/pocket_docking_3.prm

>  <SCORE>
-7.60338

>  <SCORE.INTER>
-6.12633

>  <SCORE.INTER.CONST>
1

>  <SCORE.INTER.POLAR>
0

>  <SCORE.INTER.ROT>
3

>  <SCORE.INTER.SOLV>
11.7556

>  <SCORE.INTER.VDW>
-13.6028

>  <SCORE.INTER.norm>
-0.278469

>  <SCORE.INTRA>
-1.47705

>  <SCORE.INTRA.DIHEDRAL>
-3.23268

>  <SCORE.INTRA.DIHEDRAL.0>
4.99603

>  <SCORE.INTRA.POLAR>
0

>  <SCORE.INTRA.POLAR.0>
0

>  <SCORE.INTRA.REPUL>
0

>  <SCORE.INTRA.REPUL.0>
0

>  <SCORE.INTRA.SOLV>
0.453873

>  <SCORE.INTRA.SOLV.lig_0>
-74.884

>  <SCORE.INTRA.VDW>
-0.0876419

>  <SCORE.INTRA.VDW.0>
-0.858933

>  <SCORE.INTRA.norm>
-0.0671385

>  <SCORE.RESTR>
0

>  <SCORE.RESTR.CAVITY>
0

>  <SCORE.RESTR.norm>
0

>  <SCORE.SYSTEM>
0

>  <SCORE.SYSTEM.CONST>
0

>  <SCORE.SYSTEM.DIHEDRAL>
0

>  <SCORE.SYSTEM.SOLV>
0

>  <SCORE.SYSTEM.norm>
0

>  <SCORE.heavy>
22

>  <SCORE.norm>
-0.345608

>  <RMSD>
6.096

$$$$
2et8_lig
 OpenBabel11021811433D
libRbt.so/2013.1/901 2013/11/27
 22 23  0  0  0  0  0  0  0  0999 V2000
   21.8088   13.5715   36.5673 N   0  0  0  0  0  0  0  0  0  0  0  0
   22.8004   10.9560   40.6640 N   0  0  0  0  0  0  0  0  0  0  0  0
   19.9287    6.9434   43.3292 N   0  0  0  0  0  0  0  0  0  0  0  0
   18.3494   12.9322   40.0241 O   0  0  0  0  0  0  0  0  0  0  0  0
   19.7743   13.1018   39.8232 C   0  0  2  0  0  0  0  0  0  0  0  0
   18.3905   12.7918   43.7817 N   0  0  0  0  0  0  0  0  0  0  0  0
   19.3837   14.3704   37.7155 O   0  0  0  0  0  0  0  0  0  0  0  0
   20.0711   13.2475   38.2818 C   0  0  1  0  0  0  0  0  0  0  0  0
   20.2754   11.7534   41.7156 O   0  0  0  0  0  0  0  0  0  0  0  0
   21.5483   13.4402   38.0416 C   0  0  1  0  0  0  0  0  0  0  0  0
   19.5960    9.5916   42.1250 O   0  0  0  0  0  0  0  0  0  0  0  0
   22.3195   12.2347   38.6264 C   0  0  0  0  0  0  0  0  0  0  0  0
   21.3686    9.3469   45.3060 O   0  0  0  0  0  0  0  0  0  0  0  0
   22.0055   12.1508   40.1488 C   0  0  1  0  0  0  0  0  0  0  0  0
   19.5090   11.3455   45.9262 O   0  0  0  0  0  0  0  0  0  0  0  0
   20.5549   11.8431   40.3741 C   0  0  2  0  0  0  0  0  0  0  0  0
   19.1622   11.0562   42.1698 C   0  0  1  0  0  0  0  0  0  0  0  0
   20.7302    9.2865   43.0501 C   0  0  2  0  0  0  0  0  0  0  0  0
   21.1011    7.7906   42.9794 C   0  0  0  0  0  0  0  0  0  0  0  0
   20.3103    9.6176   44.4512 C   0  0  2  0  0  0  0  0  0  0  0  0
   19.9235   11.0621   44.5820 C   0  0  1  0  0  0  0  0  0  0  0  0
   18.7941   11.3456   43.6522 C   0  0  1  0  0  0  0  0  0  0  0  0
  5  4  1  6  0  0  0
  5  8  1  0  0  0  0
  5 16  1  0  0  0  0
  8  7  1  1  0  0  0
  8 10  1  0  0  0  0
 10  1  1  6  0  0  0
 10 12  1  0  0  0  0
 11 18  1  0  0  0  0
 12 14  1  0  0  0  0
 14  2  1  6  0  0  0
 14 16  1  0  0  0  0
 16  9  1  1  0  0  0
 17  9  1  1  0  0  0
 17 11  1  0  0  0  0
 17 22  1  0  0  0  0
 18 19  1  1  0  0  0
 18 20  1  0  0  0  0
 19  3  1  0  0  0  0
 20 13  1  1  0  0  0
 20 21  1  0  0  0  0
 21 15  1  1  0  0  0
 21 22  1  0  0  0  0
 22  6  1  6  0  0  0
M  END
>  <CHROM.1>
87.72611247,79.64136308,-58.34902614,20.32918278,11.35293469,41.54088855
-1.44092328,-0.80785139,2.21399068

>  <Name>
2et8_lig

>  <RI>
3.14397e+07

>  <Rbt.Current_Directory>
/home/itssahil/PROJECTS/Mol_Feturizer/New_Systems/rnas/2et8

>  <Rbt.Executable>
rbdock ($Id: //depot/dev/client3/rdock/2013.1/src/exe/rbdock.cxx#4 $)

>  <Rbt.Library>
libRbt.so (2013.1, Build901 2013/11/27)

>  <Rbt.Parameter_File>
/export/apps/rDock/src/rDock_2013.1_src/data/scripts/dock_solv.prm

>  <Rbt.Receptor>
prm/pocket_docking_6.prm

>  <SCORE>
-11.0919

>  <SCORE.INTER>
-11.6989

>  <SCORE.INTER.CONST>
1

>  <SCORE.INTER.POLAR>
-0.973327

>  <SCORE.INTER.ROT>
3

>  <SCORE.INTER.SOLV>
17.8485

>  <SCORE.INTER.VDW>
-16.1043

>  <SCORE.INTER.norm>
-0.531767

>  <SCORE.INTRA>
0.0793213

>  <SCORE.INTRA.DIHEDRAL>
-0.0141697

>  <SCORE.INTRA.DIHEDRAL.0>
4.99603

>  <SCORE.INTRA.POLAR>
0

>  <SCORE.INTRA.POLAR.0>
0

>  <SCORE.INTRA.REPUL>
0

>  <SCORE.INTRA.REPUL.0>
0

>  <SCORE.INTRA.SOLV>
1.94383

>  <SCORE.INTRA.SOLV.lig_0>
-74.884

>  <SCORE.INTRA.VDW>
-0.885511

>  <SCORE.INTRA.VDW.0>
-0.858933

>  <SCORE.INTRA.norm>
0.00360551

>  <SCORE.RESTR>
0.527688

>  <SCORE.RESTR.CAVITY>
0.527688

>  <SCORE.RESTR.norm>
0.0239858

>  <SCORE.SYSTEM>
0

>  <SCORE.SYSTEM.CONST>
0

>  <SCORE.SYSTEM.DIHEDRAL>
0

>  <SCORE.SYSTEM.SOLV>
0

>  <SCORE.SYSTEM.norm>
0

>  <SCORE.heavy>
22

>  <SCORE.norm>
-0.504175

>  <RMSD>
6.106

$$$$
2et8_lig
 OpenBabel11021811433D
libRbt.so/2013.1/901 2013/11/27
 22 23  0  0  0  0  0  0  0  0999 V2000
   21.1647   10.8442   42.6317 N   0  0  0  0  0  0  0  0  0  0  0  0
   23.1467   12.0759   38.2542 N   0  0  0  0  0  0  0  0  0  0  0  0
   23.3915   16.4049   38.3601 N   0  0  0  0  0  0  0  0  0  0  0  0
   18.5258   13.3624   39.3118 O   0  0  0  0  0  0  0  0  0  0  0  0
   19.5473   12.3448   39.4547 C   0  0  2  0  0  0  0  0  0  0  0  0
   18.7775   13.0293   35.0424 N   0  0  0  0  0  0  0  0  0  0  0  0
   18.6684   11.6959   41.6931 O   0  0  0  0  0  0  0  0  0  0  0  0
   19.8431   12.1123   40.9855 C   0  0  1  0  0  0  0  0  0  0  0  0
   20.5835   12.9957   37.4167 O   0  0  0  0  0  0  0  0  0  0  0  0
   20.8948   11.0456   41.1669 C   0  0  1  0  0  0  0  0  0  0  0  0
   20.8124   15.2851   37.3249 O   0  0  0  0  0  0  0  0  0  0  0  0
   22.1842   11.4729   40.4287 C   0  0  0  0  0  0  0  0  0  0  0  0
   23.0014   15.2230   34.4050 O   0  0  0  0  0  0  0  0  0  0  0  0
   21.8386   11.6689   38.9235 C   0  0  1  0  0  0  0  0  0  0  0  0
   20.6525   14.1886   33.2869 O   0  0  0  0  0  0  0  0  0  0  0  0
   20.8804   12.8090   38.7444 C   0  0  2  0  0  0  0  0  0  0  0  0
   19.8837   14.1184   36.9908 C   0  0  1  0  0  0  0  0  0  0  0  0
   22.1030   15.2429   36.5713 C   0  0  2  0  0  0  0  0  0  0  0  0
   22.9815   16.4592   36.9306 C   0  0  0  0  0  0  0  0  0  0  0  0
   21.8035   15.2764   35.1023 C   0  0  2  0  0  0  0  0  0  0  0  0
   20.9381   14.1206   34.6915 C   0  0  1  0  0  0  0  0  0  0  0  0
   19.6591   14.1803   35.4538 C   0  0  1  0  0  0  0  0  0  0  0  0
  5  4  1  1  0  0  0
  5  8  1  0  0  0  0
  5 16  1  0  0  0  0
  8  7  1  1  0  0  0
  8 10  1  0  0  0  0
 10  1  1  1  0  0  0
 10 12  1  0  0  0  0
 11 18  1  0  0  0  0
 12 14  1  0  0  0  0
 14  2  1  6  0  0  0
 14 16  1  0  0  0  0
 16  9  1  6  0  0  0
 17  9  1  6  0  0  0
 17 11  1  0  0  0  0
 17 22  1  0  0  0  0
 18 19  1  1  0  0  0
 18 20  1  0  0  0  0
 19  3  1  0  0  0  0
 20 13  1  6  0  0  0
 20 21  1  0  0  0  0
 21 15  1  6  0  0  0
 21 22  1  0  0  0  0
 22  6  1  6  0  0  0
M  END
>  <CHROM.1>
75.87241691,63.98633629,65.08982382,20.95195370,13.47080916,37.84917076,-1.75225660
-0.44306366,-1.13728820

>  <Name>
2et8_lig

>  <RI>
3.42619e+07

>  <Rbt.Current_Directory>
/home/itssahil/PROJECTS/Mol_Feturizer/New_Systems/rnas/2et8

>  <Rbt.Executable>
rbdock ($Id: //depot/dev/client3/rdock/2013.1/src/exe/rbdock.cxx#4 $)

>  <Rbt.Library>
libRbt.so (2013.1, Build901 2013/11/27)

>  <Rbt.Parameter_File>
/export/apps/rDock/src/rDock_2013.1_src/data/scripts/dock_solv.prm

>  <Rbt.Receptor>
prm/pocket_docking_4.prm

>  <SCORE>
-13.6031

>  <SCORE.INTER>
-11.159

>  <SCORE.INTER.CONST>
1

>  <SCORE.INTER.POLAR>
-0.959349

>  <SCORE.INTER.ROT>
3

>  <SCORE.INTER.SOLV>
20.6243

>  <SCORE.INTER.VDW>
-16.7162

>  <SCORE.INTER.norm>
-0.507225

>  <SCORE.INTRA>
-2.44417

>  <SCORE.INTRA.DIHEDRAL>
-3.49287

>  <SCORE.INTRA.DIHEDRAL.0>
4.99603

>  <SCORE.INTRA.POLAR>
0

>  <SCORE.INTRA.POLAR.0>
0

>  <SCORE.INTRA.REPUL>
0

>  <SCORE.INTRA.REPUL.0>
0

>  <SCORE.INTRA.SOLV>
-0.453104

>  <SCORE.INTRA.SOLV.lig_0>
-74.884

>  <SCORE.INTRA.VDW>
-0.471186

>  <SCORE.INTRA.VDW.0>
-0.858933

>  <SCORE.INTRA.norm>
-0.111099

>  <SCORE.RESTR>
0

>  <SCORE.RESTR.CAVITY>
0

>  <SCORE.RESTR.norm>
0

>  <SCORE.SYSTEM>
0

>  <SCORE.SYSTEM.CONST>
0

>  <SCORE.SYSTEM.DIHEDRAL>
0

>  <SCORE.SYSTEM.SOLV>
0

>  <SCORE.SYSTEM.norm>
0

>  <SCORE.heavy>
22

>  <SCORE.norm>
-0.618324

>  <RMSD>
6.179

$$$$
2et8_lig
 OpenBabel11021811433D
libRbt.so/2013.1/901 2013/11/27
 22 23  0  0  0  0  0  0  0  0999 V2000
   18.9217   11.6686   41.5380 N   0  0  0  0  0  0  0  0  0  0  0  0
   18.4158   15.5830   38.5330 N   0  0  0  0  0  0  0  0  0  0  0  0
   19.7275   12.3866   33.1987 N   0  0  0  0  0  0  0  0  0  0  0  0
   22.0496   12.3631   37.7882 O   0  0  0  0  0  0  0  0  0  0  0  0
   21.2484   13.0559   38.7770 C   0  0  2  0  0  0  0  0  0  0  0  0
   23.0517   16.5759   36.1214 N   0  0  0  0  0  0  0  0  0  0  0  0
   21.3870   11.1153   40.3322 O   0  0  0  0  0  0  0  0  0  0  0  0
   20.4811   12.0001   39.6610 C   0  0  1  0  0  0  0  0  0  0  0  0
   20.8945   14.8923   37.3097 O   0  0  0  0  0  0  0  0  0  0  0  0
   19.6476   12.6925   40.7111 C   0  0  1  0  0  0  0  0  0  0  0  0
   20.8395   13.5650   35.4288 O   0  0  0  0  0  0  0  0  0  0  0  0
   18.6452   13.6438   40.0180 C   0  0  0  0  0  0  0  0  0  0  0  0
   19.1413   16.0641   33.3815 O   0  0  0  0  0  0  0  0  0  0  0  0
   19.4559   14.6732   39.1775 C   0  0  1  0  0  0  0  0  0  0  0  0
   21.5616   17.3836   33.8700 O   0  0  0  0  0  0  0  0  0  0  0  0
   20.1892   13.9867   38.0635 C   0  0  2  0  0  0  0  0  0  0  0  0
   21.7277   14.4717   36.2799 C   0  0  1  0  0  0  0  0  0  0  0  0
   19.6846   14.2862   34.8112 C   0  0  2  0  0  0  0  0  0  0  0  0
   18.8453   13.3250   33.9442 C   0  0  0  0  0  0  0  0  0  0  0  0
   20.2146   15.3876   33.9424 C   0  0  2  0  0  0  0  0  0  0  0  0
   21.0533   16.3526   34.7290 C   0  0  1  0  0  0  0  0  0  0  0  0
   22.1965   15.6148   35.3365 C   0  0  1  0  0  0  0  0  0  0  0  0
  5  4  1  6  0  0  0
  5  8  1  0  0  0  0
  5 16  1  0  0  0  0
  8  7  1  1  0  0  0
  8 10  1  0  0  0  0
 10  1  1  6  0  0  0
 10 12  1  0  0  0  0
 11 18  1  0  0  0  0
 12 14  1  0  0  0  0
 14  2  1  6  0  0  0
 14 16  1  0  0  0  0
 16  9  1  6  0  0  0
 17  9  1  1  0  0  0
 17 11  1  0  0  0  0
 17 22  1  0  0  0  0
 18 19  1  6  0  0  0
 18 20  1  0  0  0  0
 19  3  1  0  0  0  0
 20 13  1  1  0  0  0
 20 21  1  0  0  0  0
 21 15  1  6  0  0  0
 21 22  1  0  0  0  0
 22  6  1  1  0  0  0
M  END
>  <CHROM.1>
61.12107705,52.18624667,-39.20218665,20.44221178,14.14017072,36.92299429
1.73649339,0.97009446,1.90780010

>  <Name>
2et8_lig

>  <RI>
0

>  <Rbt.Current_Directory>
/home/itssahil/PROJECTS/Mol_Feturizer/New_Systems/rnas/2et8

>  <Rbt.Executable>
rbdock ($Id: //depot/dev/client3/rdock/2013.1/src/exe/rbdock.cxx#4 $)

>  <Rbt.Library>
libRbt.so (2013.1, Build901 2013/11/27)

>  <Rbt.Parameter_File>
/export/apps/rDock/src/rDock_2013.1_src/data/scripts/dock_solv.prm

>  <Rbt.Receptor>
prm/pocket_docking_5.prm

>  <SCORE>
-12.8

>  <SCORE.INTER>
-12.3779

>  <SCORE.INTER.CONST>
1

>  <SCORE.INTER.POLAR>
-1.10429

>  <SCORE.INTER.ROT>
3

>  <SCORE.INTER.SOLV>
15.9003

>  <SCORE.INTER.VDW>
-15.4711

>  <SCORE.INTER.norm>
-0.562631

>  <SCORE.INTRA>
-0.422136

>  <SCORE.INTRA.DIHEDRAL>
-3.08518

>  <SCORE.INTRA.DIHEDRAL.0>
4.99603

>  <SCORE.INTRA.POLAR>
0

>  <SCORE.INTRA.POLAR.0>
0

>  <SCORE.INTRA.REPUL>
0

>  <SCORE.INTRA.REPUL.0>
0

>  <SCORE.INTRA.SOLV>
0.150874

>  <SCORE.INTRA.SOLV.lig_0>
-74.884

>  <SCORE.INTRA.VDW>
1.04502

>  <SCORE.INTRA.VDW.0>
-0.858933

>  <SCORE.INTRA.norm>
-0.019188

>  <SCORE.RESTR>
0

>  <SCORE.RESTR.CAVITY>
0

>  <SCORE.RESTR.norm>
0

>  <SCORE.SYSTEM>
0

>  <SCORE.SYSTEM.CONST>
0

>  <SCORE.SYSTEM.DIHEDRAL>
0

>  <SCORE.SYSTEM.SOLV>
0

>  <SCORE.SYSTEM.norm>
0

>  <SCORE.heavy>
22

>  <SCORE.norm>
-0.581819

>  <RMSD>
6.181

$$$$
2et8_lig
 OpenBabel11021811433D
libRbt.so/2013.1/901 2013/11/27
 22 23  0  0  0  0  0  0  0  0999 V2000
   21.1185   13.7211   36.3491 N   0  0  0  0  0  0  0  0  0  0  0  0
   23.4533   11.4241   40.0747 N   0  0  0  0  0  0  0  0  0  0  0  0
   23.2291    7.0546   41.8945 N   0  0  0  0  0  0  0  0  0  0  0  0
   18.6525   12.4059   40.4131 O   0  0  0  0  0  0  0  0  0  0  0  0
   19.9382   12.8707   39.9331 C   0  0  2  0  0  0  0  0  0  0  0  0
   20.1177   12.3228   44.3885 N   0  0  0  0  0  0  0  0  0  0  0  0
   18.8675   14.0025   37.9897 O   0  0  0  0  0  0  0  0  0  0  0  0
   19.8759   13.0574   38.3690 C   0  0  1  0  0  0  0  0  0  0  0  0
   21.0872   11.6818   41.6409 O   0  0  0  0  0  0  0  0  0  0  0  0
   21.1987   13.5554   37.8408 C   0  0  1  0  0  0  0  0  0  0  0  0
   20.3345    9.5145   41.8379 O   0  0  0  0  0  0  0  0  0  0  0  0
   22.3084   12.5474   38.2185 C   0  0  0  0  0  0  0  0  0  0  0  0
   23.0115    8.5013   44.1025 O   0  0  0  0  0  0  0  0  0  0  0  0
   22.3375   12.4174   39.7695 C   0  0  1  0  0  0  0  0  0  0  0  0
   21.7025   10.3943   45.6964 O   0  0  0  0  0  0  0  0  0  0  0  0
   21.0610   11.8124   40.2741 C   0  0  2  0  0  0  0  0  0  0  0  0
   20.1119   10.9511   42.3090 C   0  0  1  0  0  0  0  0  0  0  0  0
   21.6660    8.9649   42.2383 C   0  0  2  0  0  0  0  0  0  0  0  0
   21.8176    7.5062   41.7591 C   0  0  0  0  0  0  0  0  0  0  0  0
   21.7702    8.9986   43.7339 C   0  0  2  0  0  0  0  0  0  0  0  0
   21.6175   10.3948   44.2639 C   0  0  1  0  0  0  0  0  0  0  0  0
   20.2864   10.9241   43.8534 C   0  0  1  0  0  0  0  0  0  0  0  0
  5  4  1  6  0  0  0
  5  8  1  0  0  0  0
  5 16  1  0  0  0  0
  8  7  1  1  0  0  0
  8 10  1  0  0  0  0
 10  1  1  6  0  0  0
 10 12  1  0  0  0  0
 11 18  1  0  0  0  0
 12 14  1  0  0  0  0
 14  2  1  6  0  0  0
 14 16  1  0  0  0  0
 16  9  1  1  0  0  0
 17  9  1  6  0  0  0
 17 11  1  0  0  0  0
 17 22  1  0  0  0  0
 18 19  1  1  0  0  0
 18 20  1  0  0  0  0
 19  3  1  0  0  0  0
 20 13  1  6  0  0  0
 20 21  1  0  0  0  0
 21 15  1  1  0  0  0
 21 22  1  0  0  0  0
 22  6  1  6  0  0  0
M  END
>  <CHROM.1>
76.36826219,65.83996360,167.92869240,21.14638880,11.12699553,41.25158904
-1.86350584,-0.84285381,1.98448795

>  <Name>
2et8_lig

>  <RI>
3.14397e+07

>  <Rbt.Current_Directory>
/home/itssahil/PROJECTS/Mol_Feturizer/New_Systems/rnas/2et8

>  <Rbt.Executable>
rbdock ($Id: //depot/dev/client3/rdock/2013.1/src/exe/rbdock.cxx#4 $)

>  <Rbt.Library>
libRbt.so (2013.1, Build901 2013/11/27)

>  <Rbt.Parameter_File>
/export/apps/rDock/src/rDock_2013.1_src/data/scripts/dock_solv.prm

>  <Rbt.Receptor>
prm/pocket_docking_6.prm

>  <SCORE>
-14.2447

>  <SCORE.INTER>
-13.4674

>  <SCORE.INTER.CONST>
1

>  <SCORE.INTER.POLAR>
-1.25549

>  <SCORE.INTER.ROT>
3

>  <SCORE.INTER.SOLV>
16.0774

>  <SCORE.INTER.VDW>
-15.7524

>  <SCORE.INTER.norm>
-0.612156

>  <SCORE.INTRA>
-1.36612

>  <SCORE.INTRA.DIHEDRAL>
-2.92491

>  <SCORE.INTRA.DIHEDRAL.0>
4.99603

>  <SCORE.INTRA.POLAR>
0

>  <SCORE.INTRA.POLAR.0>
0

>  <SCORE.INTRA.REPUL>
0

>  <SCORE.INTRA.REPUL.0>
0

>  <SCORE.INTRA.SOLV>
0.590213

>  <SCORE.INTRA.SOLV.lig_0>
-74.884

>  <SCORE.INTRA.VDW>
-0.19877

>  <SCORE.INTRA.VDW.0>
-0.858933

>  <SCORE.INTRA.norm>
-0.0620963

>  <SCORE.RESTR>
0.588896

>  <SCORE.RESTR.CAVITY>
0.588896

>  <SCORE.RESTR.norm>
0.026768

>  <SCORE.SYSTEM>
0

>  <SCORE.SYSTEM.CONST>
0

>  <SCORE.SYSTEM.DIHEDRAL>
0

>  <SCORE.SYSTEM.SOLV>
0

>  <SCORE.SYSTEM.norm>
0

>  <SCORE.heavy>
22

>  <SCORE.norm>
-0.647484

>  <RMSD>
6.193

$$$$
2et8_lig
 OpenBabel11021811433D
libRbt.so/2013.1/901 2013/11/27
 22 23  0  0  0  0  0  0  0  0999 V2000
   19.0410   11.4885   41.6164 N   0  0  0  0  0  0  0  0  0  0  0  0
   18.4506   15.2795   38.4721 N   0  0  0  0  0  0  0  0  0  0  0  0
   19.7911   12.5015   33.2112 N   0  0  0  0  0  0  0  0  0  0  0  0
   22.3455   12.3168   38.0498 O   0  0  0  0  0  0  0  0  0  0  0  0
   21.4350   12.9734   38.9659 C   0  0  2  0  0  0  0  0  0  0  0  0
   23.2535   16.4302   36.3418 N   0  0  0  0  0  0  0  0  0  0  0  0
   21.6119   11.0873   40.5832 O   0  0  0  0  0  0  0  0  0  0  0  0
   20.6900   11.8865   39.8312 C   0  0  1  0  0  0  0  0  0  0  0  0
   21.0458   14.7420   37.4262 O   0  0  0  0  0  0  0  0  0  0  0  0
   19.7435   12.5419   40.8066 C   0  0  1  0  0  0  0  0  0  0  0  0
   20.9471   13.5408   35.4641 O   0  0  0  0  0  0  0  0  0  0  0  0
   18.7223   13.3998   40.0248 C   0  0  0  0  0  0  0  0  0  0  0  0
   19.3261   16.2183   33.5868 O   0  0  0  0  0  0  0  0  0  0  0  0
   19.5096   14.4646   39.2065 C   0  0  1  0  0  0  0  0  0  0  0  0
   21.7871   17.4272   34.1516 O   0  0  0  0  0  0  0  0  0  0  0  0
   20.3600   13.8062   38.1609 C   0  0  2  0  0  0  0  0  0  0  0  0
   21.8642   14.3626   36.3689 C   0  0  1  0  0  0  0  0  0  0  0  0
   19.8147   14.3360   34.8977 C   0  0  2  0  0  0  0  0  0  0  0  0
   18.9447   13.4593   33.9732 C   0  0  0  0  0  0  0  0  0  0  0  0
   20.3781   15.4739   34.0998 C   0  0  2  0  0  0  0  0  0  0  0  0
   21.2476   16.3596   34.9441 C   0  0  1  0  0  0  0  0  0  0  0  0
   22.3677   15.5488   35.4994 C   0  0  1  0  0  0  0  0  0  0  0  0
  5  4  1  6  0  0  0
  5  8  1  0  0  0  0
  5 16  1  0  0  0  0
  8  7  1  1  0  0  0
  8 10  1  0  0  0  0
 10  1  1  6  0  0  0
 10 12  1  0  0  0  0
 11 18  1  0  0  0  0
 12 14  1  0  0  0  0
 14  2  1  6  0  0  0
 14 16  1  0  0  0  0
 16  9  1  1  0  0  0
 17  9  1  1  0  0  0
 17 11  1  0  0  0  0
 17 22  1  0  0  0  0
 18 19  1  6  0  0  0
 18 20  1  0  0  0  0
 19  3  1  0  0  0  0
 20 13  1  1  0  0  0
 20 21  1  0  0  0  0
 21 15  1  6  0  0  0
 21 22  1  0  0  0  0
 22  6  1  1  0  0  0
M  END
>  <CHROM.1>
67.98299111,55.15577996,-36.65877304,20.59391872,14.07714866,37.04950214
1.67201081,0.57507199,2.01589534

>  <Name>
2et8_lig

>  <RI>
2.82936e+07

>  <Rbt.Current_Directory>
/home/itssahil/PROJECTS/Mol_Feturizer/New_Systems/rnas/2et8

>  <Rbt.Executable>
rbdock ($Id: //depot/dev/client3/rdock/2013.1/src/exe/rbdock.cxx#4 $)

>  <Rbt.Library>
libRbt.so (2013.1, Build901 2013/11/27)

>  <Rbt.Parameter_File>
/export/apps/rDock/src/rDock_2013.1_src/data/scripts/dock_solv.prm

>  <Rbt.Receptor>
prm/pocket_docking_8.prm

>  <SCORE>
-12.6907

>  <SCORE.INTER>
-11.7803

>  <SCORE.INTER.CONST>
1

>  <SCORE.INTER.POLAR>
-0.972888

>  <SCORE.INTER.ROT>
3

>  <SCORE.INTER.SOLV>
15.3555

>  <SCORE.INTER.VDW>
-15.329

>  <SCORE.INTER.norm>
-0.535466

>  <SCORE.INTRA>
-0.910405

>  <SCORE.INTRA.DIHEDRAL>
-2.64683

>  <SCORE.INTRA.DIHEDRAL.0>
4.99603

>  <SCORE.INTRA.POLAR>
0

>  <SCORE.INTRA.POLAR.0>
0

>  <SCORE.INTRA.REPUL>
0

>  <SCORE.INTRA.REPUL.0>
0

>  <SCORE.INTRA.SOLV>
0.186353

>  <SCORE.INTRA.SOLV.lig_0>
-74.884

>  <SCORE.INTRA.VDW>
0.319834

>  <SCORE.INTRA.VDW.0>
-0.858933

>  <SCORE.INTRA.norm>
-0.041382

>  <SCORE.RESTR>
0

>  <SCORE.RESTR.CAVITY>
0

>  <SCORE.RESTR.norm>
0

>  <SCORE.SYSTEM>
0

>  <SCORE.SYSTEM.CONST>
0

>  <SCORE.SYSTEM.DIHEDRAL>
0

>  <SCORE.SYSTEM.SOLV>
0

>  <SCORE.SYSTEM.norm>
0

>  <SCORE.heavy>
22

>  <SCORE.norm>
-0.576848

>  <RMSD>
6.199

$$$$
2et8_lig
 OpenBabel11021811433D
libRbt.so/2013.1/901 2013/11/27
 22 23  0  0  0  0  0  0  0  0999 V2000
   19.8869   12.0987   40.6383 N   0  0  0  0  0  0  0  0  0  0  0  0
   18.1159   14.4750   36.6604 N   0  0  0  0  0  0  0  0  0  0  0  0
   19.5578   11.9402   33.0755 N   0  0  0  0  0  0  0  0  0  0  0  0
   22.9608   13.8992   37.2273 O   0  0  0  0  0  0  0  0  0  0  0  0
   21.6978   14.1383   37.8957 C   0  0  2  0  0  0  0  0  0  0  0  0
   22.4628   17.4746   35.0597 N   0  0  0  0  0  0  0  0  0  0  0  0
   22.4692   12.9050   39.9176 O   0  0  0  0  0  0  0  0  0  0  0  0
   21.4292   12.9834   38.9345 C   0  0  1  0  0  0  0  0  0  0  0  0
   20.7873   15.1767   35.9610 O   0  0  0  0  0  0  0  0  0  0  0  0
   20.1251   13.2128   39.6581 C   0  0  1  0  0  0  0  0  0  0  0  0
   21.3379   13.9823   34.0708 O   0  0  0  0  0  0  0  0  0  0  0  0
   18.9771   13.2849   38.6251 C   0  0  0  0  0  0  0  0  0  0  0  0
   19.2097   15.9651   31.8662 O   0  0  0  0  0  0  0  0  0  0  0  0
   19.2840   14.4506   37.6400 C   0  0  1  0  0  0  0  0  0  0  0  0
   21.0579   17.9136   32.6566 O   0  0  0  0  0  0  0  0  0  0  0  0
   20.5201   14.1579   36.8422 C   0  0  2  0  0  0  0  0  0  0  0  0
   21.8162   15.0689   35.0330 C   0  0  1  0  0  0  0  0  0  0  0  0
   20.0963   14.3602   33.3286 C   0  0  2  0  0  0  0  0  0  0  0  0
   19.6823   13.2367   32.3557 C   0  0  0  0  0  0  0  0  0  0  0  0
   20.3668   15.6085   32.5429 C   0  0  2  0  0  0  0  0  0  0  0  0
   20.7880   16.7393   33.4359 C   0  0  1  0  0  0  0  0  0  0  0  0
   22.0247   16.3426   34.1665 C   0  0  1  0  0  0  0  0  0  0  0  0
  5  4  1  6  0  0  0
  5  8  1  0  0  0  0
  5 16  1  0  0  0  0
  8  7  1  1  0  0  0
  8 10  1  0  0  0  0
 10  1  1  1  0  0  0
 10 12  1  0  0  0  0
 11 18  1  0  0  0  0
 12 14  1  0  0  0  0
 14  2  1  6  0  0  0
 14 16  1  0  0  0  0
 16  9  1  6  0  0  0
 17  9  1  1  0  0  0
 17 11  1  0  0  0  0
 17 22  1  0  0  0  0
 18 19  1  6  0  0  0
 18 20  1  0  0  0  0
 19  3  1  0  0  0  0
 20 13  1  1  0  0  0
 20 21  1  0  0  0  0
 21 15  1  6  0  0  0
 21 22  1  0  0  0  0
 22  6  1  1  0  0  0
M  END
>  <CHROM.1>
71.65772230,68.11108729,54.02612523,20.68575401,14.53024121,35.77494924,1.52528426
0.77890887,2.00015953

>  <Name>
2et8_lig

>  <RI>
3.14397e+07

>  <Rbt.Current_Directory>
/home/itssahil/PROJECTS/Mol_Feturizer/New_Systems/rnas/2et8

>  <Rbt.Executable>
rbdock ($Id: //depot/dev/client3/rdock/2013.1/src/exe/rbdock.cxx#4 $)

>  <Rbt.Library>
libRbt.so (2013.1, Build901 2013/11/27)

>  <Rbt.Parameter_File>
/export/apps/rDock/src/rDock_2013.1_src/data/scripts/dock_solv.prm

>  <Rbt.Receptor>
prm/pocket_docking_6.prm

>  <SCORE>
-12.6021

>  <SCORE.INTER>
-10.2485

>  <SCORE.INTER.CONST>
1

>  <SCORE.INTER.POLAR>
-1.18937

>  <SCORE.INTER.ROT>
3

>  <SCORE.INTER.SOLV>
14.703

>  <SCORE.INTER.VDW>
-13.3688

>  <SCORE.INTER.norm>
-0.46584

>  <SCORE.INTRA>
-2.35365

>  <SCORE.INTRA.DIHEDRAL>
-3.73137

>  <SCORE.INTRA.DIHEDRAL.0>
4.99603

>  <SCORE.INTRA.POLAR>
0

>  <SCORE.INTRA.POLAR.0>
0

>  <SCORE.INTRA.REPUL>
0

>  <SCORE.INTRA.REPUL.0>
0

>  <SCORE.INTRA.SOLV>
-0.607513

>  <SCORE.INTRA.SOLV.lig_0>
-74.884

>  <SCORE.INTRA.VDW>
-0.184208

>  <SCORE.INTRA.VDW.0>
-0.858933

>  <SCORE.INTRA.norm>
-0.106984

>  <SCORE.RESTR>
0

>  <SCORE.RESTR.CAVITY>
0

>  <SCORE.RESTR.norm>
0

>  <SCORE.SYSTEM>
0

>  <SCORE.SYSTEM.CONST>
0

>  <SCORE.SYSTEM.DIHEDRAL>
0

>  <SCORE.SYSTEM.SOLV>
0

>  <SCORE.SYSTEM.norm>
0

>  <SCORE.heavy>
22

>  <SCORE.norm>
-0.572824

>  <RMSD>
6.203

$$$$
2et8_lig
 OpenBabel11021811433D
libRbt.so/2013.1/901 2013/11/27
 22 23  0  0  0  0  0  0  0  0999 V2000
   19.8058   12.1709   40.6243 N   0  0  0  0  0  0  0  0  0  0  0  0
   18.0914   14.5464   36.6211 N   0  0  0  0  0  0  0  0  0  0  0  0
   19.5334   11.9421   33.0604 N   0  0  0  0  0  0  0  0  0  0  0  0
   22.9230   13.8848   37.2079 O   0  0  0  0  0  0  0  0  0  0  0  0
   21.6626   14.1531   37.8704 C   0  0  2  0  0  0  0  0  0  0  0  0
   22.4934   17.4550   35.0105 N   0  0  0  0  0  0  0  0  0  0  0  0
   22.4048   12.9226   39.9049 O   0  0  0  0  0  0  0  0  0  0  0  0
   21.3694   13.0122   38.9180 C   0  0  1  0  0  0  0  0  0  0  0  0
   20.7775   15.1921   35.9242 O   0  0  0  0  0  0  0  0  0  0  0  0
   20.0677   13.2721   39.6355 C   0  0  1  0  0  0  0  0  0  0  0  0
   21.3213   13.9705   34.0495 O   0  0  0  0  0  0  0  0  0  0  0  0
   18.9243   13.3570   38.5984 C   0  0  0  0  0  0  0  0  0  0  0  0
   19.2370   15.9631   31.8120 O   0  0  0  0  0  0  0  0  0  0  0  0
   19.2560   14.5084   37.6046 C   0  0  1  0  0  0  0  0  0  0  0  0
   21.1100   17.8911   32.5944 O   0  0  0  0  0  0  0  0  0  0  0  0
   20.4886   14.1859   36.8131 C   0  0  2  0  0  0  0  0  0  0  0  0
   21.8103   15.0593   35.0037 C   0  0  1  0  0  0  0  0  0  0  0  0
   20.0901   14.3597   33.2959 C   0  0  2  0  0  0  0  0  0  0  0  0
   19.6649   13.2329   32.3317 C   0  0  0  0  0  0  0  0  0  0  0  0
   20.3844   15.5958   32.4995 C   0  0  2  0  0  0  0  0  0  0  0  0
   20.8174   16.7290   33.3837 C   0  0  1  0  0  0  0  0  0  0  0  0
   22.0434   16.3209   34.1259 C   0  0  1  0  0  0  0  0  0  0  0  0
  5  4  1  6  0  0  0
  5  8  1  0  0  0  0
  5 16  1  0  0  0  0
  8  7  1  1  0  0  0
  8 10  1  0  0  0  0
 10  1  1  1  0  0  0
 10 12  1  0  0  0  0
 11 18  1  0  0  0  0
 12 14  1  0  0  0  0
 14  2  1  6  0  0  0
 14 16  1  0  0  0  0
 16  9  1  6  0  0  0
 17  9  1  1  0  0  0
 17 11  1  0  0  0  0
 17 22  1  0  0  0  0
 18 19  1  6  0  0  0
 18 20  1  0  0  0  0
 19  3  1  0  0  0  0
 20 13  1  1  0  0  0
 20 21  1  0  0  0  0
 21 15  1  6  0  0  0
 21 22  1  0  0  0  0
 22  6  1  1  0  0  0
M  END
>  <CHROM.1>
71.40980436,68.05076254,53.29443199,20.66891674,14.54371254,35.74298949,1.54168283
0.76892725,1.97971277

>  <Name>
2et8_lig

>  <RI>
0

>  <Rbt.Current_Directory>
/home/itssahil/PROJECTS/Mol_Feturizer/New_Systems/rnas/2et8

>  <Rbt.Executable>
rbdock ($Id: //depot/dev/client3/rdock/2013.1/src/exe/rbdock.cxx#4 $)

>  <Rbt.Library>
libRbt.so (2013.1, Build901 2013/11/27)

>  <Rbt.Parameter_File>
/export/apps/rDock/src/rDock_2013.1_src/data/scripts/dock_solv.prm

>  <Rbt.Receptor>
prm/pocket_docking_5.prm

>  <SCORE>
-12.551

>  <SCORE.INTER>
-10.2167

>  <SCORE.INTER.CONST>
1

>  <SCORE.INTER.POLAR>
-1.19006

>  <SCORE.INTER.ROT>
3

>  <SCORE.INTER.SOLV>
14.5033

>  <SCORE.INTER.VDW>
-13.2787

>  <SCORE.INTER.norm>
-0.464397

>  <SCORE.INTRA>
-2.33426

>  <SCORE.INTRA.DIHEDRAL>
-3.72884

>  <SCORE.INTRA.DIHEDRAL.0>
4.99603

>  <SCORE.INTRA.POLAR>
0

>  <SCORE.INTRA.POLAR.0>
0

>  <SCORE.INTRA.REPUL>
0

>  <SCORE.INTRA.REPUL.0>
0

>  <SCORE.INTRA.SOLV>
-0.61135

>  <SCORE.INTRA.SOLV.lig_0>
-74.884

>  <SCORE.INTRA.VDW>
-0.164169

>  <SCORE.INTRA.VDW.0>
-0.858933

>  <SCORE.INTRA.norm>
-0.106103

>  <SCORE.RESTR>
0

>  <SCORE.RESTR.CAVITY>
0

>  <SCORE.RESTR.norm>
0

>  <SCORE.SYSTEM>
0

>  <SCORE.SYSTEM.CONST>
0

>  <SCORE.SYSTEM.DIHEDRAL>
0

>  <SCORE.SYSTEM.SOLV>
0

>  <SCORE.SYSTEM.norm>
0

>  <SCORE.heavy>
22

>  <SCORE.norm>
-0.570499

>  <RMSD>
6.223

$$$$
2et8_lig
 OpenBabel11021811433D
libRbt.so/2013.1/901 2013/11/27
 22 23  0  0  0  0  0  0  0  0999 V2000
   20.6885    9.8025   41.8080 N   0  0  0  0  0  0  0  0  0  0  0  0
   18.3161   14.0265   40.7417 N   0  0  0  0  0  0  0  0  0  0  0  0
   15.3379   15.3654   36.6549 N   0  0  0  0  0  0  0  0  0  0  0  0
   21.4970   12.1120   37.5256 O   0  0  0  0  0  0  0  0  0  0  0  0
   21.1971   12.3317   38.9261 C   0  0  2  0  0  0  0  0  0  0  0  0
   21.3688   15.9823   36.4122 N   0  0  0  0  0  0  0  0  0  0  0  0
   22.3078   10.1937   39.5580 O   0  0  0  0  0  0  0  0  0  0  0  0
   21.0897   10.9417   39.6620 C   0  0  1  0  0  0  0  0  0  0  0  0
   19.9553   14.2962   38.4270 O   0  0  0  0  0  0  0  0  0  0  0  0
   20.7917   11.1388   41.1280 C   0  0  1  0  0  0  0  0  0  0  0  0
   18.0064   14.3996   37.2049 O   0  0  0  0  0  0  0  0  0  0  0  0
   19.4713   11.9293   41.2759 C   0  0  0  0  0  0  0  0  0  0  0  0
   17.2930   17.8595   38.1222 O   0  0  0  0  0  0  0  0  0  0  0  0
   19.6405   13.2958   40.5498 C   0  0  1  0  0  0  0  0  0  0  0  0
   19.6606   18.2088   36.6698 O   0  0  0  0  0  0  0  0  0  0  0  0
   19.8202   13.0928   39.0745 C   0  0  2  0  0  0  0  0  0  0  0  0
   19.5308   14.4537   37.1130 C   0  0  1  0  0  0  0  0  0  0  0  0
   17.4262   15.5209   38.0059 C   0  0  2  0  0  0  0  0  0  0  0  0
   15.8867   15.4260   38.0369 C   0  0  0  0  0  0  0  0  0  0  0  0
   17.8205   16.8204   37.3698 C   0  0  2  0  0  0  0  0  0  0  0  0
   19.3128   16.9669   37.2988 C   0  0  1  0  0  0  0  0  0  0  0  0
   19.8709   15.8405   36.4986 C   0  0  1  0  0  0  0  0  0  0  0  0
  5  4  1  6  0  0  0
  5  8  1  0  0  0  0
  5 16  1  0  0  0  0
  8  7  1  1  0  0  0
  8 10  1  0  0  0  0
 10  1  1  1  0  0  0
 10 12  1  0  0  0  0
 11 18  1  0  0  0  0
 12 14  1  0  0  0  0
 14  2  1  6  0  0  0
 14 16  1  0  0  0  0
 16  9  1  6  0  0  0
 17  9  1  1  0  0  0
 17 11  1  0  0  0  0
 17 22  1  0  0  0  0
 18 19  1  6  0  0  0
 18 20  1  0  0  0  0
 19  3  1  0  0  0  0
 20 13  1  1  0  0  0
 20 21  1  0  0  0  0
 21 15  1  6  0  0  0
 21 22  1  0  0  0  0
 22  6  1  1  0  0  0
M  END
>  <CHROM.1>
95.70447918,70.08650915,-54.51205891,19.38369371,14.10889582,38.52374150
1.09592228,-0.36305829,2.45506254

>  <Name>
2et8_lig

>  <RI>
0

>  <Rbt.Current_Directory>
/home/itssahil/PROJECTS/Mol_Feturizer/New_Systems/rnas/2et8

>  <Rbt.Executable>
rbdock ($Id: //depot/dev/client3/rdock/2013.1/src/exe/rbdock.cxx#4 $)

>  <Rbt.Library>
libRbt.so (2013.1, Build901 2013/11/27)

>  <Rbt.Parameter_File>
/export/apps/rDock/src/rDock_2013.1_src/data/scripts/dock_solv.prm

>  <Rbt.Receptor>
prm/pocket_docking_5.prm

>  <SCORE>
-11.1206

>  <SCORE.INTER>
-11.3259

>  <SCORE.INTER.CONST>
1

>  <SCORE.INTER.POLAR>
-1.00789

>  <SCORE.INTER.ROT>
3

>  <SCORE.INTER.SOLV>
18.3665

>  <SCORE.INTER.VDW>
-15.9131

>  <SCORE.INTER.norm>
-0.514812

>  <SCORE.INTRA>
0.192612

>  <SCORE.INTRA.DIHEDRAL>
0.304546

>  <SCORE.INTRA.DIHEDRAL.0>
4.99603

>  <SCORE.INTRA.POLAR>
0

>  <SCORE.INTRA.POLAR.0>
0

>  <SCORE.INTRA.REPUL>
0

>  <SCORE.INTRA.REPUL.0>
0

>  <SCORE.INTRA.SOLV>
2.22039

>  <SCORE.INTRA.SOLV.lig_0>
-74.884

>  <SCORE.INTRA.VDW>
-1.06986

>  <SCORE.INTRA.VDW.0>
-0.858933

>  <SCORE.INTRA.norm>
0.00875509

>  <SCORE.RESTR>
0.012634

>  <SCORE.RESTR.CAVITY>
0.012634

>  <SCORE.RESTR.norm>
0.000574273

>  <SCORE.SYSTEM>
0

>  <SCORE.SYSTEM.CONST>
0

>  <SCORE.SYSTEM.DIHEDRAL>
0

>  <SCORE.SYSTEM.SOLV>
0

>  <SCORE.SYSTEM.norm>
0

>  <SCORE.heavy>
22

>  <SCORE.norm>
-0.505483

>  <RMSD>
6.224

$$$$
2et8_lig
 OpenBabel11021811433D
libRbt.so/2013.1/901 2013/11/27
 22 23  0  0  0  0  0  0  0  0999 V2000
   21.9705    9.7053   41.7816 N   0  0  0  0  0  0  0  0  0  0  0  0
   21.5453   12.2551   37.5477 N   0  0  0  0  0  0  0  0  0  0  0  0
   19.3867   12.4418   34.3045 N   0  0  0  0  0  0  0  0  0  0  0  0
   18.8101   13.4765   41.4405 O   0  0  0  0  0  0  0  0  0  0  0  0
   19.4080   12.3898   40.6915 C   0  0  2  0  0  0  0  0  0  0  0  0
   18.8316   16.5166   39.2848 N   0  0  0  0  0  0  0  0  0  0  0  0
   19.7269   11.0563   42.7709 O   0  0  0  0  0  0  0  0  0  0  0  0
   20.3985   11.5944   41.6249 C   0  0  1  0  0  0  0  0  0  0  0  0
   19.3222   13.6387   38.6708 O   0  0  0  0  0  0  0  0  0  0  0  0
   21.0272   10.4456   40.8754 C   0  0  1  0  0  0  0  0  0  0  0  0
   19.6244   14.1250   36.4404 O   0  0  0  0  0  0  0  0  0  0  0  0
   21.7765   10.9947   39.6397 C   0  0  0  0  0  0  0  0  0  0  0  0
   16.0756   14.6908   35.8018 O   0  0  0  0  0  0  0  0  0  0  0  0
   20.7498   11.7513   38.7470 C   0  0  1  0  0  0  0  0  0  0  0  0
   16.5991   16.7837   37.5859 O   0  0  0  0  0  0  0  0  0  0  0  0
   20.2176   12.9592   39.4596 C   0  0  2  0  0  0  0  0  0  0  0  0
   19.7364   14.6866   37.8571 C   0  0  1  0  0  0  0  0  0  0  0  0
   18.2217   13.7794   36.0549 C   0  0  2  0  0  0  0  0  0  0  0  0
   18.1721   13.2462   34.6080 C   0  0  0  0  0  0  0  0  0  0  0  0
   17.3792   15.0166   36.1463 C   0  0  2  0  0  0  0  0  0  0  0  0
   17.3971   15.5923   37.5326 C   0  0  1  0  0  0  0  0  0  0  0  0
   18.8022   15.9284   37.8976 C   0  0  1  0  0  0  0  0  0  0  0  0
  5  4  1  1  0  0  0
  5  8  1  0  0  0  0
  5 16  1  0  0  0  0
  8  7  1  1  0  0  0
  8 10  1  0  0  0  0
 10  1  1  1  0  0  0
 10 12  1  0  0  0  0
 11 18  1  0  0  0  0
 12 14  1  0  0  0  0
 14  2  1  6  0  0  0
 14 16  1  0  0  0  0
 16  9  1  6  0  0  0
 17  9  1  1  0  0  0
 17 11  1  0  0  0  0
 17 22  1  0  0  0  0
 18 19  1  6  0  0  0
 18 20  1  0  0  0  0
 19  3  1  0  0  0  0
 20 13  1  1  0  0  0
 20 21  1  0  0  0  0
 21 15  1  6  0  0  0
 21 22  1  0  0  0  0
 22  6  1  1  0  0  0
M  END
>  <CHROM.1>
152.97816177,109.16938023,35.65244546,19.28888897,13.34312829,38.49412582
-0.73396428,0.93175509,-1.63342025

>  <Name>
2et8_lig

>  <RI>
3.42619e+07

>  <Rbt.Current_Directory>
/home/itssahil/PROJECTS/Mol_Feturizer/New_Systems/rnas/2et8

>  <Rbt.Executable>
rbdock ($Id: //depot/dev/client3/rdock/2013.1/src/exe/rbdock.cxx#4 $)

>  <Rbt.Library>
libRbt.so (2013.1, Build901 2013/11/27)

>  <Rbt.Parameter_File>
/export/apps/rDock/src/rDock_2013.1_src/data/scripts/dock_solv.prm

>  <Rbt.Receptor>
prm/pocket_docking_4.prm

>  <SCORE>
-10.3622

>  <SCORE.INTER>
-13.5105

>  <SCORE.INTER.CONST>
1

>  <SCORE.INTER.POLAR>
-1.22261

>  <SCORE.INTER.ROT>
3

>  <SCORE.INTER.SOLV>
18.3541

>  <SCORE.INTER.VDW>
-16.6496

>  <SCORE.INTER.norm>
-0.614112

>  <SCORE.INTRA>
3.14827

>  <SCORE.INTRA.DIHEDRAL>
6.49391

>  <SCORE.INTRA.DIHEDRAL.0>
4.99603

>  <SCORE.INTRA.POLAR>
0

>  <SCORE.INTRA.POLAR.0>
0

>  <SCORE.INTRA.REPUL>
0

>  <SCORE.INTRA.REPUL.0>
0

>  <SCORE.INTRA.SOLV>
1.83255

>  <SCORE.INTRA.SOLV.lig_0>
-74.884

>  <SCORE.INTRA.VDW>
-1.01496

>  <SCORE.INTRA.VDW.0>
-0.858933

>  <SCORE.INTRA.norm>
0.143103

>  <SCORE.RESTR>
0

>  <SCORE.RESTR.CAVITY>
0

>  <SCORE.RESTR.norm>
0

>  <SCORE.SYSTEM>
0

>  <SCORE.SYSTEM.CONST>
0

>  <SCORE.SYSTEM.DIHEDRAL>
0

>  <SCORE.SYSTEM.SOLV>
0

>  <SCORE.SYSTEM.norm>
0

>  <SCORE.heavy>
22

>  <SCORE.norm>
-0.471009

>  <RMSD>
6.226

$$$$
2et8_lig
 OpenBabel11021811433D
libRbt.so/2013.1/901 2013/11/27
 22 23  0  0  0  0  0  0  0  0999 V2000
   21.8828    9.7270   41.7566 N   0  0  0  0  0  0  0  0  0  0  0  0
   21.5179   12.3047   37.5340 N   0  0  0  0  0  0  0  0  0  0  0  0
   19.3933   12.4559   34.3069 N   0  0  0  0  0  0  0  0  0  0  0  0
   18.7658   13.5339   41.4123 O   0  0  0  0  0  0  0  0  0  0  0  0
   19.3578   12.4450   40.6619 C   0  0  2  0  0  0  0  0  0  0  0  0
   18.7970   16.5778   39.2787 N   0  0  0  0  0  0  0  0  0  0  0  0
   19.6462   11.0966   42.7362 O   0  0  0  0  0  0  0  0  0  0  0  0
   20.3325   11.6338   41.5984 C   0  0  1  0  0  0  0  0  0  0  0  0
   19.3011   13.7059   38.6476 O   0  0  0  0  0  0  0  0  0  0  0  0
   20.9546   10.4824   40.8473 C   0  0  1  0  0  0  0  0  0  0  0  0
   19.6470   14.2131   36.4282 O   0  0  0  0  0  0  0  0  0  0  0  0
   21.7193   11.0303   39.6205 C   0  0  0  0  0  0  0  0  0  0  0  0
   16.1113   14.7837   35.7251 O   0  0  0  0  0  0  0  0  0  0  0  0
   20.7078   11.8029   38.7243 C   0  0  1  0  0  0  0  0  0  0  0  0
   16.5984   16.8600   37.5386 O   0  0  0  0  0  0  0  0  0  0  0  0
   20.1830   13.0124   39.4395 C   0  0  2  0  0  0  0  0  0  0  0  0
   19.7308   14.7615   37.8521 C   0  0  1  0  0  0  0  0  0  0  0  0
   18.2524   13.8707   36.0119 C   0  0  2  0  0  0  0  0  0  0  0  0
   18.2316   13.3510   34.5594 C   0  0  0  0  0  0  0  0  0  0  0  0
   17.4076   15.1067   36.0983 C   0  0  2  0  0  0  0  0  0  0  0  0
   17.3979   15.6694   37.4899 C   0  0  1  0  0  0  0  0  0  0  0  0
   18.7953   16.0026   37.8857 C   0  0  1  0  0  0  0  0  0  0  0  0
  5  4  1  1  0  0  0
  5  8  1  0  0  0  0
  5 16  1  0  0  0  0
  8  7  1  1  0  0  0
  8 10  1  0  0  0  0
 10  1  1  1  0  0  0
 10 12  1  0  0  0  0
 11 18  1  0  0  0  0
 12 14  1  0  0  0  0
 14  2  1  6  0  0  0
 14 16  1  0  0  0  0
 16  9  1  6  0  0  0
 17  9  1  1  0  0  0
 17 11  1  0  0  0  0
 17 22  1  0  0  0  0
 18 19  1  6  0  0  0
 18 20  1  0  0  0  0
 19  3  1  0  0  0  0
 20 13  1  1  0  0  0
 20 21  1  0  0  0  0
 21 15  1  6  0  0  0
 21 22  1  0  0  0  0
 22  6  1  1  0  0  0
M  END
>  <CHROM.1>
152.39846268,108.64277560,40.43304293,19.26883418,13.40489114,38.46602982
-0.74885350,0.94207513,-1.61700768

>  <Name>
2et8_lig

>  <RI>
3.42619e+07

>  <Rbt.Current_Directory>
/home/itssahil/PROJECTS/Mol_Feturizer/New_Systems/rnas/2et8

>  <Rbt.Executable>
rbdock ($Id: //depot/dev/client3/rdock/2013.1/src/exe/rbdock.cxx#4 $)

>  <Rbt.Library>
libRbt.so (2013.1, Build901 2013/11/27)

>  <Rbt.Parameter_File>
/export/apps/rDock/src/rDock_2013.1_src/data/scripts/dock_solv.prm

>  <Rbt.Receptor>
prm/pocket_docking_4.prm

>  <SCORE>
-10.3763

>  <SCORE.INTER>
-13.2188

>  <SCORE.INTER.CONST>
1

>  <SCORE.INTER.POLAR>
-1.20742

>  <SCORE.INTER.ROT>
3

>  <SCORE.INTER.SOLV>
18.3405

>  <SCORE.INTER.VDW>
-16.5013

>  <SCORE.INTER.norm>
-0.600853

>  <SCORE.INTRA>
2.8425

>  <SCORE.INTRA.DIHEDRAL>
5.94466

>  <SCORE.INTRA.DIHEDRAL.0>
4.99603

>  <SCORE.INTRA.POLAR>
0

>  <SCORE.INTRA.POLAR.0>
0

>  <SCORE.INTRA.REPUL>
0

>  <SCORE.INTRA.REPUL.0>
0

>  <SCORE.INTRA.SOLV>
1.85443

>  <SCORE.INTRA.SOLV.lig_0>
-74.884

>  <SCORE.INTRA.VDW>
-1.05705

>  <SCORE.INTRA.VDW.0>
-0.858933

>  <SCORE.INTRA.norm>
0.129204

>  <SCORE.RESTR>
0

>  <SCORE.RESTR.CAVITY>
0

>  <SCORE.RESTR.norm>
0

>  <SCORE.SYSTEM>
0

>  <SCORE.SYSTEM.CONST>
0

>  <SCORE.SYSTEM.DIHEDRAL>
0

>  <SCORE.SYSTEM.SOLV>
0

>  <SCORE.SYSTEM.norm>
0

>  <SCORE.heavy>
22

>  <SCORE.norm>
-0.471649

>  <RMSD>
6.230

$$$$
2et8_lig
 OpenBabel11021811433D
libRbt.so/2013.1/901 2013/11/27
 22 23  0  0  0  0  0  0  0  0999 V2000
   15.0511   14.7237   36.2982 N   0  0  0  0  0  0  0  0  0  0  0  0
   19.5617   14.2028   34.3006 N   0  0  0  0  0  0  0  0  0  0  0  0
   23.8638   18.6219   35.8302 N   0  0  0  0  0  0  0  0  0  0  0  0
   19.0809   15.9287   38.8740 O   0  0  0  0  0  0  0  0  0  0  0  0
   18.5191   15.9049   37.5387 C   0  0  2  0  0  0  0  0  0  0  0  0
   21.3201   12.7631   37.4418 N   0  0  0  0  0  0  0  0  0  0  0  0
   16.2075   16.0974   38.4461 O   0  0  0  0  0  0  0  0  0  0  0  0
   17.0577   15.3165   37.5968 C   0  0  1  0  0  0  0  0  0  0  0  0
   20.6572   15.5372   36.5671 O   0  0  0  0  0  0  0  0  0  0  0  0
   16.4401   15.2924   36.2202 C   0  0  1  0  0  0  0  0  0  0  0  0
   22.8181   15.8682   35.8439 O   0  0  0  0  0  0  0  0  0  0  0  0
   17.3257   14.4415   35.2812 C   0  0  0  0  0  0  0  0  0  0  0  0
   24.1872   16.1843   39.2124 O   0  0  0  0  0  0  0  0  0  0  0  0
   18.7462   15.0772   35.2469 C   0  0  1  0  0  0  0  0  0  0  0  0
   23.3191   13.5236   39.2768 O   0  0  0  0  0  0  0  0  0  0  0  0
   19.3976   14.9908   36.5953 C   0  0  2  0  0  0  0  0  0  0  0  0
   21.7415   14.8116   36.0883 C   0  0  1  0  0  0  0  0  0  0  0  0
   23.2542   16.5624   37.0942 C   0  0  2  0  0  0  0  0  0  0  0  0
   24.3593   17.5938   36.7853 C   0  0  0  0  0  0  0  0  0  0  0  0
   23.7962   15.5400   38.0479 C   0  0  2  0  0  0  0  0  0  0  0  0
   22.7679   14.4976   38.3787 C   0  0  1  0  0  0  0  0  0  0  0  0
   22.3462   13.8192   37.1208 C   0  0  1  0  0  0  0  0  0  0  0  0
  5  4  1  1  0  0  0
  5  8  1  0  0  0  0
  5 16  1  0  0  0  0
  8  7  1  1  0  0  0
  8 10  1  0  0  0  0
 10  1  1  1  0  0  0
 10 12  1  0  0  0  0
 11 18  1  0  0  0  0
 12 14  1  0  0  0  0
 14  2  1  6  0  0  0
 14 16  1  0  0  0  0
 16  9  1  6  0  0  0
 17  9  1  1  0  0  0
 17 11  1  0  0  0  0
 17 22  1  0  0  0  0
 18 19  1  6  0  0  0
 18 20  1  0  0  0  0
 19  3  1  0  0  0  0
 20 13  1  1  0  0  0
 20 21  1  0  0  0  0
 21 15  1  1  0  0  0
 21 22  1  0  0  0  0
 22  6  1  1  0  0  0
M  END
>  <CHROM.1>
164.75987873,163.97206554,60.09783274,20.56095629,15.34401952,37.04390923
-3.09138431,0.16905096,2.11715119

>  <Name>
2et8_lig

>  <RI>
3.14397e+07

>  <Rbt.Current_Directory>
/home/itssahil/PROJECTS/Mol_Feturizer/New_Systems/rnas/2et8

>  <Rbt.Executable>
rbdock ($Id: //depot/dev/client3/rdock/2013.1/src/exe/rbdock.cxx#4 $)

>  <Rbt.Library>
libRbt.so (2013.1, Build901 2013/11/27)

>  <Rbt.Parameter_File>
/export/apps/rDock/src/rDock_2013.1_src/data/scripts/dock_solv.prm

>  <Rbt.Receptor>
prm/pocket_docking_6.prm

>  <SCORE>
-8.33177

>  <SCORE.INTER>
-7.13682

>  <SCORE.INTER.CONST>
1

>  <SCORE.INTER.POLAR>
-0.65755

>  <SCORE.INTER.ROT>
3

>  <SCORE.INTER.SOLV>
12.2528

>  <SCORE.INTER.VDW>
-12.2503

>  <SCORE.INTER.norm>
-0.324401

>  <SCORE.INTRA>
-1.19495

>  <SCORE.INTRA.DIHEDRAL>
-2.5803

>  <SCORE.INTRA.DIHEDRAL.0>
4.99603

>  <SCORE.INTRA.POLAR>
0

>  <SCORE.INTRA.POLAR.0>
0

>  <SCORE.INTRA.REPUL>
0

>  <SCORE.INTRA.REPUL.0>
0

>  <SCORE.INTRA.SOLV>
1.5855

>  <SCORE.INTRA.SOLV.lig_0>
-74.884

>  <SCORE.INTRA.VDW>
-0.697549

>  <SCORE.INTRA.VDW.0>
-0.858933

>  <SCORE.INTRA.norm>
-0.0543159

>  <SCORE.RESTR>
0

>  <SCORE.RESTR.CAVITY>
0

>  <SCORE.RESTR.norm>
0

>  <SCORE.SYSTEM>
0

>  <SCORE.SYSTEM.CONST>
0

>  <SCORE.SYSTEM.DIHEDRAL>
0

>  <SCORE.SYSTEM.SOLV>
0

>  <SCORE.SYSTEM.norm>
0

>  <SCORE.heavy>
22

>  <SCORE.norm>
-0.378717

>  <RMSD>
6.230

$$$$
2et8_lig
 OpenBabel11021811433D
libRbt.so/2013.1/901 2013/11/27
 22 23  0  0  0  0  0  0  0  0999 V2000
   22.0341    9.6988   41.7680 N   0  0  0  0  0  0  0  0  0  0  0  0
   21.4613   12.3321   37.6032 N   0  0  0  0  0  0  0  0  0  0  0  0
   23.1099   15.8611   37.9843 N   0  0  0  0  0  0  0  0  0  0  0  0
   18.8273   13.4423   41.5977 O   0  0  0  0  0  0  0  0  0  0  0  0
   19.4143   12.3780   40.8090 C   0  0  2  0  0  0  0  0  0  0  0  0
   16.5963   14.9221   38.3244 N   0  0  0  0  0  0  0  0  0  0  0  0
   19.8065   11.0047   42.8496 O   0  0  0  0  0  0  0  0  0  0  0  0
   20.4393   11.5739   41.6966 C   0  0  1  0  0  0  0  0  0  0  0  0
   19.2577   13.6680   38.8185 O   0  0  0  0  0  0  0  0  0  0  0  0
   21.0577   10.4477   40.9051 C   0  0  1  0  0  0  0  0  0  0  0  0
   20.2779   15.7323   38.8026 O   0  0  0  0  0  0  0  0  0  0  0  0
   21.7655   11.0306   39.6604 C   0  0  0  0  0  0  0  0  0  0  0  0
   20.0209   16.1351   35.1842 O   0  0  0  0  0  0  0  0  0  0  0  0
   20.7059   11.7948   38.8138 C   0  0  1  0  0  0  0  0  0  0  0  0
   17.3083   16.1230   35.8765 O   0  0  0  0  0  0  0  0  0  0  0  0
   20.1823   12.9817   39.5668 C   0  0  2  0  0  0  0  0  0  0  0  0
   18.9668   15.0003   39.0864 C   0  0  1  0  0  0  0  0  0  0  0  0
   20.7042   15.6404   37.3725 C   0  0  2  0  0  0  0  0  0  0  0  0
   22.0154   16.4210   37.1456 C   0  0  0  0  0  0  0  0  0  0  0  0
   19.6296   16.2341   36.5113 C   0  0  2  0  0  0  0  0  0  0  0  0
   18.3208   15.5228   36.6972 C   0  0  1  0  0  0  0  0  0  0  0  0
   17.9148   15.6249   38.1273 C   0  0  1  0  0  0  0  0  0  0  0  0
  5  4  1  1  0  0  0
  5  8  1  0  0  0  0
  5 16  1  0  0  0  0
  8  7  1  1  0  0  0
  8 10  1  0  0  0  0
 10  1  1  1  0  0  0
 10 12  1  0  0  0  0
 11 18  1  0  0  0  0
 12 14  1  0  0  0  0
 14  2  1  6  0  0  0
 14 16  1  0  0  0  0
 16  9  1  6  0  0  0
 17  9  1  6  0  0  0
 17 11  1  0  0  0  0
 17 22  1  0  0  0  0
 18 19  1  1  0  0  0
 18 20  1  0  0  0  0
 19  3  1  0  0  0  0
 20 13  1  6  0  0  0
 20 21  1  0  0  0  0
 21 15  1  6  0  0  0
 21 22  1  0  0  0  0
 22  6  1  6  0  0  0
M  END
>  <CHROM.1>
87.38688705,64.13293806,60.61165486,19.97154102,13.82239151,38.86929270,-1.35925648
0.23678582,-0.80161247

>  <Name>
2et8_lig

>  <RI>
3.42619e+07

>  <Rbt.Current_Directory>
/home/itssahil/PROJECTS/Mol_Feturizer/New_Systems/rnas/2et8

>  <Rbt.Executable>
rbdock ($Id: //depot/dev/client3/rdock/2013.1/src/exe/rbdock.cxx#4 $)

>  <Rbt.Library>
libRbt.so (2013.1, Build901 2013/11/27)

>  <Rbt.Parameter_File>
/export/apps/rDock/src/rDock_2013.1_src/data/scripts/dock_solv.prm

>  <Rbt.Receptor>
prm/pocket_docking_4.prm

>  <SCORE>
-12.834

>  <SCORE.INTER>
-11.4878

>  <SCORE.INTER.CONST>
1

>  <SCORE.INTER.POLAR>
-0.959166

>  <SCORE.INTER.ROT>
3

>  <SCORE.INTER.SOLV>
17.3049

>  <SCORE.INTER.VDW>
-15.8296

>  <SCORE.INTER.norm>
-0.522171

>  <SCORE.INTRA>
-1.34624

>  <SCORE.INTRA.DIHEDRAL>
-1.70329

>  <SCORE.INTRA.DIHEDRAL.0>
4.99603

>  <SCORE.INTRA.POLAR>
0

>  <SCORE.INTRA.POLAR.0>
0

>  <SCORE.INTRA.REPUL>
0

>  <SCORE.INTRA.REPUL.0>
0

>  <SCORE.INTRA.SOLV>
0.890066

>  <SCORE.INTRA.SOLV.lig_0>
-74.884

>  <SCORE.INTRA.VDW>
-0.939629

>  <SCORE.INTRA.VDW.0>
-0.858933

>  <SCORE.INTRA.norm>
-0.0611927

>  <SCORE.RESTR>
0

>  <SCORE.RESTR.CAVITY>
0

>  <SCORE.RESTR.norm>
0

>  <SCORE.SYSTEM>
0

>  <SCORE.SYSTEM.CONST>
0

>  <SCORE.SYSTEM.DIHEDRAL>
0

>  <SCORE.SYSTEM.SOLV>
0

>  <SCORE.SYSTEM.norm>
0

>  <SCORE.heavy>
22

>  <SCORE.norm>
-0.583364

>  <RMSD>
6.247

$$$$
2et8_lig
 OpenBabel11021811433D
libRbt.so/2013.1/901 2013/11/27
 22 23  0  0  0  0  0  0  0  0999 V2000
   19.7373    9.9417   42.1513 N   0  0  0  0  0  0  0  0  0  0  0  0
   18.5576   14.1291   39.7676 N   0  0  0  0  0  0  0  0  0  0  0  0
   19.7702   12.8268   33.9169 N   0  0  0  0  0  0  0  0  0  0  0  0
   22.7428   11.7882   38.7039 O   0  0  0  0  0  0  0  0  0  0  0  0
   21.8092   12.1552   39.7495 C   0  0  2  0  0  0  0  0  0  0  0  0
   23.0919   16.2017   37.7236 N   0  0  0  0  0  0  0  0  0  0  0  0
   22.2828   10.0483   40.9907 O   0  0  0  0  0  0  0  0  0  0  0  0
   21.2386   10.8492   40.4229 C   0  0  1  0  0  0  0  0  0  0  0  0
   21.1423   14.1078   38.5690 O   0  0  0  0  0  0  0  0  0  0  0  0
   20.2723   11.2001   41.5275 C   0  0  1  0  0  0  0  0  0  0  0  0
   21.0137   13.3017   36.4159 O   0  0  0  0  0  0  0  0  0  0  0  0
   19.1213   12.0514   40.9439 C   0  0  0  0  0  0  0  0  0  0  0  0
   19.0091   16.0979   35.1976 O   0  0  0  0  0  0  0  0  0  0  0  0
   19.7388   13.3328   40.3114 C   0  0  1  0  0  0  0  0  0  0  0  0
   21.3783   17.4355   35.8573 O   0  0  0  0  0  0  0  0  0  0  0  0
   20.6066   12.9796   39.1400 C   0  0  2  0  0  0  0  0  0  0  0  0
   21.9125   14.0292   37.4148 C   0  0  1  0  0  0  0  0  0  0  0  0
   19.7716   14.0634   36.0805 C   0  0  2  0  0  0  0  0  0  0  0  0
   18.9232   13.2912   35.0489 C   0  0  0  0  0  0  0  0  0  0  0  0
   20.1627   15.3874   35.4950 C   0  0  2  0  0  0  0  0  0  0  0  0
   21.0037   16.1836   36.4502 C   0  0  1  0  0  0  0  0  0  0  0  0
   22.2344   15.4075   36.7721 C   0  0  1  0  0  0  0  0  0  0  0  0
  5  4  1  6  0  0  0
  5  8  1  0  0  0  0
  5 16  1  0  0  0  0
  8  7  1  1  0  0  0
  8 10  1  0  0  0  0
 10  1  1  6  0  0  0
 10 12  1  0  0  0  0
 11 18  1  0  0  0  0
 12 14  1  0  0  0  0
 14  2  1  6  0  0  0
 14 16  1  0  0  0  0
 16  9  1  1  0  0  0
 17  9  1  1  0  0  0
 17 11  1  0  0  0  0
 17 22  1  0  0  0  0
 18 19  1  6  0  0  0
 18 20  1  0  0  0  0
 19  3  1  0  0  0  0
 20 13  1  1  0  0  0
 20 21  1  0  0  0  0
 21 15  1  6  0  0  0
 21 22  1  0  0  0  0
 22  6  1  1  0  0  0
M  END
>  <CHROM.1>
69.92663088,55.20830568,-48.10795324,20.72130526,13.50083992,38.09439509
1.53859650,0.55277896,2.27665199

>  <Name>
2et8_lig

>  <RI>
3.42619e+07

>  <Rbt.Current_Directory>
/home/itssahil/PROJECTS/Mol_Feturizer/New_Systems/rnas/2et8

>  <Rbt.Executable>
rbdock ($Id: //depot/dev/client3/rdock/2013.1/src/exe/rbdock.cxx#4 $)

>  <Rbt.Library>
libRbt.so (2013.1, Build901 2013/11/27)

>  <Rbt.Parameter_File>
/export/apps/rDock/src/rDock_2013.1_src/data/scripts/dock_solv.prm

>  <Rbt.Receptor>
prm/pocket_docking_4.prm

>  <SCORE>
-14.3004

>  <SCORE.INTER>
-12.7906

>  <SCORE.INTER.CONST>
1

>  <SCORE.INTER.POLAR>
-1.39784

>  <SCORE.INTER.ROT>
3

>  <SCORE.INTER.SOLV>
17.7658

>  <SCORE.INTER.VDW>
-15.3895

>  <SCORE.INTER.norm>
-0.58139

>  <SCORE.INTRA>
-1.50979

>  <SCORE.INTRA.DIHEDRAL>
-3.73237

>  <SCORE.INTRA.DIHEDRAL.0>
4.99603

>  <SCORE.INTRA.POLAR>
0

>  <SCORE.INTRA.POLAR.0>
0

>  <SCORE.INTRA.REPUL>
0

>  <SCORE.INTRA.REPUL.0>
0

>  <SCORE.INTRA.SOLV>
0.439904

>  <SCORE.INTRA.SOLV.lig_0>
-74.884

>  <SCORE.INTRA.VDW>
0.136443

>  <SCORE.INTRA.VDW.0>
-0.858933

>  <SCORE.INTRA.norm>
-0.0686268

>  <SCORE.RESTR>
0

>  <SCORE.RESTR.CAVITY>
0

>  <SCORE.RESTR.norm>
0

>  <SCORE.SYSTEM>
0

>  <SCORE.SYSTEM.CONST>
0

>  <SCORE.SYSTEM.DIHEDRAL>
0

>  <SCORE.SYSTEM.SOLV>
0

>  <SCORE.SYSTEM.norm>
0

>  <SCORE.heavy>
22

>  <SCORE.norm>
-0.650017

>  <RMSD>
6.252

$$$$
2et8_lig
 OpenBabel11021811433D
libRbt.so/2013.1/901 2013/11/27
 22 23  0  0  0  0  0  0  0  0999 V2000
   22.0062    9.6603   41.7829 N   0  0  0  0  0  0  0  0  0  0  0  0
   21.4914   12.3146   37.6239 N   0  0  0  0  0  0  0  0  0  0  0  0
   23.1316   15.8502   37.9799 N   0  0  0  0  0  0  0  0  0  0  0  0
   18.8185   13.4191   41.5941 O   0  0  0  0  0  0  0  0  0  0  0  0
   19.4094   12.3557   40.8071 C   0  0  2  0  0  0  0  0  0  0  0  0
   16.6148   14.9037   38.3361 N   0  0  0  0  0  0  0  0  0  0  0  0
   19.7727   10.9716   42.8458 O   0  0  0  0  0  0  0  0  0  0  0  0
   20.4208   11.5430   41.7023 C   0  0  1  0  0  0  0  0  0  0  0  0
   19.2805   13.6552   38.8209 O   0  0  0  0  0  0  0  0  0  0  0  0
   21.0428   10.4175   40.9127 C   0  0  1  0  0  0  0  0  0  0  0  0
   20.2938   15.7230   38.8185 O   0  0  0  0  0  0  0  0  0  0  0  0
   21.7669   11.0027   39.6785 C   0  0  0  0  0  0  0  0  0  0  0  0
   20.0342   16.1493   35.2030 O   0  0  0  0  0  0  0  0  0  0  0  0
   20.7202   11.7754   38.8237 C   0  0  1  0  0  0  0  0  0  0  0  0
   17.3219   16.1234   35.8960 O   0  0  0  0  0  0  0  0  0  0  0  0
   20.1937   12.9613   39.5762 C   0  0  2  0  0  0  0  0  0  0  0  0
   18.9853   14.9848   39.0977 C   0  0  1  0  0  0  0  0  0  0  0  0
   20.7199   15.6421   37.3877 C   0  0  2  0  0  0  0  0  0  0  0  0
   22.0284   16.4286   37.1656 C   0  0  0  0  0  0  0  0  0  0  0  0
   19.6431   16.2380   36.5308 C   0  0  2  0  0  0  0  0  0  0  0  0
   18.3367   15.5211   36.7124 C   0  0  1  0  0  0  0  0  0  0  0  0
   17.9309   15.6123   38.1433 C   0  0  1  0  0  0  0  0  0  0  0  0
  5  4  1  1  0  0  0
  5  8  1  0  0  0  0
  5 16  1  0  0  0  0
  8  7  1  1  0  0  0
  8 10  1  0  0  0  0
 10  1  1  1  0  0  0
 10 12  1  0  0  0  0
 11 18  1  0  0  0  0
 12 14  1  0  0  0  0
 14  2  1  6  0  0  0
 14 16  1  0  0  0  0
 16  9  1  6  0  0  0
 17  9  1  6  0  0  0
 17 11  1  0  0  0  0
 17 22  1  0  0  0  0
 18 19  1  1  0  0  0
 18 20  1  0  0  0  0
 19  3  1  0  0  0  0
 20 13  1  6  0  0  0
 20 21  1  0  0  0  0
 21 15  1  6  0  0  0
 21 22  1  0  0  0  0
 22  6  1  6  0  0  0
M  END
>  <CHROM.1>
86.89722451,65.07096318,61.71872776,19.97810933,13.80815610,38.88000774,-1.36625839
0.23489481,-0.79472753

>  <Name>
2et8_lig

>  <RI>
3.42619e+07

>  <Rbt.Current_Directory>
/home/itssahil/PROJECTS/Mol_Feturizer/New_Systems/rnas/2et8

>  <Rbt.Executable>
rbdock ($Id: //depot/dev/client3/rdock/2013.1/src/exe/rbdock.cxx#4 $)

>  <Rbt.Library>
libRbt.so (2013.1, Build901 2013/11/27)

>  <Rbt.Parameter_File>
/export/apps/rDock/src/rDock_2013.1_src/data/scripts/dock_solv.prm

>  <Rbt.Receptor>
prm/pocket_docking_4.prm

>  <SCORE>
-12.8773

>  <SCORE.INTER>
-11.4902

>  <SCORE.INTER.CONST>
1

>  <SCORE.INTER.POLAR>
-0.959166

>  <SCORE.INTER.ROT>
3

>  <SCORE.INTER.SOLV>
17.4845

>  <SCORE.INTER.VDW>
-15.8911

>  <SCORE.INTER.norm>
-0.522281

>  <SCORE.INTRA>
-1.38707

>  <SCORE.INTRA.DIHEDRAL>
-1.74103

>  <SCORE.INTRA.DIHEDRAL.0>
4.99603

>  <SCORE.INTRA.POLAR>
0

>  <SCORE.INTRA.POLAR.0>
0

>  <SCORE.INTRA.REPUL>
0

>  <SCORE.INTRA.REPUL.0>
0

>  <SCORE.INTRA.SOLV>
0.837473

>  <SCORE.INTRA.SOLV.lig_0>
-74.884

>  <SCORE.INTRA.VDW>
-0.935297

>  <SCORE.INTRA.VDW.0>
-0.858933

>  <SCORE.INTRA.norm>
-0.0630488

>  <SCORE.RESTR>
0

>  <SCORE.RESTR.CAVITY>
0

>  <SCORE.RESTR.norm>
0

>  <SCORE.SYSTEM>
0

>  <SCORE.SYSTEM.CONST>
0

>  <SCORE.SYSTEM.DIHEDRAL>
0

>  <SCORE.SYSTEM.SOLV>
0

>  <SCORE.SYSTEM.norm>
0

>  <SCORE.heavy>
22

>  <SCORE.norm>
-0.58533

>  <RMSD>
6.257

$$$$
2et8_lig
 OpenBabel11021811433D
libRbt.so/2013.1/901 2013/11/27
 22 23  0  0  0  0  0  0  0  0999 V2000
   21.6356   10.0762   41.9818 N   0  0  0  0  0  0  0  0  0  0  0  0
   21.5190   12.2429   37.5210 N   0  0  0  0  0  0  0  0  0  0  0  0
   19.3280   12.3172   34.0307 N   0  0  0  0  0  0  0  0  0  0  0  0
   18.4524   13.7288   41.0585 O   0  0  0  0  0  0  0  0  0  0  0  0
   19.1279   12.5963   40.4581 C   0  0  2  0  0  0  0  0  0  0  0  0
   18.6478   16.5377   38.9315 N   0  0  0  0  0  0  0  0  0  0  0  0
   19.2961   11.4539   42.6650 O   0  0  0  0  0  0  0  0  0  0  0  0
   20.0510   11.9075   41.5343 C   0  0  1  0  0  0  0  0  0  0  0  0
   19.1884   13.6650   38.3356 O   0  0  0  0  0  0  0  0  0  0  0  0
   20.7581   10.7137   40.9413 C   0  0  1  0  0  0  0  0  0  0  0  0
   19.5711   14.1557   36.1186 O   0  0  0  0  0  0  0  0  0  0  0  0
   21.5977   11.1723   39.7268 C   0  0  0  0  0  0  0  0  0  0  0  0
   16.0442   14.6888   35.3451 O   0  0  0  0  0  0  0  0  0  0  0  0
   20.6358   11.8252   38.6915 C   0  0  1  0  0  0  0  0  0  0  0  0
   16.4795   16.7852   37.1487 O   0  0  0  0  0  0  0  0  0  0  0  0
   20.0268   13.0769   39.2505 C   0  0  2  0  0  0  0  0  0  0  0  0
   19.6236   14.7173   37.5388 C   0  0  1  0  0  0  0  0  0  0  0  0
   18.1875   13.7973   35.6797 C   0  0  2  0  0  0  0  0  0  0  0  0
   18.1982   13.2647   34.2317 C   0  0  0  0  0  0  0  0  0  0  0  0
   17.3305   15.0265   35.7393 C   0  0  2  0  0  0  0  0  0  0  0  0
   17.2900   15.6013   37.1254 C   0  0  1  0  0  0  0  0  0  0  0  0
   18.6769   15.9503   37.5440 C   0  0  1  0  0  0  0  0  0  0  0  0
  5  4  1  1  0  0  0
  5  8  1  0  0  0  0
  5 16  1  0  0  0  0
  8  7  1  1  0  0  0
  8 10  1  0  0  0  0
 10  1  1  1  0  0  0
 10 12  1  0  0  0  0
 11 18  1  0  0  0  0
 12 14  1  0  0  0  0
 14  2  1  6  0  0  0
 14 16  1  0  0  0  0
 16  9  1  6  0  0  0
 17  9  1  1  0  0  0
 17 11  1  0  0  0  0
 17 22  1  0  0  0  0
 18 19  1  6  0  0  0
 18 20  1  0  0  0  0
 19  3  1  0  0  0  0
 20 13  1  1  0  0  0
 20 21  1  0  0  0  0
 21 15  1  6  0  0  0
 21 22  1  0  0  0  0
 22  6  1  1  0  0  0
M  END
>  <CHROM.1>
148.11038500,115.45025166,43.64507068,19.12826830,13.44477818,38.25541240
-0.84331641,0.91281580,-1.60209722

>  <Name>
2et8_lig

>  <RI>
0

>  <Rbt.Current_Directory>
/home/itssahil/PROJECTS/Mol_Feturizer/New_Systems/rnas/2et8

>  <Rbt.Executable>
rbdock ($Id: //depot/dev/client3/rdock/2013.1/src/exe/rbdock.cxx#4 $)

>  <Rbt.Library>
libRbt.so (2013.1, Build901 2013/11/27)

>  <Rbt.Parameter_File>
/export/apps/rDock/src/rDock_2013.1_src/data/scripts/dock_solv.prm

>  <Rbt.Receptor>
prm/pocket_docking_7.prm

>  <SCORE>
-10.3665

>  <SCORE.INTER>
-13.4331

>  <SCORE.INTER.CONST>
1

>  <SCORE.INTER.POLAR>
-1.39323

>  <SCORE.INTER.ROT>
3

>  <SCORE.INTER.SOLV>
18.1642

>  <SCORE.INTER.VDW>
-15.966

>  <SCORE.INTER.norm>
-0.610594

>  <SCORE.INTRA>
3.06655

>  <SCORE.INTRA.DIHEDRAL>
6.87301

>  <SCORE.INTRA.DIHEDRAL.0>
4.99603

>  <SCORE.INTRA.POLAR>
0

>  <SCORE.INTRA.POLAR.0>
0

>  <SCORE.INTRA.REPUL>
0

>  <SCORE.INTRA.REPUL.0>
0

>  <SCORE.INTRA.SOLV>
1.45296

>  <SCORE.INTRA.SOLV.lig_0>
-74.884

>  <SCORE.INTRA.VDW>
-1.09644

>  <SCORE.INTRA.VDW.0>
-0.858933

>  <SCORE.INTRA.norm>
0.139389

>  <SCORE.RESTR>
0

>  <SCORE.RESTR.CAVITY>
0

>  <SCORE.RESTR.norm>
0

>  <SCORE.SYSTEM>
0

>  <SCORE.SYSTEM.CONST>
0

>  <SCORE.SYSTEM.DIHEDRAL>
0

>  <SCORE.SYSTEM.SOLV>
0

>  <SCORE.SYSTEM.norm>
0

>  <SCORE.heavy>
22

>  <SCORE.norm>
-0.471205

>  <RMSD>
6.258

$$$$
2et8_lig
 OpenBabel11021811433D
libRbt.so/2013.1/901 2013/11/27
 22 23  0  0  0  0  0  0  0  0999 V2000
   21.0688   10.4319   42.7758 N   0  0  0  0  0  0  0  0  0  0  0  0
   23.3503   11.7335   38.5677 N   0  0  0  0  0  0  0  0  0  0  0  0
   24.5347   16.4517   37.5348 N   0  0  0  0  0  0  0  0  0  0  0  0
   18.7708   13.2693   39.4599 O   0  0  0  0  0  0  0  0  0  0  0  0
   19.7173   12.1814   39.6019 C   0  0  2  0  0  0  0  0  0  0  0  0
   19.4348   13.0709   35.0609 N   0  0  0  0  0  0  0  0  0  0  0  0
   18.6836   11.4879   41.7593 O   0  0  0  0  0  0  0  0  0  0  0  0
   19.9176   11.8590   41.1319 C   0  0  1  0  0  0  0  0  0  0  0  0
   20.8974   12.8571   37.6522 O   0  0  0  0  0  0  0  0  0  0  0  0
   20.8890   10.7184   41.3113 C   0  0  1  0  0  0  0  0  0  0  0  0
   20.9757   15.1506   37.8428 O   0  0  0  0  0  0  0  0  0  0  0  0
   22.2395   11.0942   40.6595 C   0  0  0  0  0  0  0  0  0  0  0  0
   23.5420   15.5495   35.2783 O   0  0  0  0  0  0  0  0  0  0  0  0
   21.9860   11.3823   39.1509 C   0  0  1  0  0  0  0  0  0  0  0  0
   21.4462   14.5275   33.7290 O   0  0  0  0  0  0  0  0  0  0  0  0
   21.1123   12.5898   38.9819 C   0  0  2  0  0  0  0  0  0  0  0  0
   20.1855   13.9825   37.2543 C   0  0  1  0  0  0  0  0  0  0  0  0
   22.3570   15.2668   37.2824 C   0  0  2  0  0  0  0  0  0  0  0  0
   23.0907   16.4784   37.8937 C   0  0  0  0  0  0  0  0  0  0  0  0
   22.2593   15.4559   35.7980 C   0  0  2  0  0  0  0  0  0  0  0  0
   21.5413   14.3110   35.1443 C   0  0  1  0  0  0  0  0  0  0  0  0
   20.1691   14.2117   35.7169 C   0  0  1  0  0  0  0  0  0  0  0  0
  5  4  1  1  0  0  0
  5  8  1  0  0  0  0
  5 16  1  0  0  0  0
  8  7  1  6  0  0  0
  8 10  1  0  0  0  0
 10  1  1  1  0  0  0
 10 12  1  0  0  0  0
 11 18  1  0  0  0  0
 12 14  1  0  0  0  0
 14  2  1  6  0  0  0
 14 16  1  0  0  0  0
 16  9  1  6  0  0  0
 17  9  1  6  0  0  0
 17 11  1  0  0  0  0
 17 22  1  0  0  0  0
 18 19  1  1  0  0  0
 18 20  1  0  0  0  0
 19  3  1  0  0  0  0
 20 13  1  6  0  0  0
 20 21  1  0  0  0  0
 21 15  1  6  0  0  0
 21 22  1  0  0  0  0
 22  6  1  6  0  0  0
M  END
>  <CHROM.1>
69.95554930,58.80406960,169.53347608,21.26746066,13.38889093,38.14311448
-1.85827623,-0.41759873,-1.07230895

>  <Name>
2et8_lig

>  <RI>
0

>  <Rbt.Current_Directory>
/home/itssahil/PROJECTS/Mol_Feturizer/New_Systems/rnas/2et8

>  <Rbt.Executable>
rbdock ($Id: //depot/dev/client3/rdock/2013.1/src/exe/rbdock.cxx#4 $)

>  <Rbt.Library>
libRbt.so (2013.1, Build901 2013/11/27)

>  <Rbt.Parameter_File>
/export/apps/rDock/src/rDock_2013.1_src/data/scripts/dock_solv.prm

>  <Rbt.Receptor>
prm/pocket_docking_5.prm

>  <SCORE>
-13.4615

>  <SCORE.INTER>
-11.9647

>  <SCORE.INTER.CONST>
1

>  <SCORE.INTER.POLAR>
-1.02042

>  <SCORE.INTER.ROT>
3

>  <SCORE.INTER.SOLV>
19.311

>  <SCORE.INTER.VDW>
-16.612

>  <SCORE.INTER.norm>
-0.543848

>  <SCORE.INTRA>
-1.49689

>  <SCORE.INTRA.DIHEDRAL>
-3.94586

>  <SCORE.INTRA.DIHEDRAL.0>
4.99603

>  <SCORE.INTRA.POLAR>
0

>  <SCORE.INTRA.POLAR.0>
0

>  <SCORE.INTRA.REPUL>
0

>  <SCORE.INTRA.REPUL.0>
0

>  <SCORE.INTRA.SOLV>
0.245623

>  <SCORE.INTRA.SOLV.lig_0>
-74.884

>  <SCORE.INTRA.VDW>
0.353231

>  <SCORE.INTRA.VDW.0>
-0.858933

>  <SCORE.INTRA.norm>
-0.0680403

>  <SCORE.RESTR>
0

>  <SCORE.RESTR.CAVITY>
0

>  <SCORE.RESTR.norm>
0

>  <SCORE.SYSTEM>
0

>  <SCORE.SYSTEM.CONST>
0

>  <SCORE.SYSTEM.DIHEDRAL>
0

>  <SCORE.SYSTEM.SOLV>
0

>  <SCORE.SYSTEM.norm>
0

>  <SCORE.heavy>
22

>  <SCORE.norm>
-0.611889

>  <RMSD>
6.262

$$$$
2et8_lig
 OpenBabel11021811433D
libRbt.so/2013.1/901 2013/11/27
 22 23  0  0  0  0  0  0  0  0999 V2000
   21.1997   10.8197   42.7029 N   0  0  0  0  0  0  0  0  0  0  0  0
   23.1319   12.0129   38.2926 N   0  0  0  0  0  0  0  0  0  0  0  0
   22.1362   17.7346   36.8591 N   0  0  0  0  0  0  0  0  0  0  0  0
   18.5243   13.3116   39.3924 O   0  0  0  0  0  0  0  0  0  0  0  0
   19.5468   12.2945   39.5321 C   0  0  2  0  0  0  0  0  0  0  0  0
   18.8600   12.9734   35.0256 N   0  0  0  0  0  0  0  0  0  0  0  0
   18.6933   11.6652   41.7859 O   0  0  0  0  0  0  0  0  0  0  0  0
   19.8601   12.0748   41.0613 C   0  0  1  0  0  0  0  0  0  0  0  0
   20.5598   12.9273   37.4769 O   0  0  0  0  0  0  0  0  0  0  0  0
   20.9131   11.0089   41.2396 C   0  0  1  0  0  0  0  0  0  0  0  0
   20.7160   15.2247   37.4600 O   0  0  0  0  0  0  0  0  0  0  0  0
   22.1942   11.4290   40.4830 C   0  0  0  0  0  0  0  0  0  0  0  0
   23.0324   15.3194   34.6410 O   0  0  0  0  0  0  0  0  0  0  0  0
   21.8314   11.6124   38.9804 C   0  0  1  0  0  0  0  0  0  0  0  0
   20.7709   14.2436   33.3896 O   0  0  0  0  0  0  0  0  0  0  0  0
   20.8720   12.7517   38.8026 C   0  0  2  0  0  0  0  0  0  0  0  0
   19.8425   14.0392   37.0517 C   0  0  1  0  0  0  0  0  0  0  0  0
   22.0393   15.2462   36.7644 C   0  0  2  0  0  0  0  0  0  0  0  0
   22.8600   16.4789   37.1969 C   0  0  0  0  0  0  0  0  0  0  0  0
   21.8038   15.3136   35.2849 C   0  0  2  0  0  0  0  0  0  0  0  0
   20.9964   14.1433   34.8032 C   0  0  1  0  0  0  0  0  0  0  0  0
   19.6838   14.1393   35.5085 C   0  0  1  0  0  0  0  0  0  0  0  0
  5  4  1  1  0  0  0
  5  8  1  0  0  0  0
  5 16  1  0  0  0  0
  8  7  1  1  0  0  0
  8 10  1  0  0  0  0
 10  1  1  1  0  0  0
 10 12  1  0  0  0  0
 11 18  1  0  0  0  0
 12 14  1  0  0  0  0
 14  2  1  6  0  0  0
 14 16  1  0  0  0  0
 16  9  1  6  0  0  0
 17  9  1  6  0  0  0
 17 11  1  0  0  0  0
 17 22  1  0  0  0  0
 18 19  1  1  0  0  0
 18 20  1  0  0  0  0
 19  3  1  0  0  0  0
 20 13  1  6  0  0  0
 20 21  1  0  0  0  0
 21 15  1  6  0  0  0
 21 22  1  0  0  0  0
 22  6  1  6  0  0  0
M  END
>  <CHROM.1>
75.11725875,60.11340339,-60.11976539,20.89750305,13.50784466,37.87618153
-1.75080319,-0.49783784,-1.09551959

>  <Name>
2et8_lig

>  <RI>
3.42619e+07

>  <Rbt.Current_Directory>
/home/itssahil/PROJECTS/Mol_Feturizer/New_Systems/rnas/2et8

>  <Rbt.Executable>
rbdock ($Id: //depot/dev/client3/rdock/2013.1/src/exe/rbdock.cxx#4 $)

>  <Rbt.Library>
libRbt.so (2013.1, Build901 2013/11/27)

>  <Rbt.Parameter_File>
/export/apps/rDock/src/rDock_2013.1_src/data/scripts/dock_solv.prm

>  <Rbt.Receptor>
prm/pocket_docking_4.prm

>  <SCORE>
-13.616

>  <SCORE.INTER>
-11.9175

>  <SCORE.INTER.CONST>
1

>  <SCORE.INTER.POLAR>
-0.958131

>  <SCORE.INTER.ROT>
3

>  <SCORE.INTER.SOLV>
18.4569

>  <SCORE.INTER.VDW>
-16.5035

>  <SCORE.INTER.norm>
-0.541705

>  <SCORE.INTRA>
-1.6985

>  <SCORE.INTRA.DIHEDRAL>
-3.7633

>  <SCORE.INTRA.DIHEDRAL.0>
4.99603

>  <SCORE.INTRA.POLAR>
0

>  <SCORE.INTRA.POLAR.0>
0

>  <SCORE.INTRA.REPUL>
0

>  <SCORE.INTRA.REPUL.0>
0

>  <SCORE.INTRA.SOLV>
0.824797

>  <SCORE.INTRA.SOLV.lig_0>
-74.884

>  <SCORE.INTRA.VDW>
-0.229242

>  <SCORE.INTRA.VDW.0>
-0.858933

>  <SCORE.INTRA.norm>
-0.0772043

>  <SCORE.RESTR>
0

>  <SCORE.RESTR.CAVITY>
0

>  <SCORE.RESTR.norm>
0

>  <SCORE.SYSTEM>
0

>  <SCORE.SYSTEM.CONST>
0

>  <SCORE.SYSTEM.DIHEDRAL>
0

>  <SCORE.SYSTEM.SOLV>
0

>  <SCORE.SYSTEM.norm>
0

>  <SCORE.heavy>
22

>  <SCORE.norm>
-0.618909

>  <RMSD>
6.264

$$$$
2et8_lig
 OpenBabel11021811433D
libRbt.so/2013.1/901 2013/11/27
 22 23  0  0  0  0  0  0  0  0999 V2000
   21.1424   10.8407   42.7098 N   0  0  0  0  0  0  0  0  0  0  0  0
   23.1094   11.9895   38.3030 N   0  0  0  0  0  0  0  0  0  0  0  0
   22.0612   17.7358   37.0417 N   0  0  0  0  0  0  0  0  0  0  0  0
   18.5109   13.3442   39.3731 O   0  0  0  0  0  0  0  0  0  0  0  0
   19.5214   12.3168   39.5232 C   0  0  2  0  0  0  0  0  0  0  0  0
   18.9007   12.9821   34.9854 N   0  0  0  0  0  0  0  0  0  0  0  0
   18.6500   11.7087   41.7759 O   0  0  0  0  0  0  0  0  0  0  0  0
   19.8248   12.1016   41.0551 C   0  0  1  0  0  0  0  0  0  0  0  0
   20.5514   12.9277   37.4698 O   0  0  0  0  0  0  0  0  0  0  0  0
   20.8652   11.0252   41.2442 C   0  0  1  0  0  0  0  0  0  0  0  0
   20.6998   15.2256   37.4691 O   0  0  0  0  0  0  0  0  0  0  0  0
   22.1545   11.4273   40.4918 C   0  0  0  0  0  0  0  0  0  0  0  0
   23.0715   15.3444   34.6974 O   0  0  0  0  0  0  0  0  0  0  0  0
   21.8011   11.6069   38.9864 C   0  0  1  0  0  0  0  0  0  0  0  0
   20.8393   14.2683   33.3951 O   0  0  0  0  0  0  0  0  0  0  0  0
   20.8551   12.7556   38.7979 C   0  0  2  0  0  0  0  0  0  0  0  0
   19.8388   14.0395   37.0367 C   0  0  1  0  0  0  0  0  0  0  0  0
   22.0366   15.2556   36.8002 C   0  0  2  0  0  0  0  0  0  0  0  0
   22.8442   16.4886   37.2560 C   0  0  0  0  0  0  0  0  0  0  0  0
   21.8304   15.3308   35.3167 C   0  0  2  0  0  0  0  0  0  0  0  0
   21.0369   14.1605   34.8123 C   0  0  1  0  0  0  0  0  0  0  0  0
   19.7105   14.1480   35.4913 C   0  0  1  0  0  0  0  0  0  0  0  0
  5  4  1  1  0  0  0
  5  8  1  0  0  0  0
  5 16  1  0  0  0  0
  8  7  1  1  0  0  0
  8 10  1  0  0  0  0
 10  1  1  1  0  0  0
 10 12  1  0  0  0  0
 11 18  1  0  0  0  0
 12 14  1  0  0  0  0
 14  2  1  6  0  0  0
 14 16  1  0  0  0  0
 16  9  1  6  0  0  0
 17  9  1  6  0  0  0
 17 11  1  0  0  0  0
 17 22  1  0  0  0  0
 18 19  1  1  0  0  0
 18 20  1  0  0  0  0
 19  3  1  0  0  0  0
 20 13  1  6  0  0  0
 20 21  1  0  0  0  0
 21 15  1  6  0  0  0
 21 22  1  0  0  0  0
 22  6  1  6  0  0  0
M  END
>  <CHROM.1>
74.57876519,59.12666192,-54.16339629,20.88831716,13.51998589,37.88971867
-1.76181139,-0.52269643,-1.10635789

>  <Name>
2et8_lig

>  <RI>
0

>  <Rbt.Current_Directory>
/home/itssahil/PROJECTS/Mol_Feturizer/New_Systems/rnas/2et8

>  <Rbt.Executable>
rbdock ($Id: //depot/dev/client3/rdock/2013.1/src/exe/rbdock.cxx#4 $)

>  <Rbt.Library>
libRbt.so (2013.1, Build901 2013/11/27)

>  <Rbt.Parameter_File>
/export/apps/rDock/src/rDock_2013.1_src/data/scripts/dock_solv.prm

>  <Rbt.Receptor>
prm/pocket_docking_5.prm

>  <SCORE>
-13.5699

>  <SCORE.INTER>
-11.8447

>  <SCORE.INTER.CONST>
1

>  <SCORE.INTER.POLAR>
-0.959166

>  <SCORE.INTER.ROT>
3

>  <SCORE.INTER.SOLV>
18.503

>  <SCORE.INTER.VDW>
-16.4669

>  <SCORE.INTER.norm>
-0.538396

>  <SCORE.INTRA>
-1.72522

>  <SCORE.INTRA.DIHEDRAL>
-3.70533

>  <SCORE.INTRA.DIHEDRAL.0>
4.99603

>  <SCORE.INTRA.POLAR>
0

>  <SCORE.INTRA.POLAR.0>
0

>  <SCORE.INTRA.REPUL>
0

>  <SCORE.INTRA.REPUL.0>
0

>  <SCORE.INTRA.SOLV>
0.71183

>  <SCORE.INTRA.SOLV.lig_0>
-74.884

>  <SCORE.INTRA.VDW>
-0.228472

>  <SCORE.INTRA.VDW.0>
-0.858933

>  <SCORE.INTRA.norm>
-0.0784193

>  <SCORE.RESTR>
0

>  <SCORE.RESTR.CAVITY>
0

>  <SCORE.RESTR.norm>
0

>  <SCORE.SYSTEM>
0

>  <SCORE.SYSTEM.CONST>
0

>  <SCORE.SYSTEM.DIHEDRAL>
0

>  <SCORE.SYSTEM.SOLV>
0

>  <SCORE.SYSTEM.norm>
0

>  <SCORE.heavy>
22

>  <SCORE.norm>
-0.616815

>  <RMSD>
6.264

$$$$
2et8_lig
 OpenBabel11021811433D
libRbt.so/2013.1/901 2013/11/27
 22 23  0  0  0  0  0  0  0  0999 V2000
   21.1070   11.0672   42.4624 N   0  0  0  0  0  0  0  0  0  0  0  0
   21.6750   11.9204   37.6088 N   0  0  0  0  0  0  0  0  0  0  0  0
   19.3385   11.8595   33.3507 N   0  0  0  0  0  0  0  0  0  0  0  0
   17.9857   14.0388   40.0638 O   0  0  0  0  0  0  0  0  0  0  0  0
   18.8001   12.8491   39.9199 C   0  0  2  0  0  0  0  0  0  0  0  0
   18.2736   16.0699   38.2571 N   0  0  0  0  0  0  0  0  0  0  0  0
   18.6307   12.3691   42.3582 O   0  0  0  0  0  0  0  0  0  0  0  0
   19.5506   12.5622   41.2762 C   0  0  1  0  0  0  0  0  0  0  0  0
   19.1830   13.3014   37.6179 O   0  0  0  0  0  0  0  0  0  0  0  0
   20.3974   11.3185   41.1615 C   0  0  1  0  0  0  0  0  0  0  0  0
   19.4789   13.8667   35.4054 O   0  0  0  0  0  0  0  0  0  0  0  0
   21.4148   11.5011   40.0119 C   0  0  0  0  0  0  0  0  0  0  0  0
   15.9062   13.9399   34.6628 O   0  0  0  0  0  0  0  0  0  0  0  0
   20.6205   11.7613   38.6986 C   0  0  1  0  0  0  0  0  0  0  0  0
   16.0766   16.0521   36.4923 O   0  0  0  0  0  0  0  0  0  0  0  0
   19.8739   13.0597   38.7798 C   0  0  2  0  0  0  0  0  0  0  0  0
   19.4690   14.4120   36.8328 C   0  0  1  0  0  0  0  0  0  0  0  0
   18.1510   13.3346   34.9707 C   0  0  2  0  0  0  0  0  0  0  0  0
   18.2196   12.8268   33.5155 C   0  0  0  0  0  0  0  0  0  0  0  0
   17.1401   14.4392   35.0531 C   0  0  2  0  0  0  0  0  0  0  0  0
   17.0359   14.9859   36.4472 C   0  0  1  0  0  0  0  0  0  0  0  0
   18.3682   15.5092   36.8614 C   0  0  1  0  0  0  0  0  0  0  0  0
  5  4  1  1  0  0  0
  5  8  1  0  0  0  0
  5 16  1  0  0  0  0
  8  7  1  1  0  0  0
  8 10  1  0  0  0  0
 10  1  1  1  0  0  0
 10 12  1  0  0  0  0
 11 18  1  0  0  0  0
 12 14  1  0  0  0  0
 14  2  1  6  0  0  0
 14 16  1  0  0  0  0
 16  9  1  6  0  0  0
 17  9  1  1  0  0  0
 17 11  1  0  0  0  0
 17 22  1  0  0  0  0
 18 19  1  6  0  0  0
 18 20  1  0  0  0  0
 19  3  1  0  0  0  0
 20 13  1  1  0  0  0
 20 21  1  0  0  0  0
 21 15  1  6  0  0  0
 21 22  1  0  0  0  0
 22  6  1  1  0  0  0
M  END
>  <CHROM.1>
127.88841399,136.07495902,52.93450329,18.89985021,13.34021298,37.80159513
-1.03971217,0.76539735,-1.61998351

>  <Name>
2et8_lig

>  <RI>
2.82936e+07

>  <Rbt.Current_Directory>
/home/itssahil/PROJECTS/Mol_Feturizer/New_Systems/rnas/2et8

>  <Rbt.Executable>
rbdock ($Id: //depot/dev/client3/rdock/2013.1/src/exe/rbdock.cxx#4 $)

>  <Rbt.Library>
libRbt.so (2013.1, Build901 2013/11/27)

>  <Rbt.Parameter_File>
/export/apps/rDock/src/rDock_2013.1_src/data/scripts/dock_solv.prm

>  <Rbt.Receptor>
prm/pocket_docking_8.prm

>  <SCORE>
-11.3987

>  <SCORE.INTER>
-14.9039

>  <SCORE.INTER.CONST>
1

>  <SCORE.INTER.POLAR>
-1.60386

>  <SCORE.INTER.ROT>
3

>  <SCORE.INTER.SOLV>
19.25

>  <SCORE.INTER.VDW>
-16.6064

>  <SCORE.INTER.norm>
-0.677448

>  <SCORE.INTRA>
3.50515

>  <SCORE.INTRA.DIHEDRAL>
7.92074

>  <SCORE.INTRA.DIHEDRAL.0>
4.99603

>  <SCORE.INTRA.POLAR>
0

>  <SCORE.INTRA.POLAR.0>
0

>  <SCORE.INTRA.REPUL>
0

>  <SCORE.INTRA.REPUL.0>
0

>  <SCORE.INTRA.SOLV>
1.37388

>  <SCORE.INTRA.SOLV.lig_0>
-74.884

>  <SCORE.INTRA.VDW>
-1.14216

>  <SCORE.INTRA.VDW.0>
-0.858933

>  <SCORE.INTRA.norm>
0.159325

>  <SCORE.RESTR>
0

>  <SCORE.RESTR.CAVITY>
0

>  <SCORE.RESTR.norm>
0

>  <SCORE.SYSTEM>
0

>  <SCORE.SYSTEM.CONST>
0

>  <SCORE.SYSTEM.DIHEDRAL>
0

>  <SCORE.SYSTEM.SOLV>
0

>  <SCORE.SYSTEM.norm>
0

>  <SCORE.heavy>
22

>  <SCORE.norm>
-0.518123

>  <RMSD>
6.267

$$$$
2et8_lig
 OpenBabel11021811433D
libRbt.so/2013.1/901 2013/11/27
 22 23  0  0  0  0  0  0  0  0999 V2000
   19.4823   12.2221   40.7373 N   0  0  0  0  0  0  0  0  0  0  0  0
   18.0677   14.7888   36.7350 N   0  0  0  0  0  0  0  0  0  0  0  0
   19.5427   11.9482   33.0784 N   0  0  0  0  0  0  0  0  0  0  0  0
   22.7843   13.5501   37.3228 O   0  0  0  0  0  0  0  0  0  0  0  0
   21.5652   13.9678   37.9851 C   0  0  2  0  0  0  0  0  0  0  0  0
   22.7809   17.1836   35.1959 N   0  0  0  0  0  0  0  0  0  0  0  0
   22.1531   12.6558   40.0190 O   0  0  0  0  0  0  0  0  0  0  0  0
   21.1364   12.8699   39.0319 C   0  0  1  0  0  0  0  0  0  0  0  0
   20.8122   15.1068   36.0392 O   0  0  0  0  0  0  0  0  0  0  0  0
   19.8752   13.2842   39.7492 C   0  0  1  0  0  0  0  0  0  0  0  0
   21.2966   13.8361   34.1810 O   0  0  0  0  0  0  0  0  0  0  0  0
   18.7507   13.5067   38.7119 C   0  0  0  0  0  0  0  0  0  0  0  0
   19.5076   16.0299   31.8771 O   0  0  0  0  0  0  0  0  0  0  0  0
   19.2188   14.6103   37.7188 C   0  0  1  0  0  0  0  0  0  0  0  0
   21.5372   17.7577   32.7331 O   0  0  0  0  0  0  0  0  0  0  0  0
   20.4040   14.1423   36.9275 C   0  0  2  0  0  0  0  0  0  0  0  0
   21.8588   14.8697   35.1560 C   0  0  1  0  0  0  0  0  0  0  0  0
   20.1393   14.3483   33.3849 C   0  0  2  0  0  0  0  0  0  0  0  0
   19.6370   13.2704   32.4020 C   0  0  0  0  0  0  0  0  0  0  0  0
   20.5862   15.5480   32.6040 C   0  0  2  0  0  0  0  0  0  0  0  0
   21.0998   16.6314   33.5073 C   0  0  1  0  0  0  0  0  0  0  0  0
   22.2504   16.1009   34.2916 C   0  0  1  0  0  0  0  0  0  0  0  0
  5  4  1  6  0  0  0
  5  8  1  0  0  0  0
  5 16  1  0  0  0  0
  8  7  1  1  0  0  0
  8 10  1  0  0  0  0
 10  1  1  1  0  0  0
 10 12  1  0  0  0  0
 11 18  1  0  0  0  0
 12 14  1  0  0  0  0
 14  2  1  6  0  0  0
 14 16  1  0  0  0  0
 16  9  1  6  0  0  0
 17  9  1  1  0  0  0
 17 11  1  0  0  0  0
 17 22  1  0  0  0  0
 18 19  1  6  0  0  0
 18 20  1  0  0  0  0
 19  3  1  0  0  0  0
 20 13  1  1  0  0  0
 20 21  1  0  0  0  0
 21 15  1  6  0  0  0
 21 22  1  0  0  0  0
 22  6  1  1  0  0  0
M  END
>  <CHROM.1>
68.73927184,69.04573265,44.85190389,20.67993685,14.47311604,35.85635893,1.62629736
0.70771907,1.91984453

>  <Name>
2et8_lig

>  <RI>
3.14397e+07

>  <Rbt.Current_Directory>
/home/itssahil/PROJECTS/Mol_Feturizer/New_Systems/rnas/2et8

>  <Rbt.Executable>
rbdock ($Id: //depot/dev/client3/rdock/2013.1/src/exe/rbdock.cxx#4 $)

>  <Rbt.Library>
libRbt.so (2013.1, Build901 2013/11/27)

>  <Rbt.Parameter_File>
/export/apps/rDock/src/rDock_2013.1_src/data/scripts/dock_solv.prm

>  <Rbt.Receptor>
prm/pocket_docking_6.prm

>  <SCORE>
-12.2541

>  <SCORE.INTER>
-10.4005

>  <SCORE.INTER.CONST>
1

>  <SCORE.INTER.POLAR>
-1.06935

>  <SCORE.INTER.ROT>
3

>  <SCORE.INTER.SOLV>
15.0463

>  <SCORE.INTER.VDW>
-13.9846

>  <SCORE.INTER.norm>
-0.472751

>  <SCORE.INTRA>
-1.8536

>  <SCORE.INTRA.DIHEDRAL>
-3.26992

>  <SCORE.INTRA.DIHEDRAL.0>
4.99603

>  <SCORE.INTRA.POLAR>
0

>  <SCORE.INTRA.POLAR.0>
0

>  <SCORE.INTRA.REPUL>
0

>  <SCORE.INTRA.REPUL.0>
0

>  <SCORE.INTRA.SOLV>
-0.623389

>  <SCORE.INTRA.SOLV.lig_0>
-74.884

>  <SCORE.INTRA.VDW>
0.0930488

>  <SCORE.INTRA.VDW.0>
-0.858933

>  <SCORE.INTRA.norm>
-0.0842547

>  <SCORE.RESTR>
0

>  <SCORE.RESTR.CAVITY>
0

>  <SCORE.RESTR.norm>
0

>  <SCORE.SYSTEM>
0

>  <SCORE.SYSTEM.CONST>
0

>  <SCORE.SYSTEM.DIHEDRAL>
0

>  <SCORE.SYSTEM.SOLV>
0

>  <SCORE.SYSTEM.norm>
0

>  <SCORE.heavy>
22

>  <SCORE.norm>
-0.557005

>  <RMSD>
6.269

$$$$
2et8_lig
 OpenBabel11021811433D
libRbt.so/2013.1/901 2013/11/27
 22 23  0  0  0  0  0  0  0  0999 V2000
   21.0962   11.0601   42.5128 N   0  0  0  0  0  0  0  0  0  0  0  0
   21.6925   11.9021   37.6606 N   0  0  0  0  0  0  0  0  0  0  0  0
   19.3116   11.8742   33.3777 N   0  0  0  0  0  0  0  0  0  0  0  0
   17.9986   14.0391   40.0926 O   0  0  0  0  0  0  0  0  0  0  0  0
   18.8092   12.8460   39.9552 C   0  0  2  0  0  0  0  0  0  0  0  0
   18.3275   16.0658   38.3161 N   0  0  0  0  0  0  0  0  0  0  0  0
   18.6255   12.3712   42.3933 O   0  0  0  0  0  0  0  0  0  0  0  0
   19.5516   12.5588   41.3158 C   0  0  1  0  0  0  0  0  0  0  0  0
   19.2057   13.2926   37.6543 O   0  0  0  0  0  0  0  0  0  0  0  0
   20.3943   11.3117   41.2078 C   0  0  1  0  0  0  0  0  0  0  0  0
   19.4871   13.8669   35.4422 O   0  0  0  0  0  0  0  0  0  0  0  0
   21.4183   11.4883   40.0631 C   0  0  0  0  0  0  0  0  0  0  0  0
   15.9087   13.9767   34.7321 O   0  0  0  0  0  0  0  0  0  0  0  0
   20.6318   11.7490   38.7452 C   0  0  1  0  0  0  0  0  0  0  0  0
   16.1148   16.0774   36.5711 O   0  0  0  0  0  0  0  0  0  0  0  0
   19.8897   13.0504   38.8202 C   0  0  2  0  0  0  0  0  0  0  0  0
   19.4949   14.4047   36.8725 C   0  0  1  0  0  0  0  0  0  0  0  0
   18.1505   13.3493   35.0167 C   0  0  2  0  0  0  0  0  0  0  0  0
   18.2014   12.8486   33.5583 C   0  0  0  0  0  0  0  0  0  0  0  0
   17.1505   14.4626   35.1139 C   0  0  2  0  0  0  0  0  0  0  0  0
   17.0638   15.0028   36.5118 C   0  0  1  0  0  0  0  0  0  0  0  0
   18.4045   15.5117   36.9167 C   0  0  1  0  0  0  0  0  0  0  0  0
  5  4  1  1  0  0  0
  5  8  1  0  0  0  0
  5 16  1  0  0  0  0
  8  7  1  1  0  0  0
  8 10  1  0  0  0  0
 10  1  1  1  0  0  0
 10 12  1  0  0  0  0
 11 18  1  0  0  0  0
 12 14  1  0  0  0  0
 14  2  1  6  0  0  0
 14 16  1  0  0  0  0
 16  9  1  6  0  0  0
 17  9  1  1  0  0  0
 17 11  1  0  0  0  0
 17 22  1  0  0  0  0
 18 19  1  6  0  0  0
 18 20  1  0  0  0  0
 19  3  1  0  0  0  0
 20 13  1  1  0  0  0
 20 21  1  0  0  0  0
 21 15  1  6  0  0  0
 21 22  1  0  0  0  0
 22  6  1  1  0  0  0
M  END
>  <CHROM.1>
127.52269185,137.16829057,52.81835733,18.91042643,13.34346906,37.84898155
-1.03885185,0.76984282,-1.61902401

>  <Name>
2et8_lig

>  <RI>
3.14397e+07

>  <Rbt.Current_Directory>
/home/itssahil/PROJECTS/Mol_Feturizer/New_Systems/rnas/2et8

>  <Rbt.Executable>
rbdock ($Id: //depot/dev/client3/rdock/2013.1/src/exe/rbdock.cxx#4 $)

>  <Rbt.Library>
libRbt.so (2013.1, Build901 2013/11/27)

>  <Rbt.Parameter_File>
/export/apps/rDock/src/rDock_2013.1_src/data/scripts/dock_solv.prm

>  <Rbt.Receptor>
prm/pocket_docking_6.prm

>  <SCORE>
-11.3649

>  <SCORE.INTER>
-14.8317

>  <SCORE.INTER.CONST>
1

>  <SCORE.INTER.POLAR>
-1.57011

>  <SCORE.INTER.ROT>
3

>  <SCORE.INTER.SOLV>
19.1338

>  <SCORE.INTER.VDW>
-16.632

>  <SCORE.INTER.norm>
-0.674168

>  <SCORE.INTRA>
3.46678

>  <SCORE.INTRA.DIHEDRAL>
7.79897

>  <SCORE.INTRA.DIHEDRAL.0>
4.99603

>  <SCORE.INTRA.POLAR>
0

>  <SCORE.INTRA.POLAR.0>
0

>  <SCORE.INTRA.REPUL>
0

>  <SCORE.INTRA.REPUL.0>
0

>  <SCORE.INTRA.SOLV>
1.39457

>  <SCORE.INTRA.SOLV.lig_0>
-74.884

>  <SCORE.INTRA.VDW>
-1.12999

>  <SCORE.INTRA.VDW.0>
-0.858933

>  <SCORE.INTRA.norm>
0.157581

>  <SCORE.RESTR>
0

>  <SCORE.RESTR.CAVITY>
0

>  <SCORE.RESTR.norm>
0

>  <SCORE.SYSTEM>
0

>  <SCORE.SYSTEM.CONST>
0

>  <SCORE.SYSTEM.DIHEDRAL>
0

>  <SCORE.SYSTEM.SOLV>
0

>  <SCORE.SYSTEM.norm>
0

>  <SCORE.heavy>
22

>  <SCORE.norm>
-0.516588

>  <RMSD>
6.269

$$$$
2et8_lig
 OpenBabel11021811433D
libRbt.so/2013.1/901 2013/11/27
 22 23  0  0  0  0  0  0  0  0999 V2000
   19.7036    9.9196   42.1864 N   0  0  0  0  0  0  0  0  0  0  0  0
   18.5872   14.1612   39.8692 N   0  0  0  0  0  0  0  0  0  0  0  0
   19.7946   12.8438   33.9434 N   0  0  0  0  0  0  0  0  0  0  0  0
   22.6846   11.7207   38.6942 O   0  0  0  0  0  0  0  0  0  0  0  0
   21.7834   12.1017   39.7628 C   0  0  2  0  0  0  0  0  0  0  0  0
   23.1453   16.1381   37.7940 N   0  0  0  0  0  0  0  0  0  0  0  0
   22.2261    9.9702   40.9731 O   0  0  0  0  0  0  0  0  0  0  0  0
   21.1921   10.8044   40.4355 C   0  0  1  0  0  0  0  0  0  0  0  0
   21.1446   14.0833   38.6159 O   0  0  0  0  0  0  0  0  0  0  0  0
   20.2591   11.1696   41.5637 C   0  0  1  0  0  0  0  0  0  0  0  0
   21.0224   13.2826   36.4603 O   0  0  0  0  0  0  0  0  0  0  0  0
   19.1194   12.0573   41.0130 C   0  0  0  0  0  0  0  0  0  0  0  0
   19.0883   16.1207   35.2250 O   0  0  0  0  0  0  0  0  0  0  0  0
   19.7576   13.3281   40.3800 C   0  0  1  0  0  0  0  0  0  0  0  0
   21.4771   17.4088   35.9115 O   0  0  0  0  0  0  0  0  0  0  0  0
   20.5909   12.9640   39.1871 C   0  0  2  0  0  0  0  0  0  0  0  0
   21.9253   13.9904   37.4698 C   0  0  1  0  0  0  0  0  0  0  0  0
   19.7997   14.0699   36.1130 C   0  0  2  0  0  0  0  0  0  0  0  0
   18.9467   13.3165   35.0714 C   0  0  0  0  0  0  0  0  0  0  0  0
   20.2239   15.3863   35.5335 C   0  0  2  0  0  0  0  0  0  0  0  0
   21.0708   16.1641   36.4986 C   0  0  1  0  0  0  0  0  0  0  0  0
   22.2819   15.3627   36.8325 C   0  0  1  0  0  0  0  0  0  0  0  0
  5  4  1  6  0  0  0
  5  8  1  0  0  0  0
  5 16  1  0  0  0  0
  8  7  1  1  0  0  0
  8 10  1  0  0  0  0
 10  1  1  6  0  0  0
 10 12  1  0  0  0  0
 11 18  1  0  0  0  0
 12 14  1  0  0  0  0
 14  2  1  6  0  0  0
 14 16  1  0  0  0  0
 16  9  1  1  0  0  0
 17  9  1  1  0  0  0
 17 11  1  0  0  0  0
 17 22  1  0  0  0  0
 18 19  1  6  0  0  0
 18 20  1  0  0  0  0
 19  3  1  0  0  0  0
 20 13  1  1  0  0  0
 20 21  1  0  0  0  0
 21 15  1  6  0  0  0
 21 22  1  0  0  0  0
 22  6  1  1  0  0  0
M  END
>  <CHROM.1>
67.75770218,55.85665142,-48.47121938,20.73506865,13.48028257,38.13389846
1.55496600,0.58064202,2.27162065

>  <Name>
2et8_lig

>  <RI>
3.14397e+07

>  <Rbt.Current_Directory>
/home/itssahil/PROJECTS/Mol_Feturizer/New_Systems/rnas/2et8

>  <Rbt.Executable>
rbdock ($Id: //depot/dev/client3/rdock/2013.1/src/exe/rbdock.cxx#4 $)

>  <Rbt.Library>
libRbt.so (2013.1, Build901 2013/11/27)

>  <Rbt.Parameter_File>
/export/apps/rDock/src/rDock_2013.1_src/data/scripts/dock_solv.prm

>  <Rbt.Receptor>
prm/pocket_docking_6.prm

>  <SCORE>
-14.3293

>  <SCORE.INTER>
-12.8334

>  <SCORE.INTER.CONST>
1

>  <SCORE.INTER.POLAR>
-1.42027

>  <SCORE.INTER.ROT>
3

>  <SCORE.INTER.SOLV>
18.1279

>  <SCORE.INTER.VDW>
-15.464

>  <SCORE.INTER.norm>
-0.583337

>  <SCORE.INTRA>
-1.49586

>  <SCORE.INTRA.DIHEDRAL>
-3.96589

>  <SCORE.INTRA.DIHEDRAL.0>
4.99603

>  <SCORE.INTRA.POLAR>
0

>  <SCORE.INTRA.POLAR.0>
0

>  <SCORE.INTRA.REPUL>
0

>  <SCORE.INTRA.REPUL.0>
0

>  <SCORE.INTRA.SOLV>
0.380546

>  <SCORE.INTRA.SOLV.lig_0>
-74.884

>  <SCORE.INTRA.VDW>
0.29681

>  <SCORE.INTRA.VDW.0>
-0.858933

>  <SCORE.INTRA.norm>
-0.0679938

>  <SCORE.RESTR>
0

>  <SCORE.RESTR.CAVITY>
0

>  <SCORE.RESTR.norm>
0

>  <SCORE.SYSTEM>
0

>  <SCORE.SYSTEM.CONST>
0

>  <SCORE.SYSTEM.DIHEDRAL>
0

>  <SCORE.SYSTEM.SOLV>
0

>  <SCORE.SYSTEM.norm>
0

>  <SCORE.heavy>
22

>  <SCORE.norm>
-0.651331

>  <RMSD>
6.272

$$$$
2et8_lig
 OpenBabel11021811433D
libRbt.so/2013.1/901 2013/11/27
 22 23  0  0  0  0  0  0  0  0999 V2000
   21.2372   10.0335   42.0742 N   0  0  0  0  0  0  0  0  0  0  0  0
   21.5318   12.2366   37.6394 N   0  0  0  0  0  0  0  0  0  0  0  0
   23.3381   15.9710   38.2400 N   0  0  0  0  0  0  0  0  0  0  0  0
   18.4883   14.0027   41.0665 O   0  0  0  0  0  0  0  0  0  0  0  0
   19.0684   12.8113   40.4803 C   0  0  2  0  0  0  0  0  0  0  0  0
   16.8351   15.1265   37.3048 N   0  0  0  0  0  0  0  0  0  0  0  0
   19.0253   11.6399   42.6779 O   0  0  0  0  0  0  0  0  0  0  0  0
   19.8697   12.0221   41.5848 C   0  0  1  0  0  0  0  0  0  0  0  0
   19.3276   13.8852   38.3755 O   0  0  0  0  0  0  0  0  0  0  0  0
   20.4746   10.7665   41.0065 C   0  0  1  0  0  0  0  0  0  0  0  0
   20.3249   15.9524   38.5610 O   0  0  0  0  0  0  0  0  0  0  0  0
   21.4071   11.1458   39.8332 C   0  0  0  0  0  0  0  0  0  0  0  0
   20.8571   16.3214   34.9691 O   0  0  0  0  0  0  0  0  0  0  0  0
   20.5618   11.9029   38.7676 C   0  0  1  0  0  0  0  0  0  0  0  0
   18.0590   16.3072   35.0577 O   0  0  0  0  0  0  0  0  0  0  0  0
   20.0619   13.2062   39.3166 C   0  0  2  0  0  0  0  0  0  0  0  0
   18.9843   15.2190   38.5612 C   0  0  1  0  0  0  0  0  0  0  0  0
   21.0508   15.8488   37.2581 C   0  0  2  0  0  0  0  0  0  0  0  0
   22.3793   16.6314   37.3130 C   0  0  0  0  0  0  0  0  0  0  0  0
   20.1876   16.4313   36.1790 C   0  0  2  0  0  0  0  0  0  0  0  0
   18.8704   15.7176   36.0840 C   0  0  1  0  0  0  0  0  0  0  0  0
   18.1642   15.8316   37.3912 C   0  0  1  0  0  0  0  0  0  0  0  0
  5  4  1  1  0  0  0
  5  8  1  0  0  0  0
  5 16  1  0  0  0  0
  8  7  1  1  0  0  0
  8 10  1  0  0  0  0
 10  1  1  1  0  0  0
 10 12  1  0  0  0  0
 11 18  1  0  0  0  0
 12 14  1  0  0  0  0
 14  2  1  6  0  0  0
 14 16  1  0  0  0  0
 16  9  1  6  0  0  0
 17  9  1  6  0  0  0
 17 11  1  0  0  0  0
 17 22  1  0  0  0  0
 18 19  1  1  0  0  0
 18 20  1  0  0  0  0
 19  3  1  0  0  0  0
 20 13  1  6  0  0  0
 20 21  1  0  0  0  0
 21 15  1  6  0  0  0
 21 22  1  0  0  0  0
 22  6  1  6  0  0  0
M  END
>  <CHROM.1>
78.43648260,64.54344431,68.36648438,19.98841244,14.07279304,38.61671454,-1.52229794
0.11502051,-0.81468638

>  <Name>
2et8_lig

>  <RI>
2.82936e+07

>  <Rbt.Current_Directory>
/home/itssahil/PROJECTS/Mol_Feturizer/New_Systems/rnas/2et8

>  <Rbt.Executable>
rbdock ($Id: //depot/dev/client3/rdock/2013.1/src/exe/rbdock.cxx#4 $)

>  <Rbt.Library>
libRbt.so (2013.1, Build901 2013/11/27)

>  <Rbt.Parameter_File>
/export/apps/rDock/src/rDock_2013.1_src/data/scripts/dock_solv.prm

>  <Rbt.Receptor>
prm/pocket_docking_8.prm

>  <SCORE>
-12.5096

>  <SCORE.INTER>
-10.3489

>  <SCORE.INTER.CONST>
1

>  <SCORE.INTER.POLAR>
-0.953161

>  <SCORE.INTER.ROT>
3

>  <SCORE.INTER.SOLV>
15.9948

>  <SCORE.INTER.VDW>
-14.6537

>  <SCORE.INTER.norm>
-0.470404

>  <SCORE.INTRA>
-2.16067

>  <SCORE.INTRA.DIHEDRAL>
-2.94728

>  <SCORE.INTRA.DIHEDRAL.0>
4.99603

>  <SCORE.INTRA.POLAR>
0

>  <SCORE.INTRA.POLAR.0>
0

>  <SCORE.INTRA.REPUL>
0

>  <SCORE.INTRA.REPUL.0>
0

>  <SCORE.INTRA.SOLV>
-0.136101

>  <SCORE.INTRA.SOLV.lig_0>
-74.884

>  <SCORE.INTRA.VDW>
-0.618973

>  <SCORE.INTRA.VDW.0>
-0.858933

>  <SCORE.INTRA.norm>
-0.0982121

>  <SCORE.RESTR>
0

>  <SCORE.RESTR.CAVITY>
0

>  <SCORE.RESTR.norm>
0

>  <SCORE.SYSTEM>
0

>  <SCORE.SYSTEM.CONST>
0

>  <SCORE.SYSTEM.DIHEDRAL>
0

>  <SCORE.SYSTEM.SOLV>
0

>  <SCORE.SYSTEM.norm>
0

>  <SCORE.heavy>
22

>  <SCORE.norm>
-0.568616

>  <RMSD>
6.276

$$$$
2et8_lig
 OpenBabel11021811433D
libRbt.so/2013.1/901 2013/11/27
 22 23  0  0  0  0  0  0  0  0999 V2000
   21.4910    9.9122   41.9353 N   0  0  0  0  0  0  0  0  0  0  0  0
   21.4739   12.3334   37.6057 N   0  0  0  0  0  0  0  0  0  0  0  0
   23.1743   16.1233   38.1983 N   0  0  0  0  0  0  0  0  0  0  0  0
   18.5768   13.8364   41.2764 O   0  0  0  0  0  0  0  0  0  0  0  0
   19.1573   12.6934   40.6012 C   0  0  2  0  0  0  0  0  0  0  0  0
   16.6562   15.0649   37.7268 N   0  0  0  0  0  0  0  0  0  0  0  0
   19.2708   11.4172   42.7372 O   0  0  0  0  0  0  0  0  0  0  0  0
   20.0415   11.8779   41.6201 C   0  0  1  0  0  0  0  0  0  0  0  0
   19.2676   13.8745   38.5413 O   0  0  0  0  0  0  0  0  0  0  0  0
   20.6491   10.6711   40.9483 C   0  0  1  0  0  0  0  0  0  0  0  0
   20.2058   15.9682   38.7385 O   0  0  0  0  0  0  0  0  0  0  0  0
   21.5033   11.1354   39.7463 C   0  0  0  0  0  0  0  0  0  0  0  0
   20.4340   16.5047   35.1355 O   0  0  0  0  0  0  0  0  0  0  0  0
   20.5784   11.9156   38.7670 C   0  0  1  0  0  0  0  0  0  0  0  0
   17.6543   16.3823   35.4443 O   0  0  0  0  0  0  0  0  0  0  0  0
   20.0726   13.1747   39.4063 C   0  0  2  0  0  0  0  0  0  0  0  0
   18.8952   15.1858   38.8122 C   0  0  1  0  0  0  0  0  0  0  0  0
   20.8275   15.9456   37.3789 C   0  0  2  0  0  0  0  0  0  0  0  0
   22.1287   16.7744   37.3632 C   0  0  0  0  0  0  0  0  0  0  0  0
   19.8609   16.5394   36.3982 C   0  0  2  0  0  0  0  0  0  0  0  0
   18.5652   15.7816   36.3762 C   0  0  1  0  0  0  0  0  0  0  0  0
   17.9632   15.8150   37.7389 C   0  0  1  0  0  0  0  0  0  0  0  0
  5  4  1  1  0  0  0
  5  8  1  0  0  0  0
  5 16  1  0  0  0  0
  8  7  1  1  0  0  0
  8 10  1  0  0  0  0
 10  1  1  1  0  0  0
 10 12  1  0  0  0  0
 11 18  1  0  0  0  0
 12 14  1  0  0  0  0
 14  2  1  6  0  0  0
 14 16  1  0  0  0  0
 16  9  1  6  0  0  0
 17  9  1  6  0  0  0
 17 11  1  0  0  0  0
 17 22  1  0  0  0  0
 18 19  1  1  0  0  0
 18 20  1  0  0  0  0
 19  3  1  0  0  0  0
 20 13  1  6  0  0  0
 20 21  1  0  0  0  0
 21 15  1  6  0  0  0
 21 22  1  0  0  0  0
 22  6  1  6  0  0  0
M  END
>  <CHROM.1>
78.34132770,66.08575130,67.50009469,19.91145228,14.06870704,38.74403411,-1.45524212
0.14111683,-0.77752104

>  <Name>
2et8_lig

>  <RI>
3.42619e+07

>  <Rbt.Current_Directory>
/home/itssahil/PROJECTS/Mol_Feturizer/New_Systems/rnas/2et8

>  <Rbt.Executable>
rbdock ($Id: //depot/dev/client3/rdock/2013.1/src/exe/rbdock.cxx#4 $)

>  <Rbt.Library>
libRbt.so (2013.1, Build901 2013/11/27)

>  <Rbt.Parameter_File>
/export/apps/rDock/src/rDock_2013.1_src/data/scripts/dock_solv.prm

>  <Rbt.Receptor>
prm/pocket_docking_4.prm

>  <SCORE>
-12.7688

>  <SCORE.INTER>
-10.6333

>  <SCORE.INTER.CONST>
1

>  <SCORE.INTER.POLAR>
-0.959164

>  <SCORE.INTER.ROT>
3

>  <SCORE.INTER.SOLV>
16.4391

>  <SCORE.INTER.VDW>
-14.9714

>  <SCORE.INTER.norm>
-0.483333

>  <SCORE.INTRA>
-2.1355

>  <SCORE.INTRA.DIHEDRAL>
-2.93206

>  <SCORE.INTRA.DIHEDRAL.0>
4.99603

>  <SCORE.INTRA.POLAR>
0

>  <SCORE.INTRA.POLAR.0>
0

>  <SCORE.INTRA.REPUL>
0

>  <SCORE.INTRA.REPUL.0>
0

>  <SCORE.INTRA.SOLV>
-0.120379

>  <SCORE.INTRA.SOLV.lig_0>
-74.884

>  <SCORE.INTRA.VDW>
-0.609283

>  <SCORE.INTRA.VDW.0>
-0.858933

>  <SCORE.INTRA.norm>
-0.0970682

>  <SCORE.RESTR>
0

>  <SCORE.RESTR.CAVITY>
0

>  <SCORE.RESTR.norm>
0

>  <SCORE.SYSTEM>
0

>  <SCORE.SYSTEM.CONST>
0

>  <SCORE.SYSTEM.DIHEDRAL>
0

>  <SCORE.SYSTEM.SOLV>
0

>  <SCORE.SYSTEM.norm>
0

>  <SCORE.heavy>
22

>  <SCORE.norm>
-0.580401

>  <RMSD>
6.284

$$$$
2et8_lig
 OpenBabel11021811433D
libRbt.so/2013.1/901 2013/11/27
 22 23  0  0  0  0  0  0  0  0999 V2000
   22.2001    9.3313   41.7311 N   0  0  0  0  0  0  0  0  0  0  0  0
   21.8718   12.3269   37.7907 N   0  0  0  0  0  0  0  0  0  0  0  0
   17.1672   12.7495   34.5197 N   0  0  0  0  0  0  0  0  0  0  0  0
   19.0040   13.0877   41.7052 O   0  0  0  0  0  0  0  0  0  0  0  0
   19.6382   12.0955   40.8610 C   0  0  2  0  0  0  0  0  0  0  0  0
   19.1344   16.4433   39.5880 N   0  0  0  0  0  0  0  0  0  0  0  0
   19.9105   10.5446   42.7909 O   0  0  0  0  0  0  0  0  0  0  0  0
   20.6098   11.2116   41.7326 C   0  0  1  0  0  0  0  0  0  0  0  0
   19.5982   13.5580   38.9876 O   0  0  0  0  0  0  0  0  0  0  0  0
   21.2755   10.1579   40.8821 C   0  0  1  0  0  0  0  0  0  0  0  0
   19.9611   14.0379   36.7648 O   0  0  0  0  0  0  0  0  0  0  0  0
   22.0551   10.8464   39.7383 C   0  0  0  0  0  0  0  0  0  0  0  0
   16.4374   14.6542   36.0404 O   0  0  0  0  0  0  0  0  0  0  0  0
   21.0466   11.6870   38.9018 C   0  0  1  0  0  0  0  0  0  0  0  0
   16.9477   16.7409   37.8355 O   0  0  0  0  0  0  0  0  0  0  0  0
   20.4777   12.8043   39.7252 C   0  0  2  0  0  0  0  0  0  0  0  0
   20.0470   14.5991   38.1836 C   0  0  1  0  0  0  0  0  0  0  0  0
   18.5634   13.7122   36.3458 C   0  0  2  0  0  0  0  0  0  0  0  0
   18.5410   13.1785   34.8984 C   0  0  0  0  0  0  0  0  0  0  0  0
   17.7368   14.9615   36.4161 C   0  0  2  0  0  0  0  0  0  0  0  0
   17.7295   15.5381   37.8021 C   0  0  1  0  0  0  0  0  0  0  0  0
   19.1301   15.8543   38.2008 C   0  0  1  0  0  0  0  0  0  0  0  0
  5  4  1  1  0  0  0
  5  8  1  0  0  0  0
  5 16  1  0  0  0  0
  8  7  1  1  0  0  0
  8 10  1  0  0  0  0
 10  1  1  1  0  0  0
 10 12  1  0  0  0  0
 11 18  1  0  0  0  0
 12 14  1  0  0  0  0
 14  2  1  6  0  0  0
 14 16  1  0  0  0  0
 16  9  1  6  0  0  0
 17  9  1  1  0  0  0
 17 11  1  0  0  0  0
 17 22  1  0  0  0  0
 18 19  1  6  0  0  0
 18 20  1  0  0  0  0
 19  3  1  0  0  0  0
 20 13  1  1  0  0  0
 20 21  1  0  0  0  0
 21 15  1  6  0  0  0
 21 22  1  0  0  0  0
 22  6  1  1  0  0  0
M  END
>  <CHROM.1>
160.52288623,104.45728459,175.35195903,19.46683806,13.20724514,38.70753677
-0.54933663,1.00230103,-1.80775863

>  <Name>
2et8_lig

>  <RI>
0

>  <Rbt.Current_Directory>
/home/itssahil/PROJECTS/Mol_Feturizer/New_Systems/rnas/2et8

>  <Rbt.Executable>
rbdock ($Id: //depot/dev/client3/rdock/2013.1/src/exe/rbdock.cxx#4 $)

>  <Rbt.Library>
libRbt.so (2013.1, Build901 2013/11/27)

>  <Rbt.Parameter_File>
/export/apps/rDock/src/rDock_2013.1_src/data/scripts/dock_solv.prm

>  <Rbt.Receptor>
prm/pocket_docking_7.prm

>  <SCORE>
-9.3581

>  <SCORE.INTER>
-11.6431

>  <SCORE.INTER.CONST>
1

>  <SCORE.INTER.POLAR>
-0.575936

>  <SCORE.INTER.ROT>
3

>  <SCORE.INTER.SOLV>
18.3446

>  <SCORE.INTER.VDW>
-17.5572

>  <SCORE.INTER.norm>
-0.529233

>  <SCORE.INTRA>
2.28504

>  <SCORE.INTRA.DIHEDRAL>
2.86883

>  <SCORE.INTRA.DIHEDRAL.0>
4.99603

>  <SCORE.INTRA.POLAR>
0

>  <SCORE.INTRA.POLAR.0>
0

>  <SCORE.INTRA.REPUL>
0

>  <SCORE.INTRA.REPUL.0>
0

>  <SCORE.INTRA.SOLV>
2.30604

>  <SCORE.INTRA.SOLV.lig_0>
-74.884

>  <SCORE.INTRA.VDW>
-0.3024

>  <SCORE.INTRA.VDW.0>
-0.858933

>  <SCORE.INTRA.norm>
0.103865

>  <SCORE.RESTR>
0

>  <SCORE.RESTR.CAVITY>
0

>  <SCORE.RESTR.norm>
0

>  <SCORE.SYSTEM>
0

>  <SCORE.SYSTEM.CONST>
0

>  <SCORE.SYSTEM.DIHEDRAL>
0

>  <SCORE.SYSTEM.SOLV>
0

>  <SCORE.SYSTEM.norm>
0

>  <SCORE.heavy>
22

>  <SCORE.norm>
-0.425368

>  <RMSD>
6.287

$$$$
2et8_lig
 OpenBabel11021811433D
libRbt.so/2013.1/901 2013/11/27
 22 23  0  0  0  0  0  0  0  0999 V2000
   19.6462    9.9346   42.1949 N   0  0  0  0  0  0  0  0  0  0  0  0
   18.5558   14.1462   39.8115 N   0  0  0  0  0  0  0  0  0  0  0  0
   19.8007   12.8551   33.9330 N   0  0  0  0  0  0  0  0  0  0  0  0
   22.6912   11.7181   38.7491 O   0  0  0  0  0  0  0  0  0  0  0  0
   21.7651   12.1045   39.7943 C   0  0  2  0  0  0  0  0  0  0  0  0
   23.1639   16.1087   37.8076 N   0  0  0  0  0  0  0  0  0  0  0  0
   22.1938    9.9878   41.0353 O   0  0  0  0  0  0  0  0  0  0  0  0
   21.1669   10.8105   40.4673 C   0  0  1  0  0  0  0  0  0  0  0  0
   21.1399   14.0708   38.6140 O   0  0  0  0  0  0  0  0  0  0  0  0
   20.2078   11.1816   41.5716 C   0  0  1  0  0  0  0  0  0  0  0  0
   21.0202   13.2775   36.4555 O   0  0  0  0  0  0  0  0  0  0  0  0
   19.0752   12.0570   40.9877 C   0  0  0  0  0  0  0  0  0  0  0  0
   19.1191   16.1374   35.2194 O   0  0  0  0  0  0  0  0  0  0  0  0
   19.7197   13.3252   40.3556 C   0  0  1  0  0  0  0  0  0  0  0  0
   21.5168   17.4008   35.9210 O   0  0  0  0  0  0  0  0  0  0  0  0
   20.5804   12.9540   39.1845 C   0  0  2  0  0  0  0  0  0  0  0  0
   21.9251   13.9738   37.4713 C   0  0  1  0  0  0  0  0  0  0  0  0
   19.8067   14.0774   36.1047 C   0  0  2  0  0  0  0  0  0  0  0  0
   18.9515   13.3352   35.0569 C   0  0  0  0  0  0  0  0  0  0  0  0
   20.2462   15.3914   35.5312 C   0  0  2  0  0  0  0  0  0  0  0  0
   21.0959   16.1583   36.5025 C   0  0  1  0  0  0  0  0  0  0  0  0
   22.2977   15.3444   36.8397 C   0  0  1  0  0  0  0  0  0  0  0  0
  5  4  1  6  0  0  0
  5  8  1  0  0  0  0
  5 16  1  0  0  0  0
  8  7  1  1  0  0  0
  8 10  1  0  0  0  0
 10  1  1  6  0  0  0
 10 12  1  0  0  0  0
 11 18  1  0  0  0  0
 12 14  1  0  0  0  0
 14  2  1  6  0  0  0
 14 16  1  0  0  0  0
 16  9  1  1  0  0  0
 17  9  1  1  0  0  0
 17 11  1  0  0  0  0
 17 22  1  0  0  0  0
 18 19  1  6  0  0  0
 18 20  1  0  0  0  0
 19  3  1  0  0  0  0
 20 13  1  1  0  0  0
 20 21  1  0  0  0  0
 21 15  1  6  0  0  0
 21 22  1  0  0  0  0
 22  6  1  1  0  0  0
M  END
>  <CHROM.1>
68.97052938,56.30655937,-48.34502121,20.72927944,13.47976523,38.13784766
1.56358668,0.54413154,2.26365764

>  <Name>
2et8_lig

>  <RI>
0

>  <Rbt.Current_Directory>
/home/itssahil/PROJECTS/Mol_Feturizer/New_Systems/rnas/2et8

>  <Rbt.Executable>
rbdock ($Id: //depot/dev/client3/rdock/2013.1/src/exe/rbdock.cxx#4 $)

>  <Rbt.Library>
libRbt.so (2013.1, Build901 2013/11/27)

>  <Rbt.Parameter_File>
/export/apps/rDock/src/rDock_2013.1_src/data/scripts/dock_solv.prm

>  <Rbt.Receptor>
prm/pocket_docking_7.prm

>  <SCORE>
-14.3828

>  <SCORE.INTER>
-12.8386

>  <SCORE.INTER.CONST>
1

>  <SCORE.INTER.POLAR>
-1.42087

>  <SCORE.INTER.ROT>
3

>  <SCORE.INTER.SOLV>
18.1707

>  <SCORE.INTER.VDW>
-15.4797

>  <SCORE.INTER.norm>
-0.583574

>  <SCORE.INTRA>
-1.54422

>  <SCORE.INTRA.DIHEDRAL>
-3.87883

>  <SCORE.INTRA.DIHEDRAL.0>
4.99603

>  <SCORE.INTRA.POLAR>
0

>  <SCORE.INTRA.POLAR.0>
0

>  <SCORE.INTRA.REPUL>
0

>  <SCORE.INTRA.REPUL.0>
0

>  <SCORE.INTRA.SOLV>
0.412611

>  <SCORE.INTRA.SOLV.lig_0>
-74.884

>  <SCORE.INTRA.VDW>
0.18889

>  <SCORE.INTRA.VDW.0>
-0.858933

>  <SCORE.INTRA.norm>
-0.0701917

>  <SCORE.RESTR>
0

>  <SCORE.RESTR.CAVITY>
0

>  <SCORE.RESTR.norm>
0

>  <SCORE.SYSTEM>
0

>  <SCORE.SYSTEM.CONST>
0

>  <SCORE.SYSTEM.DIHEDRAL>
0

>  <SCORE.SYSTEM.SOLV>
0

>  <SCORE.SYSTEM.norm>
0

>  <SCORE.heavy>
22

>  <SCORE.norm>
-0.653766

>  <RMSD>
6.290

$$$$
2et8_lig
 OpenBabel11021811433D
libRbt.so/2013.1/901 2013/11/27
 22 23  0  0  0  0  0  0  0  0999 V2000
   21.2960   10.0075   42.0405 N   0  0  0  0  0  0  0  0  0  0  0  0
   21.5240   12.2469   37.6200 N   0  0  0  0  0  0  0  0  0  0  0  0
   23.1769   16.1984   38.0829 N   0  0  0  0  0  0  0  0  0  0  0  0
   18.5089   13.9655   41.0959 O   0  0  0  0  0  0  0  0  0  0  0  0
   19.0901   12.7827   40.4937 C   0  0  2  0  0  0  0  0  0  0  0  0
   16.7033   15.0048   37.5066 N   0  0  0  0  0  0  0  0  0  0  0  0
   19.0805   11.5940   42.6825 O   0  0  0  0  0  0  0  0  0  0  0  0
   19.9095   11.9905   41.5827 C   0  0  1  0  0  0  0  0  0  0  0  0
   19.3176   13.8746   38.3945 O   0  0  0  0  0  0  0  0  0  0  0  0
   20.5161   10.7436   40.9875 C   0  0  1  0  0  0  0  0  0  0  0  0
   20.2276   15.9852   38.5351 O   0  0  0  0  0  0  0  0  0  0  0  0
   21.4323   11.1383   39.8065 C   0  0  0  0  0  0  0  0  0  0  0  0
   20.4987   16.4062   34.9198 O   0  0  0  0  0  0  0  0  0  0  0  0
   20.5696   11.8978   38.7567 C   0  0  1  0  0  0  0  0  0  0  0  0
   17.7166   16.2591   35.1954 O   0  0  0  0  0  0  0  0  0  0  0  0
   20.0673   13.1934   39.3217 C   0  0  2  0  0  0  0  0  0  0  0  0
   18.9256   15.1893   38.6171 C   0  0  1  0  0  0  0  0  0  0  0  0
   20.8681   15.9258   37.1854 C   0  0  2  0  0  0  0  0  0  0  0  0
   22.1592   16.7699   37.1597 C   0  0  0  0  0  0  0  0  0  0  0  0
   19.9079   16.4751   36.1729 C   0  0  2  0  0  0  0  0  0  0  0  0
   18.6219   15.7007   36.1586 C   0  0  1  0  0  0  0  0  0  0  0  0
   18.0009   15.7712   37.5113 C   0  0  1  0  0  0  0  0  0  0  0  0
  5  4  1  1  0  0  0
  5  8  1  0  0  0  0
  5 16  1  0  0  0  0
  8  7  1  1  0  0  0
  8 10  1  0  0  0  0
 10  1  1  1  0  0  0
 10 12  1  0  0  0  0
 11 18  1  0  0  0  0
 12 14  1  0  0  0  0
 14  2  1  6  0  0  0
 14 16  1  0  0  0  0
 16  9  1  6  0  0  0
 17  9  1  6  0  0  0
 17 11  1  0  0  0  0
 17 22  1  0  0  0  0
 18 19  1  1  0  0  0
 18 20  1  0  0  0  0
 19  3  1  0  0  0  0
 20 13  1  6  0  0  0
 20 21  1  0  0  0  0
 21 15  1  6  0  0  0
 21 22  1  0  0  0  0
 22  6  1  6  0  0  0
M  END
>  <CHROM.1>
76.03925947,69.13315691,64.61417333,19.89664741,14.07787330,38.62077590,-1.48706062
0.11582655,-0.80604803

>  <Name>
2et8_lig

>  <RI>
0

>  <Rbt.Current_Directory>
/home/itssahil/PROJECTS/Mol_Feturizer/New_Systems/rnas/2et8

>  <Rbt.Executable>
rbdock ($Id: //depot/dev/client3/rdock/2013.1/src/exe/rbdock.cxx#4 $)

>  <Rbt.Library>
libRbt.so (2013.1, Build901 2013/11/27)

>  <Rbt.Parameter_File>
/export/apps/rDock/src/rDock_2013.1_src/data/scripts/dock_solv.prm

>  <Rbt.Receptor>
prm/pocket_docking_7.prm

>  <SCORE>
-12.6326

>  <SCORE.INTER>
-10.4096

>  <SCORE.INTER.CONST>
1

>  <SCORE.INTER.POLAR>
-0.959166

>  <SCORE.INTER.ROT>
3

>  <SCORE.INTER.SOLV>
16.1

>  <SCORE.INTER.VDW>
-14.7092

>  <SCORE.INTER.norm>
-0.473163

>  <SCORE.INTRA>
-2.223

>  <SCORE.INTRA.DIHEDRAL>
-3.16879

>  <SCORE.INTRA.DIHEDRAL.0>
4.99603

>  <SCORE.INTRA.POLAR>
0

>  <SCORE.INTRA.POLAR.0>
0

>  <SCORE.INTRA.REPUL>
0

>  <SCORE.INTRA.REPUL.0>
0

>  <SCORE.INTRA.SOLV>
-0.335114

>  <SCORE.INTRA.SOLV.lig_0>
-74.884

>  <SCORE.INTRA.VDW>
-0.471051

>  <SCORE.INTRA.VDW.0>
-0.858933

>  <SCORE.INTRA.norm>
-0.101046

>  <SCORE.RESTR>
0

>  <SCORE.RESTR.CAVITY>
0

>  <SCORE.RESTR.norm>
0

>  <SCORE.SYSTEM>
0

>  <SCORE.SYSTEM.CONST>
0

>  <SCORE.SYSTEM.DIHEDRAL>
0

>  <SCORE.SYSTEM.SOLV>
0

>  <SCORE.SYSTEM.norm>
0

>  <SCORE.heavy>
22

>  <SCORE.norm>
-0.574209

>  <RMSD>
6.296

$$$$
2et8_lig
 OpenBabel11021811433D
libRbt.so/2013.1/901 2013/11/27
 22 23  0  0  0  0  0  0  0  0999 V2000
   21.1918   10.0272   42.2527 N   0  0  0  0  0  0  0  0  0  0  0  0
   21.5944   12.0915   37.7600 N   0  0  0  0  0  0  0  0  0  0  0  0
   23.3735   15.9000   38.2528 N   0  0  0  0  0  0  0  0  0  0  0  0
   18.4924   13.9810   41.0667 O   0  0  0  0  0  0  0  0  0  0  0  0
   19.0762   12.7686   40.5294 C   0  0  2  0  0  0  0  0  0  0  0  0
   16.8942   14.9716   37.2778 N   0  0  0  0  0  0  0  0  0  0  0  0
   18.9790   11.6653   42.7604 O   0  0  0  0  0  0  0  0  0  0  0  0
   19.8487   12.0086   41.6742 C   0  0  1  0  0  0  0  0  0  0  0  0
   19.3869   13.7758   38.3988 O   0  0  0  0  0  0  0  0  0  0  0  0
   20.4568   10.7320   41.1473 C   0  0  1  0  0  0  0  0  0  0  0  0
   20.3719   15.8531   38.5301 O   0  0  0  0  0  0  0  0  0  0  0  0
   21.4162   11.0693   39.9830 C   0  0  0  0  0  0  0  0  0  0  0  0
   20.9238   16.1207   34.9322 O   0  0  0  0  0  0  0  0  0  0  0  0
   20.5988   11.7987   38.8771 C   0  0  1  0  0  0  0  0  0  0  0  0
   18.1254   16.0934   35.0046 O   0  0  0  0  0  0  0  0  0  0  0  0
   20.0966   13.1214   39.3755 C   0  0  2  0  0  0  0  0  0  0  0  0
   19.0352   15.1126   38.5436 C   0  0  1  0  0  0  0  0  0  0  0  0
   21.1062   15.7157   37.2350 C   0  0  2  0  0  0  0  0  0  0  0  0
   22.4301   16.5070   37.2750 C   0  0  0  0  0  0  0  0  0  0  0  0
   20.2465   16.2618   36.1344 C   0  0  2  0  0  0  0  0  0  0  0  0
   18.9337   15.5384   36.0523 C   0  0  1  0  0  0  0  0  0  0  0  0
   18.2190   15.6863   37.3515 C   0  0  1  0  0  0  0  0  0  0  0  0
  5  4  1  1  0  0  0
  5  8  1  0  0  0  0
  5 16  1  0  0  0  0
  8  7  1  1  0  0  0
  8 10  1  0  0  0  0
 10  1  1  1  0  0  0
 10 12  1  0  0  0  0
 11 18  1  0  0  0  0
 12 14  1  0  0  0  0
 14  2  1  6  0  0  0
 14 16  1  0  0  0  0
 16  9  1  6  0  0  0
 17  9  1  6  0  0  0
 17 11  1  0  0  0  0
 17 22  1  0  0  0  0
 18 19  1  1  0  0  0
 18 20  1  0  0  0  0
 19  3  1  0  0  0  0
 20 13  1  6  0  0  0
 20 21  1  0  0  0  0
 21 15  1  6  0  0  0
 21 22  1  0  0  0  0
 22  6  1  6  0  0  0
M  END
>  <CHROM.1>
77.65817007,65.83230774,66.88077107,20.01993121,13.97221667,38.64606817,-1.53594904
0.10299666,-0.84162454

>  <Name>
2et8_lig

>  <RI>
2.82936e+07

>  <Rbt.Current_Directory>
/home/itssahil/PROJECTS/Mol_Feturizer/New_Systems/rnas/2et8

>  <Rbt.Executable>
rbdock ($Id: //depot/dev/client3/rdock/2013.1/src/exe/rbdock.cxx#4 $)

>  <Rbt.Library>
libRbt.so (2013.1, Build901 2013/11/27)

>  <Rbt.Parameter_File>
/export/apps/rDock/src/rDock_2013.1_src/data/scripts/dock_solv.prm

>  <Rbt.Receptor>
prm/pocket_docking_8.prm

>  <SCORE>
-12.5576

>  <SCORE.INTER>
-10.3451

>  <SCORE.INTER.CONST>
1

>  <SCORE.INTER.POLAR>
-0.887724

>  <SCORE.INTER.ROT>
3

>  <SCORE.INTER.SOLV>
16.3292

>  <SCORE.INTER.VDW>
-14.9807

>  <SCORE.INTER.norm>
-0.47023

>  <SCORE.INTRA>
-2.21256

>  <SCORE.INTRA.DIHEDRAL>
-3.07895

>  <SCORE.INTRA.DIHEDRAL.0>
4.99603

>  <SCORE.INTRA.POLAR>
0

>  <SCORE.INTRA.POLAR.0>
0

>  <SCORE.INTRA.REPUL>
0

>  <SCORE.INTRA.REPUL.0>
0

>  <SCORE.INTRA.SOLV>
-0.204778

>  <SCORE.INTRA.SOLV.lig_0>
-74.884

>  <SCORE.INTRA.VDW>
-0.570693

>  <SCORE.INTRA.VDW.0>
-0.858933

>  <SCORE.INTRA.norm>
-0.100571

>  <SCORE.RESTR>
0

>  <SCORE.RESTR.CAVITY>
0

>  <SCORE.RESTR.norm>
0

>  <SCORE.SYSTEM>
0

>  <SCORE.SYSTEM.CONST>
0

>  <SCORE.SYSTEM.DIHEDRAL>
0

>  <SCORE.SYSTEM.SOLV>
0

>  <SCORE.SYSTEM.norm>
0

>  <SCORE.heavy>
22

>  <SCORE.norm>
-0.5708

>  <RMSD>
6.299

$$$$
2et8_lig
 OpenBabel11021811433D
libRbt.so/2013.1/901 2013/11/27
 22 23  0  0  0  0  0  0  0  0999 V2000
   19.7551    9.8440   42.2519 N   0  0  0  0  0  0  0  0  0  0  0  0
   18.5768   14.0615   39.9212 N   0  0  0  0  0  0  0  0  0  0  0  0
   19.2724   13.3328   33.9981 N   0  0  0  0  0  0  0  0  0  0  0  0
   22.7274   11.6962   38.7789 O   0  0  0  0  0  0  0  0  0  0  0  0
   21.8115   12.0616   39.8406 C   0  0  2  0  0  0  0  0  0  0  0  0
   23.1451   16.0524   37.7890 N   0  0  0  0  0  0  0  0  0  0  0  0
   22.2850    9.9401   41.0567 O   0  0  0  0  0  0  0  0  0  0  0  0
   21.2396   10.7543   40.5106 C   0  0  1  0  0  0  0  0  0  0  0  0
   21.1443   14.0297   38.6865 O   0  0  0  0  0  0  0  0  0  0  0  0
   20.2917   11.1035   41.6316 C   0  0  1  0  0  0  0  0  0  0  0  0
   20.8022   13.3459   36.5144 O   0  0  0  0  0  0  0  0  0  0  0  0
   19.1397   11.9691   41.0715 C   0  0  0  0  0  0  0  0  0  0  0  0
   18.8813   16.3101   35.5951 O   0  0  0  0  0  0  0  0  0  0  0  0
   19.7588   13.2509   40.4415 C   0  0  1  0  0  0  0  0  0  0  0  0
   21.3702   17.4763   36.1266 O   0  0  0  0  0  0  0  0  0  0  0  0
   20.6073   12.9010   39.2551 C   0  0  2  0  0  0  0  0  0  0  0  0
   21.8173   13.9686   37.4720 C   0  0  1  0  0  0  0  0  0  0  0  0
   19.5859   14.1925   36.3161 C   0  0  2  0  0  0  0  0  0  0  0  0
   18.6159   13.5242   35.3199 C   0  0  0  0  0  0  0  0  0  0  0  0
   20.0096   15.5213   35.7652 C   0  0  2  0  0  0  0  0  0  0  0  0
   20.9678   16.2181   36.6870 C   0  0  1  0  0  0  0  0  0  0  0  0
   22.1708   15.3585   36.8722 C   0  0  1  0  0  0  0  0  0  0  0  0
  5  4  1  6  0  0  0
  5  8  1  0  0  0  0
  5 16  1  0  0  0  0
  8  7  1  1  0  0  0
  8 10  1  0  0  0  0
 10  1  1  6  0  0  0
 10 12  1  0  0  0  0
 11 18  1  0  0  0  0
 12 14  1  0  0  0  0
 14  2  1  6  0  0  0
 14 16  1  0  0  0  0
 16  9  1  1  0  0  0
 17  9  1  1  0  0  0
 17 11  1  0  0  0  0
 17 22  1  0  0  0  0
 18 19  1  6  0  0  0
 18 20  1  0  0  0  0
 19  3  1  0  0  0  0
 20 13  1  1  0  0  0
 20 21  1  0  0  0  0
 21 15  1  6  0  0  0
 21 22  1  0  0  0  0
 22  6  1  1  0  0  0
M  END
>  <CHROM.1>
74.50261507,56.33982967,-60.02573724,20.65079421,13.50646938,38.24322897
1.50832706,0.37347936,2.31512572

>  <Name>
2et8_lig

>  <RI>
3.42619e+07

>  <Rbt.Current_Directory>
/home/itssahil/PROJECTS/Mol_Feturizer/New_Systems/rnas/2et8

>  <Rbt.Executable>
rbdock ($Id: //depot/dev/client3/rdock/2013.1/src/exe/rbdock.cxx#4 $)

>  <Rbt.Library>
libRbt.so (2013.1, Build901 2013/11/27)

>  <Rbt.Parameter_File>
/export/apps/rDock/src/rDock_2013.1_src/data/scripts/dock_solv.prm

>  <Rbt.Receptor>
prm/pocket_docking_4.prm

>  <SCORE>
-13.2725

>  <SCORE.INTER>
-11.6633

>  <SCORE.INTER.CONST>
1

>  <SCORE.INTER.POLAR>
-1.0827

>  <SCORE.INTER.ROT>
3

>  <SCORE.INTER.SOLV>
16.165

>  <SCORE.INTER.VDW>
-15.1548

>  <SCORE.INTER.norm>
-0.530149

>  <SCORE.INTRA>
-1.60925

>  <SCORE.INTRA.DIHEDRAL>
-3.77766

>  <SCORE.INTRA.DIHEDRAL.0>
4.99603

>  <SCORE.INTRA.POLAR>
0

>  <SCORE.INTRA.POLAR.0>
0

>  <SCORE.INTRA.REPUL>
0

>  <SCORE.INTRA.REPUL.0>
0

>  <SCORE.INTRA.SOLV>
0.821681

>  <SCORE.INTRA.SOLV.lig_0>
-74.884

>  <SCORE.INTRA.VDW>
-0.131264

>  <SCORE.INTRA.VDW.0>
-0.858933

>  <SCORE.INTRA.norm>
-0.0731479

>  <SCORE.RESTR>
0

>  <SCORE.RESTR.CAVITY>
0

>  <SCORE.RESTR.norm>
0

>  <SCORE.SYSTEM>
0

>  <SCORE.SYSTEM.CONST>
0

>  <SCORE.SYSTEM.DIHEDRAL>
0

>  <SCORE.SYSTEM.SOLV>
0

>  <SCORE.SYSTEM.norm>
0

>  <SCORE.heavy>
22

>  <SCORE.norm>
-0.603297

>  <RMSD>
6.301

$$$$
2et8_lig
 OpenBabel11021811433D
libRbt.so/2013.1/901 2013/11/27
 22 23  0  0  0  0  0  0  0  0999 V2000
   19.6982    9.9111   42.2522 N   0  0  0  0  0  0  0  0  0  0  0  0
   18.5724   14.0687   39.7916 N   0  0  0  0  0  0  0  0  0  0  0  0
   19.7732   12.8314   33.9302 N   0  0  0  0  0  0  0  0  0  0  0  0
   22.7475   11.6781   38.8017 O   0  0  0  0  0  0  0  0  0  0  0  0
   21.8081   12.0692   39.8331 C   0  0  2  0  0  0  0  0  0  0  0  0
   23.1985   16.0310   37.7920 N   0  0  0  0  0  0  0  0  0  0  0  0
   22.2542    9.9789   41.1120 O   0  0  0  0  0  0  0  0  0  0  0  0
   21.2213   10.7787   40.5225 C   0  0  1  0  0  0  0  0  0  0  0  0
   21.1669   14.0077   38.6158 O   0  0  0  0  0  0  0  0  0  0  0  0
   20.2486   11.1551   41.6130 C   0  0  1  0  0  0  0  0  0  0  0  0
   21.0230   13.2154   36.4585 O   0  0  0  0  0  0  0  0  0  0  0  0
   19.1094   12.0059   41.0059 C   0  0  0  0  0  0  0  0  0  0  0  0
   19.1319   16.0889   35.2387 O   0  0  0  0  0  0  0  0  0  0  0  0
   19.7425   13.2720   40.3582 C   0  0  1  0  0  0  0  0  0  0  0  0
   21.5446   17.3349   35.9195 O   0  0  0  0  0  0  0  0  0  0  0  0
   20.6173   12.8931   39.2002 C   0  0  2  0  0  0  0  0  0  0  0  0
   21.9415   13.9050   37.4664 C   0  0  1  0  0  0  0  0  0  0  0  0
   19.8123   14.0240   36.1181 C   0  0  2  0  0  0  0  0  0  0  0  0
   18.9428   13.2879   35.0777 C   0  0  0  0  0  0  0  0  0  0  0  0
   20.2562   15.3348   35.5408 C   0  0  2  0  0  0  0  0  0  0  0  0
   21.1197   16.0955   36.5047 C   0  0  1  0  0  0  0  0  0  0  0  0
   22.3186   15.2730   36.8316 C   0  0  1  0  0  0  0  0  0  0  0  0
  5  4  1  6  0  0  0
  5  8  1  0  0  0  0
  5 16  1  0  0  0  0
  8  7  1  1  0  0  0
  8 10  1  0  0  0  0
 10  1  1  6  0  0  0
 10 12  1  0  0  0  0
 11 18  1  0  0  0  0
 12 14  1  0  0  0  0
 14  2  1  6  0  0  0
 14 16  1  0  0  0  0
 16  9  1  1  0  0  0
 17  9  1  1  0  0  0
 17 11  1  0  0  0  0
 17 22  1  0  0  0  0
 18 19  1  6  0  0  0
 18 20  1  0  0  0  0
 19  3  1  0  0  0  0
 20 13  1  1  0  0  0
 20 21  1  0  0  0  0
 21 15  1  6  0  0  0
 21 22  1  0  0  0  0
 22  6  1  1  0  0  0
M  END
>  <CHROM.1>
70.20756257,57.08401288,-49.75881733,20.75500318,13.42945708,38.15526765
1.55512553,0.50097568,2.25906640

>  <Name>
2et8_lig

>  <RI>
3.14397e+07

>  <Rbt.Current_Directory>
/home/itssahil/PROJECTS/Mol_Feturizer/New_Systems/rnas/2et8

>  <Rbt.Executable>
rbdock ($Id: //depot/dev/client3/rdock/2013.1/src/exe/rbdock.cxx#4 $)

>  <Rbt.Library>
libRbt.so (2013.1, Build901 2013/11/27)

>  <Rbt.Parameter_File>
/export/apps/rDock/src/rDock_2013.1_src/data/scripts/dock_solv.prm

>  <Rbt.Receptor>
prm/pocket_docking_6.prm

>  <SCORE>
-14.2934

>  <SCORE.INTER>
-12.6595

>  <SCORE.INTER.CONST>
1

>  <SCORE.INTER.POLAR>
-1.38596

>  <SCORE.INTER.ROT>
3

>  <SCORE.INTER.SOLV>
17.9878

>  <SCORE.INTER.VDW>
-15.4157

>  <SCORE.INTER.norm>
-0.575432

>  <SCORE.INTRA>
-1.63386

>  <SCORE.INTRA.DIHEDRAL>
-3.90086

>  <SCORE.INTRA.DIHEDRAL.0>
4.99603

>  <SCORE.INTRA.POLAR>
0

>  <SCORE.INTRA.POLAR.0>
0

>  <SCORE.INTRA.REPUL>
0

>  <SCORE.INTRA.REPUL.0>
0

>  <SCORE.INTRA.SOLV>
0.469758

>  <SCORE.INTRA.SOLV.lig_0>
-74.884

>  <SCORE.INTRA.VDW>
0.0816875

>  <SCORE.INTRA.VDW.0>
-0.858933

>  <SCORE.INTRA.norm>
-0.0742665

>  <SCORE.RESTR>
0

>  <SCORE.RESTR.CAVITY>
0

>  <SCORE.RESTR.norm>
0

>  <SCORE.SYSTEM>
0

>  <SCORE.SYSTEM.CONST>
0

>  <SCORE.SYSTEM.DIHEDRAL>
0

>  <SCORE.SYSTEM.SOLV>
0

>  <SCORE.SYSTEM.norm>
0

>  <SCORE.heavy>
22

>  <SCORE.norm>
-0.649698

>  <RMSD>
6.302

$$$$
2et8_lig
 OpenBabel11021811433D
libRbt.so/2013.1/901 2013/11/27
 22 23  0  0  0  0  0  0  0  0999 V2000
   21.0645   13.6949   36.4015 N   0  0  0  0  0  0  0  0  0  0  0  0
   23.4694   11.3482   40.0508 N   0  0  0  0  0  0  0  0  0  0  0  0
   20.7436    6.5938   42.2149 N   0  0  0  0  0  0  0  0  0  0  0  0
   18.6881   12.3722   40.5161 O   0  0  0  0  0  0  0  0  0  0  0  0
   19.9657   12.8286   40.0076 C   0  0  2  0  0  0  0  0  0  0  0  0
   20.2726   12.2062   44.4684 N   0  0  0  0  0  0  0  0  0  0  0  0
   18.8578   13.9849   38.0998 O   0  0  0  0  0  0  0  0  0  0  0  0
   19.8664   13.0276   38.4469 C   0  0  1  0  0  0  0  0  0  0  0  0
   21.1456   11.6162   41.6774 O   0  0  0  0  0  0  0  0  0  0  0  0
   21.1803   13.5173   37.8895 C   0  0  1  0  0  0  0  0  0  0  0  0
   20.3854    9.4499   41.8552 O   0  0  0  0  0  0  0  0  0  0  0  0
   22.2894   12.4962   38.2320 C   0  0  0  0  0  0  0  0  0  0  0  0
   23.1296    8.3741   44.0077 O   0  0  0  0  0  0  0  0  0  0  0  0
   22.3558   12.3541   39.7808 C   0  0  1  0  0  0  0  0  0  0  0  0
   21.8872   10.2416   45.6829 O   0  0  0  0  0  0  0  0  0  0  0  0
   21.0866   11.7573   40.3127 C   0  0  2  0  0  0  0  0  0  0  0  0
   20.1882   10.8777   42.3627 C   0  0  1  0  0  0  0  0  0  0  0  0
   21.7259    8.8841   42.1995 C   0  0  2  0  0  0  0  0  0  0  0  0
   21.8516    7.4348   41.6858 C   0  0  0  0  0  0  0  0  0  0  0  0
   21.8800    8.8864   43.6911 C   0  0  2  0  0  0  0  0  0  0  0  0
   21.7545   10.2722   44.2544 C   0  0  1  0  0  0  0  0  0  0  0  0
   20.4140   10.8178   43.8996 C   0  0  1  0  0  0  0  0  0  0  0  0
  5  4  1  6  0  0  0
  5  8  1  0  0  0  0
  5 16  1  0  0  0  0
  8  7  1  1  0  0  0
  8 10  1  0  0  0  0
 10  1  1  6  0  0  0
 10 12  1  0  0  0  0
 11 18  1  0  0  0  0
 12 14  1  0  0  0  0
 14  2  1  6  0  0  0
 14 16  1  0  0  0  0
 16  9  1  1  0  0  0
 17  9  1  6  0  0  0
 17 11  1  0  0  0  0
 17 22  1  0  0  0  0
 18 19  1  1  0  0  0
 18 20  1  0  0  0  0
 19  3  1  0  0  0  0
 20 13  1  6  0  0  0
 20 21  1  0  0  0  0
 21 15  1  1  0  0  0
 21 22  1  0  0  0  0
 22  6  1  6  0  0  0
M  END
>  <CHROM.1>
77.05959709,64.79019891,-55.55710997,21.08597828,11.03662308,41.28732111
-1.86529198,-0.99303449,1.97209298

>  <Name>
2et8_lig

>  <RI>
3.14397e+07

>  <Rbt.Current_Directory>
/home/itssahil/PROJECTS/Mol_Feturizer/New_Systems/rnas/2et8

>  <Rbt.Executable>
rbdock ($Id: //depot/dev/client3/rdock/2013.1/src/exe/rbdock.cxx#4 $)

>  <Rbt.Library>
libRbt.so (2013.1, Build901 2013/11/27)

>  <Rbt.Parameter_File>
/export/apps/rDock/src/rDock_2013.1_src/data/scripts/dock_solv.prm

>  <Rbt.Receptor>
prm/pocket_docking_6.prm

>  <SCORE>
-14.2786

>  <SCORE.INTER>
-13.3076

>  <SCORE.INTER.CONST>
1

>  <SCORE.INTER.POLAR>
-1.28826

>  <SCORE.INTER.ROT>
3

>  <SCORE.INTER.SOLV>
17.5903

>  <SCORE.INTER.VDW>
-16.041

>  <SCORE.INTER.norm>
-0.604891

>  <SCORE.INTRA>
-1.61847

>  <SCORE.INTRA.DIHEDRAL>
-3.31668

>  <SCORE.INTRA.DIHEDRAL.0>
4.99603

>  <SCORE.INTRA.POLAR>
0

>  <SCORE.INTRA.POLAR.0>
0

>  <SCORE.INTRA.REPUL>
0

>  <SCORE.INTRA.REPUL.0>
0

>  <SCORE.INTRA.SOLV>
0.943399

>  <SCORE.INTRA.SOLV.lig_0>
-74.884

>  <SCORE.INTRA.VDW>
-0.43183

>  <SCORE.INTRA.VDW.0>
-0.858933

>  <SCORE.INTRA.norm>
-0.0735669

>  <SCORE.RESTR>
0.647509

>  <SCORE.RESTR.CAVITY>
0.647509

>  <SCORE.RESTR.norm>
0.0294322

>  <SCORE.SYSTEM>
0

>  <SCORE.SYSTEM.CONST>
0

>  <SCORE.SYSTEM.DIHEDRAL>
0

>  <SCORE.SYSTEM.SOLV>
0

>  <SCORE.SYSTEM.norm>
0

>  <SCORE.heavy>
22

>  <SCORE.norm>
-0.649026

>  <RMSD>
6.303

$$$$
2et8_lig
 OpenBabel11021811433D
libRbt.so/2013.1/901 2013/11/27
 22 23  0  0  0  0  0  0  0  0999 V2000
   22.2236    9.3696   41.7116 N   0  0  0  0  0  0  0  0  0  0  0  0
   21.7451   12.3541   37.7782 N   0  0  0  0  0  0  0  0  0  0  0  0
   18.6373   14.2921   34.0863 N   0  0  0  0  0  0  0  0  0  0  0  0
   18.9977   13.0999   41.7809 O   0  0  0  0  0  0  0  0  0  0  0  0
   19.6127   12.1111   40.9187 C   0  0  2  0  0  0  0  0  0  0  0  0
   19.1812   16.4563   39.7250 N   0  0  0  0  0  0  0  0  0  0  0  0
   19.9592   10.5665   42.8418 O   0  0  0  0  0  0  0  0  0  0  0  0
   20.6189   11.2369   41.7604 C   0  0  1  0  0  0  0  0  0  0  0  0
   19.5008   13.5693   39.0448 O   0  0  0  0  0  0  0  0  0  0  0  0
   21.2657   10.1869   40.8910 C   0  0  1  0  0  0  0  0  0  0  0  0
   19.6954   14.0771   36.8072 O   0  0  0  0  0  0  0  0  0  0  0  0
   22.0027   10.8793   39.7216 C   0  0  0  0  0  0  0  0  0  0  0  0
   16.1458   14.8146   36.3857 O   0  0  0  0  0  0  0  0  0  0  0  0
   20.9611   11.7099   38.9162 C   0  0  1  0  0  0  0  0  0  0  0  0
   16.8688   16.8524   38.1639 O   0  0  0  0  0  0  0  0  0  0  0  0
   20.4096   12.8242   39.7553 C   0  0  2  0  0  0  0  0  0  0  0  0
   19.9155   14.6101   38.2223 C   0  0  1  0  0  0  0  0  0  0  0  0
   18.2582   13.8022   36.5001 C   0  0  2  0  0  0  0  0  0  0  0  0
   18.0999   13.2952   35.0517 C   0  0  0  0  0  0  0  0  0  0  0  0
   17.4809   15.0749   36.6574 C   0  0  2  0  0  0  0  0  0  0  0  0
   17.6060   15.6268   38.0478 C   0  0  1  0  0  0  0  0  0  0  0  0
   19.0440   15.8925   38.3342 C   0  0  1  0  0  0  0  0  0  0  0  0
  5  4  1  1  0  0  0
  5  8  1  0  0  0  0
  5 16  1  0  0  0  0
  8  7  1  1  0  0  0
  8 10  1  0  0  0  0
 10  1  1  1  0  0  0
 10 12  1  0  0  0  0
 11 18  1  0  0  0  0
 12 14  1  0  0  0  0
 14  2  1  6  0  0  0
 14 16  1  0  0  0  0
 16  9  1  6  0  0  0
 17  9  1  1  0  0  0
 17 11  1  0  0  0  0
 17 22  1  0  0  0  0
 18 19  1  6  0  0  0
 18 20  1  0  0  0  0
 19  3  1  0  0  0  0
 20 13  1  1  0  0  0
 20 21  1  0  0  0  0
 21 15  1  6  0  0  0
 21 22  1  0  0  0  0
 22  6  1  1  0  0  0
M  END
>  <CHROM.1>
160.68839734,108.20149882,-58.26386704,19.42729672,13.32464006,38.78525338
-0.72337231,0.92874157,-1.56665658

>  <Name>
2et8_lig

>  <RI>
3.14397e+07

>  <Rbt.Current_Directory>
/home/itssahil/PROJECTS/Mol_Feturizer/New_Systems/rnas/2et8

>  <Rbt.Executable>
rbdock ($Id: //depot/dev/client3/rdock/2013.1/src/exe/rbdock.cxx#4 $)

>  <Rbt.Library>
libRbt.so (2013.1, Build901 2013/11/27)

>  <Rbt.Parameter_File>
/export/apps/rDock/src/rDock_2013.1_src/data/scripts/dock_solv.prm

>  <Rbt.Receptor>
prm/pocket_docking_6.prm

>  <SCORE>
-11.2342

>  <SCORE.INTER>
-13.2233

>  <SCORE.INTER.CONST>
1

>  <SCORE.INTER.POLAR>
-0.69116

>  <SCORE.INTER.ROT>
3

>  <SCORE.INTER.SOLV>
14.2125

>  <SCORE.INTER.VDW>
-16.8492

>  <SCORE.INTER.norm>
-0.601058

>  <SCORE.INTRA>
1.98912

>  <SCORE.INTRA.DIHEDRAL>
3.22905

>  <SCORE.INTRA.DIHEDRAL.0>
4.99603

>  <SCORE.INTRA.POLAR>
0

>  <SCORE.INTRA.POLAR.0>
0

>  <SCORE.INTRA.REPUL>
0

>  <SCORE.INTRA.REPUL.0>
0

>  <SCORE.INTRA.SOLV>
2.36571

>  <SCORE.INTRA.SOLV.lig_0>
-74.884

>  <SCORE.INTRA.VDW>
-0.808264

>  <SCORE.INTRA.VDW.0>
-0.858933

>  <SCORE.INTRA.norm>
0.0904144

>  <SCORE.RESTR>
0

>  <SCORE.RESTR.CAVITY>
0

>  <SCORE.RESTR.norm>
0

>  <SCORE.SYSTEM>
0

>  <SCORE.SYSTEM.CONST>
0

>  <SCORE.SYSTEM.DIHEDRAL>
0

>  <SCORE.SYSTEM.SOLV>
0

>  <SCORE.SYSTEM.norm>
0

>  <SCORE.heavy>
22

>  <SCORE.norm>
-0.510644

>  <RMSD>
6.305

$$$$
2et8_lig
 OpenBabel11021811433D
libRbt.so/2013.1/901 2013/11/27
 22 23  0  0  0  0  0  0  0  0999 V2000
   20.4007    9.8666   41.8147 N   0  0  0  0  0  0  0  0  0  0  0  0
   18.3271   14.2156   40.6341 N   0  0  0  0  0  0  0  0  0  0  0  0
   15.6737   15.2670   37.7686 N   0  0  0  0  0  0  0  0  0  0  0  0
   21.4890   12.0778   37.5424 O   0  0  0  0  0  0  0  0  0  0  0  0
   21.1573   12.3299   38.9302 C   0  0  2  0  0  0  0  0  0  0  0  0
   22.1665   15.4569   36.5732 N   0  0  0  0  0  0  0  0  0  0  0  0
   22.1139   10.1351   39.6169 O   0  0  0  0  0  0  0  0  0  0  0  0
   20.9411   10.9568   39.6737 C   0  0  1  0  0  0  0  0  0  0  0  0
   20.0549   14.3610   38.3733 O   0  0  0  0  0  0  0  0  0  0  0  0
   20.6076   11.1870   41.1272 C   0  0  1  0  0  0  0  0  0  0  0  0
   18.4396   14.7448   36.7777 O   0  0  0  0  0  0  0  0  0  0  0  0
   19.3338   12.0578   41.2243 C   0  0  0  0  0  0  0  0  0  0  0  0
   18.4076   18.3588   37.2865 O   0  0  0  0  0  0  0  0  0  0  0  0
   19.6100   13.4038   40.4927 C   0  0  1  0  0  0  0  0  0  0  0  0
   21.0135   18.0160   36.3227 O   0  0  0  0  0  0  0  0  0  0  0  0
   19.8253   13.1748   39.0261 C   0  0  2  0  0  0  0  0  0  0  0  0
   19.9245   14.4552   36.9928 C   0  0  1  0  0  0  0  0  0  0  0  0
   18.0048   16.0497   37.3639 C   0  0  2  0  0  0  0  0  0  0  0  0
   16.5068   16.2960   37.0891 C   0  0  0  0  0  0  0  0  0  0  0  0
   18.8027   17.1506   36.7313 C   0  0  2  0  0  0  0  0  0  0  0  0
   20.2749   16.9600   36.9539 C   0  0  1  0  0  0  0  0  0  0  0  0
   20.6873   15.6550   36.3642 C   0  0  1  0  0  0  0  0  0  0  0  0
  5  4  1  6  0  0  0
  5  8  1  0  0  0  0
  5 16  1  0  0  0  0
  8  7  1  1  0  0  0
  8 10  1  0  0  0  0
 10  1  1  1  0  0  0
 10 12  1  0  0  0  0
 11 18  1  0  0  0  0
 12 14  1  0  0  0  0
 14  2  1  6  0  0  0
 14 16  1  0  0  0  0
 16  9  1  6  0  0  0
 17  9  1  1  0  0  0
 17 11  1  0  0  0  0
 17 22  1  0  0  0  0
 18 19  1  6  0  0  0
 18 20  1  0  0  0  0
 19  3  1  0  0  0  0
 20 13  1  1  0  0  0
 20 21  1  0  0  0  0
 21 15  1  6  0  0  0
 21 22  1  0  0  0  0
 22  6  1  1  0  0  0
M  END
>  <CHROM.1>
83.31979509,86.03499227,63.89920099,19.72843099,14.20805865,38.36696960,1.28007995
-0.35915948,2.49309648

>  <Name>
2et8_lig

>  <RI>
3.42619e+07

>  <Rbt.Current_Directory>
/home/itssahil/PROJECTS/Mol_Feturizer/New_Systems/rnas/2et8

>  <Rbt.Executable>
rbdock ($Id: //depot/dev/client3/rdock/2013.1/src/exe/rbdock.cxx#4 $)

>  <Rbt.Library>
libRbt.so (2013.1, Build901 2013/11/27)

>  <Rbt.Parameter_File>
/export/apps/rDock/src/rDock_2013.1_src/data/scripts/dock_solv.prm

>  <Rbt.Receptor>
prm/pocket_docking_4.prm

>  <SCORE>
-8.38294

>  <SCORE.INTER>
-8.07835

>  <SCORE.INTER.CONST>
1

>  <SCORE.INTER.POLAR>
-1.0918

>  <SCORE.INTER.ROT>
3

>  <SCORE.INTER.SOLV>
20.6646

>  <SCORE.INTER.VDW>
-14.2344

>  <SCORE.INTER.norm>
-0.367198

>  <SCORE.INTRA>
-0.304596

>  <SCORE.INTRA.DIHEDRAL>
0.339784

>  <SCORE.INTRA.DIHEDRAL.0>
4.99603

>  <SCORE.INTRA.POLAR>
0

>  <SCORE.INTRA.POLAR.0>
0

>  <SCORE.INTRA.REPUL>
0

>  <SCORE.INTRA.REPUL.0>
0

>  <SCORE.INTRA.SOLV>
0.743651

>  <SCORE.INTRA.SOLV.lig_0>
-74.884

>  <SCORE.INTRA.VDW>
-0.846313

>  <SCORE.INTRA.VDW.0>
-0.858933

>  <SCORE.INTRA.norm>
-0.0138453

>  <SCORE.RESTR>
0

>  <SCORE.RESTR.CAVITY>
0

>  <SCORE.RESTR.norm>
0

>  <SCORE.SYSTEM>
0

>  <SCORE.SYSTEM.CONST>
0

>  <SCORE.SYSTEM.DIHEDRAL>
0

>  <SCORE.SYSTEM.SOLV>
0

>  <SCORE.SYSTEM.norm>
0

>  <SCORE.heavy>
22

>  <SCORE.norm>
-0.381043

>  <RMSD>
6.307

$$$$
2et8_lig
 OpenBabel11021811433D
libRbt.so/2013.1/901 2013/11/27
 22 23  0  0  0  0  0  0  0  0999 V2000
   21.0797   10.0622   42.2394 N   0  0  0  0  0  0  0  0  0  0  0  0
   21.5394   12.1243   37.7512 N   0  0  0  0  0  0  0  0  0  0  0  0
   23.3724   15.9165   38.2562 N   0  0  0  0  0  0  0  0  0  0  0  0
   18.4579   14.0659   41.0466 O   0  0  0  0  0  0  0  0  0  0  0  0
   19.0219   12.8437   40.5104 C   0  0  2  0  0  0  0  0  0  0  0  0
   16.8906   15.0939   37.2652 N   0  0  0  0  0  0  0  0  0  0  0  0
   18.8949   11.7397   42.7395 O   0  0  0  0  0  0  0  0  0  0  0  0
   19.7754   12.0684   41.6576 C   0  0  1  0  0  0  0  0  0  0  0  0
   19.3602   13.8476   38.3824 O   0  0  0  0  0  0  0  0  0  0  0  0
   20.3624   10.7816   41.1317 C   0  0  1  0  0  0  0  0  0  0  0  0
   20.3900   15.9036   38.5053 O   0  0  0  0  0  0  0  0  0  0  0  0
   21.3330   11.1028   39.9720 C   0  0  0  0  0  0  0  0  0  0  0  0
   20.9373   16.1497   34.9052 O   0  0  0  0  0  0  0  0  0  0  0  0
   20.5338   11.8483   38.8635 C   0  0  1  0  0  0  0  0  0  0  0  0
   18.1391   16.1829   34.9856 O   0  0  0  0  0  0  0  0  0  0  0  0
   20.0536   13.1792   39.3614 C   0  0  2  0  0  0  0  0  0  0  0  0
   19.0378   15.1920   38.5246 C   0  0  1  0  0  0  0  0  0  0  0  0
   21.1175   15.7470   37.2086 C   0  0  2  0  0  0  0  0  0  0  0  0
   22.4582   16.5097   37.2428 C   0  0  0  0  0  0  0  0  0  0  0  0
   20.2666   16.3086   36.1089 C   0  0  2  0  0  0  0  0  0  0  0  0
   18.9383   15.6134   36.0325 C   0  0  1  0  0  0  0  0  0  0  0  0
   18.2307   15.7801   37.3333 C   0  0  1  0  0  0  0  0  0  0  0  0
  5  4  1  1  0  0  0
  5  8  1  0  0  0  0
  5 16  1  0  0  0  0
  8  7  1  1  0  0  0
  8 10  1  0  0  0  0
 10  1  1  1  0  0  0
 10 12  1  0  0  0  0
 11 18  1  0  0  0  0
 12 14  1  0  0  0  0
 14  2  1  6  0  0  0
 14 16  1  0  0  0  0
 16  9  1  6  0  0  0
 17  9  1  6  0  0  0
 17 11  1  0  0  0  0
 17 22  1  0  0  0  0
 18 19  1  1  0  0  0
 18 20  1  0  0  0  0
 19  3  1  0  0  0  0
 20 13  1  6  0  0  0
 20 21  1  0  0  0  0
 21 15  1  6  0  0  0
 21 22  1  0  0  0  0
 22  6  1  6  0  0  0
M  END
>  <CHROM.1>
77.96694005,66.10672030,64.74770070,19.99279172,14.02973736,38.62821429,-1.55069670
0.11621323,-0.84071323

>  <Name>
2et8_lig

>  <RI>
3.42619e+07

>  <Rbt.Current_Directory>
/home/itssahil/PROJECTS/Mol_Feturizer/New_Systems/rnas/2et8

>  <Rbt.Executable>
rbdock ($Id: //depot/dev/client3/rdock/2013.1/src/exe/rbdock.cxx#4 $)

>  <Rbt.Library>
libRbt.so (2013.1, Build901 2013/11/27)

>  <Rbt.Parameter_File>
/export/apps/rDock/src/rDock_2013.1_src/data/scripts/dock_solv.prm

>  <Rbt.Receptor>
prm/pocket_docking_4.prm

>  <SCORE>
-12.5576

>  <SCORE.INTER>
-10.3278

>  <SCORE.INTER.CONST>
1

>  <SCORE.INTER.POLAR>
-0.924896

>  <SCORE.INTER.ROT>
3

>  <SCORE.INTER.SOLV>
16.1448

>  <SCORE.INTER.VDW>
-14.7838

>  <SCORE.INTER.norm>
-0.469446

>  <SCORE.INTRA>
-2.22978

>  <SCORE.INTRA.DIHEDRAL>
-3.1068

>  <SCORE.INTRA.DIHEDRAL.0>
4.99603

>  <SCORE.INTRA.POLAR>
0

>  <SCORE.INTRA.POLAR.0>
0

>  <SCORE.INTRA.REPUL>
0

>  <SCORE.INTRA.REPUL.0>
0

>  <SCORE.INTRA.SOLV>
-0.178791

>  <SCORE.INTRA.SOLV.lig_0>
-74.884

>  <SCORE.INTRA.VDW>
-0.586984

>  <SCORE.INTRA.VDW.0>
-0.858933

>  <SCORE.INTRA.norm>
-0.101354

>  <SCORE.RESTR>
0

>  <SCORE.RESTR.CAVITY>
0

>  <SCORE.RESTR.norm>
0

>  <SCORE.SYSTEM>
0

>  <SCORE.SYSTEM.CONST>
0

>  <SCORE.SYSTEM.DIHEDRAL>
0

>  <SCORE.SYSTEM.SOLV>
0

>  <SCORE.SYSTEM.norm>
0

>  <SCORE.heavy>
22

>  <SCORE.norm>
-0.5708

>  <RMSD>
6.307

$$$$
2et8_lig
 OpenBabel11021811433D
libRbt.so/2013.1/901 2013/11/27
 22 23  0  0  0  0  0  0  0  0999 V2000
   21.5984   10.0260   41.9348 N   0  0  0  0  0  0  0  0  0  0  0  0
   21.5044   12.2707   37.5120 N   0  0  0  0  0  0  0  0  0  0  0  0
   18.8262   13.8592   33.2971 N   0  0  0  0  0  0  0  0  0  0  0  0
   18.5075   13.7778   41.1000 O   0  0  0  0  0  0  0  0  0  0  0  0
   19.1473   12.6380   40.4749 C   0  0  2  0  0  0  0  0  0  0  0  0
   18.8417   16.6855   38.6620 N   0  0  0  0  0  0  0  0  0  0  0  0
   19.3025   11.4541   42.6609 O   0  0  0  0  0  0  0  0  0  0  0  0
   20.0602   11.9064   41.5316 C   0  0  1  0  0  0  0  0  0  0  0  0
   19.2196   13.7406   38.3703 O   0  0  0  0  0  0  0  0  0  0  0  0
   20.7301   10.7044   40.9125 C   0  0  1  0  0  0  0  0  0  0  0  0
   19.6316   13.9765   36.1170 O   0  0  0  0  0  0  0  0  0  0  0  0
   21.5719   11.1610   39.6989 C   0  0  0  0  0  0  0  0  0  0  0  0
   16.1414   14.6237   35.2682 O   0  0  0  0  0  0  0  0  0  0  0  0
   20.6196   11.8569   38.6829 C   0  0  1  0  0  0  0  0  0  0  0  0
   16.6927   16.8680   36.8482 O   0  0  0  0  0  0  0  0  0  0  0  0
   20.0492   13.1147   39.2680 C   0  0  2  0  0  0  0  0  0  0  0  0
   19.7144   14.6785   37.4719 C   0  0  1  0  0  0  0  0  0  0  0  0
   18.2305   13.6528   35.7080 C   0  0  2  0  0  0  0  0  0  0  0  0
   18.2125   12.9731   34.3231 C   0  0  0  0  0  0  0  0  0  0  0  0
   17.4443   14.9277   35.6342 C   0  0  2  0  0  0  0  0  0  0  0  0
   17.4350   15.6445   36.9531 C   0  0  1  0  0  0  0  0  0  0  0  0
   18.8390   15.9566   37.3429 C   0  0  1  0  0  0  0  0  0  0  0  0
  5  4  1  1  0  0  0
  5  8  1  0  0  0  0
  5 16  1  0  0  0  0
  8  7  1  1  0  0  0
  8 10  1  0  0  0  0
 10  1  1  1  0  0  0
 10 12  1  0  0  0  0
 11 18  1  0  0  0  0
 12 14  1  0  0  0  0
 14  2  1  6  0  0  0
 14 16  1  0  0  0  0
 16  9  1  6  0  0  0
 17  9  1  1  0  0  0
 17 11  1  0  0  0  0
 17 22  1  0  0  0  0
 18 19  1  6  0  0  0
 18 20  1  0  0  0  0
 19  3  1  0  0  0  0
 20 13  1  1  0  0  0
 20 21  1  0  0  0  0
 21 15  1  6  0  0  0
 21 22  1  0  0  0  0
 22  6  1  1  0  0  0
M  END
>  <CHROM.1>
156.19754947,109.49170760,-59.04965282,19.15897297,13.49893277,38.17270158
-0.88538170,0.93529798,-1.58916562

>  <Name>
2et8_lig

>  <RI>
0

>  <Rbt.Current_Directory>
/home/itssahil/PROJECTS/Mol_Feturizer/New_Systems/rnas/2et8

>  <Rbt.Executable>
rbdock ($Id: //depot/dev/client3/rdock/2013.1/src/exe/rbdock.cxx#4 $)

>  <Rbt.Library>
libRbt.so (2013.1, Build901 2013/11/27)

>  <Rbt.Parameter_File>
/export/apps/rDock/src/rDock_2013.1_src/data/scripts/dock_solv.prm

>  <Rbt.Receptor>
prm/pocket_docking_5.prm

>  <SCORE>
-10.6262

>  <SCORE.INTER>
-12.9765

>  <SCORE.INTER.CONST>
1

>  <SCORE.INTER.POLAR>
-0.95409

>  <SCORE.INTER.ROT>
3

>  <SCORE.INTER.SOLV>
13.3746

>  <SCORE.INTER.VDW>
-15.5289

>  <SCORE.INTER.norm>
-0.589839

>  <SCORE.INTRA>
2.3502

>  <SCORE.INTRA.DIHEDRAL>
4.09225

>  <SCORE.INTRA.DIHEDRAL.0>
4.99603

>  <SCORE.INTRA.POLAR>
0

>  <SCORE.INTRA.POLAR.0>
0

>  <SCORE.INTRA.REPUL>
0

>  <SCORE.INTRA.REPUL.0>
0

>  <SCORE.INTRA.SOLV>
2.44269

>  <SCORE.INTRA.SOLV.lig_0>
-74.884

>  <SCORE.INTRA.VDW>
-0.917262

>  <SCORE.INTRA.VDW.0>
-0.858933

>  <SCORE.INTRA.norm>
0.106827

>  <SCORE.RESTR>
1.8642e-05

>  <SCORE.RESTR.CAVITY>
1.8642e-05

>  <SCORE.RESTR.norm>
8.47363e-07

>  <SCORE.SYSTEM>
0

>  <SCORE.SYSTEM.CONST>
0

>  <SCORE.SYSTEM.DIHEDRAL>
0

>  <SCORE.SYSTEM.SOLV>
0

>  <SCORE.SYSTEM.norm>
0

>  <SCORE.heavy>
22

>  <SCORE.norm>
-0.48301

>  <RMSD>
6.310

$$$$
2et8_lig
 OpenBabel11021811433D
libRbt.so/2013.1/901 2013/11/27
 22 23  0  0  0  0  0  0  0  0999 V2000
   22.1819    9.3297   41.7519 N   0  0  0  0  0  0  0  0  0  0  0  0
   21.7668   12.3316   37.8245 N   0  0  0  0  0  0  0  0  0  0  0  0
   18.8788   14.2652   34.0914 N   0  0  0  0  0  0  0  0  0  0  0  0
   18.9918   13.0909   41.8056 O   0  0  0  0  0  0  0  0  0  0  0  0
   19.6048   12.0990   40.9455 C   0  0  2  0  0  0  0  0  0  0  0  0
   19.1338   16.4452   39.7456 N   0  0  0  0  0  0  0  0  0  0  0  0
   19.9194   10.5448   42.8663 O   0  0  0  0  0  0  0  0  0  0  0  0
   20.5950   11.2123   41.7930 C   0  0  1  0  0  0  0  0  0  0  0  0
   19.5235   13.5644   39.0756 O   0  0  0  0  0  0  0  0  0  0  0  0
   21.2392   10.1589   40.9257 C   0  0  1  0  0  0  0  0  0  0  0  0
   19.7979   14.0785   36.8479 O   0  0  0  0  0  0  0  0  0  0  0  0
   21.9931   10.8480   39.7652 C   0  0  0  0  0  0  0  0  0  0  0  0
   16.2568   14.7631   36.2883 O   0  0  0  0  0  0  0  0  0  0  0  0
   20.9667   11.6913   38.9536 C   0  0  1  0  0  0  0  0  0  0  0  0
   16.8786   16.8088   38.0954 O   0  0  0  0  0  0  0  0  0  0  0  0
   20.4187   12.8082   39.7915 C   0  0  2  0  0  0  0  0  0  0  0  0
   19.9543   14.6126   38.2711 C   0  0  1  0  0  0  0  0  0  0  0  0
   18.3781   13.7825   36.4844 C   0  0  2  0  0  0  0  0  0  0  0  0
   18.2844   13.2754   35.0304 C   0  0  0  0  0  0  0  0  0  0  0  0
   17.5761   15.0431   36.6124 C   0  0  2  0  0  0  0  0  0  0  0  0
   17.6382   15.5947   38.0072 C   0  0  1  0  0  0  0  0  0  0  0  0
   19.0597   15.8815   38.3499 C   0  0  1  0  0  0  0  0  0  0  0  0
  5  4  1  1  0  0  0
  5  8  1  0  0  0  0
  5 16  1  0  0  0  0
  8  7  1  1  0  0  0
  8 10  1  0  0  0  0
 10  1  1  1  0  0  0
 10 12  1  0  0  0  0
 11 18  1  0  0  0  0
 12 14  1  0  0  0  0
 14  2  1  6  0  0  0
 14 16  1  0  0  0  0
 16  9  1  6  0  0  0
 17  9  1  1  0  0  0
 17 11  1  0  0  0  0
 17 22  1  0  0  0  0
 18 19  1  6  0  0  0
 18 20  1  0  0  0  0
 19  3  1  0  0  0  0
 20 13  1  1  0  0  0
 20 21  1  0  0  0  0
 21 15  1  6  0  0  0
 21 22  1  0  0  0  0
 22  6  1  1  0  0  0
M  END
>  <CHROM.1>
160.01746938,106.36618902,-56.67201166,19.46422597,13.30306683,38.79448916
-0.76671634,0.92860668,-1.52982137

>  <Name>
2et8_lig

>  <RI>
0

>  <Rbt.Current_Directory>
/home/itssahil/PROJECTS/Mol_Feturizer/New_Systems/rnas/2et8

>  <Rbt.Executable>
rbdock ($Id: //depot/dev/client3/rdock/2013.1/src/exe/rbdock.cxx#4 $)

>  <Rbt.Library>
libRbt.so (2013.1, Build901 2013/11/27)

>  <Rbt.Parameter_File>
/export/apps/rDock/src/rDock_2013.1_src/data/scripts/dock_solv.prm

>  <Rbt.Receptor>
prm/pocket_docking_7.prm

>  <SCORE>
-11.2414

>  <SCORE.INTER>
-13.2021

>  <SCORE.INTER.CONST>
1

>  <SCORE.INTER.POLAR>
-0.684978

>  <SCORE.INTER.ROT>
3

>  <SCORE.INTER.SOLV>
14.2613

>  <SCORE.INTER.VDW>
-16.8719

>  <SCORE.INTER.norm>
-0.600096

>  <SCORE.INTRA>
1.96074

>  <SCORE.INTRA.DIHEDRAL>
3.15485

>  <SCORE.INTRA.DIHEDRAL.0>
4.99603

>  <SCORE.INTRA.POLAR>
0

>  <SCORE.INTRA.POLAR.0>
0

>  <SCORE.INTRA.REPUL>
0

>  <SCORE.INTRA.REPUL.0>
0

>  <SCORE.INTRA.SOLV>
2.42767

>  <SCORE.INTRA.SOLV.lig_0>
-74.884

>  <SCORE.INTRA.VDW>
-0.830514

>  <SCORE.INTRA.VDW.0>
-0.858933

>  <SCORE.INTRA.norm>
0.0891247

>  <SCORE.RESTR>
0

>  <SCORE.RESTR.CAVITY>
0

>  <SCORE.RESTR.norm>
0

>  <SCORE.SYSTEM>
0

>  <SCORE.SYSTEM.CONST>
0

>  <SCORE.SYSTEM.DIHEDRAL>
0

>  <SCORE.SYSTEM.SOLV>
0

>  <SCORE.SYSTEM.norm>
0

>  <SCORE.heavy>
22

>  <SCORE.norm>
-0.510971

>  <RMSD>
6.311

$$$$
2et8_lig
 OpenBabel11021811433D
libRbt.so/2013.1/901 2013/11/27
 22 23  0  0  0  0  0  0  0  0999 V2000
   21.9069    9.6190   41.8174 N   0  0  0  0  0  0  0  0  0  0  0  0
   21.5096   12.3178   37.6741 N   0  0  0  0  0  0  0  0  0  0  0  0
   18.7798   14.0779   33.8306 N   0  0  0  0  0  0  0  0  0  0  0  0
   18.8469   13.4828   41.6338 O   0  0  0  0  0  0  0  0  0  0  0  0
   19.4077   12.4058   40.8433 C   0  0  2  0  0  0  0  0  0  0  0  0
   18.9316   16.6425   39.3245 N   0  0  0  0  0  0  0  0  0  0  0  0
   19.7107   10.9962   42.8744 O   0  0  0  0  0  0  0  0  0  0  0  0
   20.3854   11.5538   41.7395 C   0  0  1  0  0  0  0  0  0  0  0  0
   19.3360   13.7226   38.8656 O   0  0  0  0  0  0  0  0  0  0  0  0
   20.9753   10.4139   40.9461 C   0  0  1  0  0  0  0  0  0  0  0  0
   19.6551   14.0804   36.6133 O   0  0  0  0  0  0  0  0  0  0  0  0
   21.7270   10.9833   39.7211 C   0  0  0  0  0  0  0  0  0  0  0  0
   16.1257   14.7176   35.9361 O   0  0  0  0  0  0  0  0  0  0  0  0
   20.7126   11.7962   38.8647 C   0  0  1  0  0  0  0  0  0  0  0  0
   16.7100   16.8857   37.6079 O   0  0  0  0  0  0  0  0  0  0  0  0
   20.2204   12.9937   39.6221 C   0  0  2  0  0  0  0  0  0  0  0  0
   19.7825   14.7129   37.9985 C   0  0  1  0  0  0  0  0  0  0  0  0
   18.2431   13.7570   36.2430 C   0  0  2  0  0  0  0  0  0  0  0  0
   18.1790   13.1493   34.8263 C   0  0  0  0  0  0  0  0  0  0  0  0
   17.4381   15.0220   36.2663 C   0  0  2  0  0  0  0  0  0  0  0  0
   17.4718   15.6698   37.6201 C   0  0  1  0  0  0  0  0  0  0  0  0
   18.8860   15.9825   37.9705 C   0  0  1  0  0  0  0  0  0  0  0  0
  5  4  1  1  0  0  0
  5  8  1  0  0  0  0
  5 16  1  0  0  0  0
  8  7  1  1  0  0  0
  8 10  1  0  0  0  0
 10  1  1  1  0  0  0
 10 12  1  0  0  0  0
 11 18  1  0  0  0  0
 12 14  1  0  0  0  0
 14  2  1  6  0  0  0
 14 16  1  0  0  0  0
 16  9  1  6  0  0  0
 17  9  1  1  0  0  0
 17 11  1  0  0  0  0
 17 22  1  0  0  0  0
 18 19  1  6  0  0  0
 18 20  1  0  0  0  0
 19  3  1  0  0  0  0
 20 13  1  1  0  0  0
 20 21  1  0  0  0  0
 21 15  1  6  0  0  0
 21 22  1  0  0  0  0
 22  6  1  1  0  0  0
M  END
>  <CHROM.1>
158.33921452,104.47462838,-57.22703201,19.27904391,13.42948145,38.58921801
-0.77300010,0.94852237,-1.60063824

>  <Name>
2et8_lig

>  <RI>
3.42619e+07

>  <Rbt.Current_Directory>
/home/itssahil/PROJECTS/Mol_Feturizer/New_Systems/rnas/2et8

>  <Rbt.Executable>
rbdock ($Id: //depot/dev/client3/rdock/2013.1/src/exe/rbdock.cxx#4 $)

>  <Rbt.Library>
libRbt.so (2013.1, Build901 2013/11/27)

>  <Rbt.Parameter_File>
/export/apps/rDock/src/rDock_2013.1_src/data/scripts/dock_solv.prm

>  <Rbt.Receptor>
prm/pocket_docking_4.prm

>  <SCORE>
-12.0151

>  <SCORE.INTER>
-14.0196

>  <SCORE.INTER.CONST>
1

>  <SCORE.INTER.POLAR>
-0.959166

>  <SCORE.INTER.ROT>
3

>  <SCORE.INTER.SOLV>
13.4475

>  <SCORE.INTER.VDW>
-16.2317

>  <SCORE.INTER.norm>
-0.637255

>  <SCORE.INTRA>
2.00453

>  <SCORE.INTRA.DIHEDRAL>
3.17378

>  <SCORE.INTRA.DIHEDRAL.0>
4.99603

>  <SCORE.INTRA.POLAR>
0

>  <SCORE.INTRA.POLAR.0>
0

>  <SCORE.INTRA.REPUL>
0

>  <SCORE.INTRA.REPUL.0>
0

>  <SCORE.INTRA.SOLV>
2.54785

>  <SCORE.INTRA.SOLV.lig_0>
-74.884

>  <SCORE.INTRA.VDW>
-0.856284

>  <SCORE.INTRA.VDW.0>
-0.858933

>  <SCORE.INTRA.norm>
0.0911149

>  <SCORE.RESTR>
0

>  <SCORE.RESTR.CAVITY>
0

>  <SCORE.RESTR.norm>
0

>  <SCORE.SYSTEM>
0

>  <SCORE.SYSTEM.CONST>
0

>  <SCORE.SYSTEM.DIHEDRAL>
0

>  <SCORE.SYSTEM.SOLV>
0

>  <SCORE.SYSTEM.norm>
0

>  <SCORE.heavy>
22

>  <SCORE.norm>
-0.54614

>  <RMSD>
6.315

$$$$
2et8_lig
 OpenBabel11021811433D
libRbt.so/2013.1/901 2013/11/27
 22 23  0  0  0  0  0  0  0  0999 V2000
   21.5371    9.9202   41.9524 N   0  0  0  0  0  0  0  0  0  0  0  0
   21.4834   12.3195   37.6110 N   0  0  0  0  0  0  0  0  0  0  0  0
   23.0211   16.6331   36.5806 N   0  0  0  0  0  0  0  0  0  0  0  0
   18.5556   13.7896   41.2706 O   0  0  0  0  0  0  0  0  0  0  0  0
   19.1569   12.6536   40.6018 C   0  0  2  0  0  0  0  0  0  0  0  0
   16.6865   14.9787   37.5344 N   0  0  0  0  0  0  0  0  0  0  0  0
   19.2898   11.3901   42.7442 O   0  0  0  0  0  0  0  0  0  0  0  0
   20.0539   11.8587   41.6258 C   0  0  1  0  0  0  0  0  0  0  0  0
   19.2494   13.8263   38.5361 O   0  0  0  0  0  0  0  0  0  0  0  0
   20.6834   10.6594   40.9606 C   0  0  1  0  0  0  0  0  0  0  0  0
   20.1008   15.9345   38.9011 O   0  0  0  0  0  0  0  0  0  0  0  0
   21.5310   11.1327   39.7575 C   0  0  0  0  0  0  0  0  0  0  0  0
   20.6363   16.6290   35.3582 O   0  0  0  0  0  0  0  0  0  0  0  0
   20.5939   11.8918   38.7732 C   0  0  1  0  0  0  0  0  0  0  0  0
   17.8451   16.4181   35.4066 O   0  0  0  0  0  0  0  0  0  0  0  0
   20.0652   13.1450   39.4056 C   0  0  2  0  0  0  0  0  0  0  0  0
   18.8137   15.1144   38.8237 C   0  0  1  0  0  0  0  0  0  0  0  0
   20.8429   15.9863   37.6042 C   0  0  2  0  0  0  0  0  0  0  0  0
   22.1140   16.8501   37.7403 C   0  0  0  0  0  0  0  0  0  0  0  0
   19.9508   16.5946   36.5636 C   0  0  2  0  0  0  0  0  0  0  0  0
   18.6865   15.8035   36.3933 C   0  0  1  0  0  0  0  0  0  0  0  0
   17.9633   15.7629   37.6955 C   0  0  1  0  0  0  0  0  0  0  0  0
  5  4  1  1  0  0  0
  5  8  1  0  0  0  0
  5 16  1  0  0  0  0
  8  7  1  1  0  0  0
  8 10  1  0  0  0  0
 10  1  1  1  0  0  0
 10 12  1  0  0  0  0
 11 18  1  0  0  0  0
 12 14  1  0  0  0  0
 14  2  1  6  0  0  0
 14 16  1  0  0  0  0
 16  9  1  6  0  0  0
 17  9  1  6  0  0  0
 17 11  1  0  0  0  0
 17 22  1  0  0  0  0
 18 19  1  1  0  0  0
 18 20  1  0  0  0  0
 19  3  1  0  0  0  0
 20 13  1  6  0  0  0
 20 21  1  0  0  0  0
 21 15  1  6  0  0  0
 21 22  1  0  0  0  0
 22  6  1  6  0  0  0
M  END
>  <CHROM.1>
75.94878918,61.88224040,165.85312964,19.93118866,14.08562194,38.71538340
-1.49708265,0.18505331,-0.76821272

>  <Name>
2et8_lig

>  <RI>
3.42619e+07

>  <Rbt.Current_Directory>
/home/itssahil/PROJECTS/Mol_Feturizer/New_Systems/rnas/2et8

>  <Rbt.Executable>
rbdock ($Id: //depot/dev/client3/rdock/2013.1/src/exe/rbdock.cxx#4 $)

>  <Rbt.Library>
libRbt.so (2013.1, Build901 2013/11/27)

>  <Rbt.Parameter_File>
/export/apps/rDock/src/rDock_2013.1_src/data/scripts/dock_solv.prm

>  <Rbt.Receptor>
prm/pocket_docking_4.prm

>  <SCORE>
-12.4378

>  <SCORE.INTER>
-10.9878

>  <SCORE.INTER.CONST>
1

>  <SCORE.INTER.POLAR>
-0.958359

>  <SCORE.INTER.ROT>
3

>  <SCORE.INTER.SOLV>
14.7504

>  <SCORE.INTER.VDW>
-14.6475

>  <SCORE.INTER.norm>
-0.499446

>  <SCORE.INTRA>
-1.45002

>  <SCORE.INTRA.DIHEDRAL>
-2.94696

>  <SCORE.INTRA.DIHEDRAL.0>
4.99603

>  <SCORE.INTRA.POLAR>
0

>  <SCORE.INTRA.POLAR.0>
0

>  <SCORE.INTRA.REPUL>
0

>  <SCORE.INTRA.REPUL.0>
0

>  <SCORE.INTRA.SOLV>
0.424742

>  <SCORE.INTRA.SOLV.lig_0>
-74.884

>  <SCORE.INTRA.VDW>
-0.188914

>  <SCORE.INTRA.VDW.0>
-0.858933

>  <SCORE.INTRA.norm>
-0.06591

>  <SCORE.RESTR>
0

>  <SCORE.RESTR.CAVITY>
0

>  <SCORE.RESTR.norm>
0

>  <SCORE.SYSTEM>
0

>  <SCORE.SYSTEM.CONST>
0

>  <SCORE.SYSTEM.DIHEDRAL>
0

>  <SCORE.SYSTEM.SOLV>
0

>  <SCORE.SYSTEM.norm>
0

>  <SCORE.heavy>
22

>  <SCORE.norm>
-0.565356

>  <RMSD>
6.320

$$$$
2et8_lig
 OpenBabel11021811433D
libRbt.so/2013.1/901 2013/11/27
 22 23  0  0  0  0  0  0  0  0999 V2000
   21.0045   13.6274   36.4343 N   0  0  0  0  0  0  0  0  0  0  0  0
   23.4533   11.3587   40.1036 N   0  0  0  0  0  0  0  0  0  0  0  0
   23.3659    7.0034   41.8756 N   0  0  0  0  0  0  0  0  0  0  0  0
   18.6570   12.3108   40.5673 O   0  0  0  0  0  0  0  0  0  0  0  0
   19.9262   12.7822   40.0515 C   0  0  2  0  0  0  0  0  0  0  0  0
   20.2548   12.1810   44.5259 N   0  0  0  0  0  0  0  0  0  0  0  0
   18.7965   13.9001   38.1337 O   0  0  0  0  0  0  0  0  0  0  0  0
   19.8209   12.9629   38.4890 C   0  0  1  0  0  0  0  0  0  0  0  0
   21.1284   11.6067   41.7318 O   0  0  0  0  0  0  0  0  0  0  0  0
   21.1258   13.4676   37.9238 C   0  0  1  0  0  0  0  0  0  0  0  0
   20.4300    9.4206   41.9204 O   0  0  0  0  0  0  0  0  0  0  0  0
   22.2517   12.4681   38.2751 C   0  0  0  0  0  0  0  0  0  0  0  0
   23.2152    8.4287   44.0606 O   0  0  0  0  0  0  0  0  0  0  0  0
   22.3232   12.3437   39.8251 C   0  0  1  0  0  0  0  0  0  0  0  0
   21.9304   10.2661   45.7371 O   0  0  0  0  0  0  0  0  0  0  0  0
   21.0647   11.7323   40.3658 C   0  0  2  0  0  0  0  0  0  0  0  0
   20.1959   10.8440   42.4248 C   0  0  1  0  0  0  0  0  0  0  0  0
   21.7877    8.8936   42.2588 C   0  0  2  0  0  0  0  0  0  0  0  0
   21.9510    7.4467   41.7488 C   0  0  0  0  0  0  0  0  0  0  0  0
   21.9500    8.9049   43.7496 C   0  0  2  0  0  0  0  0  0  0  0  0
   21.7889   10.2884   44.3093 C   0  0  1  0  0  0  0  0  0  0  0  0
   20.4318   10.7953   43.9605 C   0  0  1  0  0  0  0  0  0  0  0  0
  5  4  1  6  0  0  0
  5  8  1  0  0  0  0
  5 16  1  0  0  0  0
  8  7  1  1  0  0  0
  8 10  1  0  0  0  0
 10  1  1  6  0  0  0
 10 12  1  0  0  0  0
 11 18  1  0  0  0  0
 12 14  1  0  0  0  0
 14  2  1  6  0  0  0
 14 16  1  0  0  0  0
 16  9  1  1  0  0  0
 17  9  1  6  0  0  0
 17 11  1  0  0  0  0
 17 22  1  0  0  0  0
 18 19  1  1  0  0  0
 18 20  1  0  0  0  0
 19  3  1  0  0  0  0
 20 13  1  6  0  0  0
 20 21  1  0  0  0  0
 21 15  1  1  0  0  0
 21 22  1  0  0  0  0
 22  6  1  6  0  0  0
M  END
>  <CHROM.1>
78.03105981,64.21667310,170.36211898,21.20610774,11.03646870,41.32089451
-1.91723697,-0.83982810,1.94888552

>  <Name>
2et8_lig

>  <RI>
3.14397e+07

>  <Rbt.Current_Directory>
/home/itssahil/PROJECTS/Mol_Feturizer/New_Systems/rnas/2et8

>  <Rbt.Executable>
rbdock ($Id: //depot/dev/client3/rdock/2013.1/src/exe/rbdock.cxx#4 $)

>  <Rbt.Library>
libRbt.so (2013.1, Build901 2013/11/27)

>  <Rbt.Parameter_File>
/export/apps/rDock/src/rDock_2013.1_src/data/scripts/dock_solv.prm

>  <Rbt.Receptor>
prm/pocket_docking_6.prm

>  <SCORE>
-14.6713

>  <SCORE.INTER>
-14.0606

>  <SCORE.INTER.CONST>
1

>  <SCORE.INTER.POLAR>
-1.3476

>  <SCORE.INTER.ROT>
3

>  <SCORE.INTER.SOLV>
15.8134

>  <SCORE.INTER.VDW>
-15.7529

>  <SCORE.INTER.norm>
-0.63912

>  <SCORE.INTRA>
-1.30949

>  <SCORE.INTRA.DIHEDRAL>
-2.94506

>  <SCORE.INTRA.DIHEDRAL.0>
4.99603

>  <SCORE.INTRA.POLAR>
0

>  <SCORE.INTRA.POLAR.0>
0

>  <SCORE.INTRA.REPUL>
0

>  <SCORE.INTRA.REPUL.0>
0

>  <SCORE.INTRA.SOLV>
0.703393

>  <SCORE.INTRA.SOLV.lig_0>
-74.884

>  <SCORE.INTRA.VDW>
-0.188654

>  <SCORE.INTRA.VDW.0>
-0.858933

>  <SCORE.INTRA.norm>
-0.0595222

>  <SCORE.RESTR>
0.69882

>  <SCORE.RESTR.CAVITY>
0.69882

>  <SCORE.RESTR.norm>
0.0317645

>  <SCORE.SYSTEM>
0

>  <SCORE.SYSTEM.CONST>
0

>  <SCORE.SYSTEM.DIHEDRAL>
0

>  <SCORE.SYSTEM.SOLV>
0

>  <SCORE.SYSTEM.norm>
0

>  <SCORE.heavy>
22

>  <SCORE.norm>
-0.666877

>  <RMSD>
6.329

$$$$
2et8_lig
 OpenBabel11021811433D
libRbt.so/2013.1/901 2013/11/27
 22 23  0  0  0  0  0  0  0  0999 V2000
   18.9659   11.9295   41.3779 N   0  0  0  0  0  0  0  0  0  0  0  0
   18.4390   16.1613   38.8437 N   0  0  0  0  0  0  0  0  0  0  0  0
   22.1831   18.2967   33.3594 N   0  0  0  0  0  0  0  0  0  0  0  0
   21.4677   12.6651   37.1915 O   0  0  0  0  0  0  0  0  0  0  0  0
   20.9388   13.3349   38.3624 C   0  0  2  0  0  0  0  0  0  0  0  0
   17.8341   14.9893   35.9963 N   0  0  0  0  0  0  0  0  0  0  0  0
   21.1016   11.2422   39.7033 O   0  0  0  0  0  0  0  0  0  0  0  0
   20.2101   12.2823   39.2822 C   0  0  1  0  0  0  0  0  0  0  0  0
   20.5679   15.3385   37.1383 O   0  0  0  0  0  0  0  0  0  0  0  0
   19.6601   12.9491   40.5191 C   0  0  1  0  0  0  0  0  0  0  0  0
   20.9862   17.0912   35.7044 O   0  0  0  0  0  0  0  0  0  0  0  0
   18.6787   14.0675   40.0994 C   0  0  0  0  0  0  0  0  0  0  0  0
   21.3944   14.9541   32.7740 O   0  0  0  0  0  0  0  0  0  0  0  0
   19.4541   15.0848   39.2122 C   0  0  1  0  0  0  0  0  0  0  0  0
   18.6990   14.4798   33.3630 O   0  0  0  0  0  0  0  0  0  0  0  0
   19.8960   14.4412   37.9314 C   0  0  2  0  0  0  0  0  0  0  0  0
   19.8859   16.3297   36.4425 C   0  0  1  0  0  0  0  0  0  0  0  0
   21.7109   16.2511   34.7022 C   0  0  2  0  0  0  0  0  0  0  0  0
   22.7866   17.0827   33.9731 C   0  0  0  0  0  0  0  0  0  0  0  0
   20.7224   15.7445   33.6948 C   0  0  2  0  0  0  0  0  0  0  0  0
   19.6392   14.9350   34.3467 C   0  0  1  0  0  0  0  0  0  0  0  0
   18.9309   15.7890   35.3415 C   0  0  1  0  0  0  0  0  0  0  0  0
  5  4  1  6  0  0  0
  5  8  1  0  0  0  0
  5 16  1  0  0  0  0
  8  7  1  1  0  0  0
  8 10  1  0  0  0  0
 10  1  1  1  0  0  0
 10 12  1  0  0  0  0
 11 18  1  0  0  0  0
 12 14  1  0  0  0  0
 14  2  1  6  0  0  0
 14 16  1  0  0  0  0
 16  9  1  6  0  0  0
 17  9  1  6  0  0  0
 17 11  1  0  0  0  0
 17 22  1  0  0  0  0
 18 19  1  6  0  0  0
 18 20  1  0  0  0  0
 19  3  1  0  0  0  0
 20 13  1  6  0  0  0
 20 21  1  0  0  0  0
 21 15  1  6  0  0  0
 21 22  1  0  0  0  0
 22  6  1  1  0  0  0
M  END
>  <CHROM.1>
170.78046026,179.93695345,-55.02020268,20.21130991,14.77611856,36.75167862
1.84047461,-0.80037459,2.29133456

>  <Name>
2et8_lig

>  <RI>
0

>  <Rbt.Current_Directory>
/home/itssahil/PROJECTS/Mol_Feturizer/New_Systems/rnas/2et8

>  <Rbt.Executable>
rbdock ($Id: //depot/dev/client3/rdock/2013.1/src/exe/rbdock.cxx#4 $)

>  <Rbt.Library>
libRbt.so (2013.1, Build901 2013/11/27)

>  <Rbt.Parameter_File>
/export/apps/rDock/src/rDock_2013.1_src/data/scripts/dock_solv.prm

>  <Rbt.Receptor>
prm/pocket_docking_5.prm

>  <SCORE>
-12.4128

>  <SCORE.INTER>
-12.2225

>  <SCORE.INTER.CONST>
1

>  <SCORE.INTER.POLAR>
-1.68028

>  <SCORE.INTER.ROT>
3

>  <SCORE.INTER.SOLV>
13.2781

>  <SCORE.INTER.VDW>
-12.5734

>  <SCORE.INTER.norm>
-0.555568

>  <SCORE.INTRA>
-0.190266

>  <SCORE.INTRA.DIHEDRAL>
-4.31181

>  <SCORE.INTRA.DIHEDRAL.0>
4.99603

>  <SCORE.INTRA.POLAR>
0

>  <SCORE.INTRA.POLAR.0>
0

>  <SCORE.INTRA.REPUL>
0

>  <SCORE.INTRA.REPUL.0>
0

>  <SCORE.INTRA.SOLV>
4.56178

>  <SCORE.INTRA.SOLV.lig_0>
-74.884

>  <SCORE.INTRA.VDW>
-0.315249

>  <SCORE.INTRA.VDW.0>
-0.858933

>  <SCORE.INTRA.norm>
-0.00864844

>  <SCORE.RESTR>
0

>  <SCORE.RESTR.CAVITY>
0

>  <SCORE.RESTR.norm>
0

>  <SCORE.SYSTEM>
0

>  <SCORE.SYSTEM.CONST>
0

>  <SCORE.SYSTEM.DIHEDRAL>
0

>  <SCORE.SYSTEM.SOLV>
0

>  <SCORE.SYSTEM.norm>
0

>  <SCORE.heavy>
22

>  <SCORE.norm>
-0.564217

>  <RMSD>
6.333

$$$$
2et8_lig
 OpenBabel11021811433D
libRbt.so/2013.1/901 2013/11/27
 22 23  0  0  0  0  0  0  0  0999 V2000
   19.7517    9.7796   42.2992 N   0  0  0  0  0  0  0  0  0  0  0  0
   18.5710   13.9957   39.9672 N   0  0  0  0  0  0  0  0  0  0  0  0
   19.2185   13.3154   34.0007 N   0  0  0  0  0  0  0  0  0  0  0  0
   22.6819   11.5895   38.7687 O   0  0  0  0  0  0  0  0  0  0  0  0
   21.7868   11.9678   39.8434 C   0  0  2  0  0  0  0  0  0  0  0  0
   23.1742   15.9037   37.7975 N   0  0  0  0  0  0  0  0  0  0  0  0
   22.2622    9.8483   41.0622 O   0  0  0  0  0  0  0  0  0  0  0  0
   21.2150   10.6688   40.5293 C   0  0  1  0  0  0  0  0  0  0  0  0
   21.1174   13.9360   38.6906 O   0  0  0  0  0  0  0  0  0  0  0  0
   20.2887   11.0314   41.6639 C   0  0  1  0  0  0  0  0  0  0  0  0
   20.7531   13.2700   36.5166 O   0  0  0  0  0  0  0  0  0  0  0  0
   19.1350   11.9041   41.1185 C   0  0  0  0  0  0  0  0  0  0  0  0
   18.9166   16.2911   35.6105 O   0  0  0  0  0  0  0  0  0  0  0  0
   19.7545   13.1775   40.4720 C   0  0  1  0  0  0  0  0  0  0  0  0
   21.4386   17.3838   36.1426 O   0  0  0  0  0  0  0  0  0  0  0  0
   20.5803   12.8146   39.2737 C   0  0  2  0  0  0  0  0  0  0  0  0
   21.7868   13.8599   37.4750 C   0  0  1  0  0  0  0  0  0  0  0  0
   19.5613   14.1517   36.3230 C   0  0  2  0  0  0  0  0  0  0  0  0
   18.5712   13.5151   35.3257 C   0  0  0  0  0  0  0  0  0  0  0  0
   20.0221   15.4698   35.7762 C   0  0  2  0  0  0  0  0  0  0  0  0
   21.0011   16.1356   36.6991 C   0  0  1  0  0  0  0  0  0  0  0  0
   22.1792   15.2412   36.8797 C   0  0  1  0  0  0  0  0  0  0  0  0
  5  4  1  6  0  0  0
  5  8  1  0  0  0  0
  5 16  1  0  0  0  0
  8  7  1  1  0  0  0
  8 10  1  0  0  0  0
 10  1  1  6  0  0  0
 10 12  1  0  0  0  0
 11 18  1  0  0  0  0
 12 14  1  0  0  0  0
 14  2  1  6  0  0  0
 14 16  1  0  0  0  0
 16  9  1  1  0  0  0
 17  9  1  1  0  0  0
 17 11  1  0  0  0  0
 17 22  1  0  0  0  0
 18 19  1  6  0  0  0
 18 20  1  0  0  0  0
 19  3  1  0  0  0  0
 20 13  1  1  0  0  0
 20 21  1  0  0  0  0
 21 15  1  6  0  0  0
 21 22  1  0  0  0  0
 22  6  1  1  0  0  0
M  END
>  <CHROM.1>
73.55297564,58.11422250,-60.28295397,20.64138382,13.43092709,38.25804880
1.51158819,0.34950727,2.31052558

>  <Name>
2et8_lig

>  <RI>
2.82936e+07

>  <Rbt.Current_Directory>
/home/itssahil/PROJECTS/Mol_Feturizer/New_Systems/rnas/2et8

>  <Rbt.Executable>
rbdock ($Id: //depot/dev/client3/rdock/2013.1/src/exe/rbdock.cxx#4 $)

>  <Rbt.Library>
libRbt.so (2013.1, Build901 2013/11/27)

>  <Rbt.Parameter_File>
/export/apps/rDock/src/rDock_2013.1_src/data/scripts/dock_solv.prm

>  <Rbt.Receptor>
prm/pocket_docking_8.prm

>  <SCORE>
-13.2981

>  <SCORE.INTER>
-11.599

>  <SCORE.INTER.CONST>
1

>  <SCORE.INTER.POLAR>
-1.10507

>  <SCORE.INTER.ROT>
3

>  <SCORE.INTER.SOLV>
16.6135

>  <SCORE.INTER.VDW>
-15.1869

>  <SCORE.INTER.norm>
-0.527226

>  <SCORE.INTRA>
-1.6991

>  <SCORE.INTRA.DIHEDRAL>
-3.94096

>  <SCORE.INTRA.DIHEDRAL.0>
4.99603

>  <SCORE.INTRA.POLAR>
0

>  <SCORE.INTRA.POLAR.0>
0

>  <SCORE.INTRA.REPUL>
0

>  <SCORE.INTRA.REPUL.0>
0

>  <SCORE.INTRA.SOLV>
0.746661

>  <SCORE.INTRA.SOLV.lig_0>
-74.884

>  <SCORE.INTRA.VDW>
-0.10195

>  <SCORE.INTRA.VDW.0>
-0.858933

>  <SCORE.INTRA.norm>
-0.0772317

>  <SCORE.RESTR>
0

>  <SCORE.RESTR.CAVITY>
0

>  <SCORE.RESTR.norm>
0

>  <SCORE.SYSTEM>
0

>  <SCORE.SYSTEM.CONST>
0

>  <SCORE.SYSTEM.DIHEDRAL>
0

>  <SCORE.SYSTEM.SOLV>
0

>  <SCORE.SYSTEM.norm>
0

>  <SCORE.heavy>
22

>  <SCORE.norm>
-0.604458

>  <RMSD>
6.335

$$$$
2et8_lig
 OpenBabel11021811433D
libRbt.so/2013.1/901 2013/11/27
 22 23  0  0  0  0  0  0  0  0999 V2000
   21.1443   10.8205   42.3450 N   0  0  0  0  0  0  0  0  0  0  0  0
   21.5950   12.0890   37.5705 N   0  0  0  0  0  0  0  0  0  0  0  0
   17.4800   13.0840   33.6094 N   0  0  0  0  0  0  0  0  0  0  0  0
   18.0303   14.0616   40.3141 O   0  0  0  0  0  0  0  0  0  0  0  0
   18.8107   12.8717   40.0411 C   0  0  2  0  0  0  0  0  0  0  0  0
   19.1119   16.1553   39.1721 N   0  0  0  0  0  0  0  0  0  0  0  0
   18.6990   12.1807   42.4315 O   0  0  0  0  0  0  0  0  0  0  0  0
   19.5922   12.4489   41.3433 C   0  0  1  0  0  0  0  0  0  0  0  0
   19.1390   13.5183   37.7773 O   0  0  0  0  0  0  0  0  0  0  0  0
   20.4045   11.2020   41.0936 C   0  0  1  0  0  0  0  0  0  0  0  0
   18.7660   14.5424   35.7489 O   0  0  0  0  0  0  0  0  0  0  0  0
   21.3929   11.4636   39.9340 C   0  0  0  0  0  0  0  0  0  0  0  0
   15.2577   15.2646   36.4496 O   0  0  0  0  0  0  0  0  0  0  0  0
   20.5683   11.8569   38.6737 C   0  0  1  0  0  0  0  0  0  0  0  0
   16.4901   16.8460   38.4034 O   0  0  0  0  0  0  0  0  0  0  0  0
   19.8565   13.1591   38.8918 C   0  0  2  0  0  0  0  0  0  0  0  0
   19.3643   14.7337   37.1420 C   0  0  1  0  0  0  0  0  0  0  0  0
   17.2893   14.3096   35.7709 C   0  0  2  0  0  0  0  0  0  0  0  0
   16.7430   14.1530   34.3366 C   0  0  0  0  0  0  0  0  0  0  0  0
   16.6262   15.4888   36.4177 C   0  0  2  0  0  0  0  0  0  0  0  0
   17.1270   15.7018   37.8167 C   0  0  1  0  0  0  0  0  0  0  0  0
   18.5988   15.9305   37.7730 C   0  0  1  0  0  0  0  0  0  0  0  0
  5  4  1  1  0  0  0
  5  8  1  0  0  0  0
  5 16  1  0  0  0  0
  8  7  1  1  0  0  0
  8 10  1  0  0  0  0
 10  1  1  1  0  0  0
 10 12  1  0  0  0  0
 11 18  1  0  0  0  0
 12 14  1  0  0  0  0
 14  2  1  6  0  0  0
 14 16  1  0  0  0  0
 16  9  1  6  0  0  0
 17  9  1  1  0  0  0
 17 11  1  0  0  0  0
 17 22  1  0  0  0  0
 18 19  1  6  0  0  0
 18 20  1  0  0  0  0
 19  3  1  0  0  0  0
 20 13  1  1  0  0  0
 20 21  1  0  0  0  0
 21 15  1  6  0  0  0
 21 22  1  0  0  0  0
 22  6  1  1  0  0  0
M  END
>  <CHROM.1>
123.15604544,161.01216283,54.54516027,18.68974889,13.74646660,38.32270360
-0.78946444,0.81923121,-1.63891118

>  <Name>
2et8_lig

>  <RI>
3.14397e+07

>  <Rbt.Current_Directory>
/home/itssahil/PROJECTS/Mol_Feturizer/New_Systems/rnas/2et8

>  <Rbt.Executable>
rbdock ($Id: //depot/dev/client3/rdock/2013.1/src/exe/rbdock.cxx#4 $)

>  <Rbt.Library>
libRbt.so (2013.1, Build901 2013/11/27)

>  <Rbt.Parameter_File>
/export/apps/rDock/src/rDock_2013.1_src/data/scripts/dock_solv.prm

>  <Rbt.Receptor>
prm/pocket_docking_6.prm

>  <SCORE>
-10.9533

>  <SCORE.INTER>
-12.6925

>  <SCORE.INTER.CONST>
1

>  <SCORE.INTER.POLAR>
-0.881181

>  <SCORE.INTER.ROT>
3

>  <SCORE.INTER.SOLV>
16.7138

>  <SCORE.INTER.VDW>
-16.6957

>  <SCORE.INTER.norm>
-0.576932

>  <SCORE.INTRA>
1.73923

>  <SCORE.INTRA.DIHEDRAL>
3.83666

>  <SCORE.INTRA.DIHEDRAL.0>
4.99603

>  <SCORE.INTRA.POLAR>
0

>  <SCORE.INTRA.POLAR.0>
0

>  <SCORE.INTRA.REPUL>
0

>  <SCORE.INTRA.REPUL.0>
0

>  <SCORE.INTRA.SOLV>
1.88224

>  <SCORE.INTRA.SOLV.lig_0>
-74.884

>  <SCORE.INTRA.VDW>
-1.12022

>  <SCORE.INTRA.VDW.0>
-0.858933

>  <SCORE.INTRA.norm>
0.0790561

>  <SCORE.RESTR>
0

>  <SCORE.RESTR.CAVITY>
0

>  <SCORE.RESTR.norm>
0

>  <SCORE.SYSTEM>
0

>  <SCORE.SYSTEM.CONST>
0

>  <SCORE.SYSTEM.DIHEDRAL>
0

>  <SCORE.SYSTEM.SOLV>
0

>  <SCORE.SYSTEM.norm>
0

>  <SCORE.heavy>
22

>  <SCORE.norm>
-0.497876

>  <RMSD>
6.340

$$$$
2et8_lig
 OpenBabel11021811433D
libRbt.so/2013.1/901 2013/11/27
 22 23  0  0  0  0  0  0  0  0999 V2000
   20.7206   10.1522   42.6347 N   0  0  0  0  0  0  0  0  0  0  0  0
   21.7707   11.7155   38.0454 N   0  0  0  0  0  0  0  0  0  0  0  0
   19.6284   12.5460   33.5402 N   0  0  0  0  0  0  0  0  0  0  0  0
   18.5379   14.1784   40.8039 O   0  0  0  0  0  0  0  0  0  0  0  0
   19.0575   12.8739   40.4467 C   0  0  2  0  0  0  0  0  0  0  0  0
   20.4979   16.4983   38.1490 N   0  0  0  0  0  0  0  0  0  0  0  0
   18.6305   12.0115   42.7440 O   0  0  0  0  0  0  0  0  0  0  0  0
   19.6347   12.1706   41.7340 C   0  0  1  0  0  0  0  0  0  0  0  0
   19.6768   13.6333   38.2809 O   0  0  0  0  0  0  0  0  0  0  0  0
   20.1713   10.8015   41.3955 C   0  0  1  0  0  0  0  0  0  0  0  0
   20.1154   13.3630   36.0366 O   0  0  0  0  0  0  0  0  0  0  0  0
   21.2719   10.9394   40.3186 C   0  0  0  0  0  0  0  0  0  0  0  0
   17.1530   15.2013   34.9569 O   0  0  0  0  0  0  0  0  0  0  0  0
   20.6433   11.6200   39.0676 C   0  0  1  0  0  0  0  0  0  0  0  0
   18.5695   17.2493   36.2362 O   0  0  0  0  0  0  0  0  0  0  0  0
   20.2188   13.0231   39.3854 C   0  0  2  0  0  0  0  0  0  0  0  0
   20.4888   14.1619   37.2845 C   0  0  1  0  0  0  0  0  0  0  0  0
   18.6945   13.5612   35.6157 C   0  0  2  0  0  0  0  0  0  0  0  0
   18.3890   12.7527   34.3377 C   0  0  0  0  0  0  0  0  0  0  0  0
   18.4752   15.0176   35.3337 C   0  0  2  0  0  0  0  0  0  0  0  0
   18.7694   15.8612   36.5401 C   0  0  1  0  0  0  0  0  0  0  0  0
   20.1879   15.6485   36.9436 C   0  0  1  0  0  0  0  0  0  0  0  0
  5  4  1  1  0  0  0
  5  8  1  0  0  0  0
  5 16  1  0  0  0  0
  8  7  1  1  0  0  0
  8 10  1  0  0  0  0
 10  1  1  1  0  0  0
 10 12  1  0  0  0  0
 11 18  1  0  0  0  0
 12 14  1  0  0  0  0
 14  2  1  6  0  0  0
 14 16  1  0  0  0  0
 16  9  1  6  0  0  0
 17  9  1  1  0  0  0
 17 11  1  0  0  0  0
 17 22  1  0  0  0  0
 18 19  1  6  0  0  0
 18 20  1  0  0  0  0
 19  3  1  0  0  0  0
 20 13  1  1  0  0  0
 20 21  1  0  0  0  0
 21 15  1  6  0  0  0
 21 22  1  0  0  0  0
 22  6  1  1  0  0  0
M  END
>  <CHROM.1>
166.25184451,118.39487909,-26.69572979,19.57200418,13.43921859,38.16772077
-1.05824906,1.21318373,-1.56202454

>  <Name>
2et8_lig

>  <RI>
3.14397e+07

>  <Rbt.Current_Directory>
/home/itssahil/PROJECTS/Mol_Feturizer/New_Systems/rnas/2et8

>  <Rbt.Executable>
rbdock ($Id: //depot/dev/client3/rdock/2013.1/src/exe/rbdock.cxx#4 $)

>  <Rbt.Library>
libRbt.so (2013.1, Build901 2013/11/27)

>  <Rbt.Parameter_File>
/export/apps/rDock/src/rDock_2013.1_src/data/scripts/dock_solv.prm

>  <Rbt.Receptor>
prm/pocket_docking_6.prm

>  <SCORE>
-11.8322

>  <SCORE.INTER>
-15.1482

>  <SCORE.INTER.CONST>
1

>  <SCORE.INTER.POLAR>
-1.86146

>  <SCORE.INTER.ROT>
3

>  <SCORE.INTER.SOLV>
17.2883

>  <SCORE.INTER.VDW>
-15.2567

>  <SCORE.INTER.norm>
-0.688552

>  <SCORE.INTRA>
3.31574

>  <SCORE.INTRA.DIHEDRAL>
6.18093

>  <SCORE.INTRA.DIHEDRAL.0>
4.99603

>  <SCORE.INTRA.POLAR>
0

>  <SCORE.INTRA.POLAR.0>
0

>  <SCORE.INTRA.REPUL>
0

>  <SCORE.INTRA.REPUL.0>
0

>  <SCORE.INTRA.SOLV>
1.58585

>  <SCORE.INTRA.SOLV.lig_0>
-74.884

>  <SCORE.INTRA.VDW>
-0.567651

>  <SCORE.INTRA.VDW.0>
-0.858933

>  <SCORE.INTRA.norm>
0.150715

>  <SCORE.RESTR>
0.000223278

>  <SCORE.RESTR.CAVITY>
0.000223278

>  <SCORE.RESTR.norm>
1.0149e-05

>  <SCORE.SYSTEM>
0

>  <SCORE.SYSTEM.CONST>
0

>  <SCORE.SYSTEM.DIHEDRAL>
0

>  <SCORE.SYSTEM.SOLV>
0

>  <SCORE.SYSTEM.norm>
0

>  <SCORE.heavy>
22

>  <SCORE.norm>
-0.537827

>  <RMSD>
6.365

$$$$
2et8_lig
 OpenBabel11021811433D
libRbt.so/2013.1/901 2013/11/27
 22 23  0  0  0  0  0  0  0  0999 V2000
   20.7277   10.1770   42.6507 N   0  0  0  0  0  0  0  0  0  0  0  0
   21.7788   11.7247   38.0564 N   0  0  0  0  0  0  0  0  0  0  0  0
   19.6285   12.5390   33.5322 N   0  0  0  0  0  0  0  0  0  0  0  0
   18.5032   14.1641   40.7851 O   0  0  0  0  0  0  0  0  0  0  0  0
   19.0406   12.8640   40.4383 C   0  0  2  0  0  0  0  0  0  0  0  0
   20.4616   16.4887   38.1528 N   0  0  0  0  0  0  0  0  0  0  0  0
   18.6141   12.0107   42.7392 O   0  0  0  0  0  0  0  0  0  0  0  0
   19.6208   12.1760   41.7326 C   0  0  1  0  0  0  0  0  0  0  0  0
   19.6601   13.6176   38.2706 O   0  0  0  0  0  0  0  0  0  0  0  0
   20.1759   10.8117   41.4051 C   0  0  1  0  0  0  0  0  0  0  0  0
   20.1038   13.3604   36.0257 O   0  0  0  0  0  0  0  0  0  0  0  0
   21.2795   10.9566   40.3321 C   0  0  0  0  0  0  0  0  0  0  0  0
   17.1304   15.1833   34.9500 O   0  0  0  0  0  0  0  0  0  0  0  0
   20.6481   11.6215   39.0741 C   0  0  1  0  0  0  0  0  0  0  0  0
   18.5310   17.2351   36.2405 O   0  0  0  0  0  0  0  0  0  0  0  0
   20.2047   13.0211   39.3812 C   0  0  2  0  0  0  0  0  0  0  0  0
   20.4698   14.1563   37.2778 C   0  0  1  0  0  0  0  0  0  0  0  0
   18.6821   13.5508   35.6037 C   0  0  2  0  0  0  0  0  0  0  0  0
   18.3841   12.7460   34.3216 C   0  0  0  0  0  0  0  0  0  0  0  0
   18.4533   15.0069   35.3279 C   0  0  2  0  0  0  0  0  0  0  0  0
   18.7399   15.8471   36.5385 C   0  0  1  0  0  0  0  0  0  0  0  0
   20.1593   15.6423   36.9432 C   0  0  1  0  0  0  0  0  0  0  0  0
  5  4  1  1  0  0  0
  5  8  1  0  0  0  0
  5 16  1  0  0  0  0
  8  7  1  1  0  0  0
  8 10  1  0  0  0  0
 10  1  1  1  0  0  0
 10 12  1  0  0  0  0
 11 18  1  0  0  0  0
 12 14  1  0  0  0  0
 14  2  1  6  0  0  0
 14 16  1  0  0  0  0
 16  9  1  6  0  0  0
 17  9  1  1  0  0  0
 17 11  1  0  0  0  0
 17 22  1  0  0  0  0
 18 19  1  6  0  0  0
 18 20  1  0  0  0  0
 19  3  1  0  0  0  0
 20 13  1  1  0  0  0
 20 21  1  0  0  0  0
 21 15  1  6  0  0  0
 21 22  1  0  0  0  0
 22  6  1  1  0  0  0
M  END
>  <CHROM.1>
165.91564850,119.22359898,-26.09846687,19.55777850,13.43535028,38.16517103
-1.06758811,1.20112242,-1.55494080

>  <Name>
2et8_lig

>  <RI>
2.82936e+07

>  <Rbt.Current_Directory>
/home/itssahil/PROJECTS/Mol_Feturizer/New_Systems/rnas/2et8

>  <Rbt.Executable>
rbdock ($Id: //depot/dev/client3/rdock/2013.1/src/exe/rbdock.cxx#4 $)

>  <Rbt.Library>
libRbt.so (2013.1, Build901 2013/11/27)

>  <Rbt.Parameter_File>
/export/apps/rDock/src/rDock_2013.1_src/data/scripts/dock_solv.prm

>  <Rbt.Receptor>
prm/pocket_docking_8.prm

>  <SCORE>
-11.8281

>  <SCORE.INTER>
-15.1986

>  <SCORE.INTER.CONST>
1

>  <SCORE.INTER.POLAR>
-1.85028

>  <SCORE.INTER.ROT>
3

>  <SCORE.INTER.SOLV>
17.2255

>  <SCORE.INTER.VDW>
-15.3067

>  <SCORE.INTER.norm>
-0.690847

>  <SCORE.INTRA>
3.3705

>  <SCORE.INTRA.DIHEDRAL>
6.31239

>  <SCORE.INTRA.DIHEDRAL.0>
4.99603

>  <SCORE.INTRA.POLAR>
0

>  <SCORE.INTRA.POLAR.0>
0

>  <SCORE.INTRA.REPUL>
0

>  <SCORE.INTRA.REPUL.0>
0

>  <SCORE.INTRA.SOLV>
1.57298

>  <SCORE.INTRA.SOLV.lig_0>
-74.884

>  <SCORE.INTRA.VDW>
-0.572181

>  <SCORE.INTRA.VDW.0>
-0.858933

>  <SCORE.INTRA.norm>
0.153205

>  <SCORE.RESTR>
0

>  <SCORE.RESTR.CAVITY>
0

>  <SCORE.RESTR.norm>
0

>  <SCORE.SYSTEM>
0

>  <SCORE.SYSTEM.CONST>
0

>  <SCORE.SYSTEM.DIHEDRAL>
0

>  <SCORE.SYSTEM.SOLV>
0

>  <SCORE.SYSTEM.norm>
0

>  <SCORE.heavy>
22

>  <SCORE.norm>
-0.537643

>  <RMSD>
6.366

$$$$
2et8_lig
 OpenBabel11021811433D
libRbt.so/2013.1/901 2013/11/27
 22 23  0  0  0  0  0  0  0  0999 V2000
   20.6860   10.1589   42.6626 N   0  0  0  0  0  0  0  0  0  0  0  0
   21.7793   11.7194   38.0825 N   0  0  0  0  0  0  0  0  0  0  0  0
   19.6539   12.5695   33.5392 N   0  0  0  0  0  0  0  0  0  0  0  0
   18.4943   14.1636   40.7956 O   0  0  0  0  0  0  0  0  0  0  0  0
   19.0284   12.8623   40.4479 C   0  0  2  0  0  0  0  0  0  0  0  0
   20.4924   16.4865   38.1840 N   0  0  0  0  0  0  0  0  0  0  0  0
   18.5803   12.0021   42.7421 O   0  0  0  0  0  0  0  0  0  0  0  0
   19.5954   12.1666   41.7438 C   0  0  1  0  0  0  0  0  0  0  0  0
   19.6679   13.6213   38.2879 O   0  0  0  0  0  0  0  0  0  0  0  0
   20.1467   10.8010   41.4152 C   0  0  1  0  0  0  0  0  0  0  0  0
   20.1229   13.3677   36.0449 O   0  0  0  0  0  0  0  0  0  0  0  0
   21.2591   10.9448   40.3513 C   0  0  0  0  0  0  0  0  0  0  0  0
   17.1702   15.2170   34.9573 O   0  0  0  0  0  0  0  0  0  0  0  0
   20.6404   11.6175   39.0912 C   0  0  1  0  0  0  0  0  0  0  0  0
   18.5790   17.2538   36.2626 O   0  0  0  0  0  0  0  0  0  0  0  0
   20.2012   13.0180   39.4003 C   0  0  2  0  0  0  0  0  0  0  0  0
   20.4877   14.1568   37.3016 C   0  0  1  0  0  0  0  0  0  0  0  0
   18.7054   13.5704   35.6150 C   0  0  2  0  0  0  0  0  0  0  0  0
   18.4087   12.7720   34.3286 C   0  0  0  0  0  0  0  0  0  0  0  0
   18.4895   15.0292   35.3425 C   0  0  2  0  0  0  0  0  0  0  0  0
   18.7753   15.8633   36.5574 C   0  0  1  0  0  0  0  0  0  0  0  0
   20.1907   15.6462   36.9699 C   0  0  1  0  0  0  0  0  0  0  0  0
  5  4  1  1  0  0  0
  5  8  1  0  0  0  0
  5 16  1  0  0  0  0
  8  7  1  1  0  0  0
  8 10  1  0  0  0  0
 10  1  1  1  0  0  0
 10 12  1  0  0  0  0
 11 18  1  0  0  0  0
 12 14  1  0  0  0  0
 14  2  1  6  0  0  0
 14 16  1  0  0  0  0
 16  9  1  6  0  0  0
 17  9  1  1  0  0  0
 17 11  1  0  0  0  0
 17 22  1  0  0  0  0
 18 19  1  6  0  0  0
 18 20  1  0  0  0  0
 19  3  1  0  0  0  0
 20 13  1  1  0  0  0
 20 21  1  0  0  0  0
 21 15  1  6  0  0  0
 21 22  1  0  0  0  0
 22  6  1  1  0  0  0
M  END
>  <CHROM.1>
166.09295317,119.27092251,-26.66197925,19.56513369,13.44042874,38.18069164
-1.08640312,1.20722801,-1.53368826

>  <Name>
2et8_lig

>  <RI>
3.14397e+07

>  <Rbt.Current_Directory>
/home/itssahil/PROJECTS/Mol_Feturizer/New_Systems/rnas/2et8

>  <Rbt.Executable>
rbdock ($Id: //depot/dev/client3/rdock/2013.1/src/exe/rbdock.cxx#4 $)

>  <Rbt.Library>
libRbt.so (2013.1, Build901 2013/11/27)

>  <Rbt.Parameter_File>
/export/apps/rDock/src/rDock_2013.1_src/data/scripts/dock_solv.prm

>  <Rbt.Receptor>
prm/pocket_docking_6.prm

>  <SCORE>
-11.8468

>  <SCORE.INTER>
-15.1729

>  <SCORE.INTER.CONST>
1

>  <SCORE.INTER.POLAR>
-1.84473

>  <SCORE.INTER.ROT>
3

>  <SCORE.INTER.SOLV>
17.2653

>  <SCORE.INTER.VDW>
-15.3212

>  <SCORE.INTER.norm>
-0.689676

>  <SCORE.INTRA>
3.32611

>  <SCORE.INTRA.DIHEDRAL>
6.2146

>  <SCORE.INTRA.DIHEDRAL.0>
4.99603

>  <SCORE.INTRA.POLAR>
0

>  <SCORE.INTRA.POLAR.0>
0

>  <SCORE.INTRA.REPUL>
0

>  <SCORE.INTRA.REPUL.0>
0

>  <SCORE.INTRA.SOLV>
1.57812

>  <SCORE.INTRA.SOLV.lig_0>
-74.884

>  <SCORE.INTRA.VDW>
-0.570252

>  <SCORE.INTRA.VDW.0>
-0.858933

>  <SCORE.INTRA.norm>
0.151187

>  <SCORE.RESTR>
0

>  <SCORE.RESTR.CAVITY>
0

>  <SCORE.RESTR.norm>
0

>  <SCORE.SYSTEM>
0

>  <SCORE.SYSTEM.CONST>
0

>  <SCORE.SYSTEM.DIHEDRAL>
0

>  <SCORE.SYSTEM.SOLV>
0

>  <SCORE.SYSTEM.norm>
0

>  <SCORE.heavy>
22

>  <SCORE.norm>
-0.538489

>  <RMSD>
6.376

$$$$
2et8_lig
 OpenBabel11021811433D
libRbt.so/2013.1/901 2013/11/27
 22 23  0  0  0  0  0  0  0  0999 V2000
   19.4343   10.1701   41.9931 N   0  0  0  0  0  0  0  0  0  0  0  0
   18.9216   14.3267   39.3346 N   0  0  0  0  0  0  0  0  0  0  0  0
   18.9745   13.0165   35.1238 N   0  0  0  0  0  0  0  0  0  0  0  0
   23.0747   11.7198   39.0483 O   0  0  0  0  0  0  0  0  0  0  0  0
   22.0053   12.1760   39.9130 C   0  0  2  0  0  0  0  0  0  0  0  0
   24.1248   15.7665   38.2386 N   0  0  0  0  0  0  0  0  0  0  0  0
   22.1382   10.0928   41.2718 O   0  0  0  0  0  0  0  0  0  0  0  0
   21.2528   10.9291   40.5163 C   0  0  1  0  0  0  0  0  0  0  0  0
   21.6626   14.1182   38.5858 O   0  0  0  0  0  0  0  0  0  0  0  0
   20.1405   11.3733   41.4340 C   0  0  1  0  0  0  0  0  0  0  0  0
   21.6730   13.5603   36.3517 O   0  0  0  0  0  0  0  0  0  0  0  0
   19.1557   12.2653   40.6438 C   0  0  0  0  0  0  0  0  0  0  0  0
   20.5276   16.8444   35.2456 O   0  0  0  0  0  0  0  0  0  0  0  0
   19.9460   13.4864   40.0892 C   0  0  1  0  0  0  0  0  0  0  0  0
   23.0115   17.5278   36.3414 O   0  0  0  0  0  0  0  0  0  0  0  0
   20.9723   13.0430   39.0893 C   0  0  2  0  0  0  0  0  0  0  0  0
   22.5554   13.9656   37.5317 C   0  0  1  0  0  0  0  0  0  0  0  0
   20.6899   14.6175   35.9633 C   0  0  2  0  0  0  0  0  0  0  0  0
   19.8511   14.1601   34.7519 C   0  0  0  0  0  0  0  0  0  0  0  0
   21.4420   15.8607   35.5923 C   0  0  2  0  0  0  0  0  0  0  0  0
   22.2900   16.3500   36.7303 C   0  0  1  0  0  0  0  0  0  0  0  0
   23.2609   15.2827   37.1025 C   0  0  1  0  0  0  0  0  0  0  0  0
  5  4  1  6  0  0  0
  5  8  1  0  0  0  0
  5 16  1  0  0  0  0
  8  7  1  1  0  0  0
  8 10  1  0  0  0  0
 10  1  1  6  0  0  0
 10 12  1  0  0  0  0
 11 18  1  0  0  0  0
 12 14  1  0  0  0  0
 14  2  1  6  0  0  0
 14 16  1  0  0  0  0
 16  9  1  1  0  0  0
 17  9  1  1  0  0  0
 17 11  1  0  0  0  0
 17 22  1  0  0  0  0
 18 19  1  6  0  0  0
 18 20  1  0  0  0  0
 19  3  1  0  0  0  0
 20 13  1  1  0  0  0
 20 21  1  0  0  0  0
 21 15  1  6  0  0  0
 21 22  1  0  0  0  0
 22  6  1  1  0  0  0
M  END
>  <CHROM.1>
73.32915693,65.82414749,66.82275346,21.25485439,13.67662088,38.20077487,1.72355283
0.36138624,2.27016936

>  <Name>
2et8_lig

>  <RI>
3.14397e+07

>  <Rbt.Current_Directory>
/home/itssahil/PROJECTS/Mol_Feturizer/New_Systems/rnas/2et8

>  <Rbt.Executable>
rbdock ($Id: //depot/dev/client3/rdock/2013.1/src/exe/rbdock.cxx#4 $)

>  <Rbt.Library>
libRbt.so (2013.1, Build901 2013/11/27)

>  <Rbt.Parameter_File>
/export/apps/rDock/src/rDock_2013.1_src/data/scripts/dock_solv.prm

>  <Rbt.Receptor>
prm/pocket_docking_6.prm

>  <SCORE>
-12.747

>  <SCORE.INTER>
-10.2836

>  <SCORE.INTER.CONST>
1

>  <SCORE.INTER.POLAR>
-0.738599

>  <SCORE.INTER.ROT>
3

>  <SCORE.INTER.SOLV>
19.4506

>  <SCORE.INTER.VDW>
-16.4772

>  <SCORE.INTER.norm>
-0.467434

>  <SCORE.INTRA>
-2.46347

>  <SCORE.INTRA.DIHEDRAL>
-3.65465

>  <SCORE.INTRA.DIHEDRAL.0>
4.99603

>  <SCORE.INTRA.POLAR>
0

>  <SCORE.INTRA.POLAR.0>
0

>  <SCORE.INTRA.REPUL>
0

>  <SCORE.INTRA.REPUL.0>
0

>  <SCORE.INTRA.SOLV>
-0.672441

>  <SCORE.INTRA.SOLV.lig_0>
-74.884

>  <SCORE.INTRA.VDW>
-0.299925

>  <SCORE.INTRA.VDW.0>
-0.858933

>  <SCORE.INTRA.norm>
-0.111976

>  <SCORE.RESTR>
0

>  <SCORE.RESTR.CAVITY>
0

>  <SCORE.RESTR.norm>
0

>  <SCORE.SYSTEM>
0

>  <SCORE.SYSTEM.CONST>
0

>  <SCORE.SYSTEM.DIHEDRAL>
0

>  <SCORE.SYSTEM.SOLV>
0

>  <SCORE.SYSTEM.norm>
0

>  <SCORE.heavy>
22

>  <SCORE.norm>
-0.57941

>  <RMSD>
6.379

$$$$
2et8_lig
 OpenBabel11021811433D
libRbt.so/2013.1/901 2013/11/27
 22 23  0  0  0  0  0  0  0  0999 V2000
   19.5511   10.1723   41.9592 N   0  0  0  0  0  0  0  0  0  0  0  0
   18.8512   14.3324   39.3494 N   0  0  0  0  0  0  0  0  0  0  0  0
   20.7119   14.0043   33.4291 N   0  0  0  0  0  0  0  0  0  0  0  0
   23.0428   11.8140   38.8868 O   0  0  0  0  0  0  0  0  0  0  0  0
   21.9984   12.2429   39.7948 C   0  0  2  0  0  0  0  0  0  0  0  0
   23.9785   15.9083   38.1691 N   0  0  0  0  0  0  0  0  0  0  0  0
   22.2263   10.1552   41.1339 O   0  0  0  0  0  0  0  0  0  0  0  0
   21.2955   10.9772   40.4185 C   0  0  1  0  0  0  0  0  0  0  0  0
   21.5650   14.1851   38.4945 O   0  0  0  0  0  0  0  0  0  0  0  0
   20.2105   11.3930   41.3812 C   0  0  1  0  0  0  0  0  0  0  0  0
   21.6395   13.5922   36.2707 O   0  0  0  0  0  0  0  0  0  0  0  0
   19.1778   12.2689   40.6352 C   0  0  0  0  0  0  0  0  0  0  0  0
   20.4099   16.8185   35.0874 O   0  0  0  0  0  0  0  0  0  0  0  0
   19.9209   13.5093   40.0586 C   0  0  1  0  0  0  0  0  0  0  0  0
   22.8470   17.6012   36.2209 O   0  0  0  0  0  0  0  0  0  0  0  0
   20.9168   13.0930   39.0171 C   0  0  2  0  0  0  0  0  0  0  0  0
   22.4838   14.0454   37.4611 C   0  0  1  0  0  0  0  0  0  0  0  0
   20.6303   14.6100   35.8451 C   0  0  2  0  0  0  0  0  0  0  0  0
   19.8320   14.1057   34.6250 C   0  0  0  0  0  0  0  0  0  0  0  0
   21.3488   15.8713   35.4685 C   0  0  2  0  0  0  0  0  0  0  0  0
   22.1567   16.4065   36.6149 C   0  0  1  0  0  0  0  0  0  0  0  0
   23.1543   15.3780   37.0242 C   0  0  1  0  0  0  0  0  0  0  0  0
  5  4  1  6  0  0  0
  5  8  1  0  0  0  0
  5 16  1  0  0  0  0
  8  7  1  1  0  0  0
  8 10  1  0  0  0  0
 10  1  1  6  0  0  0
 10 12  1  0  0  0  0
 11 18  1  0  0  0  0
 12 14  1  0  0  0  0
 14  2  1  6  0  0  0
 14 16  1  0  0  0  0
 16  9  1  1  0  0  0
 17  9  1  1  0  0  0
 17 11  1  0  0  0  0
 17 22  1  0  0  0  0
 18 19  1  6  0  0  0
 18 20  1  0  0  0  0
 19  3  1  0  0  0  0
 20 13  1  1  0  0  0
 20 21  1  0  0  0  0
 21 15  1  6  0  0  0
 21 22  1  0  0  0  0
 22  6  1  1  0  0  0
M  END
>  <CHROM.1>
69.21350424,66.92979079,-67.12775147,21.29206761,13.75985861,38.03862128
1.70112809,0.38588148,2.22770931

>  <Name>
2et8_lig

>  <RI>
3.14397e+07

>  <Rbt.Current_Directory>
/home/itssahil/PROJECTS/Mol_Feturizer/New_Systems/rnas/2et8

>  <Rbt.Executable>
rbdock ($Id: //depot/dev/client3/rdock/2013.1/src/exe/rbdock.cxx#4 $)

>  <Rbt.Library>
libRbt.so (2013.1, Build901 2013/11/27)

>  <Rbt.Parameter_File>
/export/apps/rDock/src/rDock_2013.1_src/data/scripts/dock_solv.prm

>  <Rbt.Receptor>
prm/pocket_docking_6.prm

>  <SCORE>
-14.2362

>  <SCORE.INTER>
-12.8354

>  <SCORE.INTER.CONST>
1

>  <SCORE.INTER.POLAR>
-1.20333

>  <SCORE.INTER.ROT>
3

>  <SCORE.INTER.SOLV>
18.0395

>  <SCORE.INTER.VDW>
-16.159

>  <SCORE.INTER.norm>
-0.583427

>  <SCORE.INTRA>
-1.40082

>  <SCORE.INTRA.DIHEDRAL>
-3.99331

>  <SCORE.INTRA.DIHEDRAL.0>
4.99603

>  <SCORE.INTRA.POLAR>
0

>  <SCORE.INTRA.POLAR.0>
0

>  <SCORE.INTRA.REPUL>
0

>  <SCORE.INTRA.REPUL.0>
0

>  <SCORE.INTRA.SOLV>
0.779728

>  <SCORE.INTRA.SOLV.lig_0>
-74.884

>  <SCORE.INTRA.VDW>
0.205972

>  <SCORE.INTRA.VDW.0>
-0.858933

>  <SCORE.INTRA.norm>
-0.0636737

>  <SCORE.RESTR>
0

>  <SCORE.RESTR.CAVITY>
0

>  <SCORE.RESTR.norm>
0

>  <SCORE.SYSTEM>
0

>  <SCORE.SYSTEM.CONST>
0

>  <SCORE.SYSTEM.DIHEDRAL>
0

>  <SCORE.SYSTEM.SOLV>
0

>  <SCORE.SYSTEM.norm>
0

>  <SCORE.heavy>
22

>  <SCORE.norm>
-0.647101

>  <RMSD>
6.380

$$$$
2et8_lig
 OpenBabel11021811433D
libRbt.so/2013.1/901 2013/11/27
 22 23  0  0  0  0  0  0  0  0999 V2000
   21.4929    9.9182   41.9615 N   0  0  0  0  0  0  0  0  0  0  0  0
   21.4929   12.3136   37.6176 N   0  0  0  0  0  0  0  0  0  0  0  0
   21.8096   18.2319   38.1403 N   0  0  0  0  0  0  0  0  0  0  0  0
   18.5718   13.8305   41.2634 O   0  0  0  0  0  0  0  0  0  0  0  0
   19.1591   12.6851   40.5982 C   0  0  2  0  0  0  0  0  0  0  0  0
   16.7008   15.0118   37.5724 N   0  0  0  0  0  0  0  0  0  0  0  0
   19.2643   11.4220   42.7424 O   0  0  0  0  0  0  0  0  0  0  0  0
   20.0398   11.8781   41.6268 C   0  0  1  0  0  0  0  0  0  0  0  0
   19.2775   13.8542   38.5318 O   0  0  0  0  0  0  0  0  0  0  0  0
   20.6543   10.6690   40.9654 C   0  0  1  0  0  0  0  0  0  0  0  0
   20.1445   15.9607   38.8684 O   0  0  0  0  0  0  0  0  0  0  0  0
   21.5139   11.1284   39.7654 C   0  0  0  0  0  0  0  0  0  0  0  0
   20.6153   16.6327   35.3120 O   0  0  0  0  0  0  0  0  0  0  0  0
   20.5923   11.9003   38.7764 C   0  0  1  0  0  0  0  0  0  0  0  0
   17.8247   16.4341   35.4147 O   0  0  0  0  0  0  0  0  0  0  0  0
   20.0795   13.1618   39.4054 C   0  0  2  0  0  0  0  0  0  0  0  0
   18.8528   15.1457   38.8202 C   0  0  1  0  0  0  0  0  0  0  0  0
   20.8620   16.0020   37.5573 C   0  0  2  0  0  0  0  0  0  0  0  0
   22.1391   16.8610   37.6642 C   0  0  0  0  0  0  0  0  0  0  0  0
   19.9528   16.6082   36.5304 C   0  0  2  0  0  0  0  0  0  0  0  0
   18.6821   15.8215   36.3887 C   0  0  1  0  0  0  0  0  0  0  0  0
   17.9838   15.7914   37.7047 C   0  0  1  0  0  0  0  0  0  0  0  0
  5  4  1  1  0  0  0
  5  8  1  0  0  0  0
  5 16  1  0  0  0  0
  8  7  1  1  0  0  0
  8 10  1  0  0  0  0
 10  1  1  1  0  0  0
 10 12  1  0  0  0  0
 11 18  1  0  0  0  0
 12 14  1  0  0  0  0
 14  2  1  6  0  0  0
 14 16  1  0  0  0  0
 16  9  1  6  0  0  0
 17  9  1  6  0  0  0
 17 11  1  0  0  0  0
 17 22  1  0  0  0  0
 18 19  1  1  0  0  0
 18 20  1  0  0  0  0
 19  3  1  0  0  0  0
 20 13  1  6  0  0  0
 20 21  1  0  0  0  0
 21 15  1  6  0  0  0
 21 22  1  0  0  0  0
 22  6  1  6  0  0  0
M  END
>  <CHROM.1>
75.53871629,63.53952334,-56.37472051,19.87903386,14.17489661,38.77770721
-1.47986325,0.07418716,-0.71832284

>  <Name>
2et8_lig

>  <RI>
3.42619e+07

>  <Rbt.Current_Directory>
/home/itssahil/PROJECTS/Mol_Feturizer/New_Systems/rnas/2et8

>  <Rbt.Executable>
rbdock ($Id: //depot/dev/client3/rdock/2013.1/src/exe/rbdock.cxx#4 $)

>  <Rbt.Library>
libRbt.so (2013.1, Build901 2013/11/27)

>  <Rbt.Parameter_File>
/export/apps/rDock/src/rDock_2013.1_src/data/scripts/dock_solv.prm

>  <Rbt.Receptor>
prm/pocket_docking_4.prm

>  <SCORE>
-12.6443

>  <SCORE.INTER>
-10.9308

>  <SCORE.INTER.CONST>
1

>  <SCORE.INTER.POLAR>
-0.959114

>  <SCORE.INTER.ROT>
3

>  <SCORE.INTER.SOLV>
14.9662

>  <SCORE.INTER.VDW>
-14.6789

>  <SCORE.INTER.norm>
-0.496853

>  <SCORE.INTRA>
-1.71358

>  <SCORE.INTRA.DIHEDRAL>
-3.5997

>  <SCORE.INTRA.DIHEDRAL.0>
4.99603

>  <SCORE.INTRA.POLAR>
0

>  <SCORE.INTRA.POLAR.0>
0

>  <SCORE.INTRA.REPUL>
0

>  <SCORE.INTRA.REPUL.0>
0

>  <SCORE.INTRA.SOLV>
0.831817

>  <SCORE.INTRA.SOLV.lig_0>
-74.884

>  <SCORE.INTRA.VDW>
-0.329644

>  <SCORE.INTRA.VDW.0>
-0.858933

>  <SCORE.INTRA.norm>
-0.0778902

>  <SCORE.RESTR>
0

>  <SCORE.RESTR.CAVITY>
0

>  <SCORE.RESTR.norm>
0

>  <SCORE.SYSTEM>
0

>  <SCORE.SYSTEM.CONST>
0

>  <SCORE.SYSTEM.DIHEDRAL>
0

>  <SCORE.SYSTEM.SOLV>
0

>  <SCORE.SYSTEM.norm>
0

>  <SCORE.heavy>
22

>  <SCORE.norm>
-0.574743

>  <RMSD>
6.381

$$$$
2et8_lig
 OpenBabel11021811433D
libRbt.so/2013.1/901 2013/11/27
 22 23  0  0  0  0  0  0  0  0999 V2000
   25.8264   15.5499   28.3810 N   0  0  0  0  0  0  0  0  0  0  0  0
   21.3116   16.9543   29.8817 N   0  0  0  0  0  0  0  0  0  0  0  0
   19.6697   14.6446   35.7873 N   0  0  0  0  0  0  0  0  0  0  0  0
   24.9041   16.3024   33.1674 O   0  0  0  0  0  0  0  0  0  0  0  0
   24.3144   15.8330   31.9299 C   0  0  2  0  0  0  0  0  0  0  0  0
   21.9141   19.5104   31.9525 N   0  0  0  0  0  0  0  0  0  0  0  0
   26.5464   15.1542   31.0573 O   0  0  0  0  0  0  0  0  0  0  0  0
   25.3790   15.9351   30.7718 C   0  0  1  0  0  0  0  0  0  0  0  0
   22.1615   16.6041   32.5785 O   0  0  0  0  0  0  0  0  0  0  0  0
   24.7974   15.4389   29.4709 C   0  0  1  0  0  0  0  0  0  0  0  0
   20.1189   16.6185   33.6417 O   0  0  0  0  0  0  0  0  0  0  0  0
   23.5435   16.2739   29.1239 C   0  0  0  0  0  0  0  0  0  0  0  0
   21.3575   18.3827   36.5870 O   0  0  0  0  0  0  0  0  0  0  0  0
   22.5221   16.1212   30.2887 C   0  0  1  0  0  0  0  0  0  0  0  0
   21.7277   20.3547   34.6346 O   0  0  0  0  0  0  0  0  0  0  0  0
   23.0648   16.7230   31.5510 C   0  0  2  0  0  0  0  0  0  0  0  0
   20.9539   17.2916   32.5531 C   0  0  1  0  0  0  0  0  0  0  0  0
   20.7010   16.7759   35.0098 C   0  0  2  0  0  0  0  0  0  0  0  0
   19.7995   16.1010   36.0643 C   0  0  0  0  0  0  0  0  0  0  0  0
   20.8044   18.2388   35.3231 C   0  0  2  0  0  0  0  0  0  0  0  0
   21.6621   18.9559   34.3213 C   0  0  1  0  0  0  0  0  0  0  0  0
   21.0662   18.7860   32.9661 C   0  0  1  0  0  0  0  0  0  0  0  0
  5  4  1  1  0  0  0
  5  8  1  0  0  0  0
  5 16  1  0  0  0  0
  8  7  1  1  0  0  0
  8 10  1  0  0  0  0
 10  1  1  6  0  0  0
 10 12  1  0  0  0  0
 11 18  1  0  0  0  0
 12 14  1  0  0  0  0
 14  2  1  6  0  0  0
 14 16  1  0  0  0  0
 16  9  1  1  0  0  0
 17  9  1  1  0  0  0
 17 11  1  0  0  0  0
 17 22  1  0  0  0  0
 18 19  1  1  0  0  0
 18 20  1  0  0  0  0
 19  3  1  0  0  0  0
 20 13  1  1  0  0  0
 20 21  1  0  0  0  0
 21 15  1  1  0  0  0
 21 22  1  0  0  0  0
 22  6  1  6  0  0  0
M  END
>  <CHROM.1>
178.97890026,165.53659548,60.53047455,22.47217014,16.94323296,32.63764709
0.18801473,0.90376959,-0.57898401

>  <Name>
2et8_lig

>  <RI>
2.82936e+07

>  <Rbt.Current_Directory>
/home/itssahil/PROJECTS/Mol_Feturizer/New_Systems/rnas/2et8

>  <Rbt.Executable>
rbdock ($Id: //depot/dev/client3/rdock/2013.1/src/exe/rbdock.cxx#4 $)

>  <Rbt.Library>
libRbt.so (2013.1, Build901 2013/11/27)

>  <Rbt.Parameter_File>
/export/apps/rDock/src/rDock_2013.1_src/data/scripts/dock_solv.prm

>  <Rbt.Receptor>
prm/pocket_docking_8.prm

>  <SCORE>
-11.0453

>  <SCORE.INTER>
-10.3371

>  <SCORE.INTER.CONST>
1

>  <SCORE.INTER.POLAR>
-0.898925

>  <SCORE.INTER.ROT>
3

>  <SCORE.INTER.SOLV>
14.3688

>  <SCORE.INTER.VDW>
-14.2846

>  <SCORE.INTER.norm>
-0.469866

>  <SCORE.INTRA>
-0.71445

>  <SCORE.INTRA.DIHEDRAL>
-3.83387

>  <SCORE.INTRA.DIHEDRAL.0>
4.99603

>  <SCORE.INTRA.POLAR>
0

>  <SCORE.INTRA.POLAR.0>
0

>  <SCORE.INTRA.REPUL>
0

>  <SCORE.INTRA.REPUL.0>
0

>  <SCORE.INTRA.SOLV>
2.42412

>  <SCORE.INTRA.SOLV.lig_0>
-74.884

>  <SCORE.INTRA.VDW>
-0.00957325

>  <SCORE.INTRA.VDW.0>
-0.858933

>  <SCORE.INTRA.norm>
-0.032475

>  <SCORE.RESTR>
0.00622146

>  <SCORE.RESTR.CAVITY>
0.00622146

>  <SCORE.RESTR.norm>
0.000282794

>  <SCORE.SYSTEM>
0

>  <SCORE.SYSTEM.CONST>
0

>  <SCORE.SYSTEM.DIHEDRAL>
0

>  <SCORE.SYSTEM.SOLV>
0

>  <SCORE.SYSTEM.norm>
0

>  <SCORE.heavy>
22

>  <SCORE.norm>
-0.502059

>  <RMSD>
6.382

$$$$
2et8_lig
 OpenBabel11021811433D
libRbt.so/2013.1/901 2013/11/27
 22 23  0  0  0  0  0  0  0  0999 V2000
   20.5967   10.1426   42.6806 N   0  0  0  0  0  0  0  0  0  0  0  0
   21.7652   11.6865   38.1135 N   0  0  0  0  0  0  0  0  0  0  0  0
   19.6383   12.5712   33.5662 N   0  0  0  0  0  0  0  0  0  0  0  0
   18.5643   14.2374   40.8290 O   0  0  0  0  0  0  0  0  0  0  0  0
   19.0503   12.9189   40.4757 C   0  0  2  0  0  0  0  0  0  0  0  0
   20.6859   16.4854   38.1591 N   0  0  0  0  0  0  0  0  0  0  0  0
   18.5616   12.0633   42.7632 O   0  0  0  0  0  0  0  0  0  0  0  0
   19.5859   12.1951   41.7696 C   0  0  1  0  0  0  0  0  0  0  0  0
   19.7261   13.6654   38.3224 O   0  0  0  0  0  0  0  0  0  0  0  0
   20.0866   10.8115   41.4351 C   0  0  1  0  0  0  0  0  0  0  0  0
   20.1616   13.3457   36.0839 O   0  0  0  0  0  0  0  0  0  0  0  0
   21.2077   10.9194   40.3760 C   0  0  0  0  0  0  0  0  0  0  0  0
   17.2970   15.3117   34.9657 O   0  0  0  0  0  0  0  0  0  0  0  0
   20.6195   11.6220   39.1175 C   0  0  1  0  0  0  0  0  0  0  0  0
   18.8053   17.3046   36.2268 O   0  0  0  0  0  0  0  0  0  0  0  0
   20.2322   13.0362   39.4332 C   0  0  2  0  0  0  0  0  0  0  0  0
   20.5675   14.1414   37.3238 C   0  0  1  0  0  0  0  0  0  0  0  0
   18.7540   13.6072   35.6531 C   0  0  2  0  0  0  0  0  0  0  0  0
   18.4156   12.7983   34.3837 C   0  0  0  0  0  0  0  0  0  0  0  0
   18.6070   15.0689   35.3518 C   0  0  2  0  0  0  0  0  0  0  0  0
   18.9361   15.9125   36.5491 C   0  0  1  0  0  0  0  0  0  0  0  0
   20.3407   15.6364   36.9628 C   0  0  1  0  0  0  0  0  0  0  0  0
  5  4  1  1  0  0  0
  5  8  1  0  0  0  0
  5 16  1  0  0  0  0
  8  7  1  1  0  0  0
  8 10  1  0  0  0  0
 10  1  1  1  0  0  0
 10 12  1  0  0  0  0
 11 18  1  0  0  0  0
 12 14  1  0  0  0  0
 14  2  1  6  0  0  0
 14 16  1  0  0  0  0
 16  9  1  6  0  0  0
 17  9  1  1  0  0  0
 17 11  1  0  0  0  0
 17 22  1  0  0  0  0
 18 19  1  6  0  0  0
 18 20  1  0  0  0  0
 19  3  1  0  0  0  0
 20 13  1  1  0  0  0
 20 21  1  0  0  0  0
 21 15  1  6  0  0  0
 21 22  1  0  0  0  0
 22  6  1  1  0  0  0
M  END
>  <CHROM.1>
167.94579172,117.97824829,-29.08964493,19.61411151,13.46306141,38.19964532
-1.08291041,1.25609588,-1.54131109

>  <Name>
2et8_lig

>  <RI>
0

>  <Rbt.Current_Directory>
/home/itssahil/PROJECTS/Mol_Feturizer/New_Systems/rnas/2et8

>  <Rbt.Executable>
rbdock ($Id: //depot/dev/client3/rdock/2013.1/src/exe/rbdock.cxx#4 $)

>  <Rbt.Library>
libRbt.so (2013.1, Build901 2013/11/27)

>  <Rbt.Parameter_File>
/export/apps/rDock/src/rDock_2013.1_src/data/scripts/dock_solv.prm

>  <Rbt.Receptor>
prm/pocket_docking_7.prm

>  <SCORE>
-11.8528

>  <SCORE.INTER>
-14.9531

>  <SCORE.INTER.CONST>
1

>  <SCORE.INTER.POLAR>
-1.86322

>  <SCORE.INTER.ROT>
3

>  <SCORE.INTER.SOLV>
17.437

>  <SCORE.INTER.VDW>
-15.1704

>  <SCORE.INTER.norm>
-0.679688

>  <SCORE.INTRA>
3.10034

>  <SCORE.INTRA.DIHEDRAL>
5.65164

>  <SCORE.INTRA.DIHEDRAL.0>
4.99603

>  <SCORE.INTRA.POLAR>
0

>  <SCORE.INTRA.POLAR.0>
0

>  <SCORE.INTRA.REPUL>
0

>  <SCORE.INTRA.REPUL.0>
0

>  <SCORE.INTRA.SOLV>
1.59538

>  <SCORE.INTRA.SOLV.lig_0>
-74.884

>  <SCORE.INTRA.VDW>
-0.523173

>  <SCORE.INTRA.VDW.0>
-0.858933

>  <SCORE.INTRA.norm>
0.140925

>  <SCORE.RESTR>
0

>  <SCORE.RESTR.CAVITY>
0

>  <SCORE.RESTR.norm>
0

>  <SCORE.SYSTEM>
0

>  <SCORE.SYSTEM.CONST>
0

>  <SCORE.SYSTEM.DIHEDRAL>
0

>  <SCORE.SYSTEM.SOLV>
0

>  <SCORE.SYSTEM.norm>
0

>  <SCORE.heavy>
22

>  <SCORE.norm>
-0.538763

>  <RMSD>
6.384

$$$$
2et8_lig
 OpenBabel11021811433D
libRbt.so/2013.1/901 2013/11/27
 22 23  0  0  0  0  0  0  0  0999 V2000
   19.5693   10.0462   42.1004 N   0  0  0  0  0  0  0  0  0  0  0  0
   18.8683   14.1982   39.4779 N   0  0  0  0  0  0  0  0  0  0  0  0
   18.8660   13.0083   35.2131 N   0  0  0  0  0  0  0  0  0  0  0  0
   23.0846   11.7119   39.0681 O   0  0  0  0  0  0  0  0  0  0  0  0
   22.0261   12.1337   39.9632 C   0  0  2  0  0  0  0  0  0  0  0  0
   24.0357   15.7473   38.3020 N   0  0  0  0  0  0  0  0  0  0  0  0
   22.2542   10.0491   41.3072 O   0  0  0  0  0  0  0  0  0  0  0  0
   21.3256   10.8632   40.5798 C   0  0  1  0  0  0  0  0  0  0  0  0
   21.5932   14.0711   38.6557 O   0  0  0  0  0  0  0  0  0  0  0  0
   20.2260   11.2714   41.5290 C   0  0  1  0  0  0  0  0  0  0  0  0
   21.5725   13.5571   36.4111 O   0  0  0  0  0  0  0  0  0  0  0  0
   19.1956   12.1385   40.7697 C   0  0  0  0  0  0  0  0  0  0  0  0
   20.3820   16.8522   35.3883 O   0  0  0  0  0  0  0  0  0  0  0  0
   19.9359   13.3841   40.2008 C   0  0  1  0  0  0  0  0  0  0  0  0
   22.8773   17.5357   36.4577 O   0  0  0  0  0  0  0  0  0  0  0  0
   20.9474   12.9746   39.1717 C   0  0  2  0  0  0  0  0  0  0  0  0
   22.4703   13.9470   37.5847 C   0  0  1  0  0  0  0  0  0  0  0  0
   20.5744   14.6132   36.0592 C   0  0  2  0  0  0  0  0  0  0  0  0
   19.7202   14.1723   34.8525 C   0  0  0  0  0  0  0  0  0  0  0  0
   21.3101   15.8699   35.7009 C   0  0  2  0  0  0  0  0  0  0  0  0
   22.1720   16.3442   36.8347 C   0  0  1  0  0  0  0  0  0  0  0  0
   23.1577   15.2783   37.1704 C   0  0  1  0  0  0  0  0  0  0  0  0
  5  4  1  6  0  0  0
  5  8  1  0  0  0  0
  5 16  1  0  0  0  0
  8  7  1  1  0  0  0
  8 10  1  0  0  0  0
 10  1  1  6  0  0  0
 10 12  1  0  0  0  0
 11 18  1  0  0  0  0
 12 14  1  0  0  0  0
 14  2  1  6  0  0  0
 14 16  1  0  0  0  0
 16  9  1  1  0  0  0
 17  9  1  1  0  0  0
 17 11  1  0  0  0  0
 17 22  1  0  0  0  0
 18 19  1  6  0  0  0
 18 20  1  0  0  0  0
 19  3  1  0  0  0  0
 20 13  1  1  0  0  0
 20 21  1  0  0  0  0
 21 15  1  6  0  0  0
 21 22  1  0  0  0  0
 22  6  1  1  0  0  0
M  END
>  <CHROM.1>
72.77793534,67.58028491,66.44833165,21.21162350,13.63737663,38.28703194,1.68867230
0.35949520,2.29178570

>  <Name>
2et8_lig

>  <RI>
3.14397e+07

>  <Rbt.Current_Directory>
/home/itssahil/PROJECTS/Mol_Feturizer/New_Systems/rnas/2et8

>  <Rbt.Executable>
rbdock ($Id: //depot/dev/client3/rdock/2013.1/src/exe/rbdock.cxx#4 $)

>  <Rbt.Library>
libRbt.so (2013.1, Build901 2013/11/27)

>  <Rbt.Parameter_File>
/export/apps/rDock/src/rDock_2013.1_src/data/scripts/dock_solv.prm

>  <Rbt.Receptor>
prm/pocket_docking_6.prm

>  <SCORE>
-12.7449

>  <SCORE.INTER>
-10.3159

>  <SCORE.INTER.CONST>
1

>  <SCORE.INTER.POLAR>
-0.82929

>  <SCORE.INTER.ROT>
3

>  <SCORE.INTER.SOLV>
19.4995

>  <SCORE.INTER.VDW>
-16.2128

>  <SCORE.INTER.norm>
-0.468903

>  <SCORE.INTRA>
-2.42907

>  <SCORE.INTRA.DIHEDRAL>
-3.62486

>  <SCORE.INTRA.DIHEDRAL.0>
4.99603

>  <SCORE.INTRA.POLAR>
0

>  <SCORE.INTRA.POLAR.0>
0

>  <SCORE.INTRA.REPUL>
0

>  <SCORE.INTRA.REPUL.0>
0

>  <SCORE.INTRA.SOLV>
-0.676677

>  <SCORE.INTRA.SOLV.lig_0>
-74.884

>  <SCORE.INTRA.VDW>
-0.278307

>  <SCORE.INTRA.VDW.0>
-0.858933

>  <SCORE.INTRA.norm>
-0.110412

>  <SCORE.RESTR>
0

>  <SCORE.RESTR.CAVITY>
0

>  <SCORE.RESTR.norm>
0

>  <SCORE.SYSTEM>
0

>  <SCORE.SYSTEM.CONST>
0

>  <SCORE.SYSTEM.DIHEDRAL>
0

>  <SCORE.SYSTEM.SOLV>
0

>  <SCORE.SYSTEM.norm>
0

>  <SCORE.heavy>
22

>  <SCORE.norm>
-0.579315

>  <RMSD>
6.385

$$$$
2et8_lig
 OpenBabel11021811433D
libRbt.so/2013.1/901 2013/11/27
 22 23  0  0  0  0  0  0  0  0999 V2000
   19.4554   10.1468   42.0043 N   0  0  0  0  0  0  0  0  0  0  0  0
   18.9128   14.3112   39.3640 N   0  0  0  0  0  0  0  0  0  0  0  0
   19.0515   13.0202   35.0858 N   0  0  0  0  0  0  0  0  0  0  0  0
   23.0812   11.7308   39.0597 O   0  0  0  0  0  0  0  0  0  0  0  0
   22.0105   12.1769   39.9281 C   0  0  2  0  0  0  0  0  0  0  0  0
   24.1221   15.7720   38.3157 N   0  0  0  0  0  0  0  0  0  0  0  0
   22.1585   10.0889   41.2780 O   0  0  0  0  0  0  0  0  0  0  0  0
   21.2667   10.9230   40.5275 C   0  0  1  0  0  0  0  0  0  0  0  0
   21.6538   14.1224   38.6097 O   0  0  0  0  0  0  0  0  0  0  0  0
   20.1533   11.3566   41.4491 C   0  0  1  0  0  0  0  0  0  0  0  0
   21.7043   13.5766   36.3731 O   0  0  0  0  0  0  0  0  0  0  0  0
   19.1617   12.2458   40.6642 C   0  0  0  0  0  0  0  0  0  0  0  0
   20.5795   16.8670   35.2644 O   0  0  0  0  0  0  0  0  0  0  0  0
   19.9436   13.4740   40.1134 C   0  0  1  0  0  0  0  0  0  0  0  0
   23.0433   17.5438   36.4083 O   0  0  0  0  0  0  0  0  0  0  0  0
   20.9709   13.0411   39.1098 C   0  0  2  0  0  0  0  0  0  0  0  0
   22.5654   13.9754   37.5709 C   0  0  1  0  0  0  0  0  0  0  0  0
   20.7284   14.6363   35.9727 C   0  0  2  0  0  0  0  0  0  0  0  0
   19.9115   14.1856   34.7440 C   0  0  0  0  0  0  0  0  0  0  0  0
   21.4873   15.8812   35.6221 C   0  0  2  0  0  0  0  0  0  0  0  0
   22.3147   16.3641   36.7778 C   0  0  1  0  0  0  0  0  0  0  0  0
   23.2786   15.2945   37.1616 C   0  0  1  0  0  0  0  0  0  0  0  0
  5  4  1  6  0  0  0
  5  8  1  0  0  0  0
  5 16  1  0  0  0  0
  8  7  1  1  0  0  0
  8 10  1  0  0  0  0
 10  1  1  6  0  0  0
 10 12  1  0  0  0  0
 11 18  1  0  0  0  0
 12 14  1  0  0  0  0
 14  2  1  6  0  0  0
 14 16  1  0  0  0  0
 16  9  1  1  0  0  0
 17  9  1  1  0  0  0
 17 11  1  0  0  0  0
 17 22  1  0  0  0  0
 18 19  1  6  0  0  0
 18 20  1  0  0  0  0
 19  3  1  0  0  0  0
 20 13  1  1  0  0  0
 20 21  1  0  0  0  0
 21 15  1  6  0  0  0
 21 22  1  0  0  0  0
 22  6  1  1  0  0  0
M  END
>  <CHROM.1>
72.04054850,66.92767954,65.51745687,21.27551512,13.68060381,38.22398436,1.72765298
0.37639033,2.26963741

>  <Name>
2et8_lig

>  <RI>
3.14397e+07

>  <Rbt.Current_Directory>
/home/itssahil/PROJECTS/Mol_Feturizer/New_Systems/rnas/2et8

>  <Rbt.Executable>
rbdock ($Id: //depot/dev/client3/rdock/2013.1/src/exe/rbdock.cxx#4 $)

>  <Rbt.Library>
libRbt.so (2013.1, Build901 2013/11/27)

>  <Rbt.Parameter_File>
/export/apps/rDock/src/rDock_2013.1_src/data/scripts/dock_solv.prm

>  <Rbt.Receptor>
prm/pocket_docking_6.prm

>  <SCORE>
-12.7572

>  <SCORE.INTER>
-10.2871

>  <SCORE.INTER.CONST>
1

>  <SCORE.INTER.POLAR>
-0.75329

>  <SCORE.INTER.ROT>
3

>  <SCORE.INTER.SOLV>
19.5451

>  <SCORE.INTER.VDW>
-16.4621

>  <SCORE.INTER.norm>
-0.467593

>  <SCORE.INTRA>
-2.47019

>  <SCORE.INTRA.DIHEDRAL>
-3.79072

>  <SCORE.INTRA.DIHEDRAL.0>
4.99603

>  <SCORE.INTRA.POLAR>
0

>  <SCORE.INTRA.POLAR.0>
0

>  <SCORE.INTRA.REPUL>
0

>  <SCORE.INTRA.REPUL.0>
0

>  <SCORE.INTRA.SOLV>
-0.705258

>  <SCORE.INTRA.SOLV.lig_0>
-74.884

>  <SCORE.INTRA.VDW>
-0.222206

>  <SCORE.INTRA.VDW.0>
-0.858933

>  <SCORE.INTRA.norm>
-0.112282

>  <SCORE.RESTR>
0

>  <SCORE.RESTR.CAVITY>
0

>  <SCORE.RESTR.norm>
0

>  <SCORE.SYSTEM>
0

>  <SCORE.SYSTEM.CONST>
0

>  <SCORE.SYSTEM.DIHEDRAL>
0

>  <SCORE.SYSTEM.SOLV>
0

>  <SCORE.SYSTEM.norm>
0

>  <SCORE.heavy>
22

>  <SCORE.norm>
-0.579875

>  <RMSD>
6.386

$$$$
2et8_lig
 OpenBabel11021811433D
libRbt.so/2013.1/901 2013/11/27
 22 23  0  0  0  0  0  0  0  0999 V2000
   20.6651   10.1098   42.6807 N   0  0  0  0  0  0  0  0  0  0  0  0
   21.7447   11.6838   38.1020 N   0  0  0  0  0  0  0  0  0  0  0  0
   19.6484   12.5940   33.5890 N   0  0  0  0  0  0  0  0  0  0  0  0
   18.5527   14.1842   40.8743 O   0  0  0  0  0  0  0  0  0  0  0  0
   19.0502   12.8733   40.5091 C   0  0  2  0  0  0  0  0  0  0  0  0
   20.5282   16.4946   38.2343 N   0  0  0  0  0  0  0  0  0  0  0  0
   18.6070   12.0038   42.8007 O   0  0  0  0  0  0  0  0  0  0  0  0
   19.6145   12.1521   41.7923 C   0  0  1  0  0  0  0  0  0  0  0  0
   19.6838   13.6356   38.3485 O   0  0  0  0  0  0  0  0  0  0  0  0
   20.1278   10.7762   41.4454 C   0  0  1  0  0  0  0  0  0  0  0  0
   20.1328   13.3720   36.1054 O   0  0  0  0  0  0  0  0  0  0  0  0
   21.2313   10.9021   40.3700 C   0  0  0  0  0  0  0  0  0  0  0  0
   17.1911   15.2387   35.0177 O   0  0  0  0  0  0  0  0  0  0  0  0
   20.6152   11.6012   39.1230 C   0  0  1  0  0  0  0  0  0  0  0  0
   18.6166   17.2695   36.3142 O   0  0  0  0  0  0  0  0  0  0  0  0
   20.2145   13.0093   39.4494 C   0  0  2  0  0  0  0  0  0  0  0  0
   20.5055   14.1623   37.3591 C   0  0  1  0  0  0  0  0  0  0  0  0
   18.7159   13.5834   35.6776 C   0  0  2  0  0  0  0  0  0  0  0  0
   18.4112   12.7832   34.3942 C   0  0  0  0  0  0  0  0  0  0  0  0
   18.5097   15.0428   35.4010 C   0  0  2  0  0  0  0  0  0  0  0  0
   18.8037   15.8785   36.6129 C   0  0  1  0  0  0  0  0  0  0  0  0
   20.2183   15.6528   37.0233 C   0  0  1  0  0  0  0  0  0  0  0  0
  5  4  1  1  0  0  0
  5  8  1  0  0  0  0
  5 16  1  0  0  0  0
  8  7  1  1  0  0  0
  8 10  1  0  0  0  0
 10  1  1  1  0  0  0
 10 12  1  0  0  0  0
 11 18  1  0  0  0  0
 12 14  1  0  0  0  0
 14  2  1  6  0  0  0
 14 16  1  0  0  0  0
 16  9  1  6  0  0  0
 17  9  1  1  0  0  0
 17 11  1  0  0  0  0
 17 22  1  0  0  0  0
 18 19  1  6  0  0  0
 18 20  1  0  0  0  0
 19  3  1  0  0  0  0
 20 13  1  1  0  0  0
 20 21  1  0  0  0  0
 21 15  1  6  0  0  0
 21 22  1  0  0  0  0
 22  6  1  1  0  0  0
M  END
>  <CHROM.1>
165.93599381,118.01463000,-27.83978189,19.57638712,13.44071431,38.23115419
-1.07069859,1.22542917,-1.54518699

>  <Name>
2et8_lig

>  <RI>
0

>  <Rbt.Current_Directory>
/home/itssahil/PROJECTS/Mol_Feturizer/New_Systems/rnas/2et8

>  <Rbt.Executable>
rbdock ($Id: //depot/dev/client3/rdock/2013.1/src/exe/rbdock.cxx#4 $)

>  <Rbt.Library>
libRbt.so (2013.1, Build901 2013/11/27)

>  <Rbt.Parameter_File>
/export/apps/rDock/src/rDock_2013.1_src/data/scripts/dock_solv.prm

>  <Rbt.Receptor>
prm/pocket_docking_7.prm

>  <SCORE>
-11.938

>  <SCORE.INTER>
-15.1841

>  <SCORE.INTER.CONST>
1

>  <SCORE.INTER.POLAR>
-1.88293

>  <SCORE.INTER.ROT>
3

>  <SCORE.INTER.SOLV>
17.3849

>  <SCORE.INTER.VDW>
-15.2413

>  <SCORE.INTER.norm>
-0.690186

>  <SCORE.INTRA>
3.24612

>  <SCORE.INTRA.DIHEDRAL>
6.05635

>  <SCORE.INTRA.DIHEDRAL.0>
4.99603

>  <SCORE.INTRA.POLAR>
0

>  <SCORE.INTRA.POLAR.0>
0

>  <SCORE.INTRA.REPUL>
0

>  <SCORE.INTRA.REPUL.0>
0

>  <SCORE.INTRA.SOLV>
1.61546

>  <SCORE.INTRA.SOLV.lig_0>
-74.884

>  <SCORE.INTRA.VDW>
-0.589788

>  <SCORE.INTRA.VDW.0>
-0.858933

>  <SCORE.INTRA.norm>
0.147551

>  <SCORE.RESTR>
0

>  <SCORE.RESTR.CAVITY>
0

>  <SCORE.RESTR.norm>
0

>  <SCORE.SYSTEM>
0

>  <SCORE.SYSTEM.CONST>
0

>  <SCORE.SYSTEM.DIHEDRAL>
0

>  <SCORE.SYSTEM.SOLV>
0

>  <SCORE.SYSTEM.norm>
0

>  <SCORE.heavy>
22

>  <SCORE.norm>
-0.542636

>  <RMSD>
6.387

$$$$
2et8_lig
 OpenBabel11021811433D
libRbt.so/2013.1/901 2013/11/27
 22 23  0  0  0  0  0  0  0  0999 V2000
   20.6299   10.0723   42.6613 N   0  0  0  0  0  0  0  0  0  0  0  0
   21.7555   11.6975   38.1116 N   0  0  0  0  0  0  0  0  0  0  0  0
   19.6682   12.6298   33.6152 N   0  0  0  0  0  0  0  0  0  0  0  0
   18.5911   14.2068   40.9075 O   0  0  0  0  0  0  0  0  0  0  0  0
   19.0693   12.8937   40.5246 C   0  0  2  0  0  0  0  0  0  0  0  0
   20.6288   16.5183   38.2510 N   0  0  0  0  0  0  0  0  0  0  0  0
   18.6018   11.9971   42.8009 O   0  0  0  0  0  0  0  0  0  0  0  0
   19.6161   12.1444   41.7992 C   0  0  1  0  0  0  0  0  0  0  0  0
   19.7249   13.6781   38.3786 O   0  0  0  0  0  0  0  0  0  0  0  0
   20.1089   10.7658   41.4338 C   0  0  1  0  0  0  0  0  0  0  0  0
   20.1700   13.3941   36.1373 O   0  0  0  0  0  0  0  0  0  0  0  0
   21.2192   10.8900   40.3652 C   0  0  0  0  0  0  0  0  0  0  0  0
   17.2688   15.3163   35.0377 O   0  0  0  0  0  0  0  0  0  0  0  0
   20.6201   11.6176   39.1263 C   0  0  1  0  0  0  0  0  0  0  0  0
   18.7353   17.3234   36.3254 O   0  0  0  0  0  0  0  0  0  0  0  0
   20.2405   13.0269   39.4722 C   0  0  2  0  0  0  0  0  0  0  0  0
   20.5581   14.1827   37.3873 C   0  0  1  0  0  0  0  0  0  0  0  0
   18.7582   13.6329   35.7071 C   0  0  2  0  0  0  0  0  0  0  0  0
   18.4379   12.8329   34.4274 C   0  0  0  0  0  0  0  0  0  0  0  0
   18.5827   15.0949   35.4232 C   0  0  2  0  0  0  0  0  0  0  0  0
   18.8931   15.9303   36.6311 C   0  0  1  0  0  0  0  0  0  0  0  0
   20.3024   15.6771   37.0440 C   0  0  1  0  0  0  0  0  0  0  0  0
  5  4  1  1  0  0  0
  5  8  1  0  0  0  0
  5 16  1  0  0  0  0
  8  7  1  1  0  0  0
  8 10  1  0  0  0  0
 10  1  1  1  0  0  0
 10 12  1  0  0  0  0
 11 18  1  0  0  0  0
 12 14  1  0  0  0  0
 14  2  1  6  0  0  0
 14 16  1  0  0  0  0
 16  9  1  6  0  0  0
 17  9  1  1  0  0  0
 17 11  1  0  0  0  0
 17 22  1  0  0  0  0
 18 19  1  6  0  0  0
 18 20  1  0  0  0  0
 19  3  1  0  0  0  0
 20 13  1  1  0  0  0
 20 21  1  0  0  0  0
 21 15  1  6  0  0  0
 21 22  1  0  0  0  0
 22  6  1  1  0  0  0
M  END
>  <CHROM.1>
167.25026763,116.92862728,-28.60471382,19.61296740,13.46480383,38.24700013
-1.07299354,1.24878149,-1.53579932

>  <Name>
2et8_lig

>  <RI>
0

>  <Rbt.Current_Directory>
/home/itssahil/PROJECTS/Mol_Feturizer/New_Systems/rnas/2et8

>  <Rbt.Executable>
rbdock ($Id: //depot/dev/client3/rdock/2013.1/src/exe/rbdock.cxx#4 $)

>  <Rbt.Library>
libRbt.so (2013.1, Build901 2013/11/27)

>  <Rbt.Parameter_File>
/export/apps/rDock/src/rDock_2013.1_src/data/scripts/dock_solv.prm

>  <Rbt.Receptor>
prm/pocket_docking_7.prm

>  <SCORE>
-11.9563

>  <SCORE.INTER>
-15.0983

>  <SCORE.INTER.CONST>
1

>  <SCORE.INTER.POLAR>
-1.86733

>  <SCORE.INTER.ROT>
3

>  <SCORE.INTER.SOLV>
17.4381

>  <SCORE.INTER.VDW>
-15.2538

>  <SCORE.INTER.norm>
-0.686287

>  <SCORE.INTRA>
3.14203

>  <SCORE.INTRA.DIHEDRAL>
5.76969

>  <SCORE.INTRA.DIHEDRAL.0>
4.99603

>  <SCORE.INTRA.POLAR>
0

>  <SCORE.INTRA.POLAR.0>
0

>  <SCORE.INTRA.REPUL>
0

>  <SCORE.INTRA.REPUL.0>
0

>  <SCORE.INTRA.SOLV>
1.61442

>  <SCORE.INTRA.SOLV.lig_0>
-74.884

>  <SCORE.INTRA.VDW>
-0.550025

>  <SCORE.INTRA.VDW.0>
-0.858933

>  <SCORE.INTRA.norm>
0.14282

>  <SCORE.RESTR>
0

>  <SCORE.RESTR.CAVITY>
0

>  <SCORE.RESTR.norm>
0

>  <SCORE.SYSTEM>
0

>  <SCORE.SYSTEM.CONST>
0

>  <SCORE.SYSTEM.DIHEDRAL>
0

>  <SCORE.SYSTEM.SOLV>
0

>  <SCORE.SYSTEM.norm>
0

>  <SCORE.heavy>
22

>  <SCORE.norm>
-0.543468

>  <RMSD>
6.387

$$$$
2et8_lig
 OpenBabel11021811433D
libRbt.so/2013.1/901 2013/11/27
 22 23  0  0  0  0  0  0  0  0999 V2000
   19.5600   10.1734   41.9506 N   0  0  0  0  0  0  0  0  0  0  0  0
   18.8651   14.3177   39.3145 N   0  0  0  0  0  0  0  0  0  0  0  0
   20.7222   14.0776   33.4246 N   0  0  0  0  0  0  0  0  0  0  0  0
   23.0731   11.8177   38.9042 O   0  0  0  0  0  0  0  0  0  0  0  0
   22.0179   12.2458   39.8001 C   0  0  2  0  0  0  0  0  0  0  0  0
   24.0266   15.8704   38.1813 N   0  0  0  0  0  0  0  0  0  0  0  0
   22.2430   10.1655   41.1512 O   0  0  0  0  0  0  0  0  0  0  0  0
   21.3152   10.9796   40.4230 C   0  0  1  0  0  0  0  0  0  0  0  0
   21.5877   14.1797   38.4865 O   0  0  0  0  0  0  0  0  0  0  0  0
   20.2189   11.3946   41.3732 C   0  0  1  0  0  0  0  0  0  0  0  0
   21.6474   13.6206   36.2535 O   0  0  0  0  0  0  0  0  0  0  0  0
   19.1893   12.2619   40.6131 C   0  0  0  0  0  0  0  0  0  0  0  0
   20.4648   16.8835   35.1241 O   0  0  0  0  0  0  0  0  0  0  0  0
   19.9319   13.5032   40.0379 C   0  0  1  0  0  0  0  0  0  0  0  0
   22.9166   17.6108   36.2629 O   0  0  0  0  0  0  0  0  0  0  0  0
   20.9398   13.0869   39.0080 C   0  0  2  0  0  0  0  0  0  0  0  0
   22.5016   14.0420   37.4485 C   0  0  1  0  0  0  0  0  0  0  0  0
   20.6530   14.6603   35.8466 C   0  0  2  0  0  0  0  0  0  0  0  0
   19.8440   14.1875   34.6210 C   0  0  0  0  0  0  0  0  0  0  0  0
   21.3899   15.9161   35.4878 C   0  0  2  0  0  0  0  0  0  0  0  0
   22.2089   16.4209   36.6401 C   0  0  1  0  0  0  0  0  0  0  0  0
   23.1915   15.3709   37.0306 C   0  0  1  0  0  0  0  0  0  0  0  0
  5  4  1  6  0  0  0
  5  8  1  0  0  0  0
  5 16  1  0  0  0  0
  8  7  1  1  0  0  0
  8 10  1  0  0  0  0
 10  1  1  6  0  0  0
 10 12  1  0  0  0  0
 11 18  1  0  0  0  0
 12 14  1  0  0  0  0
 14  2  1  6  0  0  0
 14 16  1  0  0  0  0
 16  9  1  1  0  0  0
 17  9  1  1  0  0  0
 17 11  1  0  0  0  0
 17 22  1  0  0  0  0
 18 19  1  6  0  0  0
 18 20  1  0  0  0  0
 19  3  1  0  0  0  0
 20 13  1  1  0  0  0
 20 21  1  0  0  0  0
 21 15  1  6  0  0  0
 21 22  1  0  0  0  0
 22  6  1  1  0  0  0
M  END
>  <CHROM.1>
70.22765011,67.97151990,-66.53677081,21.31782205,13.77390139,38.04085904
1.70200689,0.36788239,2.23442777

>  <Name>
2et8_lig

>  <RI>
2.82936e+07

>  <Rbt.Current_Directory>
/home/itssahil/PROJECTS/Mol_Feturizer/New_Systems/rnas/2et8

>  <Rbt.Executable>
rbdock ($Id: //depot/dev/client3/rdock/2013.1/src/exe/rbdock.cxx#4 $)

>  <Rbt.Library>
libRbt.so (2013.1, Build901 2013/11/27)

>  <Rbt.Parameter_File>
/export/apps/rDock/src/rDock_2013.1_src/data/scripts/dock_solv.prm

>  <Rbt.Receptor>
prm/pocket_docking_8.prm

>  <SCORE>
-14.2227

>  <SCORE.INTER>
-12.8226

>  <SCORE.INTER.CONST>
1

>  <SCORE.INTER.POLAR>
-1.20808

>  <SCORE.INTER.ROT>
3

>  <SCORE.INTER.SOLV>
17.9301

>  <SCORE.INTER.VDW>
-16.0981

>  <SCORE.INTER.norm>
-0.582844

>  <SCORE.INTRA>
-1.40015

>  <SCORE.INTRA.DIHEDRAL>
-3.85859

>  <SCORE.INTRA.DIHEDRAL.0>
4.99603

>  <SCORE.INTRA.POLAR>
0

>  <SCORE.INTRA.POLAR.0>
0

>  <SCORE.INTRA.REPUL>
0

>  <SCORE.INTRA.REPUL.0>
0

>  <SCORE.INTRA.SOLV>
0.838398

>  <SCORE.INTRA.SOLV.lig_0>
-74.884

>  <SCORE.INTRA.VDW>
0.109944

>  <SCORE.INTRA.VDW.0>
-0.858933

>  <SCORE.INTRA.norm>
-0.0636433

>  <SCORE.RESTR>
0

>  <SCORE.RESTR.CAVITY>
0

>  <SCORE.RESTR.norm>
0

>  <SCORE.SYSTEM>
0

>  <SCORE.SYSTEM.CONST>
0

>  <SCORE.SYSTEM.DIHEDRAL>
0

>  <SCORE.SYSTEM.SOLV>
0

>  <SCORE.SYSTEM.norm>
0

>  <SCORE.heavy>
22

>  <SCORE.norm>
-0.646488

>  <RMSD>
6.388

$$$$
2et8_lig
 OpenBabel11021811433D
libRbt.so/2013.1/901 2013/11/27
 22 23  0  0  0  0  0  0  0  0999 V2000
   24.2163   15.8618   37.6338 N   0  0  0  0  0  0  0  0  0  0  0  0
   20.0273   15.7764   34.9781 N   0  0  0  0  0  0  0  0  0  0  0  0
   20.6963   12.1808   32.3770 N   0  0  0  0  0  0  0  0  0  0  0  0
   24.3412   16.5047   32.7453 O   0  0  0  0  0  0  0  0  0  0  0  0
   23.5493   16.7606   33.9313 C   0  0  2  0  0  0  0  0  0  0  0  0
   21.2819   18.4412   30.3587 N   0  0  0  0  0  0  0  0  0  0  0  0
   25.5876   16.7560   35.3628 O   0  0  0  0  0  0  0  0  0  0  0  0
   24.2903   16.1715   35.1918 C   0  0  1  0  0  0  0  0  0  0  0  0
   21.5221   16.6072   32.6994 O   0  0  0  0  0  0  0  0  0  0  0  0
   23.4950   16.4357   36.4467 C   0  0  1  0  0  0  0  0  0  0  0  0
   21.6816   14.7825   31.3038 O   0  0  0  0  0  0  0  0  0  0  0  0
   22.0925   15.8016   36.3020 C   0  0  0  0  0  0  0  0  0  0  0  0
   18.1416   14.8086   30.4157 O   0  0  0  0  0  0  0  0  0  0  0  0
   21.4016   16.4320   35.0575 C   0  0  1  0  0  0  0  0  0  0  0  0
   18.9471   17.2548   29.3182 O   0  0  0  0  0  0  0  0  0  0  0  0
   22.1360   16.0656   33.8020 C   0  0  2  0  0  0  0  0  0  0  0  0
   21.9430   16.2840   31.4148 C   0  0  1  0  0  0  0  0  0  0  0  0
   20.2325   14.4294   31.4079 C   0  0  2  0  0  0  0  0  0  0  0  0
   20.0328   12.9067   31.2601 C   0  0  0  0  0  0  0  0  0  0  0  0
   19.4876   15.1264   30.3089 C   0  0  2  0  0  0  0  0  0  0  0  0
   19.6539   16.6161   30.3912 C   0  0  1  0  0  0  0  0  0  0  0  0
   21.1032   16.9465   30.2869 C   0  0  1  0  0  0  0  0  0  0  0  0
  5  4  1  6  0  0  0
  5  8  1  0  0  0  0
  5 16  1  0  0  0  0
  8  7  1  1  0  0  0
  8 10  1  0  0  0  0
 10  1  1  1  0  0  0
 10 12  1  0  0  0  0
 11 18  1  0  0  0  0
 12 14  1  0  0  0  0
 14  2  1  6  0  0  0
 14 16  1  0  0  0  0
 16  9  1  6  0  0  0
 17  9  1  1  0  0  0
 17 11  1  0  0  0  0
 17 22  1  0  0  0  0
 18 19  1  6  0  0  0
 18 20  1  0  0  0  0
 19  3  1  0  0  0  0
 20 13  1  1  0  0  0
 20 21  1  0  0  0  0
 21 15  1  6  0  0  0
 21 22  1  0  0  0  0
 22  6  1  1  0  0  0
M  END
>  <CHROM.1>
72.73213946,62.93331271,63.68622155,21.62963483,15.86264816,32.83046481,0.55544806
0.77049365,2.27951805

>  <Name>
2et8_lig

>  <RI>
0

>  <Rbt.Current_Directory>
/home/itssahil/PROJECTS/Mol_Feturizer/New_Systems/rnas/2et8

>  <Rbt.Executable>
rbdock ($Id: //depot/dev/client3/rdock/2013.1/src/exe/rbdock.cxx#4 $)

>  <Rbt.Library>
libRbt.so (2013.1, Build901 2013/11/27)

>  <Rbt.Parameter_File>
/export/apps/rDock/src/rDock_2013.1_src/data/scripts/dock_solv.prm

>  <Rbt.Receptor>
prm/pocket_docking_7.prm

>  <SCORE>
-11.6439

>  <SCORE.INTER>
-9.06086

>  <SCORE.INTER.CONST>
1

>  <SCORE.INTER.POLAR>
-1.70981

>  <SCORE.INTER.ROT>
3

>  <SCORE.INTER.SOLV>
16.0745

>  <SCORE.INTER.VDW>
-11.2993

>  <SCORE.INTER.norm>
-0.411857

>  <SCORE.INTRA>
-2.58308

>  <SCORE.INTRA.DIHEDRAL>
-3.96247

>  <SCORE.INTRA.DIHEDRAL.0>
4.99603

>  <SCORE.INTRA.POLAR>
0

>  <SCORE.INTRA.POLAR.0>
0

>  <SCORE.INTRA.REPUL>
0

>  <SCORE.INTRA.REPUL.0>
0

>  <SCORE.INTRA.SOLV>
-0.709319

>  <SCORE.INTRA.SOLV.lig_0>
-74.884

>  <SCORE.INTRA.VDW>
-0.247188

>  <SCORE.INTRA.VDW.0>
-0.858933

>  <SCORE.INTRA.norm>
-0.117413

>  <SCORE.RESTR>
0

>  <SCORE.RESTR.CAVITY>
0

>  <SCORE.RESTR.norm>
0

>  <SCORE.SYSTEM>
0

>  <SCORE.SYSTEM.CONST>
0

>  <SCORE.SYSTEM.DIHEDRAL>
0

>  <SCORE.SYSTEM.SOLV>
0

>  <SCORE.SYSTEM.norm>
0

>  <SCORE.heavy>
22

>  <SCORE.norm>
-0.52927

>  <RMSD>
6.390

$$$$
2et8_lig
 OpenBabel11021811433D
libRbt.so/2013.1/901 2013/11/27
 22 23  0  0  0  0  0  0  0  0999 V2000
   19.5705   10.0486   42.1112 N   0  0  0  0  0  0  0  0  0  0  0  0
   18.8482   14.2034   39.4989 N   0  0  0  0  0  0  0  0  0  0  0  0
   18.3176   14.4716   34.7355 N   0  0  0  0  0  0  0  0  0  0  0  0
   23.0598   11.7160   39.0500 O   0  0  0  0  0  0  0  0  0  0  0  0
   22.0093   12.1373   39.9546 C   0  0  2  0  0  0  0  0  0  0  0  0
   23.8182   15.9485   38.0861 N   0  0  0  0  0  0  0  0  0  0  0  0
   22.2483   10.0513   41.2946 O   0  0  0  0  0  0  0  0  0  0  0  0
   21.3138   10.8664   40.5761 C   0  0  1  0  0  0  0  0  0  0  0  0
   21.5658   14.0761   38.6528 O   0  0  0  0  0  0  0  0  0  0  0  0
   20.2226   11.2742   41.5353 C   0  0  1  0  0  0  0  0  0  0  0  0
   21.5287   13.3922   36.4543 O   0  0  0  0  0  0  0  0  0  0  0  0
   19.1860   12.1423   40.7858 C   0  0  0  0  0  0  0  0  0  0  0  0
   19.9870   16.4687   35.2381 O   0  0  0  0  0  0  0  0  0  0  0  0
   19.9217   13.3882   40.2116 C   0  0  1  0  0  0  0  0  0  0  0  0
   22.4332   17.4700   36.1604 O   0  0  0  0  0  0  0  0  0  0  0  0
   20.9241   12.9793   39.1733 C   0  0  2  0  0  0  0  0  0  0  0  0
   22.4183   13.9557   37.5617 C   0  0  1  0  0  0  0  0  0  0  0  0
   20.4207   14.3168   36.0635 C   0  0  2  0  0  0  0  0  0  0  0  0
   19.5785   13.7043   34.9252 C   0  0  0  0  0  0  0  0  0  0  0  0
   21.0169   15.6075   35.5869 C   0  0  2  0  0  0  0  0  0  0  0  0
   21.8612   16.2484   36.6498 C   0  0  1  0  0  0  0  0  0  0  0  0
   22.9575   15.3116   37.0256 C   0  0  1  0  0  0  0  0  0  0  0  0
  5  4  1  6  0  0  0
  5  8  1  0  0  0  0
  5 16  1  0  0  0  0
  8  7  1  1  0  0  0
  8 10  1  0  0  0  0
 10  1  1  6  0  0  0
 10 12  1  0  0  0  0
 11 18  1  0  0  0  0
 12 14  1  0  0  0  0
 14  2  1  6  0  0  0
 14 16  1  0  0  0  0
 16  9  1  1  0  0  0
 17  9  1  1  0  0  0
 17 11  1  0  0  0  0
 17 22  1  0  0  0  0
 18 19  1  6  0  0  0
 18 20  1  0  0  0  0
 19  3  1  0  0  0  0
 20 13  1  1  0  0  0
 20 21  1  0  0  0  0
 21 15  1  6  0  0  0
 21 22  1  0  0  0  0
 22  6  1  1  0  0  0
M  END
>  <CHROM.1>
73.73258329,59.85761367,167.76924810,21.07553672,13.63587630,38.21946090
1.61127684,0.27670156,2.28700067

>  <Name>
2et8_lig

>  <RI>
2.82936e+07

>  <Rbt.Current_Directory>
/home/itssahil/PROJECTS/Mol_Feturizer/New_Systems/rnas/2et8

>  <Rbt.Executable>
rbdock ($Id: //depot/dev/client3/rdock/2013.1/src/exe/rbdock.cxx#4 $)

>  <Rbt.Library>
libRbt.so (2013.1, Build901 2013/11/27)

>  <Rbt.Parameter_File>
/export/apps/rDock/src/rDock_2013.1_src/data/scripts/dock_solv.prm

>  <Rbt.Receptor>
prm/pocket_docking_8.prm

>  <SCORE>
-13.6601

>  <SCORE.INTER>
-12.1441

>  <SCORE.INTER.CONST>
1

>  <SCORE.INTER.POLAR>
-0.863422

>  <SCORE.INTER.ROT>
3

>  <SCORE.INTER.SOLV>
14.398

>  <SCORE.INTER.VDW>
-15.6173

>  <SCORE.INTER.norm>
-0.552006

>  <SCORE.INTRA>
-1.51601

>  <SCORE.INTRA.DIHEDRAL>
-3.41603

>  <SCORE.INTRA.DIHEDRAL.0>
4.99603

>  <SCORE.INTRA.POLAR>
0

>  <SCORE.INTRA.POLAR.0>
0

>  <SCORE.INTRA.REPUL>
0

>  <SCORE.INTRA.REPUL.0>
0

>  <SCORE.INTRA.SOLV>
0.340335

>  <SCORE.INTRA.SOLV.lig_0>
-74.884

>  <SCORE.INTRA.VDW>
0.0218391

>  <SCORE.INTRA.VDW.0>
-0.858933

>  <SCORE.INTRA.norm>
-0.0689094

>  <SCORE.RESTR>
0

>  <SCORE.RESTR.CAVITY>
0

>  <SCORE.RESTR.norm>
0

>  <SCORE.SYSTEM>
0

>  <SCORE.SYSTEM.CONST>
0

>  <SCORE.SYSTEM.DIHEDRAL>
0

>  <SCORE.SYSTEM.SOLV>
0

>  <SCORE.SYSTEM.norm>
0

>  <SCORE.heavy>
22

>  <SCORE.norm>
-0.620915

>  <RMSD>
6.392

$$$$
2et8_lig
 OpenBabel11021811433D
libRbt.so/2013.1/901 2013/11/27
 22 23  0  0  0  0  0  0  0  0999 V2000
   21.2620   10.0246   42.1788 N   0  0  0  0  0  0  0  0  0  0  0  0
   21.5881   12.1628   37.7146 N   0  0  0  0  0  0  0  0  0  0  0  0
   21.8941   18.1780   38.0646 N   0  0  0  0  0  0  0  0  0  0  0  0
   18.4784   13.9434   41.0740 O   0  0  0  0  0  0  0  0  0  0  0  0
   19.0806   12.7505   40.5139 C   0  0  2  0  0  0  0  0  0  0  0  0
   16.8674   14.9025   37.1767 N   0  0  0  0  0  0  0  0  0  0  0  0
   19.0229   11.6124   42.7288 O   0  0  0  0  0  0  0  0  0  0  0  0
   19.8769   11.9883   41.6409 C   0  0  1  0  0  0  0  0  0  0  0  0
   19.3545   13.7950   38.3962 O   0  0  0  0  0  0  0  0  0  0  0  0
   20.5046   10.7316   41.0900 C   0  0  1  0  0  0  0  0  0  0  0  0
   20.1808   15.9174   38.7354 O   0  0  0  0  0  0  0  0  0  0  0  0
   21.4478   11.1044   39.9232 C   0  0  0  0  0  0  0  0  0  0  0  0
   20.9585   16.4730   35.2130 O   0  0  0  0  0  0  0  0  0  0  0  0
   20.6075   11.8345   38.8351 C   0  0  1  0  0  0  0  0  0  0  0  0
   18.1704   16.2592   35.0783 O   0  0  0  0  0  0  0  0  0  0  0  0
   20.0845   13.1397   39.3573 C   0  0  2  0  0  0  0  0  0  0  0  0
   18.9013   15.0926   38.6024 C   0  0  1  0  0  0  0  0  0  0  0  0
   21.0102   15.9195   37.4914 C   0  0  2  0  0  0  0  0  0  0  0  0
   22.2697   16.7903   37.6802 C   0  0  0  0  0  0  0  0  0  0  0  0
   20.1920   16.4849   36.3690 C   0  0  2  0  0  0  0  0  0  0  0  0
   18.9416   15.6854   36.1437 C   0  0  1  0  0  0  0  0  0  0  0  0
   18.1309   15.6947   37.3939 C   0  0  1  0  0  0  0  0  0  0  0  0
  5  4  1  1  0  0  0
  5  8  1  0  0  0  0
  5 16  1  0  0  0  0
  8  7  1  1  0  0  0
  8 10  1  0  0  0  0
 10  1  1  1  0  0  0
 10 12  1  0  0  0  0
 11 18  1  0  0  0  0
 12 14  1  0  0  0  0
 14  2  1  6  0  0  0
 14 16  1  0  0  0  0
 16  9  1  6  0  0  0
 17  9  1  6  0  0  0
 17 11  1  0  0  0  0
 17 22  1  0  0  0  0
 18 19  1  1  0  0  0
 18 20  1  0  0  0  0
 19  3  1  0  0  0  0
 20 13  1  6  0  0  0
 20 21  1  0  0  0  0
 21 15  1  6  0  0  0
 21 22  1  0  0  0  0
 22  6  1  6  0  0  0
M  END
>  <CHROM.1>
73.25869651,63.25805795,-56.98455108,19.93106732,14.14001943,38.69242413
-1.53233105,0.00310867,-0.75697957

>  <Name>
2et8_lig

>  <RI>
0

>  <Rbt.Current_Directory>
/home/itssahil/PROJECTS/Mol_Feturizer/New_Systems/rnas/2et8

>  <Rbt.Executable>
rbdock ($Id: //depot/dev/client3/rdock/2013.1/src/exe/rbdock.cxx#4 $)

>  <Rbt.Library>
libRbt.so (2013.1, Build901 2013/11/27)

>  <Rbt.Parameter_File>
/export/apps/rDock/src/rDock_2013.1_src/data/scripts/dock_solv.prm

>  <Rbt.Receptor>
prm/pocket_docking_5.prm

>  <SCORE>
-12.4374

>  <SCORE.INTER>
-10.6498

>  <SCORE.INTER.CONST>
1

>  <SCORE.INTER.POLAR>
-0.907415

>  <SCORE.INTER.ROT>
3

>  <SCORE.INTER.SOLV>
14.675

>  <SCORE.INTER.VDW>
-14.5668

>  <SCORE.INTER.norm>
-0.484082

>  <SCORE.INTRA>
-1.78759

>  <SCORE.INTRA.DIHEDRAL>
-3.90859

>  <SCORE.INTRA.DIHEDRAL.0>
4.99603

>  <SCORE.INTRA.POLAR>
0

>  <SCORE.INTRA.POLAR.0>
0

>  <SCORE.INTRA.REPUL>
0

>  <SCORE.INTRA.REPUL.0>
0

>  <SCORE.INTRA.SOLV>
0.702276

>  <SCORE.INTRA.SOLV.lig_0>
-74.884

>  <SCORE.INTRA.VDW>
-0.184428

>  <SCORE.INTRA.VDW.0>
-0.858933

>  <SCORE.INTRA.norm>
-0.0812539

>  <SCORE.RESTR>
0

>  <SCORE.RESTR.CAVITY>
0

>  <SCORE.RESTR.norm>
0

>  <SCORE.SYSTEM>
0

>  <SCORE.SYSTEM.CONST>
0

>  <SCORE.SYSTEM.DIHEDRAL>
0

>  <SCORE.SYSTEM.SOLV>
0

>  <SCORE.SYSTEM.norm>
0

>  <SCORE.heavy>
22

>  <SCORE.norm>
-0.565336

>  <RMSD>
6.393

$$$$
2et8_lig
 OpenBabel11021811433D
libRbt.so/2013.1/901 2013/11/27
 22 23  0  0  0  0  0  0  0  0999 V2000
   18.9558   10.8961   41.9144 N   0  0  0  0  0  0  0  0  0  0  0  0
   19.0139   14.8853   38.9664 N   0  0  0  0  0  0  0  0  0  0  0  0
   20.6901   13.9964   33.3936 N   0  0  0  0  0  0  0  0  0  0  0  0
   22.8868   11.8671   39.0983 O   0  0  0  0  0  0  0  0  0  0  0  0
   21.8256   12.4865   39.8661 C   0  0  2  0  0  0  0  0  0  0  0  0
   24.3311   15.7752   37.9031 N   0  0  0  0  0  0  0  0  0  0  0  0
   21.6719   10.5013   41.3625 O   0  0  0  0  0  0  0  0  0  0  0  0
   20.9183   11.3657   40.5029 C   0  0  1  0  0  0  0  0  0  0  0  0
   21.7548   14.3547   38.3979 O   0  0  0  0  0  0  0  0  0  0  0  0
   19.8104   11.9812   41.3218 C   0  0  1  0  0  0  0  0  0  0  0  0
   21.6734   13.6553   36.2054 O   0  0  0  0  0  0  0  0  0  0  0  0
   18.9656   12.9082   40.4180 C   0  0  0  0  0  0  0  0  0  0  0  0
   20.7666   16.9426   34.9045 O   0  0  0  0  0  0  0  0  0  0  0  0
   19.9052   14.0031   39.8337 C   0  0  1  0  0  0  0  0  0  0  0  0
   23.3195   17.4943   35.9124 O   0  0  0  0  0  0  0  0  0  0  0  0
   20.9321   13.3912   38.9277 C   0  0  2  0  0  0  0  0  0  0  0  0
   22.6101   14.0638   37.3417 C   0  0  1  0  0  0  0  0  0  0  0  0
   20.7684   14.7606   35.7643 C   0  0  2  0  0  0  0  0  0  0  0  0
   19.8705   14.2948   34.5994 C   0  0  0  0  0  0  0  0  0  0  0  0
   21.6080   15.9132   35.3002 C   0  0  2  0  0  0  0  0  0  0  0  0
   22.5160   16.4053   36.3896 C   0  0  1  0  0  0  0  0  0  0  0  0
   23.4076   15.2899   36.8154 C   0  0  1  0  0  0  0  0  0  0  0  0
  5  4  1  6  0  0  0
  5  8  1  0  0  0  0
  5 16  1  0  0  0  0
  8  7  1  1  0  0  0
  8 10  1  0  0  0  0
 10  1  1  6  0  0  0
 10 12  1  0  0  0  0
 11 18  1  0  0  0  0
 12 14  1  0  0  0  0
 14  2  1  6  0  0  0
 14 16  1  0  0  0  0
 16  9  1  1  0  0  0
 17  9  1  1  0  0  0
 17 11  1  0  0  0  0
 17 22  1  0  0  0  0
 18 19  1  6  0  0  0
 18 20  1  0  0  0  0
 19  3  1  0  0  0  0
 20 13  1  1  0  0  0
 20 21  1  0  0  0  0
 21 15  1  6  0  0  0
 21 22  1  0  0  0  0
 22  6  1  1  0  0  0
M  END
>  <CHROM.1>
78.25512274,61.75304474,-65.28567018,21.30508391,13.97158045,37.94089921
1.79107263,0.27177395,2.15603484

>  <Name>
2et8_lig

>  <RI>
0

>  <Rbt.Current_Directory>
/home/itssahil/PROJECTS/Mol_Feturizer/New_Systems/rnas/2et8

>  <Rbt.Executable>
rbdock ($Id: //depot/dev/client3/rdock/2013.1/src/exe/rbdock.cxx#4 $)

>  <Rbt.Library>
libRbt.so (2013.1, Build901 2013/11/27)

>  <Rbt.Parameter_File>
/export/apps/rDock/src/rDock_2013.1_src/data/scripts/dock_solv.prm

>  <Rbt.Receptor>
prm/pocket_docking_3.prm

>  <SCORE>
-12.5482

>  <SCORE.INTER>
-11.1401

>  <SCORE.INTER.CONST>
1

>  <SCORE.INTER.POLAR>
-0.878736

>  <SCORE.INTER.ROT>
3

>  <SCORE.INTER.SOLV>
18.0545

>  <SCORE.INTER.VDW>
-16.1158

>  <SCORE.INTER.norm>
-0.506367

>  <SCORE.INTRA>
-1.42171

>  <SCORE.INTRA.DIHEDRAL>
-3.21005

>  <SCORE.INTRA.DIHEDRAL.0>
4.99603

>  <SCORE.INTRA.POLAR>
0

>  <SCORE.INTRA.POLAR.0>
0

>  <SCORE.INTRA.REPUL>
0

>  <SCORE.INTRA.REPUL.0>
0

>  <SCORE.INTRA.SOLV>
1.07589

>  <SCORE.INTRA.SOLV.lig_0>
-74.884

>  <SCORE.INTRA.VDW>
-0.354636

>  <SCORE.INTRA.VDW.0>
-0.858933

>  <SCORE.INTRA.norm>
-0.0646234

>  <SCORE.RESTR>
0.0135525

>  <SCORE.RESTR.CAVITY>
0.0135525

>  <SCORE.RESTR.norm>
0.000616022

>  <SCORE.SYSTEM>
0

>  <SCORE.SYSTEM.CONST>
0

>  <SCORE.SYSTEM.DIHEDRAL>
0

>  <SCORE.SYSTEM.SOLV>
0

>  <SCORE.SYSTEM.norm>
0

>  <SCORE.heavy>
22

>  <SCORE.norm>
-0.570375

>  <RMSD>
6.401

$$$$
2et8_lig
 OpenBabel11021811433D
libRbt.so/2013.1/901 2013/11/27
 22 23  0  0  0  0  0  0  0  0999 V2000
   21.1554   10.6725   42.2901 N   0  0  0  0  0  0  0  0  0  0  0  0
   21.5720   12.1193   37.5635 N   0  0  0  0  0  0  0  0  0  0  0  0
   16.2886   13.3793   34.3895 N   0  0  0  0  0  0  0  0  0  0  0  0
   18.0925   14.0635   40.4338 O   0  0  0  0  0  0  0  0  0  0  0  0
   18.8406   12.8677   40.1028 C   0  0  2  0  0  0  0  0  0  0  0  0
   20.9484   15.9509   38.2282 N   0  0  0  0  0  0  0  0  0  0  0  0
   18.7445   12.0848   42.4654 O   0  0  0  0  0  0  0  0  0  0  0  0
   19.6292   12.3753   41.3759 C   0  0  1  0  0  0  0  0  0  0  0  0
   19.1538   13.5960   37.8618 O   0  0  0  0  0  0  0  0  0  0  0  0
   20.4081   11.1207   41.0655 C   0  0  1  0  0  0  0  0  0  0  0  0
   18.7511   14.1929   35.6746 O   0  0  0  0  0  0  0  0  0  0  0  0
   21.3868   11.4052   39.9031 C   0  0  0  0  0  0  0  0  0  0  0  0
   16.5687   16.9839   36.5515 O   0  0  0  0  0  0  0  0  0  0  0  0
   20.5550   11.8675   38.6712 C   0  0  1  0  0  0  0  0  0  0  0  0
   18.9877   17.8859   37.6340 O   0  0  0  0  0  0  0  0  0  0  0  0
   19.8774   13.1762   38.9508 C   0  0  2  0  0  0  0  0  0  0  0  0
   19.7653   14.2751   36.8147 C   0  0  1  0  0  0  0  0  0  0  0  0
   17.4663   14.8939   35.9800 C   0  0  2  0  0  0  0  0  0  0  0  0
   16.4983   14.7993   34.7824 C   0  0  0  0  0  0  0  0  0  0  0  0
   17.7601   16.3385   36.2548 C   0  0  2  0  0  0  0  0  0  0  0  0
   18.7103   16.4966   37.4061 C   0  0  1  0  0  0  0  0  0  0  0  0
   19.9822   15.7909   37.0827 C   0  0  1  0  0  0  0  0  0  0  0  0
  5  4  1  1  0  0  0
  5  8  1  0  0  0  0
  5 16  1  0  0  0  0
  8  7  1  1  0  0  0
  8 10  1  0  0  0  0
 10  1  1  1  0  0  0
 10 12  1  0  0  0  0
 11 18  1  0  0  0  0
 12 14  1  0  0  0  0
 14  2  1  6  0  0  0
 14 16  1  0  0  0  0
 16  9  1  6  0  0  0
 17  9  1  1  0  0  0
 17 11  1  0  0  0  0
 17 22  1  0  0  0  0
 18 19  1  6  0  0  0
 18 20  1  0  0  0  0
 19  3  1  0  0  0  0
 20 13  1  1  0  0  0
 20 21  1  0  0  0  0
 21 15  1  6  0  0  0
 21 22  1  0  0  0  0
 22  6  1  1  0  0  0
M  END
>  <CHROM.1>
162.74377145,164.06431172,54.88955015,19.10853412,13.95817249,38.25244878
-0.02505038,1.18929128,-2.43964712

>  <Name>
2et8_lig

>  <RI>
3.14397e+07

>  <Rbt.Current_Directory>
/home/itssahil/PROJECTS/Mol_Feturizer/New_Systems/rnas/2et8

>  <Rbt.Executable>
rbdock ($Id: //depot/dev/client3/rdock/2013.1/src/exe/rbdock.cxx#4 $)

>  <Rbt.Library>
libRbt.so (2013.1, Build901 2013/11/27)

>  <Rbt.Parameter_File>
/export/apps/rDock/src/rDock_2013.1_src/data/scripts/dock_solv.prm

>  <Rbt.Receptor>
prm/pocket_docking_6.prm

>  <SCORE>
-10.102

>  <SCORE.INTER>
-9.02266

>  <SCORE.INTER.CONST>
1

>  <SCORE.INTER.POLAR>
-0.903013

>  <SCORE.INTER.ROT>
3

>  <SCORE.INTER.SOLV>
17.3452

>  <SCORE.INTER.VDW>
-14.3868

>  <SCORE.INTER.norm>
-0.410121

>  <SCORE.INTRA>
-1.07934

>  <SCORE.INTRA.DIHEDRAL>
-2.22319

>  <SCORE.INTRA.DIHEDRAL.0>
4.99603

>  <SCORE.INTRA.POLAR>
0

>  <SCORE.INTRA.POLAR.0>
0

>  <SCORE.INTRA.REPUL>
0

>  <SCORE.INTRA.REPUL.0>
0

>  <SCORE.INTRA.SOLV>
1.56812

>  <SCORE.INTRA.SOLV.lig_0>
-74.884

>  <SCORE.INTRA.VDW>
-0.751809

>  <SCORE.INTRA.VDW.0>
-0.858933

>  <SCORE.INTRA.norm>
-0.049061

>  <SCORE.RESTR>
0

>  <SCORE.RESTR.CAVITY>
0

>  <SCORE.RESTR.norm>
0

>  <SCORE.SYSTEM>
0

>  <SCORE.SYSTEM.CONST>
0

>  <SCORE.SYSTEM.DIHEDRAL>
0

>  <SCORE.SYSTEM.SOLV>
0

>  <SCORE.SYSTEM.norm>
0

>  <SCORE.heavy>
22

>  <SCORE.norm>
-0.459182

>  <RMSD>
6.402

$$$$
2et8_lig
 OpenBabel11021811433D
libRbt.so/2013.1/901 2013/11/27
 22 23  0  0  0  0  0  0  0  0999 V2000
   19.5573   10.0646   42.1231 N   0  0  0  0  0  0  0  0  0  0  0  0
   18.8646   14.2002   39.4726 N   0  0  0  0  0  0  0  0  0  0  0  0
   18.4061   14.5269   34.7064 N   0  0  0  0  0  0  0  0  0  0  0  0
   23.0836   11.7136   39.0945 O   0  0  0  0  0  0  0  0  0  0  0  0
   22.0214   12.1403   39.9828 C   0  0  2  0  0  0  0  0  0  0  0  0
   23.8823   15.9099   38.1416 N   0  0  0  0  0  0  0  0  0  0  0  0
   22.2452   10.0640   41.3404 O   0  0  0  0  0  0  0  0  0  0  0  0
   21.3192   10.8732   40.6044 C   0  0  1  0  0  0  0  0  0  0  0  0
   21.5927   14.0695   38.6618 O   0  0  0  0  0  0  0  0  0  0  0  0
   20.2157   11.2867   41.5468 C   0  0  1  0  0  0  0  0  0  0  0  0
   21.5802   13.3982   36.4591 O   0  0  0  0  0  0  0  0  0  0  0  0
   19.1878   12.1485   40.7783 C   0  0  0  0  0  0  0  0  0  0  0  0
   20.1054   16.5048   35.2362 O   0  0  0  0  0  0  0  0  0  0  0  0
   19.9297   13.3910   40.2046 C   0  0  1  0  0  0  0  0  0  0  0  0
   22.5517   17.4631   36.2029 O   0  0  0  0  0  0  0  0  0  0  0  0
   20.9454   12.9757   39.1819 C   0  0  2  0  0  0  0  0  0  0  0  0
   22.4605   13.9419   37.5837 C   0  0  1  0  0  0  0  0  0  0  0  0
   20.4928   14.3419   36.0562 C   0  0  2  0  0  0  0  0  0  0  0  0
   19.6596   13.7487   34.9011 C   0  0  0  0  0  0  0  0  0  0  0  0
   21.1163   15.6259   35.5964 C   0  0  2  0  0  0  0  0  0  0  0  0
   21.9534   16.2478   36.6762 C   0  0  1  0  0  0  0  0  0  0  0  0
   23.0289   15.2922   37.0639 C   0  0  1  0  0  0  0  0  0  0  0  0
  5  4  1  6  0  0  0
  5  8  1  0  0  0  0
  5 16  1  0  0  0  0
  8  7  1  1  0  0  0
  8 10  1  0  0  0  0
 10  1  1  6  0  0  0
 10 12  1  0  0  0  0
 11 18  1  0  0  0  0
 12 14  1  0  0  0  0
 14  2  1  6  0  0  0
 14 16  1  0  0  0  0
 16  9  1  1  0  0  0
 17  9  1  1  0  0  0
 17 11  1  0  0  0  0
 17 22  1  0  0  0  0
 18 19  1  6  0  0  0
 18 20  1  0  0  0  0
 19  3  1  0  0  0  0
 20 13  1  1  0  0  0
 20 21  1  0  0  0  0
 21 15  1  6  0  0  0
 21 22  1  0  0  0  0
 22  6  1  1  0  0  0
M  END
>  <CHROM.1>
73.63635295,61.09987543,167.10557951,21.12114902,13.64280048,38.23268183
1.62389470,0.27613165,2.28195621

>  <Name>
2et8_lig

>  <RI>
0

>  <Rbt.Current_Directory>
/home/itssahil/PROJECTS/Mol_Feturizer/New_Systems/rnas/2et8

>  <Rbt.Executable>
rbdock ($Id: //depot/dev/client3/rdock/2013.1/src/exe/rbdock.cxx#4 $)

>  <Rbt.Library>
libRbt.so (2013.1, Build901 2013/11/27)

>  <Rbt.Parameter_File>
/export/apps/rDock/src/rDock_2013.1_src/data/scripts/dock_solv.prm

>  <Rbt.Receptor>
prm/pocket_docking_5.prm

>  <SCORE>
-13.6712

>  <SCORE.INTER>
-12.1404

>  <SCORE.INTER.CONST>
1

>  <SCORE.INTER.POLAR>
-0.831402

>  <SCORE.INTER.ROT>
3

>  <SCORE.INTER.SOLV>
14.405

>  <SCORE.INTER.VDW>
-15.7239

>  <SCORE.INTER.norm>
-0.551836

>  <SCORE.INTRA>
-1.53085

>  <SCORE.INTRA.DIHEDRAL>
-3.36588

>  <SCORE.INTRA.DIHEDRAL.0>
4.99603

>  <SCORE.INTRA.POLAR>
0

>  <SCORE.INTRA.POLAR.0>
0

>  <SCORE.INTRA.REPUL>
0

>  <SCORE.INTRA.REPUL.0>
0

>  <SCORE.INTRA.SOLV>
0.321698

>  <SCORE.INTRA.SOLV.lig_0>
-74.884

>  <SCORE.INTRA.VDW>
-0.00875319

>  <SCORE.INTRA.VDW.0>
-0.858933

>  <SCORE.INTRA.norm>
-0.0695839

>  <SCORE.RESTR>
0

>  <SCORE.RESTR.CAVITY>
0

>  <SCORE.RESTR.norm>
0

>  <SCORE.SYSTEM>
0

>  <SCORE.SYSTEM.CONST>
0

>  <SCORE.SYSTEM.DIHEDRAL>
0

>  <SCORE.SYSTEM.SOLV>
0

>  <SCORE.SYSTEM.norm>
0

>  <SCORE.heavy>
22

>  <SCORE.norm>
-0.62142

>  <RMSD>
6.407

$$$$
2et8_lig
 OpenBabel11021811433D
libRbt.so/2013.1/901 2013/11/27
 22 23  0  0  0  0  0  0  0  0999 V2000
   19.5438   10.0663   42.1281 N   0  0  0  0  0  0  0  0  0  0  0  0
   18.8604   14.2002   39.4726 N   0  0  0  0  0  0  0  0  0  0  0  0
   18.3934   14.5215   34.7170 N   0  0  0  0  0  0  0  0  0  0  0  0
   23.0776   11.7089   39.1047 O   0  0  0  0  0  0  0  0  0  0  0  0
   22.0141   12.1375   39.9906 C   0  0  2  0  0  0  0  0  0  0  0  0
   23.8770   15.9069   38.1372 N   0  0  0  0  0  0  0  0  0  0  0  0
   22.2332   10.0622   41.3505 O   0  0  0  0  0  0  0  0  0  0  0  0
   21.3094   10.8717   40.6120 C   0  0  1  0  0  0  0  0  0  0  0  0
   21.5900   14.0659   38.6671 O   0  0  0  0  0  0  0  0  0  0  0  0
   20.2045   11.2872   41.5520 C   0  0  1  0  0  0  0  0  0  0  0  0
   21.5705   13.3922   36.4652 O   0  0  0  0  0  0  0  0  0  0  0  0
   19.1790   12.1494   40.7807 C   0  0  0  0  0  0  0  0  0  0  0  0
   20.0902   16.4966   35.2436 O   0  0  0  0  0  0  0  0  0  0  0  0
   19.9233   13.3906   40.2073 C   0  0  1  0  0  0  0  0  0  0  0  0
   22.5392   17.4573   36.2012 O   0  0  0  0  0  0  0  0  0  0  0  0
   20.9405   12.9733   39.1870 C   0  0  2  0  0  0  0  0  0  0  0  0
   22.4543   13.9375   37.5862 C   0  0  1  0  0  0  0  0  0  0  0  0
   20.4813   14.3349   36.0647 C   0  0  2  0  0  0  0  0  0  0  0  0
   19.6446   13.7400   34.9131 C   0  0  0  0  0  0  0  0  0  0  0  0
   21.1027   15.6186   35.6014 C   0  0  2  0  0  0  0  0  0  0  0  0
   21.9430   16.2422   36.6778 C   0  0  1  0  0  0  0  0  0  0  0  0
   23.0203   15.2875   37.0631 C   0  0  1  0  0  0  0  0  0  0  0  0
  5  4  1  6  0  0  0
  5  8  1  0  0  0  0
  5 16  1  0  0  0  0
  8  7  1  1  0  0  0
  8 10  1  0  0  0  0
 10  1  1  6  0  0  0
 10 12  1  0  0  0  0
 11 18  1  0  0  0  0
 12 14  1  0  0  0  0
 14  2  1  6  0  0  0
 14 16  1  0  0  0  0
 16  9  1  1  0  0  0
 17  9  1  1  0  0  0
 17 11  1  0  0  0  0
 17 22  1  0  0  0  0
 18 19  1  6  0  0  0
 18 20  1  0  0  0  0
 19  3  1  0  0  0  0
 20 13  1  1  0  0  0
 20 21  1  0  0  0  0
 21 15  1  6  0  0  0
 21 22  1  0  0  0  0
 22  6  1  1  0  0  0
M  END
>  <CHROM.1>
73.97812704,60.82013815,167.39595222,21.11171399,13.63908963,38.23767059
1.62362603,0.27468098,2.28162737

>  <Name>
2et8_lig

>  <RI>
0

>  <Rbt.Current_Directory>
/home/itssahil/PROJECTS/Mol_Feturizer/New_Systems/rnas/2et8

>  <Rbt.Executable>
rbdock ($Id: //depot/dev/client3/rdock/2013.1/src/exe/rbdock.cxx#4 $)

>  <Rbt.Library>
libRbt.so (2013.1, Build901 2013/11/27)

>  <Rbt.Parameter_File>
/export/apps/rDock/src/rDock_2013.1_src/data/scripts/dock_solv.prm

>  <Rbt.Receptor>
prm/pocket_docking_5.prm

>  <SCORE>
-13.6597

>  <SCORE.INTER>
-12.1382

>  <SCORE.INTER.CONST>
1

>  <SCORE.INTER.POLAR>
-0.836058

>  <SCORE.INTER.ROT>
3

>  <SCORE.INTER.SOLV>
14.4247

>  <SCORE.INTER.VDW>
-15.7135

>  <SCORE.INTER.norm>
-0.551738

>  <SCORE.INTRA>
-1.5215

>  <SCORE.INTRA.DIHEDRAL>
-3.35195

>  <SCORE.INTRA.DIHEDRAL.0>
4.99603

>  <SCORE.INTRA.POLAR>
0

>  <SCORE.INTRA.POLAR.0>
0

>  <SCORE.INTRA.REPUL>
0

>  <SCORE.INTRA.REPUL.0>
0

>  <SCORE.INTRA.SOLV>
0.34482

>  <SCORE.INTRA.SOLV.lig_0>
-74.884

>  <SCORE.INTRA.VDW>
-0.0179404

>  <SCORE.INTRA.VDW.0>
-0.858933

>  <SCORE.INTRA.norm>
-0.0691593

>  <SCORE.RESTR>
0

>  <SCORE.RESTR.CAVITY>
0

>  <SCORE.RESTR.norm>
0

>  <SCORE.SYSTEM>
0

>  <SCORE.SYSTEM.CONST>
0

>  <SCORE.SYSTEM.DIHEDRAL>
0

>  <SCORE.SYSTEM.SOLV>
0

>  <SCORE.SYSTEM.norm>
0

>  <SCORE.heavy>
22

>  <SCORE.norm>
-0.620897

>  <RMSD>
6.409

$$$$
2et8_lig
 OpenBabel11021811433D
libRbt.so/2013.1/901 2013/11/27
 22 23  0  0  0  0  0  0  0  0999 V2000
   19.0288   12.1620   41.3261 N   0  0  0  0  0  0  0  0  0  0  0  0
   17.7906   15.9630   38.3888 N   0  0  0  0  0  0  0  0  0  0  0  0
   16.2205   13.8942   34.7039 N   0  0  0  0  0  0  0  0  0  0  0  0
   21.3274   12.8433   37.0158 O   0  0  0  0  0  0  0  0  0  0  0  0
   20.7107   13.5394   38.1269 C   0  0  2  0  0  0  0  0  0  0  0  0
   22.2081   16.6425   35.2033 N   0  0  0  0  0  0  0  0  0  0  0  0
   21.2276   11.6534   39.6695 O   0  0  0  0  0  0  0  0  0  0  0  0
   20.1739   12.4867   39.1702 C   0  0  1  0  0  0  0  0  0  0  0  0
   20.0044   15.3170   36.7156 O   0  0  0  0  0  0  0  0  0  0  0  0
   19.5377   13.1833   40.3478 C   0  0  1  0  0  0  0  0  0  0  0  0
   19.1648   14.4080   34.7737 O   0  0  0  0  0  0  0  0  0  0  0  0
   18.3826   14.0792   39.8446 C   0  0  0  0  0  0  0  0  0  0  0  0
   17.7887   17.5660   33.5675 O   0  0  0  0  0  0  0  0  0  0  0  0
   18.9715   15.1083   38.8360 C   0  0  1  0  0  0  0  0  0  0  0  0
   20.5212   18.1741   33.5450 O   0  0  0  0  0  0  0  0  0  0  0  0
   19.4968   14.4123   37.6155 C   0  0  2  0  0  0  0  0  0  0  0  0
   20.4350   14.9112   35.4581 C   0  0  1  0  0  0  0  0  0  0  0  0
   18.1398   15.4788   34.5777 C   0  0  2  0  0  0  0  0  0  0  0  0
   16.8967   14.9152   33.8584 C   0  0  0  0  0  0  0  0  0  0  0  0
   18.7365   16.5674   33.7365 C   0  0  2  0  0  0  0  0  0  0  0  0
   19.9617   17.1496   34.3794 C   0  0  1  0  0  0  0  0  0  0  0  0
   20.9689   16.0675   34.5668 C   0  0  1  0  0  0  0  0  0  0  0  0
  5  4  1  6  0  0  0
  5  8  1  0  0  0  0
  5 16  1  0  0  0  0
  8  7  1  1  0  0  0
  8 10  1  0  0  0  0
 10  1  1  1  0  0  0
 10 12  1  0  0  0  0
 11 18  1  0  0  0  0
 12 14  1  0  0  0  0
 14  2  1  6  0  0  0
 14 16  1  0  0  0  0
 16  9  1  6  0  0  0
 17  9  1  1  0  0  0
 17 11  1  0  0  0  0
 17 22  1  0  0  0  0
 18 19  1  6  0  0  0
 18 20  1  0  0  0  0
 19  3  1  0  0  0  0
 20 13  1  1  0  0  0
 20 21  1  0  0  0  0
 21 15  1  6  0  0  0
 21 22  1  0  0  0  0
 22  6  1  1  0  0  0
M  END
>  <CHROM.1>
71.73685266,64.62347288,64.43519630,19.45349156,14.84618794,36.57999245,1.46533336
0.08556894,2.15808703

>  <Name>
2et8_lig

>  <RI>
0

>  <Rbt.Current_Directory>
/home/itssahil/PROJECTS/Mol_Feturizer/New_Systems/rnas/2et8

>  <Rbt.Executable>
rbdock ($Id: //depot/dev/client3/rdock/2013.1/src/exe/rbdock.cxx#4 $)

>  <Rbt.Library>
libRbt.so (2013.1, Build901 2013/11/27)

>  <Rbt.Parameter_File>
/export/apps/rDock/src/rDock_2013.1_src/data/scripts/dock_solv.prm

>  <Rbt.Receptor>
prm/pocket_docking_5.prm

>  <SCORE>
-10.1544

>  <SCORE.INTER>
-7.61085

>  <SCORE.INTER.CONST>
1

>  <SCORE.INTER.POLAR>
-0.954126

>  <SCORE.INTER.ROT>
3

>  <SCORE.INTER.SOLV>
13.3173

>  <SCORE.INTER.VDW>
-11.9326

>  <SCORE.INTER.norm>
-0.345948

>  <SCORE.INTRA>
-2.54351

>  <SCORE.INTRA.DIHEDRAL>
-3.98805

>  <SCORE.INTRA.DIHEDRAL.0>
4.99603

>  <SCORE.INTRA.POLAR>
0

>  <SCORE.INTRA.POLAR.0>
0

>  <SCORE.INTRA.REPUL>
0

>  <SCORE.INTRA.REPUL.0>
0

>  <SCORE.INTRA.SOLV>
-0.740699

>  <SCORE.INTRA.SOLV.lig_0>
-74.884

>  <SCORE.INTRA.VDW>
-0.179134

>  <SCORE.INTRA.VDW.0>
-0.858933

>  <SCORE.INTRA.norm>
-0.115614

>  <SCORE.RESTR>
0

>  <SCORE.RESTR.CAVITY>
0

>  <SCORE.RESTR.norm>
0

>  <SCORE.SYSTEM>
0

>  <SCORE.SYSTEM.CONST>
0

>  <SCORE.SYSTEM.DIHEDRAL>
0

>  <SCORE.SYSTEM.SOLV>
0

>  <SCORE.SYSTEM.norm>
0

>  <SCORE.heavy>
22

>  <SCORE.norm>
-0.461562

>  <RMSD>
6.413

$$$$
2et8_lig
 OpenBabel11021811433D
libRbt.so/2013.1/901 2013/11/27
 22 23  0  0  0  0  0  0  0  0999 V2000
   18.9071   10.8961   41.9399 N   0  0  0  0  0  0  0  0  0  0  0  0
   19.0401   14.8608   38.9614 N   0  0  0  0  0  0  0  0  0  0  0  0
   19.0005   13.4269   34.9750 N   0  0  0  0  0  0  0  0  0  0  0  0
   22.8899   11.8181   39.1806 O   0  0  0  0  0  0  0  0  0  0  0  0
   21.8205   12.4508   39.9260 C   0  0  2  0  0  0  0  0  0  0  0  0
   24.4309   15.6434   38.0943 N   0  0  0  0  0  0  0  0  0  0  0  0
   21.6291   10.4789   41.4355 O   0  0  0  0  0  0  0  0  0  0  0  0
   20.8954   11.3412   40.5568 C   0  0  1  0  0  0  0  0  0  0  0  0
   21.7863   14.3074   38.4419 O   0  0  0  0  0  0  0  0  0  0  0  0
   19.7785   11.9707   41.3527 C   0  0  1  0  0  0  0  0  0  0  0  0
   21.8012   13.6177   36.2450 O   0  0  0  0  0  0  0  0  0  0  0  0
   18.9548   12.8959   40.4278 C   0  0  0  0  0  0  0  0  0  0  0  0
   21.0749   16.9371   34.9125 O   0  0  0  0  0  0  0  0  0  0  0  0
   19.9112   13.9798   39.8502 C   0  0  1  0  0  0  0  0  0  0  0  0
   23.5859   17.4010   36.0600 O   0  0  0  0  0  0  0  0  0  0  0  0
   20.9486   13.3537   38.9660 C   0  0  2  0  0  0  0  0  0  0  0  0
   22.6876   13.9916   37.4322 C   0  0  1  0  0  0  0  0  0  0  0  0
   20.9583   14.7536   35.7607 C   0  0  2  0  0  0  0  0  0  0  0  0
   20.1102   14.3213   34.5466 C   0  0  0  0  0  0  0  0  0  0  0  0
   21.8592   15.8792   35.3483 C   0  0  2  0  0  0  0  0  0  0  0  0
   22.7224   16.3378   36.4877 C   0  0  1  0  0  0  0  0  0  0  0  0
   23.5525   15.1922   36.9559 C   0  0  1  0  0  0  0  0  0  0  0  0
  5  4  1  6  0  0  0
  5  8  1  0  0  0  0
  5 16  1  0  0  0  0
  8  7  1  1  0  0  0
  8 10  1  0  0  0  0
 10  1  1  6  0  0  0
 10 12  1  0  0  0  0
 11 18  1  0  0  0  0
 12 14  1  0  0  0  0
 14  2  1  6  0  0  0
 14 16  1  0  0  0  0
 16  9  1  1  0  0  0
 17  9  1  1  0  0  0
 17 11  1  0  0  0  0
 17 22  1  0  0  0  0
 18 19  1  6  0  0  0
 18 20  1  0  0  0  0
 19  3  1  0  0  0  0
 20 13  1  1  0  0  0
 20 21  1  0  0  0  0
 21 15  1  6  0  0  0
 21 22  1  0  0  0  0
 22  6  1  1  0  0  0
M  END
>  <CHROM.1>
76.11512300,64.88305180,73.19901888,21.31336287,13.90910145,38.06428501,1.83427075
0.27946922,2.17740763

>  <Name>
2et8_lig

>  <RI>
0

>  <Rbt.Current_Directory>
/home/itssahil/PROJECTS/Mol_Feturizer/New_Systems/rnas/2et8

>  <Rbt.Executable>
rbdock ($Id: //depot/dev/client3/rdock/2013.1/src/exe/rbdock.cxx#4 $)

>  <Rbt.Library>
libRbt.so (2013.1, Build901 2013/11/27)

>  <Rbt.Parameter_File>
/export/apps/rDock/src/rDock_2013.1_src/data/scripts/dock_solv.prm

>  <Rbt.Receptor>
prm/pocket_docking_3.prm

>  <SCORE>
-10.8091

>  <SCORE.INTER>
-8.67818

>  <SCORE.INTER.CONST>
1

>  <SCORE.INTER.POLAR>
-0.348116

>  <SCORE.INTER.ROT>
3

>  <SCORE.INTER.SOLV>
18.5858

>  <SCORE.INTER.VDW>
-16.4203

>  <SCORE.INTER.norm>
-0.394463

>  <SCORE.INTRA>
-2.13482

>  <SCORE.INTRA.DIHEDRAL>
-2.90815

>  <SCORE.INTRA.DIHEDRAL.0>
4.99603

>  <SCORE.INTRA.POLAR>
0

>  <SCORE.INTRA.POLAR.0>
0

>  <SCORE.INTRA.REPUL>
0

>  <SCORE.INTRA.REPUL.0>
0

>  <SCORE.INTRA.SOLV>
-0.361563

>  <SCORE.INTRA.SOLV.lig_0>
-74.884

>  <SCORE.INTRA.VDW>
-0.499962

>  <SCORE.INTRA.VDW.0>
-0.858933

>  <SCORE.INTRA.norm>
-0.0970372

>  <SCORE.RESTR>
0.00389398

>  <SCORE.RESTR.CAVITY>
0.00389398

>  <SCORE.RESTR.norm>
0.000176999

>  <SCORE.SYSTEM>
0

>  <SCORE.SYSTEM.CONST>
0

>  <SCORE.SYSTEM.DIHEDRAL>
0

>  <SCORE.SYSTEM.SOLV>
0

>  <SCORE.SYSTEM.norm>
0

>  <SCORE.heavy>
22

>  <SCORE.norm>
-0.491323

>  <RMSD>
6.414

$$$$
2et8_lig
 OpenBabel11021811433D
libRbt.so/2013.1/901 2013/11/27
 22 23  0  0  0  0  0  0  0  0999 V2000
   21.0825   10.6206   42.3063 N   0  0  0  0  0  0  0  0  0  0  0  0
   21.5905   12.0545   37.5847 N   0  0  0  0  0  0  0  0  0  0  0  0
   16.3278   13.6124   34.3884 N   0  0  0  0  0  0  0  0  0  0  0  0
   18.1290   14.0882   40.4146 O   0  0  0  0  0  0  0  0  0  0  0  0
   18.8500   12.8735   40.0924 C   0  0  2  0  0  0  0  0  0  0  0  0
   21.1624   15.8161   38.2232 N   0  0  0  0  0  0  0  0  0  0  0  0
   18.7067   12.0942   42.4538 O   0  0  0  0  0  0  0  0  0  0  0  0
   19.6110   12.3615   41.3745 C   0  0  1  0  0  0  0  0  0  0  0  0
   19.2076   13.5928   37.8551 O   0  0  0  0  0  0  0  0  0  0  0  0
   20.3611   11.0873   41.0732 C   0  0  1  0  0  0  0  0  0  0  0  0
   18.8197   14.2408   35.6798 O   0  0  0  0  0  0  0  0  0  0  0  0
   21.3602   11.3462   39.9221 C   0  0  0  0  0  0  0  0  0  0  0  0
   16.8429   17.1631   36.6145 O   0  0  0  0  0  0  0  0  0  0  0  0
   20.5547   11.8293   38.6807 C   0  0  1  0  0  0  0  0  0  0  0  0
   19.3307   17.8864   37.6751 O   0  0  0  0  0  0  0  0  0  0  0  0
   19.9076   13.1549   38.9524 C   0  0  2  0  0  0  0  0  0  0  0  0
   19.8510   14.2408   36.8074 C   0  0  1  0  0  0  0  0  0  0  0  0
   17.5893   15.0237   36.0092 C   0  0  2  0  0  0  0  0  0  0  0  0
   16.6026   15.0088   34.8233 C   0  0  0  0  0  0  0  0  0  0  0  0
   17.9840   16.4418   36.2955 C   0  0  2  0  0  0  0  0  0  0  0  0
   18.9568   16.5218   37.4361 C   0  0  1  0  0  0  0  0  0  0  0  0
   20.1737   15.7352   37.0887 C   0  0  1  0  0  0  0  0  0  0  0  0
  5  4  1  1  0  0  0
  5  8  1  0  0  0  0
  5 16  1  0  0  0  0
  8  7  1  1  0  0  0
  8 10  1  0  0  0  0
 10  1  1  1  0  0  0
 10 12  1  0  0  0  0
 11 18  1  0  0  0  0
 12 14  1  0  0  0  0
 14  2  1  6  0  0  0
 14 16  1  0  0  0  0
 16  9  1  6  0  0  0
 17  9  1  1  0  0  0
 17 11  1  0  0  0  0
 17 22  1  0  0  0  0
 18 19  1  6  0  0  0
 18 20  1  0  0  0  0
 19  3  1  0  0  0  0
 20 13  1  1  0  0  0
 20 21  1  0  0  0  0
 21 15  1  6  0  0  0
 21 22  1  0  0  0  0
 22  6  1  1  0  0  0
M  END
>  <CHROM.1>
163.55629708,166.42776584,52.97490580,19.19454578,13.98029972,38.26470422
0.08764051,1.21899923,-2.54266750

>  <Name>
2et8_lig

>  <RI>
2.82936e+07

>  <Rbt.Current_Directory>
/home/itssahil/PROJECTS/Mol_Feturizer/New_Systems/rnas/2et8

>  <Rbt.Executable>
rbdock ($Id: //depot/dev/client3/rdock/2013.1/src/exe/rbdock.cxx#4 $)

>  <Rbt.Library>
libRbt.so (2013.1, Build901 2013/11/27)

>  <Rbt.Parameter_File>
/export/apps/rDock/src/rDock_2013.1_src/data/scripts/dock_solv.prm

>  <Rbt.Receptor>
prm/pocket_docking_8.prm

>  <SCORE>
-10.1545

>  <SCORE.INTER>
-9.03298

>  <SCORE.INTER.CONST>
1

>  <SCORE.INTER.POLAR>
-0.876076

>  <SCORE.INTER.ROT>
3

>  <SCORE.INTER.SOLV>
16.7105

>  <SCORE.INTER.VDW>
-14.2719

>  <SCORE.INTER.norm>
-0.41059

>  <SCORE.INTRA>
-1.12149

>  <SCORE.INTRA.DIHEDRAL>
-2.55902

>  <SCORE.INTRA.DIHEDRAL.0>
4.99603

>  <SCORE.INTRA.POLAR>
0

>  <SCORE.INTRA.POLAR.0>
0

>  <SCORE.INTRA.REPUL>
0

>  <SCORE.INTRA.REPUL.0>
0

>  <SCORE.INTRA.SOLV>
1.73786

>  <SCORE.INTRA.SOLV.lig_0>
-74.884

>  <SCORE.INTRA.VDW>
-0.71091

>  <SCORE.INTRA.VDW.0>
-0.858933

>  <SCORE.INTRA.norm>
-0.0509768

>  <SCORE.RESTR>
0

>  <SCORE.RESTR.CAVITY>
0

>  <SCORE.RESTR.norm>
0

>  <SCORE.SYSTEM>
0

>  <SCORE.SYSTEM.CONST>
0

>  <SCORE.SYSTEM.DIHEDRAL>
0

>  <SCORE.SYSTEM.SOLV>
0

>  <SCORE.SYSTEM.norm>
0

>  <SCORE.heavy>
22

>  <SCORE.norm>
-0.461567

>  <RMSD>
6.416

$$$$
2et8_lig
 OpenBabel11021811433D
libRbt.so/2013.1/901 2013/11/27
 22 23  0  0  0  0  0  0  0  0999 V2000
   21.6516   10.1323   41.9603 N   0  0  0  0  0  0  0  0  0  0  0  0
   21.4807   12.2986   37.5010 N   0  0  0  0  0  0  0  0  0  0  0  0
   17.0216   15.2012   33.9873 N   0  0  0  0  0  0  0  0  0  0  0  0
   18.4431   13.7707   41.0692 O   0  0  0  0  0  0  0  0  0  0  0  0
   19.1175   12.6412   40.4619 C   0  0  2  0  0  0  0  0  0  0  0  0
   20.2241   16.4162   38.9935 N   0  0  0  0  0  0  0  0  0  0  0  0
   19.3130   11.4995   42.6670 O   0  0  0  0  0  0  0  0  0  0  0  0
   20.0545   11.9565   41.5288 C   0  0  1  0  0  0  0  0  0  0  0  0
   19.1520   13.7102   38.3391 O   0  0  0  0  0  0  0  0  0  0  0  0
   20.7609   10.7659   40.9286 C   0  0  1  0  0  0  0  0  0  0  0  0
   18.7454   14.3533   36.1657 O   0  0  0  0  0  0  0  0  0  0  0  0
   21.5862   11.2283   39.7058 C   0  0  0  0  0  0  0  0  0  0  0  0
   15.8445   16.3952   37.0241 O   0  0  0  0  0  0  0  0  0  0  0  0
   20.6111   11.8769   38.6803 C   0  0  1  0  0  0  0  0  0  0  0  0
   17.8597   17.8105   38.3557 O   0  0  0  0  0  0  0  0  0  0  0  0
   20.0022   13.1258   39.2455 C   0  0  2  0  0  0  0  0  0  0  0  0
   19.6255   14.6072   37.3888 C   0  0  1  0  0  0  0  0  0  0  0  0
   17.3031   14.6662   36.4049 C   0  0  2  0  0  0  0  0  0  0  0  0
   16.4744   14.4170   35.1276 C   0  0  0  0  0  0  0  0  0  0  0  0
   17.1816   16.1106   36.7891 C   0  0  2  0  0  0  0  0  0  0  0  0
   17.9792   16.4199   38.0228 C   0  0  1  0  0  0  0  0  0  0  0  0
   19.4115   16.1004   37.7643 C   0  0  1  0  0  0  0  0  0  0  0  0
  5  4  1  1  0  0  0
  5  8  1  0  0  0  0
  5 16  1  0  0  0  0
  8  7  1  1  0  0  0
  8 10  1  0  0  0  0
 10  1  1  1  0  0  0
 10 12  1  0  0  0  0
 11 18  1  0  0  0  0
 12 14  1  0  0  0  0
 14  2  1  6  0  0  0
 14 16  1  0  0  0  0
 16  9  1  6  0  0  0
 17  9  1  1  0  0  0
 17 11  1  0  0  0  0
 17 22  1  0  0  0  0
 18 19  1  6  0  0  0
 18 20  1  0  0  0  0
 19  3  1  0  0  0  0
 20 13  1  1  0  0  0
 20 21  1  0  0  0  0
 21 15  1  6  0  0  0
 21 22  1  0  0  0  0
 22  6  1  1  0  0  0
M  END
>  <CHROM.1>
158.83636970,145.92560893,-55.93514370,19.04687804,13.91539201,38.55980802
-0.57388352,1.00881621,-1.72516368

>  <Name>
2et8_lig

>  <RI>
0

>  <Rbt.Current_Directory>
/home/itssahil/PROJECTS/Mol_Feturizer/New_Systems/rnas/2et8

>  <Rbt.Executable>
rbdock ($Id: //depot/dev/client3/rdock/2013.1/src/exe/rbdock.cxx#4 $)

>  <Rbt.Library>
libRbt.so (2013.1, Build901 2013/11/27)

>  <Rbt.Parameter_File>
/export/apps/rDock/src/rDock_2013.1_src/data/scripts/dock_solv.prm

>  <Rbt.Receptor>
prm/pocket_docking_7.prm

>  <SCORE>
-10.3837

>  <SCORE.INTER>
-11.4352

>  <SCORE.INTER.CONST>
1

>  <SCORE.INTER.POLAR>
-0.958468

>  <SCORE.INTER.ROT>
3

>  <SCORE.INTER.SOLV>
13.5214

>  <SCORE.INTER.VDW>
-14.5357

>  <SCORE.INTER.norm>
-0.519782

>  <SCORE.INTRA>
1.05147

>  <SCORE.INTRA.DIHEDRAL>
1.45174

>  <SCORE.INTRA.DIHEDRAL.0>
4.99603

>  <SCORE.INTRA.POLAR>
0

>  <SCORE.INTRA.POLAR.0>
0

>  <SCORE.INTRA.REPUL>
0

>  <SCORE.INTRA.REPUL.0>
0

>  <SCORE.INTRA.SOLV>
2.20941

>  <SCORE.INTRA.SOLV.lig_0>
-74.884

>  <SCORE.INTRA.VDW>
-0.7791

>  <SCORE.INTRA.VDW.0>
-0.858933

>  <SCORE.INTRA.norm>
0.0477942

>  <SCORE.RESTR>
0

>  <SCORE.RESTR.CAVITY>
0

>  <SCORE.RESTR.norm>
0

>  <SCORE.SYSTEM>
0

>  <SCORE.SYSTEM.CONST>
0

>  <SCORE.SYSTEM.DIHEDRAL>
0

>  <SCORE.SYSTEM.SOLV>
0

>  <SCORE.SYSTEM.norm>
0

>  <SCORE.heavy>
22

>  <SCORE.norm>
-0.471988

>  <RMSD>
6.421

$$$$
2et8_lig
 OpenBabel11021811433D
libRbt.so/2013.1/901 2013/11/27
 22 23  0  0  0  0  0  0  0  0999 V2000
   21.1717   10.7374   42.3175 N   0  0  0  0  0  0  0  0  0  0  0  0
   21.5897   12.1010   37.5663 N   0  0  0  0  0  0  0  0  0  0  0  0
   15.4048   13.7994   34.3430 N   0  0  0  0  0  0  0  0  0  0  0  0
   18.0746   14.0548   40.3864 O   0  0  0  0  0  0  0  0  0  0  0  0
   18.8388   12.8624   40.0807 C   0  0  2  0  0  0  0  0  0  0  0  0
   19.1655   16.2031   39.1971 N   0  0  0  0  0  0  0  0  0  0  0  0
   18.7428   12.1226   42.4571 O   0  0  0  0  0  0  0  0  0  0  0  0
   19.6282   12.4036   41.3658 C   0  0  1  0  0  0  0  0  0  0  0  0
   19.1521   13.5527   37.8277 O   0  0  0  0  0  0  0  0  0  0  0  0
   20.4239   11.1534   41.0818 C   0  0  1  0  0  0  0  0  0  0  0  0
   18.8409   14.5659   35.7834 O   0  0  0  0  0  0  0  0  0  0  0  0
   21.4038   11.4283   39.9181 C   0  0  0  0  0  0  0  0  0  0  0  0
   15.3396   15.3812   36.4137 O   0  0  0  0  0  0  0  0  0  0  0  0
   20.5713   11.8572   38.6746 C   0  0  1  0  0  0  0  0  0  0  0  0
   16.5759   16.9508   38.3748 O   0  0  0  0  0  0  0  0  0  0  0  0
   19.8764   13.1623   38.9272 C   0  0  2  0  0  0  0  0  0  0  0  0
   19.4188   14.7560   37.1853 C   0  0  1  0  0  0  0  0  0  0  0  0
   17.3587   14.3698   35.7808 C   0  0  2  0  0  0  0  0  0  0  0  0
   16.8344   14.2128   34.3384 C   0  0  0  0  0  0  0  0  0  0  0  0
   16.7136   15.5713   36.4045 C   0  0  2  0  0  0  0  0  0  0  0  0
   17.1945   15.7855   37.8103 C   0  0  1  0  0  0  0  0  0  0  0  0
   18.6721   15.9774   37.7911 C   0  0  1  0  0  0  0  0  0  0  0  0
  5  4  1  1  0  0  0
  5  8  1  0  0  0  0
  5 16  1  0  0  0  0
  8  7  1  1  0  0  0
  8 10  1  0  0  0  0
 10  1  1  1  0  0  0
 10 12  1  0  0  0  0
 11 18  1  0  0  0  0
 12 14  1  0  0  0  0
 14  2  1  6  0  0  0
 14 16  1  0  0  0  0
 16  9  1  6  0  0  0
 17  9  1  1  0  0  0
 17 11  1  0  0  0  0
 17 22  1  0  0  0  0
 18 19  1  6  0  0  0
 18 20  1  0  0  0  0
 19  3  1  0  0  0  0
 20 13  1  1  0  0  0
 20 21  1  0  0  0  0
 21 15  1  6  0  0  0
 21 22  1  0  0  0  0
 22  6  1  1  0  0  0
M  END
>  <CHROM.1>
125.60701449,158.40406725,170.81816486,18.64107645,13.79809993,38.36678538
-0.72550490,0.80814013,-1.65777234

>  <Name>
2et8_lig

>  <RI>
0

>  <Rbt.Current_Directory>
/home/itssahil/PROJECTS/Mol_Feturizer/New_Systems/rnas/2et8

>  <Rbt.Executable>
rbdock ($Id: //depot/dev/client3/rdock/2013.1/src/exe/rbdock.cxx#4 $)

>  <Rbt.Library>
libRbt.so (2013.1, Build901 2013/11/27)

>  <Rbt.Parameter_File>
/export/apps/rDock/src/rDock_2013.1_src/data/scripts/dock_solv.prm

>  <Rbt.Receptor>
prm/pocket_docking_7.prm

>  <SCORE>
-9.45333

>  <SCORE.INTER>
-12.1754

>  <SCORE.INTER.CONST>
1

>  <SCORE.INTER.POLAR>
-0.88812

>  <SCORE.INTER.ROT>
3

>  <SCORE.INTER.SOLV>
18.1861

>  <SCORE.INTER.VDW>
-16.8185

>  <SCORE.INTER.norm>
-0.553427

>  <SCORE.INTRA>
2.72206

>  <SCORE.INTRA.DIHEDRAL>
4.34551

>  <SCORE.INTRA.DIHEDRAL.0>
4.99603

>  <SCORE.INTRA.POLAR>
0

>  <SCORE.INTRA.POLAR.0>
0

>  <SCORE.INTRA.REPUL>
0

>  <SCORE.INTRA.REPUL.0>
0

>  <SCORE.INTRA.SOLV>
2.89398

>  <SCORE.INTRA.SOLV.lig_0>
-74.884

>  <SCORE.INTRA.VDW>
-0.897678

>  <SCORE.INTRA.VDW.0>
-0.858933

>  <SCORE.INTRA.norm>
0.12373

>  <SCORE.RESTR>
0

>  <SCORE.RESTR.CAVITY>
0

>  <SCORE.RESTR.norm>
0

>  <SCORE.SYSTEM>
0

>  <SCORE.SYSTEM.CONST>
0

>  <SCORE.SYSTEM.DIHEDRAL>
0

>  <SCORE.SYSTEM.SOLV>
0

>  <SCORE.SYSTEM.norm>
0

>  <SCORE.heavy>
22

>  <SCORE.norm>
-0.429697

>  <RMSD>
6.423

$$$$
2et8_lig
 OpenBabel11021811433D
libRbt.so/2013.1/901 2013/11/27
 22 23  0  0  0  0  0  0  0  0999 V2000
   20.6615   10.0814   42.6870 N   0  0  0  0  0  0  0  0  0  0  0  0
   21.7635   11.6859   38.1242 N   0  0  0  0  0  0  0  0  0  0  0  0
   19.0059   13.1583   33.3975 N   0  0  0  0  0  0  0  0  0  0  0  0
   18.6089   14.2046   40.9227 O   0  0  0  0  0  0  0  0  0  0  0  0
   19.0871   12.8903   40.5440 C   0  0  2  0  0  0  0  0  0  0  0  0
   20.9425   16.3815   38.1570 N   0  0  0  0  0  0  0  0  0  0  0  0
   18.6314   12.0041   42.8268 O   0  0  0  0  0  0  0  0  0  0  0  0
   19.6409   12.1479   41.8196 C   0  0  1  0  0  0  0  0  0  0  0  0
   19.7315   13.6651   38.3911 O   0  0  0  0  0  0  0  0  0  0  0  0
   20.1339   10.7682   41.4586 C   0  0  1  0  0  0  0  0  0  0  0  0
   19.9870   13.3127   36.1299 O   0  0  0  0  0  0  0  0  0  0  0  0
   21.2389   10.8887   40.3842 C   0  0  0  0  0  0  0  0  0  0  0  0
   17.2555   15.5460   35.1960 O   0  0  0  0  0  0  0  0  0  0  0  0
   20.6330   11.6094   39.1446 C   0  0  1  0  0  0  0  0  0  0  0  0
   19.0259   17.3823   36.3496 O   0  0  0  0  0  0  0  0  0  0  0  0
   20.2532   13.0199   39.4854 C   0  0  2  0  0  0  0  0  0  0  0  0
   20.5471   14.0622   37.3382 C   0  0  1  0  0  0  0  0  0  0  0  0
   18.5855   13.7084   35.7915 C   0  0  2  0  0  0  0  0  0  0  0  0
   18.0893   12.9396   34.5493 C   0  0  0  0  0  0  0  0  0  0  0  0
   18.5589   15.1784   35.4961 C   0  0  2  0  0  0  0  0  0  0  0  0
   19.0444   15.9829   36.6667 C   0  0  1  0  0  0  0  0  0  0  0  0
   20.4405   15.5731   36.9883 C   0  0  1  0  0  0  0  0  0  0  0  0
  5  4  1  1  0  0  0
  5  8  1  0  0  0  0
  5 16  1  0  0  0  0
  8  7  1  1  0  0  0
  8 10  1  0  0  0  0
 10  1  1  1  0  0  0
 10 12  1  0  0  0  0
 11 18  1  0  0  0  0
 12 14  1  0  0  0  0
 14  2  1  6  0  0  0
 14 16  1  0  0  0  0
 16  9  1  6  0  0  0
 17  9  1  1  0  0  0
 17 11  1  0  0  0  0
 17 22  1  0  0  0  0
 18 19  1  6  0  0  0
 18 20  1  0  0  0  0
 19  3  1  0  0  0  0
 20 13  1  1  0  0  0
 20 21  1  0  0  0  0
 21 15  1  6  0  0  0
 21 22  1  0  0  0  0
 22  6  1  1  0  0  0
M  END
>  <CHROM.1>
172.94160048,119.81021068,-56.23009289,19.59913104,13.49631103,38.26054524
-0.87795578,1.30907862,-1.72679742

>  <Name>
2et8_lig

>  <RI>
3.42619e+07

>  <Rbt.Current_Directory>
/home/itssahil/PROJECTS/Mol_Feturizer/New_Systems/rnas/2et8

>  <Rbt.Executable>
rbdock ($Id: //depot/dev/client3/rdock/2013.1/src/exe/rbdock.cxx#4 $)

>  <Rbt.Library>
libRbt.so (2013.1, Build901 2013/11/27)

>  <Rbt.Parameter_File>
/export/apps/rDock/src/rDock_2013.1_src/data/scripts/dock_solv.prm

>  <Rbt.Receptor>
prm/pocket_docking_4.prm

>  <SCORE>
-10.9155

>  <SCORE.INTER>
-12.8245

>  <SCORE.INTER.CONST>
1

>  <SCORE.INTER.POLAR>
-1.21535

>  <SCORE.INTER.ROT>
3

>  <SCORE.INTER.SOLV>
15.0635

>  <SCORE.INTER.VDW>
-15.1197

>  <SCORE.INTER.norm>
-0.582933

>  <SCORE.INTRA>
1.90047

>  <SCORE.INTRA.DIHEDRAL>
2.51778

>  <SCORE.INTRA.DIHEDRAL.0>
4.99603

>  <SCORE.INTRA.POLAR>
0

>  <SCORE.INTRA.POLAR.0>
0

>  <SCORE.INTRA.REPUL>
0

>  <SCORE.INTRA.REPUL.0>
0

>  <SCORE.INTRA.SOLV>
1.92851

>  <SCORE.INTRA.SOLV.lig_0>
-74.884

>  <SCORE.INTRA.VDW>
-0.322671

>  <SCORE.INTRA.VDW.0>
-0.858933

>  <SCORE.INTRA.norm>
0.0863852

>  <SCORE.RESTR>
0.00851088

>  <SCORE.RESTR.CAVITY>
0.00851088

>  <SCORE.RESTR.norm>
0.000386858

>  <SCORE.SYSTEM>
0

>  <SCORE.SYSTEM.CONST>
0

>  <SCORE.SYSTEM.DIHEDRAL>
0

>  <SCORE.SYSTEM.SOLV>
0

>  <SCORE.SYSTEM.norm>
0

>  <SCORE.heavy>
22

>  <SCORE.norm>
-0.496161

>  <RMSD>
6.430

$$$$
2et8_lig
 OpenBabel11021811433D
libRbt.so/2013.1/901 2013/11/27
 22 23  0  0  0  0  0  0  0  0999 V2000
   19.0335   12.2214   41.3644 N   0  0  0  0  0  0  0  0  0  0  0  0
   17.7045   15.9300   38.3499 N   0  0  0  0  0  0  0  0  0  0  0  0
   20.9479   17.4777   32.2270 N   0  0  0  0  0  0  0  0  0  0  0  0
   21.2853   12.8419   37.0204 O   0  0  0  0  0  0  0  0  0  0  0  0
   20.6652   13.5529   38.1201 C   0  0  2  0  0  0  0  0  0  0  0  0
   17.2907   14.1873   35.7769 N   0  0  0  0  0  0  0  0  0  0  0  0
   21.2277   11.7129   39.7018 O   0  0  0  0  0  0  0  0  0  0  0  0
   20.1554   12.5156   39.1920 C   0  0  1  0  0  0  0  0  0  0  0  0
   19.9161   15.2843   36.6737 O   0  0  0  0  0  0  0  0  0  0  0  0
   19.5162   13.2283   40.3584 C   0  0  1  0  0  0  0  0  0  0  0  0
   20.0002   16.6840   34.8472 O   0  0  0  0  0  0  0  0  0  0  0  0
   18.3414   14.0916   39.8441 C   0  0  0  0  0  0  0  0  0  0  0  0
   20.7882   14.0101   32.4912 O   0  0  0  0  0  0  0  0  0  0  0  0
   18.9039   15.1070   38.8069 C   0  0  1  0  0  0  0  0  0  0  0  0
   18.2281   13.2192   33.3020 O   0  0  0  0  0  0  0  0  0  0  0  0
   19.4318   14.3921   37.5986 C   0  0  2  0  0  0  0  0  0  0  0  0
   19.0612   15.9398   35.7956 C   0  0  1  0  0  0  0  0  0  0  0  0
   20.8649   15.7697   34.0398 C   0  0  2  0  0  0  0  0  0  0  0  0
   21.7669   16.5786   33.0846 C   0  0  0  0  0  0  0  0  0  0  0  0
   19.9843   14.8666   33.2288 C   0  0  2  0  0  0  0  0  0  0  0  0
   19.0707   14.0589   34.1043 C   0  0  1  0  0  0  0  0  0  0  0  0
   18.2196   14.9875   34.9005 C   0  0  1  0  0  0  0  0  0  0  0  0
  5  4  1  6  0  0  0
  5  8  1  0  0  0  0
  5 16  1  0  0  0  0
  8  7  1  1  0  0  0
  8 10  1  0  0  0  0
 10  1  1  1  0  0  0
 10 12  1  0  0  0  0
 11 18  1  0  0  0  0
 12 14  1  0  0  0  0
 14  2  1  6  0  0  0
 14 16  1  0  0  0  0
 16  9  1  6  0  0  0
 17  9  1  1  0  0  0
 17 11  1  0  0  0  0
 17 22  1  0  0  0  0
 18 19  1  6  0  0  0
 18 20  1  0  0  0  0
 19  3  1  0  0  0  0
 20 13  1  1  0  0  0
 20 21  1  0  0  0  0
 21 15  1  6  0  0  0
 21 22  1  0  0  0  0
 22  6  1  1  0  0  0
M  END
>  <CHROM.1>
164.14407985,-173.22423207,-55.17655487,19.67950557,14.46562805,36.36642062
-1.69906545,0.74039304,-1.11849643

>  <Name>
2et8_lig

>  <RI>
3.14397e+07

>  <Rbt.Current_Directory>
/home/itssahil/PROJECTS/Mol_Feturizer/New_Systems/rnas/2et8

>  <Rbt.Executable>
rbdock ($Id: //depot/dev/client3/rdock/2013.1/src/exe/rbdock.cxx#4 $)

>  <Rbt.Library>
libRbt.so (2013.1, Build901 2013/11/27)

>  <Rbt.Parameter_File>
/export/apps/rDock/src/rDock_2013.1_src/data/scripts/dock_solv.prm

>  <Rbt.Receptor>
prm/pocket_docking_6.prm

>  <SCORE>
-12.7026

>  <SCORE.INTER>
-12.9012

>  <SCORE.INTER.CONST>
1

>  <SCORE.INTER.POLAR>
-1.68028

>  <SCORE.INTER.ROT>
3

>  <SCORE.INTER.SOLV>
13.4406

>  <SCORE.INTER.VDW>
-13.0801

>  <SCORE.INTER.norm>
-0.586419

>  <SCORE.INTRA>
0.198662

>  <SCORE.INTRA.DIHEDRAL>
-3.36196

>  <SCORE.INTRA.DIHEDRAL.0>
4.99603

>  <SCORE.INTRA.POLAR>
0

>  <SCORE.INTRA.POLAR.0>
0

>  <SCORE.INTRA.REPUL>
0

>  <SCORE.INTRA.REPUL.0>
0

>  <SCORE.INTRA.SOLV>
4.66791

>  <SCORE.INTRA.SOLV.lig_0>
-74.884

>  <SCORE.INTRA.VDW>
-0.454316

>  <SCORE.INTRA.VDW.0>
-0.858933

>  <SCORE.INTRA.norm>
0.00903009

>  <SCORE.RESTR>
0

>  <SCORE.RESTR.CAVITY>
0

>  <SCORE.RESTR.norm>
0

>  <SCORE.SYSTEM>
0

>  <SCORE.SYSTEM.CONST>
0

>  <SCORE.SYSTEM.DIHEDRAL>
0

>  <SCORE.SYSTEM.SOLV>
0

>  <SCORE.SYSTEM.norm>
0

>  <SCORE.heavy>
22

>  <SCORE.norm>
-0.577389

>  <RMSD>
6.438

$$$$
2et8_lig
 OpenBabel11021811433D
libRbt.so/2013.1/901 2013/11/27
 22 23  0  0  0  0  0  0  0  0999 V2000
   19.0400   12.1214   41.3616 N   0  0  0  0  0  0  0  0  0  0  0  0
   17.8900   15.9834   38.4684 N   0  0  0  0  0  0  0  0  0  0  0  0
   22.6489   18.6253   35.1300 N   0  0  0  0  0  0  0  0  0  0  0  0
   21.3561   12.8007   37.0604 O   0  0  0  0  0  0  0  0  0  0  0  0
   20.7547   13.4976   38.1793 C   0  0  2  0  0  0  0  0  0  0  0  0
   17.8365   14.1744   35.1947 N   0  0  0  0  0  0  0  0  0  0  0  0
   21.2277   11.5825   39.7000 O   0  0  0  0  0  0  0  0  0  0  0  0
   20.1935   12.4452   39.2101 C   0  0  1  0  0  0  0  0  0  0  0  0
   20.0896   15.3071   36.7886 O   0  0  0  0  0  0  0  0  0  0  0  0
   19.5724   13.1423   40.3955 C   0  0  1  0  0  0  0  0  0  0  0  0
   20.1896   17.1501   35.4117 O   0  0  0  0  0  0  0  0  0  0  0  0
   18.4382   14.0699   39.9023 C   0  0  0  0  0  0  0  0  0  0  0  0
   21.7355   15.3397   32.6452 O   0  0  0  0  0  0  0  0  0  0  0  0
   19.0510   15.0971   38.9060 C   0  0  1  0  0  0  0  0  0  0  0  0
   19.2577   14.0424   32.7647 O   0  0  0  0  0  0  0  0  0  0  0  0
   19.5611   14.4037   37.6776 C   0  0  2  0  0  0  0  0  0  0  0  0
   19.2668   16.0639   35.9628 C   0  0  1  0  0  0  0  0  0  0  0  0
   21.2993   16.6065   34.5701 C   0  0  2  0  0  0  0  0  0  0  0  0
   22.1760   17.7516   34.0220 C   0  0  0  0  0  0  0  0  0  0  0  0
   20.7044   15.8549   33.4169 C   0  0  2  0  0  0  0  0  0  0  0  0
   19.8273   14.7311   33.8873 C   0  0  1  0  0  0  0  0  0  0  0  0
   18.7299   15.2932   34.7242 C   0  0  1  0  0  0  0  0  0  0  0  0
  5  4  1  6  0  0  0
  5  8  1  0  0  0  0
  5 16  1  0  0  0  0
  8  7  1  1  0  0  0
  8 10  1  0  0  0  0
 10  1  1  1  0  0  0
 10 12  1  0  0  0  0
 11 18  1  0  0  0  0
 12 14  1  0  0  0  0
 14  2  1  6  0  0  0
 14 16  1  0  0  0  0
 16  9  1  6  0  0  0
 17  9  1  1  0  0  0
 17 11  1  0  0  0  0
 17 22  1  0  0  0  0
 18 19  1  6  0  0  0
 18 20  1  0  0  0  0
 19  3  1  0  0  0  0
 20 13  1  6  0  0  0
 20 21  1  0  0  0  0
 21 15  1  6  0  0  0
 21 22  1  0  0  0  0
 22  6  1  1  0  0  0
M  END
>  <CHROM.1>
166.62386542,166.37741420,53.55992377,20.06632703,14.80818031,36.57160370
-2.36569582,-1.31072983,-1.83711610

>  <Name>
2et8_lig

>  <RI>
3.42619e+07

>  <Rbt.Current_Directory>
/home/itssahil/PROJECTS/Mol_Feturizer/New_Systems/rnas/2et8

>  <Rbt.Executable>
rbdock ($Id: //depot/dev/client3/rdock/2013.1/src/exe/rbdock.cxx#4 $)

>  <Rbt.Library>
libRbt.so (2013.1, Build901 2013/11/27)

>  <Rbt.Parameter_File>
/export/apps/rDock/src/rDock_2013.1_src/data/scripts/dock_solv.prm

>  <Rbt.Receptor>
prm/pocket_docking_4.prm

>  <SCORE>
-10.718

>  <SCORE.INTER>
-9.54386

>  <SCORE.INTER.CONST>
1

>  <SCORE.INTER.POLAR>
-1.25501

>  <SCORE.INTER.ROT>
3

>  <SCORE.INTER.SOLV>
12.6165

>  <SCORE.INTER.VDW>
-11.9847

>  <SCORE.INTER.norm>
-0.433812

>  <SCORE.INTRA>
-1.17845

>  <SCORE.INTRA.DIHEDRAL>
-2.97485

>  <SCORE.INTRA.DIHEDRAL.0>
4.99603

>  <SCORE.INTRA.POLAR>
0

>  <SCORE.INTRA.POLAR.0>
0

>  <SCORE.INTRA.REPUL>
0

>  <SCORE.INTRA.REPUL.0>
0

>  <SCORE.INTRA.SOLV>
1.83742

>  <SCORE.INTRA.SOLV.lig_0>
-74.884

>  <SCORE.INTRA.VDW>
-0.609733

>  <SCORE.INTRA.VDW.0>
-0.858933

>  <SCORE.INTRA.norm>
-0.0535659

>  <SCORE.RESTR>
0.00435821

>  <SCORE.RESTR.CAVITY>
0.00435821

>  <SCORE.RESTR.norm>
0.0001981

>  <SCORE.SYSTEM>
0

>  <SCORE.SYSTEM.CONST>
0

>  <SCORE.SYSTEM.DIHEDRAL>
0

>  <SCORE.SYSTEM.SOLV>
0

>  <SCORE.SYSTEM.norm>
0

>  <SCORE.heavy>
22

>  <SCORE.norm>
-0.48718

>  <RMSD>
6.441

$$$$
2et8_lig
 OpenBabel11021811433D
libRbt.so/2013.1/901 2013/11/27
 22 23  0  0  0  0  0  0  0  0999 V2000
   18.9595   12.3532   42.0233 N   0  0  0  0  0  0  0  0  0  0  0  0
   18.1325   15.4685   38.2525 N   0  0  0  0  0  0  0  0  0  0  0  0
   20.8826   18.2748   38.2676 N   0  0  0  0  0  0  0  0  0  0  0  0
   21.0687   11.5800   37.6324 O   0  0  0  0  0  0  0  0  0  0  0  0
   20.6326   12.6167   38.5459 C   0  0  2  0  0  0  0  0  0  0  0  0
   19.7724   13.4667   33.8507 N   0  0  0  0  0  0  0  0  0  0  0  0
   20.9518   11.1074   40.5014 O   0  0  0  0  0  0  0  0  0  0  0  0
   20.0074   11.9518   39.8312 C   0  0  1  0  0  0  0  0  0  0  0  0
   20.1180   14.0850   36.7487 O   0  0  0  0  0  0  0  0  0  0  0  0
   19.5562   13.0084   40.8094 C   0  0  1  0  0  0  0  0  0  0  0  0
   19.5842   16.2947   36.3818 O   0  0  0  0  0  0  0  0  0  0  0  0
   18.5210   13.9280   40.1218 C   0  0  0  0  0  0  0  0  0  0  0  0
   22.7785   17.0881   34.8043 O   0  0  0  0  0  0  0  0  0  0  0  0
   19.1960   14.5704   38.8749 C   0  0  1  0  0  0  0  0  0  0  0  0
   21.7481   15.2624   32.9488 O   0  0  0  0  0  0  0  0  0  0  0  0
   19.5353   13.5218   37.8574 C   0  0  2  0  0  0  0  0  0  0  0  0
   19.3781   14.8691   35.8716 C   0  0  1  0  0  0  0  0  0  0  0  0
   21.0073   16.7466   36.3031 C   0  0  2  0  0  0  0  0  0  0  0  0
   21.1441   18.1992   36.8045 C   0  0  0  0  0  0  0  0  0  0  0  0
   21.4540   16.6818   34.8731 C   0  0  2  0  0  0  0  0  0  0  0  0
   21.3323   15.2908   34.3219 C   0  0  1  0  0  0  0  0  0  0  0  0
   19.9087   14.8593   34.4104 C   0  0  1  0  0  0  0  0  0  0  0  0
  5  4  1  6  0  0  0
  5  8  1  0  0  0  0
  5 16  1  0  0  0  0
  8  7  1  1  0  0  0
  8 10  1  0  0  0  0
 10  1  1  1  0  0  0
 10 12  1  0  0  0  0
 11 18  1  0  0  0  0
 12 14  1  0  0  0  0
 14  2  1  6  0  0  0
 14 16  1  0  0  0  0
 16  9  1  6  0  0  0
 17  9  1  1  0  0  0
 17 11  1  0  0  0  0
 17 22  1  0  0  0  0
 18 19  1  6  0  0  0
 18 20  1  0  0  0  0
 19  3  1  0  0  0  0
 20 13  1  1  0  0  0
 20 21  1  0  0  0  0
 21 15  1  6  0  0  0
 21 22  1  0  0  0  0
 22  6  1  1  0  0  0
M  END
>  <CHROM.1>
175.55272562,93.08112255,68.05739550,20.28965787,14.59328451,37.24813730
2.58549590,-1.30685897,-3.10854341

>  <Name>
2et8_lig

>  <RI>
0

>  <Rbt.Current_Directory>
/home/itssahil/PROJECTS/Mol_Feturizer/New_Systems/rnas/2et8

>  <Rbt.Executable>
rbdock ($Id: //depot/dev/client3/rdock/2013.1/src/exe/rbdock.cxx#4 $)

>  <Rbt.Library>
libRbt.so (2013.1, Build901 2013/11/27)

>  <Rbt.Parameter_File>
/export/apps/rDock/src/rDock_2013.1_src/data/scripts/dock_solv.prm

>  <Rbt.Receptor>
prm/pocket_docking_5.prm

>  <SCORE>
-10.1191

>  <SCORE.INTER>
-11.0642

>  <SCORE.INTER.CONST>
1

>  <SCORE.INTER.POLAR>
-1.33535

>  <SCORE.INTER.ROT>
3

>  <SCORE.INTER.SOLV>
14.9461

>  <SCORE.INTER.VDW>
-13.507

>  <SCORE.INTER.norm>
-0.502919

>  <SCORE.INTRA>
0.945147

>  <SCORE.INTRA.DIHEDRAL>
-0.393416

>  <SCORE.INTRA.DIHEDRAL.0>
4.99603

>  <SCORE.INTRA.POLAR>
0

>  <SCORE.INTRA.POLAR.0>
0

>  <SCORE.INTRA.REPUL>
0

>  <SCORE.INTRA.REPUL.0>
0

>  <SCORE.INTRA.SOLV>
2.09322

>  <SCORE.INTRA.SOLV.lig_0>
-74.884

>  <SCORE.INTRA.VDW>
0.0952446

>  <SCORE.INTRA.VDW.0>
-0.858933

>  <SCORE.INTRA.norm>
0.0429612

>  <SCORE.RESTR>
0

>  <SCORE.RESTR.CAVITY>
0

>  <SCORE.RESTR.norm>
0

>  <SCORE.SYSTEM>
0

>  <SCORE.SYSTEM.CONST>
0

>  <SCORE.SYSTEM.DIHEDRAL>
0

>  <SCORE.SYSTEM.SOLV>
0

>  <SCORE.SYSTEM.norm>
0

>  <SCORE.heavy>
22

>  <SCORE.norm>
-0.459957

>  <RMSD>
6.449

$$$$
2et8_lig
 OpenBabel11021811433D
libRbt.so/2013.1/901 2013/11/27
 22 23  0  0  0  0  0  0  0  0999 V2000
   19.0973   11.9058   41.2675 N   0  0  0  0  0  0  0  0  0  0  0  0
   17.7382   15.8197   38.5396 N   0  0  0  0  0  0  0  0  0  0  0  0
   23.3842   17.6170   33.8298 N   0  0  0  0  0  0  0  0  0  0  0  0
   21.3514   12.8757   36.9891 O   0  0  0  0  0  0  0  0  0  0  0  0
   20.7222   13.4952   38.1379 C   0  0  2  0  0  0  0  0  0  0  0  0
   18.1744   13.7277   35.0458 N   0  0  0  0  0  0  0  0  0  0  0  0
   21.2996   11.5459   39.5770 O   0  0  0  0  0  0  0  0  0  0  0  0
   20.2205   12.3747   39.1268 C   0  0  1  0  0  0  0  0  0  0  0  0
   19.9592   15.3241   36.8252 O   0  0  0  0  0  0  0  0  0  0  0  0
   19.5722   12.9907   40.3421 C   0  0  1  0  0  0  0  0  0  0  0  0
   19.9411   17.0795   35.3349 O   0  0  0  0  0  0  0  0  0  0  0  0
   18.3901   13.8793   39.8917 C   0  0  0  0  0  0  0  0  0  0  0  0
   22.1417   15.4251   32.9388 O   0  0  0  0  0  0  0  0  0  0  0  0
   18.9447   14.9759   38.9360 C   0  0  1  0  0  0  0  0  0  0  0  0
   19.9246   13.7189   32.8371 O   0  0  0  0  0  0  0  0  0  0  0  0
   19.4818   14.3597   37.6784 C   0  0  2  0  0  0  0  0  0  0  0  0
   19.1454   15.8784   35.8443 C   0  0  1  0  0  0  0  0  0  0  0  0
   21.2333   16.6961   34.6880 C   0  0  2  0  0  0  0  0  0  0  0  0
   21.9737   17.9471   34.1710 C   0  0  0  0  0  0  0  0  0  0  0  0
   20.9408   15.7906   33.5289 C   0  0  2  0  0  0  0  0  0  0  0  0
   20.2073   14.5565   33.9674 C   0  0  1  0  0  0  0  0  0  0  0  0
   18.9247   14.9599   34.6098 C   0  0  1  0  0  0  0  0  0  0  0  0
  5  4  1  6  0  0  0
  5  8  1  0  0  0  0
  5 16  1  0  0  0  0
  8  7  1  1  0  0  0
  8 10  1  0  0  0  0
 10  1  1  1  0  0  0
 10 12  1  0  0  0  0
 11 18  1  0  0  0  0
 12 14  1  0  0  0  0
 14  2  1  6  0  0  0
 14 16  1  0  0  0  0
 16  9  1  6  0  0  0
 17  9  1  1  0  0  0
 17 11  1  0  0  0  0
 17 22  1  0  0  0  0
 18 19  1  6  0  0  0
 18 20  1  0  0  0  0
 19  3  1  0  0  0  0
 20 13  1  1  0  0  0
 20 21  1  0  0  0  0
 21 15  1  6  0  0  0
 21 22  1  0  0  0  0
 22  6  1  1  0  0  0
M  END
>  <CHROM.1>
153.33909657,168.45382916,166.34159266,20.15659222,14.66815563,36.51523802
-1.95491628,0.86612004,-0.76954382

>  <Name>
2et8_lig

>  <RI>
3.42619e+07

>  <Rbt.Current_Directory>
/home/itssahil/PROJECTS/Mol_Feturizer/New_Systems/rnas/2et8

>  <Rbt.Executable>
rbdock ($Id: //depot/dev/client3/rdock/2013.1/src/exe/rbdock.cxx#4 $)

>  <Rbt.Library>
libRbt.so (2013.1, Build901 2013/11/27)

>  <Rbt.Parameter_File>
/export/apps/rDock/src/rDock_2013.1_src/data/scripts/dock_solv.prm

>  <Rbt.Receptor>
prm/pocket_docking_4.prm

>  <SCORE>
-9.2258

>  <SCORE.INTER>
-9.38497

>  <SCORE.INTER.CONST>
1

>  <SCORE.INTER.POLAR>
-1.19127

>  <SCORE.INTER.ROT>
3

>  <SCORE.INTER.SOLV>
15.0036

>  <SCORE.INTER.VDW>
-12.887

>  <SCORE.INTER.norm>
-0.42659

>  <SCORE.INTRA>
0.138975

>  <SCORE.INTRA.DIHEDRAL>
-0.650542

>  <SCORE.INTRA.DIHEDRAL.0>
4.99603

>  <SCORE.INTRA.POLAR>
0

>  <SCORE.INTRA.POLAR.0>
0

>  <SCORE.INTRA.REPUL>
0

>  <SCORE.INTRA.REPUL.0>
0

>  <SCORE.INTRA.SOLV>
2.57492

>  <SCORE.INTRA.SOLV.lig_0>
-74.884

>  <SCORE.INTRA.VDW>
-0.823215

>  <SCORE.INTRA.VDW.0>
-0.858933

>  <SCORE.INTRA.norm>
0.00631703

>  <SCORE.RESTR>
0.0201972

>  <SCORE.RESTR.CAVITY>
0.0201972

>  <SCORE.RESTR.norm>
0.000918055

>  <SCORE.SYSTEM>
0

>  <SCORE.SYSTEM.CONST>
0

>  <SCORE.SYSTEM.DIHEDRAL>
0

>  <SCORE.SYSTEM.SOLV>
0

>  <SCORE.SYSTEM.norm>
0

>  <SCORE.heavy>
22

>  <SCORE.norm>
-0.419354

>  <RMSD>
6.450

$$$$
2et8_lig
 OpenBabel11021811433D
libRbt.so/2013.1/901 2013/11/27
 22 23  0  0  0  0  0  0  0  0999 V2000
   20.6624   10.0922   42.6937 N   0  0  0  0  0  0  0  0  0  0  0  0
   21.7446   11.6383   38.1060 N   0  0  0  0  0  0  0  0  0  0  0  0
   17.1781   12.7525   33.9638 N   0  0  0  0  0  0  0  0  0  0  0  0
   18.5729   14.1715   40.8718 O   0  0  0  0  0  0  0  0  0  0  0  0
   19.0615   12.8558   40.5119 C   0  0  2  0  0  0  0  0  0  0  0  0
   20.3667   16.5111   38.3409 N   0  0  0  0  0  0  0  0  0  0  0  0
   18.6165   11.9997   42.8082 O   0  0  0  0  0  0  0  0  0  0  0  0
   19.6233   12.1370   41.7974 C   0  0  1  0  0  0  0  0  0  0  0  0
   19.6964   13.6041   38.3468 O   0  0  0  0  0  0  0  0  0  0  0  0
   20.1274   10.7563   41.4561 C   0  0  1  0  0  0  0  0  0  0  0  0
   20.2408   13.4334   36.1159 O   0  0  0  0  0  0  0  0  0  0  0  0
   21.2298   10.8702   40.3783 C   0  0  0  0  0  0  0  0  0  0  0  0
   17.2306   15.1493   34.9690 O   0  0  0  0  0  0  0  0  0  0  0  0
   20.6162   11.5674   39.1291 C   0  0  1  0  0  0  0  0  0  0  0  0
   18.4810   17.2243   36.3719 O   0  0  0  0  0  0  0  0  0  0  0  0
   20.2250   12.9795   39.4497 C   0  0  2  0  0  0  0  0  0  0  0  0
   20.5190   14.2081   37.4033 C   0  0  1  0  0  0  0  0  0  0  0  0
   18.8298   13.5710   35.6410 C   0  0  2  0  0  0  0  0  0  0  0  0
   18.6210   12.7913   34.3261 C   0  0  0  0  0  0  0  0  0  0  0  0
   18.5442   15.0226   35.3961 C   0  0  2  0  0  0  0  0  0  0  0  0
   18.7426   15.8391   36.6400 C   0  0  1  0  0  0  0  0  0  0  0  0
   20.1528   15.6875   37.0971 C   0  0  1  0  0  0  0  0  0  0  0  0
  5  4  1  1  0  0  0
  5  8  1  0  0  0  0
  5 16  1  0  0  0  0
  8  7  1  1  0  0  0
  8 10  1  0  0  0  0
 10  1  1  1  0  0  0
 10 12  1  0  0  0  0
 11 18  1  0  0  0  0
 12 14  1  0  0  0  0
 14  2  1  6  0  0  0
 14 16  1  0  0  0  0
 16  9  1  6  0  0  0
 17  9  1  1  0  0  0
 17 11  1  0  0  0  0
 17 22  1  0  0  0  0
 18 19  1  6  0  0  0
 18 20  1  0  0  0  0
 19  3  1  0  0  0  0
 20 13  1  1  0  0  0
 20 21  1  0  0  0  0
 21 15  1  6  0  0  0
 21 22  1  0  0  0  0
 22  6  1  1  0  0  0
M  END
>  <CHROM.1>
161.11470346,118.02052651,171.31150497,19.47246152,13.43390630,38.25753122
-0.57967003,1.31299772,-2.04245492

>  <Name>
2et8_lig

>  <RI>
3.14397e+07

>  <Rbt.Current_Directory>
/home/itssahil/PROJECTS/Mol_Feturizer/New_Systems/rnas/2et8

>  <Rbt.Executable>
rbdock ($Id: //depot/dev/client3/rdock/2013.1/src/exe/rbdock.cxx#4 $)

>  <Rbt.Library>
libRbt.so (2013.1, Build901 2013/11/27)

>  <Rbt.Parameter_File>
/export/apps/rDock/src/rDock_2013.1_src/data/scripts/dock_solv.prm

>  <Rbt.Receptor>
prm/pocket_docking_6.prm

>  <SCORE>
-10.3152

>  <SCORE.INTER>
-12.8166

>  <SCORE.INTER.CONST>
1

>  <SCORE.INTER.POLAR>
-1.26129

>  <SCORE.INTER.ROT>
3

>  <SCORE.INTER.SOLV>
17.2368

>  <SCORE.INTER.VDW>
-15.6857

>  <SCORE.INTER.norm>
-0.582575

>  <SCORE.INTRA>
2.49254

>  <SCORE.INTRA.DIHEDRAL>
4.04994

>  <SCORE.INTRA.DIHEDRAL.0>
4.99603

>  <SCORE.INTRA.POLAR>
0

>  <SCORE.INTRA.POLAR.0>
0

>  <SCORE.INTRA.REPUL>
0

>  <SCORE.INTRA.REPUL.0>
0

>  <SCORE.INTRA.SOLV>
1.90333

>  <SCORE.INTRA.SOLV.lig_0>
-74.884

>  <SCORE.INTRA.VDW>
-0.484094

>  <SCORE.INTRA.VDW.0>
-0.858933

>  <SCORE.INTRA.norm>
0.113297

>  <SCORE.RESTR>
0.00893973

>  <SCORE.RESTR.CAVITY>
0.00893973

>  <SCORE.RESTR.norm>
0.000406351

>  <SCORE.SYSTEM>
0

>  <SCORE.SYSTEM.CONST>
0

>  <SCORE.SYSTEM.DIHEDRAL>
0

>  <SCORE.SYSTEM.SOLV>
0

>  <SCORE.SYSTEM.norm>
0

>  <SCORE.heavy>
22

>  <SCORE.norm>
-0.468871

>  <RMSD>
6.450

$$$$
2et8_lig
 OpenBabel11021811433D
libRbt.so/2013.1/901 2013/11/27
 22 23  0  0  0  0  0  0  0  0999 V2000
   20.7356   10.1566   42.7523 N   0  0  0  0  0  0  0  0  0  0  0  0
   21.7674   11.6186   38.1257 N   0  0  0  0  0  0  0  0  0  0  0  0
   18.7629   13.2311   33.2901 N   0  0  0  0  0  0  0  0  0  0  0  0
   18.4893   14.0975   40.8157 O   0  0  0  0  0  0  0  0  0  0  0  0
   19.0312   12.7930   40.4928 C   0  0  2  0  0  0  0  0  0  0  0  0
   20.8652   16.2213   38.1273 N   0  0  0  0  0  0  0  0  0  0  0  0
   18.6147   11.9830   42.8111 O   0  0  0  0  0  0  0  0  0  0  0  0
   19.6179   12.1328   41.7986 C   0  0  1  0  0  0  0  0  0  0  0  0
   19.6415   13.5067   38.3091 O   0  0  0  0  0  0  0  0  0  0  0  0
   20.1777   10.7646   41.4961 C   0  0  1  0  0  0  0  0  0  0  0  0
   19.8573   13.2136   36.0353 O   0  0  0  0  0  0  0  0  0  0  0  0
   21.2777   10.8931   40.4174 C   0  0  0  0  0  0  0  0  0  0  0  0
   17.1244   15.4868   35.2072 O   0  0  0  0  0  0  0  0  0  0  0  0
   20.6400   11.5307   39.1485 C   0  0  1  0  0  0  0  0  0  0  0  0
   18.9251   17.2812   36.3797 O   0  0  0  0  0  0  0  0  0  0  0  0
   20.1917   12.9342   39.4295 C   0  0  2  0  0  0  0  0  0  0  0  0
   20.4419   13.9271   37.2536 C   0  0  1  0  0  0  0  0  0  0  0  0
   18.4528   13.6262   35.7310 C   0  0  2  0  0  0  0  0  0  0  0  0
   17.9313   12.8938   34.4773 C   0  0  0  0  0  0  0  0  0  0  0  0
   18.4304   15.1037   35.4755 C   0  0  2  0  0  0  0  0  0  0  0  0
   18.9402   15.8738   36.6590 C   0  0  1  0  0  0  0  0  0  0  0  0
   20.3389   15.4474   36.9461 C   0  0  1  0  0  0  0  0  0  0  0  0
  5  4  1  1  0  0  0
  5  8  1  0  0  0  0
  5 16  1  0  0  0  0
  8  7  1  1  0  0  0
  8 10  1  0  0  0  0
 10  1  1  1  0  0  0
 10 12  1  0  0  0  0
 11 18  1  0  0  0  0
 12 14  1  0  0  0  0
 14  2  1  6  0  0  0
 14 16  1  0  0  0  0
 16  9  1  6  0  0  0
 17  9  1  1  0  0  0
 17 11  1  0  0  0  0
 17 22  1  0  0  0  0
 18 19  1  6  0  0  0
 18 20  1  0  0  0  0
 19  3  1  0  0  0  0
 20 13  1  1  0  0  0
 20 21  1  0  0  0  0
 21 15  1  6  0  0  0
 21 22  1  0  0  0  0
 22  6  1  1  0  0  0
M  END
>  <CHROM.1>
171.39002069,125.56840988,-61.07260384,19.52472842,13.42883327,38.22963144
-0.88885354,1.26590835,-1.72527318

>  <Name>
2et8_lig

>  <RI>
0

>  <Rbt.Current_Directory>
/home/itssahil/PROJECTS/Mol_Feturizer/New_Systems/rnas/2et8

>  <Rbt.Executable>
rbdock ($Id: //depot/dev/client3/rdock/2013.1/src/exe/rbdock.cxx#4 $)

>  <Rbt.Library>
libRbt.so (2013.1, Build901 2013/11/27)

>  <Rbt.Parameter_File>
/export/apps/rDock/src/rDock_2013.1_src/data/scripts/dock_solv.prm

>  <Rbt.Receptor>
prm/pocket_docking_5.prm

>  <SCORE>
-10.9368

>  <SCORE.INTER>
-12.8346

>  <SCORE.INTER.CONST>
1

>  <SCORE.INTER.POLAR>
-1.15342

>  <SCORE.INTER.ROT>
3

>  <SCORE.INTER.SOLV>
14.7577

>  <SCORE.INTER.VDW>
-15.2309

>  <SCORE.INTER.norm>
-0.583391

>  <SCORE.INTRA>
1.8944

>  <SCORE.INTRA.DIHEDRAL>
2.4346

>  <SCORE.INTRA.DIHEDRAL.0>
4.99603

>  <SCORE.INTRA.POLAR>
0

>  <SCORE.INTRA.POLAR.0>
0

>  <SCORE.INTRA.REPUL>
0

>  <SCORE.INTRA.REPUL.0>
0

>  <SCORE.INTRA.SOLV>
1.95547

>  <SCORE.INTRA.SOLV.lig_0>
-74.884

>  <SCORE.INTRA.VDW>
-0.300637

>  <SCORE.INTRA.VDW.0>
-0.858933

>  <SCORE.INTRA.norm>
0.0861089

>  <SCORE.RESTR>
0.00342321

>  <SCORE.RESTR.CAVITY>
0.00342321

>  <SCORE.RESTR.norm>
0.000155601

>  <SCORE.SYSTEM>
0

>  <SCORE.SYSTEM.CONST>
0

>  <SCORE.SYSTEM.DIHEDRAL>
0

>  <SCORE.SYSTEM.SOLV>
0

>  <SCORE.SYSTEM.norm>
0

>  <SCORE.heavy>
22

>  <SCORE.norm>
-0.497126

>  <RMSD>
6.453

$$$$
2et8_lig
 OpenBabel11021811433D
libRbt.so/2013.1/901 2013/11/27
 22 23  0  0  0  0  0  0  0  0999 V2000
   20.0338    9.8661   42.0795 N   0  0  0  0  0  0  0  0  0  0  0  0
   18.5293   14.0211   39.8257 N   0  0  0  0  0  0  0  0  0  0  0  0
   22.9668   18.3920   38.7090 N   0  0  0  0  0  0  0  0  0  0  0  0
   22.9251   12.1018   38.7677 O   0  0  0  0  0  0  0  0  0  0  0  0
   21.9436   12.3445   39.8055 C   0  0  2  0  0  0  0  0  0  0  0  0
   19.8006   13.1638   36.2526 N   0  0  0  0  0  0  0  0  0  0  0  0
   22.5804   10.2417   40.9788 O   0  0  0  0  0  0  0  0  0  0  0  0
   21.4795   10.9683   40.4183 C   0  0  1  0  0  0  0  0  0  0  0  0
   21.1270   14.2743   38.6832 O   0  0  0  0  0  0  0  0  0  0  0  0
   20.4658   11.1899   41.5138 C   0  0  1  0  0  0  0  0  0  0  0  0
   20.9649   16.4123   37.8435 O   0  0  0  0  0  0  0  0  0  0  0  0
   19.2544   11.9578   40.9371 C   0  0  0  0  0  0  0  0  0  0  0  0
   23.6206   15.9412   35.3846 O   0  0  0  0  0  0  0  0  0  0  0  0
   19.7666   13.3120   40.3653 C   0  0  1  0  0  0  0  0  0  0  0  0
   21.7293   14.1115   34.4295 O   0  0  0  0  0  0  0  0  0  0  0  0
   20.6837   13.0821   39.2008 C   0  0  2  0  0  0  0  0  0  0  0  0
   20.3302   15.0224   37.8247 C   0  0  1  0  0  0  0  0  0  0  0  0
   22.3573   16.4294   37.2992 C   0  0  2  0  0  0  0  0  0  0  0  0
   22.9303   17.8617   37.3190 C   0  0  0  0  0  0  0  0  0  0  0  0
   22.3261   15.9377   35.8829 C   0  0  2  0  0  0  0  0  0  0  0  0
   21.7646   14.5483   35.7959 C   0  0  1  0  0  0  0  0  0  0  0  0
   20.3788   14.5526   36.3436 C   0  0  1  0  0  0  0  0  0  0  0  0
  5  4  1  6  0  0  0
  5  8  1  0  0  0  0
  5 16  1  0  0  0  0
  8  7  1  1  0  0  0
  8 10  1  0  0  0  0
 10  1  1  6  0  0  0
 10 12  1  0  0  0  0
 11 18  1  0  0  0  0
 12 14  1  0  0  0  0
 14  2  1  6  0  0  0
 14 16  1  0  0  0  0
 16  9  1  1  0  0  0
 17  9  1  1  0  0  0
 17 11  1  0  0  0  0
 17 22  1  0  0  0  0
 18 19  1  6  0  0  0
 18 20  1  0  0  0  0
 19  3  1  0  0  0  0
 20 13  1  1  0  0  0
 20 21  1  0  0  0  0
 21 15  1  6  0  0  0
 21 22  1  0  0  0  0
 22  6  1  1  0  0  0
M  END
>  <CHROM.1>
165.67826942,162.66118088,60.08977251,21.30886697,13.90016965,38.40978654
2.43192589,-1.26626864,-3.03247362

>  <Name>
2et8_lig

>  <RI>
3.42619e+07

>  <Rbt.Current_Directory>
/home/itssahil/PROJECTS/Mol_Feturizer/New_Systems/rnas/2et8

>  <Rbt.Executable>
rbdock ($Id: //depot/dev/client3/rdock/2013.1/src/exe/rbdock.cxx#4 $)

>  <Rbt.Library>
libRbt.so (2013.1, Build901 2013/11/27)

>  <Rbt.Parameter_File>
/export/apps/rDock/src/rDock_2013.1_src/data/scripts/dock_solv.prm

>  <Rbt.Receptor>
prm/pocket_docking_4.prm

>  <SCORE>
-10.6439

>  <SCORE.INTER>
-9.50827

>  <SCORE.INTER.CONST>
1

>  <SCORE.INTER.POLAR>
-0.923274

>  <SCORE.INTER.ROT>
3

>  <SCORE.INTER.SOLV>
17.9906

>  <SCORE.INTER.VDW>
-14.8581

>  <SCORE.INTER.norm>
-0.432194

>  <SCORE.INTRA>
-1.13564

>  <SCORE.INTRA.DIHEDRAL>
-2.51265

>  <SCORE.INTRA.DIHEDRAL.0>
4.99603

>  <SCORE.INTRA.POLAR>
0

>  <SCORE.INTRA.POLAR.0>
0

>  <SCORE.INTRA.REPUL>
0

>  <SCORE.INTRA.REPUL.0>
0

>  <SCORE.INTRA.SOLV>
1.54582

>  <SCORE.INTRA.SOLV.lig_0>
-74.884

>  <SCORE.INTRA.VDW>
-0.652223

>  <SCORE.INTRA.VDW.0>
-0.858933

>  <SCORE.INTRA.norm>
-0.05162

>  <SCORE.RESTR>
0

>  <SCORE.RESTR.CAVITY>
0

>  <SCORE.RESTR.norm>
0

>  <SCORE.SYSTEM>
0

>  <SCORE.SYSTEM.CONST>
0

>  <SCORE.SYSTEM.DIHEDRAL>
0

>  <SCORE.SYSTEM.SOLV>
0

>  <SCORE.SYSTEM.norm>
0

>  <SCORE.heavy>
22

>  <SCORE.norm>
-0.483814

>  <RMSD>
6.458

$$$$
2et8_lig
 OpenBabel11021811433D
libRbt.so/2013.1/901 2013/11/27
 22 23  0  0  0  0  0  0  0  0999 V2000
   18.9526   12.1348   41.3409 N   0  0  0  0  0  0  0  0  0  0  0  0
   17.8350   15.9900   38.4261 N   0  0  0  0  0  0  0  0  0  0  0  0
   22.6664   18.6106   35.1562 N   0  0  0  0  0  0  0  0  0  0  0  0
   21.3207   12.8073   37.0670 O   0  0  0  0  0  0  0  0  0  0  0  0
   20.7050   13.5060   38.1771 C   0  0  2  0  0  0  0  0  0  0  0  0
   17.8402   14.1576   35.1440 N   0  0  0  0  0  0  0  0  0  0  0  0
   21.1609   11.5943   39.7073 O   0  0  0  0  0  0  0  0  0  0  0  0
   20.1320   12.4552   39.2030 C   0  0  1  0  0  0  0  0  0  0  0  0
   20.0556   15.3121   36.7747 O   0  0  0  0  0  0  0  0  0  0  0  0
   19.4960   13.1541   40.3794 C   0  0  1  0  0  0  0  0  0  0  0  0
   20.1681   17.1506   35.3927 O   0  0  0  0  0  0  0  0  0  0  0  0
   18.3672   14.0798   39.8705 C   0  0  0  0  0  0  0  0  0  0  0  0
   21.7774   15.3406   32.6622 O   0  0  0  0  0  0  0  0  0  0  0  0
   18.9913   15.1055   38.8796 C   0  0  1  0  0  0  0  0  0  0  0  0
   19.3068   14.0264   32.7412 O   0  0  0  0  0  0  0  0  0  0  0  0
   19.5170   14.4100   37.6590 C   0  0  2  0  0  0  0  0  0  0  0  0
   19.2429   16.0600   35.9310 C   0  0  1  0  0  0  0  0  0  0  0  0
   21.2970   16.6116   34.5738 C   0  0  2  0  0  0  0  0  0  0  0  0
   22.1756   17.7608   34.0374 C   0  0  0  0  0  0  0  0  0  0  0  0
   20.7286   15.8515   33.4128 C   0  0  2  0  0  0  0  0  0  0  0  0
   19.8508   14.7234   33.8713 C   0  0  1  0  0  0  0  0  0  0  0  0
   18.7343   15.2808   34.6856 C   0  0  1  0  0  0  0  0  0  0  0  0
  5  4  1  6  0  0  0
  5  8  1  0  0  0  0
  5 16  1  0  0  0  0
  8  7  1  1  0  0  0
  8 10  1  0  0  0  0
 10  1  1  1  0  0  0
 10 12  1  0  0  0  0
 11 18  1  0  0  0  0
 12 14  1  0  0  0  0
 14  2  1  6  0  0  0
 14 16  1  0  0  0  0
 16  9  1  6  0  0  0
 17  9  1  1  0  0  0
 17 11  1  0  0  0  0
 17 22  1  0  0  0  0
 18 19  1  6  0  0  0
 18 20  1  0  0  0  0
 19  3  1  0  0  0  0
 20 13  1  1  0  0  0
 20 21  1  0  0  0  0
 21 15  1  6  0  0  0
 21 22  1  0  0  0  0
 22  6  1  1  0  0  0
M  END
>  <CHROM.1>
166.18204667,166.26279322,55.80901710,20.04304335,14.80992239,36.55899493
-2.42425361,-1.30709008,-1.89663198

>  <Name>
2et8_lig

>  <RI>
3.42619e+07

>  <Rbt.Current_Directory>
/home/itssahil/PROJECTS/Mol_Feturizer/New_Systems/rnas/2et8

>  <Rbt.Executable>
rbdock ($Id: //depot/dev/client3/rdock/2013.1/src/exe/rbdock.cxx#4 $)

>  <Rbt.Library>
libRbt.so (2013.1, Build901 2013/11/27)

>  <Rbt.Parameter_File>
/export/apps/rDock/src/rDock_2013.1_src/data/scripts/dock_solv.prm

>  <Rbt.Receptor>
prm/pocket_docking_4.prm

>  <SCORE>
-10.6488

>  <SCORE.INTER>
-9.41846

>  <SCORE.INTER.CONST>
1

>  <SCORE.INTER.POLAR>
-1.26638

>  <SCORE.INTER.ROT>
3

>  <SCORE.INTER.SOLV>
12.8502

>  <SCORE.INTER.VDW>
-11.9411

>  <SCORE.INTER.norm>
-0.428112

>  <SCORE.INTRA>
-1.23033

>  <SCORE.INTRA.DIHEDRAL>
-2.99317

>  <SCORE.INTRA.DIHEDRAL.0>
4.99603

>  <SCORE.INTRA.POLAR>
0

>  <SCORE.INTRA.POLAR.0>
0

>  <SCORE.INTRA.REPUL>
0

>  <SCORE.INTRA.REPUL.0>
0

>  <SCORE.INTRA.SOLV>
1.79508

>  <SCORE.INTRA.SOLV.lig_0>
-74.884

>  <SCORE.INTRA.VDW>
-0.631288

>  <SCORE.INTRA.VDW.0>
-0.858933

>  <SCORE.INTRA.norm>
-0.0559242

>  <SCORE.RESTR>
0

>  <SCORE.RESTR.CAVITY>
0

>  <SCORE.RESTR.norm>
0

>  <SCORE.SYSTEM>
0

>  <SCORE.SYSTEM.CONST>
0

>  <SCORE.SYSTEM.DIHEDRAL>
0

>  <SCORE.SYSTEM.SOLV>
0

>  <SCORE.SYSTEM.norm>
0

>  <SCORE.heavy>
22

>  <SCORE.norm>
-0.484036

>  <RMSD>
6.460

$$$$
2et8_lig
 OpenBabel11021811433D
libRbt.so/2013.1/901 2013/11/27
 22 23  0  0  0  0  0  0  0  0999 V2000
   19.9402    9.8943   42.0987 N   0  0  0  0  0  0  0  0  0  0  0  0
   18.5182   14.0917   39.8700 N   0  0  0  0  0  0  0  0  0  0  0  0
   23.1068   18.2674   38.6903 N   0  0  0  0  0  0  0  0  0  0  0  0
   22.7853   11.9844   38.6544 O   0  0  0  0  0  0  0  0  0  0  0  0
   21.8572   12.2750   39.7285 C   0  0  2  0  0  0  0  0  0  0  0  0
   19.7595   13.1373   36.1782 N   0  0  0  0  0  0  0  0  0  0  0  0
   22.4536   10.1561   40.8939 O   0  0  0  0  0  0  0  0  0  0  0  0
   21.3619   10.9236   40.3714 C   0  0  1  0  0  0  0  0  0  0  0  0
   21.0761   14.2289   38.6226 O   0  0  0  0  0  0  0  0  0  0  0  0
   20.4031   11.1949   41.5046 C   0  0  1  0  0  0  0  0  0  0  0  0
   20.9311   16.3717   37.7921 O   0  0  0  0  0  0  0  0  0  0  0  0
   19.2020   12.0082   40.9698 C   0  0  0  0  0  0  0  0  0  0  0  0
   23.6002   15.8977   35.3482 O   0  0  0  0  0  0  0  0  0  0  0  0
   19.7460   13.3359   40.3661 C   0  0  1  0  0  0  0  0  0  0  0  0
   21.7051   14.0830   34.3722 O   0  0  0  0  0  0  0  0  0  0  0  0
   20.6053   13.0598   39.1680 C   0  0  2  0  0  0  0  0  0  0  0  0
   20.2889   14.9854   37.7625 C   0  0  1  0  0  0  0  0  0  0  0  0
   22.3272   16.3837   37.2570 C   0  0  2  0  0  0  0  0  0  0  0  0
   22.9079   17.8128   37.2873 C   0  0  0  0  0  0  0  0  0  0  0  0
   22.3025   15.8990   35.8381 C   0  0  2  0  0  0  0  0  0  0  0  0
   21.7339   14.5131   35.7408 C   0  0  1  0  0  0  0  0  0  0  0  0
   20.3446   14.5224   36.2796 C   0  0  1  0  0  0  0  0  0  0  0  0
  5  4  1  6  0  0  0
  5  8  1  0  0  0  0
  5 16  1  0  0  0  0
  8  7  1  1  0  0  0
  8 10  1  0  0  0  0
 10  1  1  6  0  0  0
 10 12  1  0  0  0  0
 11 18  1  0  0  0  0
 12 14  1  0  0  0  0
 14  2  1  6  0  0  0
 14 16  1  0  0  0  0
 16  9  1  1  0  0  0
 17  9  1  1  0  0  0
 17 11  1  0  0  0  0
 17 22  1  0  0  0  0
 18 19  1  6  0  0  0
 18 20  1  0  0  0  0
 19  3  1  0  0  0  0
 20 13  1  1  0  0  0
 20 21  1  0  0  0  0
 21 15  1  6  0  0  0
 21 22  1  0  0  0  0
 22  6  1  1  0  0  0
M  END
>  <CHROM.1>
164.00186001,160.39280387,67.59904927,21.26275453,13.86691226,38.36949270
2.50307136,-1.26886745,-2.96967464

>  <Name>
2et8_lig

>  <RI>
0

>  <Rbt.Current_Directory>
/home/itssahil/PROJECTS/Mol_Feturizer/New_Systems/rnas/2et8

>  <Rbt.Executable>
rbdock ($Id: //depot/dev/client3/rdock/2013.1/src/exe/rbdock.cxx#4 $)

>  <Rbt.Library>
libRbt.so (2013.1, Build901 2013/11/27)

>  <Rbt.Parameter_File>
/export/apps/rDock/src/rDock_2013.1_src/data/scripts/dock_solv.prm

>  <Rbt.Receptor>
prm/pocket_docking_7.prm

>  <SCORE>
-10.5322

>  <SCORE.INTER>
-9.59739

>  <SCORE.INTER.CONST>
1

>  <SCORE.INTER.POLAR>
-0.887654

>  <SCORE.INTER.ROT>
3

>  <SCORE.INTER.SOLV>
18.4624

>  <SCORE.INTER.VDW>
-15.1935

>  <SCORE.INTER.norm>
-0.436245

>  <SCORE.INTRA>
-0.934806

>  <SCORE.INTRA.DIHEDRAL>
-1.74315

>  <SCORE.INTRA.DIHEDRAL.0>
4.99603

>  <SCORE.INTRA.POLAR>
0

>  <SCORE.INTRA.POLAR.0>
0

>  <SCORE.INTRA.REPUL>
0

>  <SCORE.INTRA.REPUL.0>
0

>  <SCORE.INTRA.SOLV>
1.3186

>  <SCORE.INTRA.SOLV.lig_0>
-74.884

>  <SCORE.INTRA.VDW>
-0.722532

>  <SCORE.INTRA.VDW.0>
-0.858933

>  <SCORE.INTRA.norm>
-0.0424912

>  <SCORE.RESTR>
0

>  <SCORE.RESTR.CAVITY>
0

>  <SCORE.RESTR.norm>
0

>  <SCORE.SYSTEM>
0

>  <SCORE.SYSTEM.CONST>
0

>  <SCORE.SYSTEM.DIHEDRAL>
0

>  <SCORE.SYSTEM.SOLV>
0

>  <SCORE.SYSTEM.norm>
0

>  <SCORE.heavy>
22

>  <SCORE.norm>
-0.478736

>  <RMSD>
6.460

$$$$
2et8_lig
 OpenBabel11021811433D
libRbt.so/2013.1/901 2013/11/27
 22 23  0  0  0  0  0  0  0  0999 V2000
   19.9777    9.8855   42.0872 N   0  0  0  0  0  0  0  0  0  0  0  0
   18.4894   14.0330   39.8089 N   0  0  0  0  0  0  0  0  0  0  0  0
   22.9308   18.3620   38.6708 N   0  0  0  0  0  0  0  0  0  0  0  0
   22.8544   12.0600   38.7224 O   0  0  0  0  0  0  0  0  0  0  0  0
   21.8867   12.3226   39.7684 C   0  0  2  0  0  0  0  0  0  0  0  0
   19.7620   13.1339   36.2014 N   0  0  0  0  0  0  0  0  0  0  0  0
   22.5156   10.2250   40.9554 O   0  0  0  0  0  0  0  0  0  0  0  0
   21.4158   10.9570   40.3997 C   0  0  1  0  0  0  0  0  0  0  0  0
   21.0769   14.2493   38.6360 O   0  0  0  0  0  0  0  0  0  0  0  0
   20.4164   11.1993   41.5039 C   0  0  1  0  0  0  0  0  0  0  0  0
   20.9095   16.3867   37.7958 O   0  0  0  0  0  0  0  0  0  0  0  0
   19.2063   11.9736   40.9327 C   0  0  0  0  0  0  0  0  0  0  0  0
   23.5744   15.9254   35.3449 O   0  0  0  0  0  0  0  0  0  0  0  0
   19.7255   13.3170   40.3421 C   0  0  1  0  0  0  0  0  0  0  0  0
   21.6927   14.0887   34.3841 O   0  0  0  0  0  0  0  0  0  0  0  0
   20.6275   13.0666   39.1701 C   0  0  2  0  0  0  0  0  0  0  0  0
   20.2799   14.9944   37.7750 C   0  0  1  0  0  0  0  0  0  0  0  0
   22.3035   16.4089   37.2558 C   0  0  2  0  0  0  0  0  0  0  0  0
   22.8711   17.8433   37.2772 C   0  0  0  0  0  0  0  0  0  0  0  0
   22.2784   15.9171   35.8393 C   0  0  2  0  0  0  0  0  0  0  0  0
   21.7222   14.5256   35.7506 C   0  0  1  0  0  0  0  0  0  0  0  0
   20.3347   14.5248   36.2941 C   0  0  1  0  0  0  0  0  0  0  0  0
  5  4  1  6  0  0  0
  5  8  1  0  0  0  0
  5 16  1  0  0  0  0
  8  7  1  1  0  0  0
  8 10  1  0  0  0  0
 10  1  1  6  0  0  0
 10 12  1  0  0  0  0
 11 18  1  0  0  0  0
 12 14  1  0  0  0  0
 14  2  1  6  0  0  0
 14 16  1  0  0  0  0
 16  9  1  1  0  0  0
 17  9  1  1  0  0  0
 17 11  1  0  0  0  0
 17 22  1  0  0  0  0
 18 19  1  6  0  0  0
 18 20  1  0  0  0  0
 19  3  1  0  0  0  0
 20 13  1  1  0  0  0
 20 21  1  0  0  0  0
 21 15  1  6  0  0  0
 21 22  1  0  0  0  0
 22  6  1  1  0  0  0
M  END
>  <CHROM.1>
165.44851806,161.54891867,61.40043940,21.25841136,13.88471190,38.37571144
2.43672853,-1.26670508,-3.03470587

>  <Name>
2et8_lig

>  <RI>
3.14397e+07

>  <Rbt.Current_Directory>
/home/itssahil/PROJECTS/Mol_Feturizer/New_Systems/rnas/2et8

>  <Rbt.Executable>
rbdock ($Id: //depot/dev/client3/rdock/2013.1/src/exe/rbdock.cxx#4 $)

>  <Rbt.Library>
libRbt.so (2013.1, Build901 2013/11/27)

>  <Rbt.Parameter_File>
/export/apps/rDock/src/rDock_2013.1_src/data/scripts/dock_solv.prm

>  <Rbt.Receptor>
prm/pocket_docking_6.prm

>  <SCORE>
-10.7114

>  <SCORE.INTER>
-9.6244

>  <SCORE.INTER.CONST>
1

>  <SCORE.INTER.POLAR>
-0.900748

>  <SCORE.INTER.ROT>
3

>  <SCORE.INTER.SOLV>
18.2091

>  <SCORE.INTER.VDW>
-15.0835

>  <SCORE.INTER.norm>
-0.437473

>  <SCORE.INTRA>
-1.08695

>  <SCORE.INTRA.DIHEDRAL>
-2.31158

>  <SCORE.INTRA.DIHEDRAL.0>
4.99603

>  <SCORE.INTRA.POLAR>
0

>  <SCORE.INTRA.POLAR.0>
0

>  <SCORE.INTRA.REPUL>
0

>  <SCORE.INTRA.REPUL.0>
0

>  <SCORE.INTRA.SOLV>
1.46847

>  <SCORE.INTRA.SOLV.lig_0>
-74.884

>  <SCORE.INTRA.VDW>
-0.665397

>  <SCORE.INTRA.VDW.0>
-0.858933

>  <SCORE.INTRA.norm>
-0.0494069

>  <SCORE.RESTR>
0

>  <SCORE.RESTR.CAVITY>
0

>  <SCORE.RESTR.norm>
0

>  <SCORE.SYSTEM>
0

>  <SCORE.SYSTEM.CONST>
0

>  <SCORE.SYSTEM.DIHEDRAL>
0

>  <SCORE.SYSTEM.SOLV>
0

>  <SCORE.SYSTEM.norm>
0

>  <SCORE.heavy>
22

>  <SCORE.norm>
-0.48688

>  <RMSD>
6.462

$$$$
2et8_lig
 OpenBabel11021811433D
libRbt.so/2013.1/901 2013/11/27
 22 23  0  0  0  0  0  0  0  0999 V2000
   19.9547    9.8845   42.1031 N   0  0  0  0  0  0  0  0  0  0  0  0
   18.5150   14.0957   39.9120 N   0  0  0  0  0  0  0  0  0  0  0  0
   22.9290   18.3458   38.7070 N   0  0  0  0  0  0  0  0  0  0  0  0
   22.7706   11.9944   38.6469 O   0  0  0  0  0  0  0  0  0  0  0  0
   21.8520   12.2788   39.7307 C   0  0  2  0  0  0  0  0  0  0  0  0
   19.7639   13.1372   36.1939 N   0  0  0  0  0  0  0  0  0  0  0  0
   22.4577   10.1527   40.8782 O   0  0  0  0  0  0  0  0  0  0  0  0
   21.3618   10.9237   40.3698 C   0  0  1  0  0  0  0  0  0  0  0  0
   21.0620   14.2395   38.6433 O   0  0  0  0  0  0  0  0  0  0  0  0
   20.4130   11.1885   41.5128 C   0  0  1  0  0  0  0  0  0  0  0  0
   20.9105   16.3802   37.8085 O   0  0  0  0  0  0  0  0  0  0  0  0
   19.2076   12.0054   40.9934 C   0  0  0  0  0  0  0  0  0  0  0  0
   23.5947   15.9159   35.3794 O   0  0  0  0  0  0  0  0  0  0  0  0
   19.7468   13.3365   40.3929 C   0  0  1  0  0  0  0  0  0  0  0  0
   21.7141   14.0899   34.3965 O   0  0  0  0  0  0  0  0  0  0  0  0
   20.5956   13.0674   39.1858 C   0  0  2  0  0  0  0  0  0  0  0  0
   20.2756   14.9906   37.7779 C   0  0  1  0  0  0  0  0  0  0  0  0
   22.3092   16.3986   37.2807 C   0  0  2  0  0  0  0  0  0  0  0  0
   22.8824   17.8306   37.3117 C   0  0  0  0  0  0  0  0  0  0  0  0
   22.2945   15.9113   35.8625 C   0  0  2  0  0  0  0  0  0  0  0  0
   21.7335   14.5224   35.7646 C   0  0  1  0  0  0  0  0  0  0  0  0
   20.3414   14.5255   36.2960 C   0  0  1  0  0  0  0  0  0  0  0  0
  5  4  1  6  0  0  0
  5  8  1  0  0  0  0
  5 16  1  0  0  0  0
  8  7  1  1  0  0  0
  8 10  1  0  0  0  0
 10  1  1  6  0  0  0
 10 12  1  0  0  0  0
 11 18  1  0  0  0  0
 12 14  1  0  0  0  0
 14  2  1  6  0  0  0
 14 16  1  0  0  0  0
 16  9  1  1  0  0  0
 17  9  1  1  0  0  0
 17 11  1  0  0  0  0
 17 22  1  0  0  0  0
 18 19  1  6  0  0  0
 18 20  1  0  0  0  0
 19  3  1  0  0  0  0
 20 13  1  1  0  0  0
 20 21  1  0  0  0  0
 21 15  1  6  0  0  0
 21 22  1  0  0  0  0
 22  6  1  1  0  0  0
M  END
>  <CHROM.1>
162.97074539,160.54458962,61.26177426,21.25040138,13.87561844,38.38537759
2.36697681,-1.23754540,-3.10655746

>  <Name>
2et8_lig

>  <RI>
0

>  <Rbt.Current_Directory>
/home/itssahil/PROJECTS/Mol_Feturizer/New_Systems/rnas/2et8

>  <Rbt.Executable>
rbdock ($Id: //depot/dev/client3/rdock/2013.1/src/exe/rbdock.cxx#4 $)

>  <Rbt.Library>
libRbt.so (2013.1, Build901 2013/11/27)

>  <Rbt.Parameter_File>
/export/apps/rDock/src/rDock_2013.1_src/data/scripts/dock_solv.prm

>  <Rbt.Receptor>
prm/pocket_docking_7.prm

>  <SCORE>
-10.6234

>  <SCORE.INTER>
-9.63103

>  <SCORE.INTER.CONST>
1

>  <SCORE.INTER.POLAR>
-0.894654

>  <SCORE.INTER.ROT>
3

>  <SCORE.INTER.SOLV>
18.4659

>  <SCORE.INTER.VDW>
-15.1938

>  <SCORE.INTER.norm>
-0.437774

>  <SCORE.INTRA>
-0.992364

>  <SCORE.INTRA.DIHEDRAL>
-1.82525

>  <SCORE.INTRA.DIHEDRAL.0>
4.99603

>  <SCORE.INTRA.POLAR>
0

>  <SCORE.INTRA.POLAR.0>
0

>  <SCORE.INTRA.REPUL>
0

>  <SCORE.INTRA.REPUL.0>
0

>  <SCORE.INTRA.SOLV>
1.33909

>  <SCORE.INTRA.SOLV.lig_0>
-74.884

>  <SCORE.INTRA.VDW>
-0.749284

>  <SCORE.INTRA.VDW.0>
-0.858933

>  <SCORE.INTRA.norm>
-0.0451075

>  <SCORE.RESTR>
0

>  <SCORE.RESTR.CAVITY>
0

>  <SCORE.RESTR.norm>
0

>  <SCORE.SYSTEM>
0

>  <SCORE.SYSTEM.CONST>
0

>  <SCORE.SYSTEM.DIHEDRAL>
0

>  <SCORE.SYSTEM.SOLV>
0

>  <SCORE.SYSTEM.norm>
0

>  <SCORE.heavy>
22

>  <SCORE.norm>
-0.482882

>  <RMSD>
6.462

$$$$
2et8_lig
 OpenBabel11021811433D
libRbt.so/2013.1/901 2013/11/27
 22 23  0  0  0  0  0  0  0  0999 V2000
   22.3671    9.6302   41.6324 N   0  0  0  0  0  0  0  0  0  0  0  0
   21.4499   12.2805   37.5407 N   0  0  0  0  0  0  0  0  0  0  0  0
   15.2557   15.1146   37.4533 N   0  0  0  0  0  0  0  0  0  0  0  0
   18.8708   13.1091   41.6380 O   0  0  0  0  0  0  0  0  0  0  0  0
   19.5135   12.1085   40.8102 C   0  0  2  0  0  0  0  0  0  0  0  0
   21.7637   14.7944   38.2417 N   0  0  0  0  0  0  0  0  0  0  0  0
   20.0805   10.7360   42.8099 O   0  0  0  0  0  0  0  0  0  0  0  0
   20.6277   11.3734   41.6487 C   0  0  1  0  0  0  0  0  0  0  0  0
   19.1893   13.4159   38.8516 O   0  0  0  0  0  0  0  0  0  0  0  0
   21.3064   10.3138   40.8160 C   0  0  1  0  0  0  0  0  0  0  0  0
   18.1043   14.6386   37.2298 O   0  0  0  0  0  0  0  0  0  0  0  0
   21.9241   10.9724   39.5611 C   0  0  0  0  0  0  0  0  0  0  0  0
   18.0744   17.7197   39.1862 O   0  0  0  0  0  0  0  0  0  0  0  0
   20.7799   11.6642   38.7638 C   0  0  1  0  0  0  0  0  0  0  0  0
   20.8304   17.3894   38.8220 O   0  0  0  0  0  0  0  0  0  0  0  0
   20.1896   12.7926   39.5564 C   0  0  2  0  0  0  0  0  0  0  0  0
   19.4562   14.0643   37.6516 C   0  0  1  0  0  0  0  0  0  0  0  0
   17.5746   15.6575   38.1872 C   0  0  2  0  0  0  0  0  0  0  0  0
   16.2253   16.2181   37.6918 C   0  0  0  0  0  0  0  0  0  0  0  0
   18.5612   16.7823   38.2870 C   0  0  2  0  0  0  0  0  0  0  0  0
   19.9027   16.2967   38.7539 C   0  0  1  0  0  0  0  0  0  0  0  0
   20.4120   15.2827   37.7881 C   0  0  1  0  0  0  0  0  0  0  0  0
  5  4  1  1  0  0  0
  5  8  1  0  0  0  0
  5 16  1  0  0  0  0
  8  7  1  1  0  0  0
  8 10  1  0  0  0  0
 10  1  1  1  0  0  0
 10 12  1  0  0  0  0
 11 18  1  0  0  0  0
 12 14  1  0  0  0  0
 14  2  1  6  0  0  0
 14 16  1  0  0  0  0
 16  9  1  6  0  0  0
 17  9  1  1  0  0  0
 17 11  1  0  0  0  0
 17 22  1  0  0  0  0
 18 19  1  6  0  0  0
 18 20  1  0  0  0  0
 19  3  1  0  0  0  0
 20 13  1  1  0  0  0
 20 21  1  0  0  0  0
 21 15  1  6  0  0  0
 21 22  1  0  0  0  0
 22  6  1  1  0  0  0
M  END
>  <CHROM.1>
-177.11295864,-178.57233963,55.13713167,19.63363977,13.77610075,39.24406030
-1.08956570,0.22670694,-0.61199113

>  <Name>
2et8_lig

>  <RI>
0

>  <Rbt.Current_Directory>
/home/itssahil/PROJECTS/Mol_Feturizer/New_Systems/rnas/2et8

>  <Rbt.Executable>
rbdock ($Id: //depot/dev/client3/rdock/2013.1/src/exe/rbdock.cxx#4 $)

>  <Rbt.Library>
libRbt.so (2013.1, Build901 2013/11/27)

>  <Rbt.Parameter_File>
/export/apps/rDock/src/rDock_2013.1_src/data/scripts/dock_solv.prm

>  <Rbt.Receptor>
prm/pocket_docking_5.prm

>  <SCORE>
-13.6272

>  <SCORE.INTER>
-14.1424

>  <SCORE.INTER.CONST>
1

>  <SCORE.INTER.POLAR>
-0.959166

>  <SCORE.INTER.ROT>
3

>  <SCORE.INTER.SOLV>
17.6044

>  <SCORE.INTER.VDW>
-17.6992

>  <SCORE.INTER.norm>
-0.642838

>  <SCORE.INTRA>
0.506171

>  <SCORE.INTRA.DIHEDRAL>
-4.66706

>  <SCORE.INTRA.DIHEDRAL.0>
4.99603

>  <SCORE.INTRA.POLAR>
0

>  <SCORE.INTRA.POLAR.0>
0

>  <SCORE.INTRA.REPUL>
0

>  <SCORE.INTRA.REPUL.0>
0

>  <SCORE.INTRA.SOLV>
4.20551

>  <SCORE.INTRA.SOLV.lig_0>
-74.884

>  <SCORE.INTRA.VDW>
0.736946

>  <SCORE.INTRA.VDW.0>
-0.858933

>  <SCORE.INTRA.norm>
0.0230078

>  <SCORE.RESTR>
0.00907784

>  <SCORE.RESTR.CAVITY>
0.00907784

>  <SCORE.RESTR.norm>
0.000412629

>  <SCORE.SYSTEM>
0

>  <SCORE.SYSTEM.CONST>
0

>  <SCORE.SYSTEM.DIHEDRAL>
0

>  <SCORE.SYSTEM.SOLV>
0

>  <SCORE.SYSTEM.norm>
0

>  <SCORE.heavy>
22

>  <SCORE.norm>
-0.619418

>  <RMSD>
6.463

$$$$
2et8_lig
 OpenBabel11021811433D
libRbt.so/2013.1/901 2013/11/27
 22 23  0  0  0  0  0  0  0  0999 V2000
   19.0241   12.2204   41.3454 N   0  0  0  0  0  0  0  0  0  0  0  0
   17.7694   15.9689   38.3484 N   0  0  0  0  0  0  0  0  0  0  0  0
   21.0555   17.9679   32.5049 N   0  0  0  0  0  0  0  0  0  0  0  0
   21.3139   12.8383   37.0209 O   0  0  0  0  0  0  0  0  0  0  0  0
   20.6967   13.5506   38.1215 C   0  0  2  0  0  0  0  0  0  0  0  0
   17.3618   14.3236   35.6466 N   0  0  0  0  0  0  0  0  0  0  0  0
   21.2219   11.6916   39.6938 O   0  0  0  0  0  0  0  0  0  0  0  0
   20.1648   12.5134   39.1827 C   0  0  1  0  0  0  0  0  0  0  0  0
   19.9826   15.3027   36.6825 O   0  0  0  0  0  0  0  0  0  0  0  0
   19.5282   13.2272   40.3498 C   0  0  1  0  0  0  0  0  0  0  0  0
   20.0855   16.8997   35.0267 O   0  0  0  0  0  0  0  0  0  0  0  0
   18.3695   14.1111   39.8338 C   0  0  0  0  0  0  0  0  0  0  0  0
   20.8859   14.5066   32.3897 O   0  0  0  0  0  0  0  0  0  0  0  0
   18.9537   15.1254   38.8076 C   0  0  1  0  0  0  0  0  0  0  0  0
   18.3171   13.6382   33.0854 O   0  0  0  0  0  0  0  0  0  0  0  0
   19.4792   14.4112   37.5978 C   0  0  2  0  0  0  0  0  0  0  0  0
   19.1367   16.0564   35.8774 C   0  0  1  0  0  0  0  0  0  0  0  0
   20.9545   16.0795   34.1280 C   0  0  2  0  0  0  0  0  0  0  0  0
   21.8664   16.9880   33.2775 C   0  0  0  0  0  0  0  0  0  0  0  0
   20.0782   15.2771   33.2131 C   0  0  2  0  0  0  0  0  0  0  0  0
   19.1553   14.3788   33.9843 C   0  0  1  0  0  0  0  0  0  0  0  0
   18.3000   15.2144   34.8736 C   0  0  1  0  0  0  0  0  0  0  0  0
  5  4  1  6  0  0  0
  5  8  1  0  0  0  0
  5 16  1  0  0  0  0
  8  7  1  1  0  0  0
  8 10  1  0  0  0  0
 10  1  1  1  0  0  0
 10 12  1  0  0  0  0
 11 18  1  0  0  0  0
 12 14  1  0  0  0  0
 14  2  1  6  0  0  0
 14 16  1  0  0  0  0
 16  9  1  6  0  0  0
 17  9  1  1  0  0  0
 17 11  1  0  0  0  0
 17 22  1  0  0  0  0
 18 19  1  6  0  0  0
 18 20  1  0  0  0  0
 19  3  1  0  0  0  0
 20 13  1  6  0  0  0
 20 21  1  0  0  0  0
 21 15  1  6  0  0  0
 21 22  1  0  0  0  0
 22  6  1  1  0  0  0
M  END
>  <CHROM.1>
169.38609511,179.90486915,-56.03221102,19.73857347,14.63241965,36.37294663
1.70039114,-0.71972672,2.07525857

>  <Name>
2et8_lig

>  <RI>
3.14397e+07

>  <Rbt.Current_Directory>
/home/itssahil/PROJECTS/Mol_Feturizer/New_Systems/rnas/2et8

>  <Rbt.Executable>
rbdock ($Id: //depot/dev/client3/rdock/2013.1/src/exe/rbdock.cxx#4 $)

>  <Rbt.Library>
libRbt.so (2013.1, Build901 2013/11/27)

>  <Rbt.Parameter_File>
/export/apps/rDock/src/rDock_2013.1_src/data/scripts/dock_solv.prm

>  <Rbt.Receptor>
prm/pocket_docking_6.prm

>  <SCORE>
-12.5918

>  <SCORE.INTER>
-12.3533

>  <SCORE.INTER.CONST>
1

>  <SCORE.INTER.POLAR>
-1.67958

>  <SCORE.INTER.ROT>
3

>  <SCORE.INTER.SOLV>
12.8364

>  <SCORE.INTER.VDW>
-12.5157

>  <SCORE.INTER.norm>
-0.561513

>  <SCORE.INTRA>
-0.238507

>  <SCORE.INTRA.DIHEDRAL>
-4.21802

>  <SCORE.INTRA.DIHEDRAL.0>
4.99603

>  <SCORE.INTRA.POLAR>
0

>  <SCORE.INTRA.POLAR.0>
0

>  <SCORE.INTRA.REPUL>
0

>  <SCORE.INTRA.REPUL.0>
0

>  <SCORE.INTRA.SOLV>
4.47755

>  <SCORE.INTRA.SOLV.lig_0>
-74.884

>  <SCORE.INTRA.VDW>
-0.368272

>  <SCORE.INTRA.VDW.0>
-0.858933

>  <SCORE.INTRA.norm>
-0.0108412

>  <SCORE.RESTR>
0

>  <SCORE.RESTR.CAVITY>
0

>  <SCORE.RESTR.norm>
0

>  <SCORE.SYSTEM>
0

>  <SCORE.SYSTEM.CONST>
0

>  <SCORE.SYSTEM.DIHEDRAL>
0

>  <SCORE.SYSTEM.SOLV>
0

>  <SCORE.SYSTEM.norm>
0

>  <SCORE.heavy>
22

>  <SCORE.norm>
-0.572354

>  <RMSD>
6.477

$$$$
2et8_lig
 OpenBabel11021811433D
libRbt.so/2013.1/901 2013/11/27
 22 23  0  0  0  0  0  0  0  0999 V2000
   21.1848   10.7309   42.3117 N   0  0  0  0  0  0  0  0  0  0  0  0
   21.5876   12.1112   37.5641 N   0  0  0  0  0  0  0  0  0  0  0  0
   15.1636   15.4978   35.2732 N   0  0  0  0  0  0  0  0  0  0  0  0
   18.0814   14.0549   40.4022 O   0  0  0  0  0  0  0  0  0  0  0  0
   18.8447   12.8636   40.0899 C   0  0  2  0  0  0  0  0  0  0  0  0
   21.1186   15.7895   38.0938 N   0  0  0  0  0  0  0  0  0  0  0  0
   18.7563   12.1154   42.4640 O   0  0  0  0  0  0  0  0  0  0  0  0
   19.6383   12.4004   41.3708 C   0  0  1  0  0  0  0  0  0  0  0  0
   19.1508   13.5619   37.8384 O   0  0  0  0  0  0  0  0  0  0  0  0
   20.4331   11.1512   41.0800 C   0  0  1  0  0  0  0  0  0  0  0  0
   18.7013   14.1557   35.6594 O   0  0  0  0  0  0  0  0  0  0  0  0
   21.4093   11.4303   39.9141 C   0  0  0  0  0  0  0  0  0  0  0  0
   16.7566   17.1049   36.5765 O   0  0  0  0  0  0  0  0  0  0  0  0
   20.5728   11.8635   38.6748 C   0  0  1  0  0  0  0  0  0  0  0  0
   19.2750   17.8493   37.5465 O   0  0  0  0  0  0  0  0  0  0  0  0
   19.8786   13.1676   38.9341 C   0  0  2  0  0  0  0  0  0  0  0  0
   19.7647   14.1818   36.7566 C   0  0  1  0  0  0  0  0  0  0  0  0
   17.4821   14.9493   36.0043 C   0  0  2  0  0  0  0  0  0  0  0  0
   16.4616   14.9067   34.8480 C   0  0  0  0  0  0  0  0  0  0  0  0
   17.8870   16.3734   36.2432 C   0  0  2  0  0  0  0  0  0  0  0  0
   18.8923   16.4800   37.3529 C   0  0  1  0  0  0  0  0  0  0  0  0
   20.0976   15.6821   36.9906 C   0  0  1  0  0  0  0  0  0  0  0  0
  5  4  1  1  0  0  0
  5  8  1  0  0  0  0
  5 16  1  0  0  0  0
  8  7  1  1  0  0  0
  8 10  1  0  0  0  0
 10  1  1  1  0  0  0
 10 12  1  0  0  0  0
 11 18  1  0  0  0  0
 12 14  1  0  0  0  0
 14  2  1  6  0  0  0
 14 16  1  0  0  0  0
 16  9  1  6  0  0  0
 17  9  1  1  0  0  0
 17 11  1  0  0  0  0
 17 22  1  0  0  0  0
 18 19  1  6  0  0  0
 18 20  1  0  0  0  0
 19  3  1  0  0  0  0
 20 13  1  1  0  0  0
 20 21  1  0  0  0  0
 21 15  1  6  0  0  0
 21 22  1  0  0  0  0
 22  6  1  1  0  0  0
M  END
>  <CHROM.1>
165.50839463,167.37438494,170.48400207,19.10948395,14.05284237,38.27513117
1.13037927,-0.39007545,2.11152452

>  <Name>
2et8_lig

>  <RI>
0

>  <Rbt.Current_Directory>
/home/itssahil/PROJECTS/Mol_Feturizer/New_Systems/rnas/2et8

>  <Rbt.Executable>
rbdock ($Id: //depot/dev/client3/rdock/2013.1/src/exe/rbdock.cxx#4 $)

>  <Rbt.Library>
libRbt.so (2013.1, Build901 2013/11/27)

>  <Rbt.Parameter_File>
/export/apps/rDock/src/rDock_2013.1_src/data/scripts/dock_solv.prm

>  <Rbt.Receptor>
prm/pocket_docking_5.prm

>  <SCORE>
-10.2053

>  <SCORE.INTER>
-9.9822

>  <SCORE.INTER.CONST>
1

>  <SCORE.INTER.POLAR>
-0.891802

>  <SCORE.INTER.ROT>
3

>  <SCORE.INTER.SOLV>
14.1145

>  <SCORE.INTER.VDW>
-13.987

>  <SCORE.INTER.norm>
-0.453736

>  <SCORE.INTRA>
-0.223078

>  <SCORE.INTRA.DIHEDRAL>
-2.7837

>  <SCORE.INTRA.DIHEDRAL.0>
4.99603

>  <SCORE.INTRA.POLAR>
0

>  <SCORE.INTRA.POLAR.0>
0

>  <SCORE.INTRA.REPUL>
0

>  <SCORE.INTRA.REPUL.0>
0

>  <SCORE.INTRA.SOLV>
3.00642

>  <SCORE.INTRA.SOLV.lig_0>
-74.884

>  <SCORE.INTRA.VDW>
-0.334439

>  <SCORE.INTRA.VDW.0>
-0.858933

>  <SCORE.INTRA.norm>
-0.0101399

>  <SCORE.RESTR>
0

>  <SCORE.RESTR.CAVITY>
0

>  <SCORE.RESTR.norm>
0

>  <SCORE.SYSTEM>
0

>  <SCORE.SYSTEM.CONST>
0

>  <SCORE.SYSTEM.DIHEDRAL>
0

>  <SCORE.SYSTEM.SOLV>
0

>  <SCORE.SYSTEM.norm>
0

>  <SCORE.heavy>
22

>  <SCORE.norm>
-0.463876

>  <RMSD>
6.478

$$$$
2et8_lig
 OpenBabel11021811433D
libRbt.so/2013.1/901 2013/11/27
 22 23  0  0  0  0  0  0  0  0999 V2000
   19.8438    9.9249   42.1140 N   0  0  0  0  0  0  0  0  0  0  0  0
   18.5250   14.1576   39.8884 N   0  0  0  0  0  0  0  0  0  0  0  0
   24.2979   17.9710   37.6032 N   0  0  0  0  0  0  0  0  0  0  0  0
   22.7075   11.9131   38.6250 O   0  0  0  0  0  0  0  0  0  0  0  0
   21.8032   12.2364   39.7100 C   0  0  2  0  0  0  0  0  0  0  0  0
   19.8909   13.2611   36.0359 N   0  0  0  0  0  0  0  0  0  0  0  0
   22.3482   10.1036   40.8755 O   0  0  0  0  0  0  0  0  0  0  0  0
   21.2742   10.9033   40.3644 C   0  0  1  0  0  0  0  0  0  0  0  0
   21.0693   14.2101   38.6071 O   0  0  0  0  0  0  0  0  0  0  0  0
   20.3395   11.2084   41.5090 C   0  0  1  0  0  0  0  0  0  0  0  0
   20.8730   16.4033   37.9336 O   0  0  0  0  0  0  0  0  0  0  0  0
   19.1575   12.0573   40.9870 C   0  0  0  0  0  0  0  0  0  0  0  0
   23.6503   16.2129   35.5732 O   0  0  0  0  0  0  0  0  0  0  0  0
   19.7350   13.3652   40.3712 C   0  0  1  0  0  0  0  0  0  0  0  0
   21.8661   14.4109   34.3872 O   0  0  0  0  0  0  0  0  0  0  0  0
   20.5692   13.0582   39.1631 C   0  0  2  0  0  0  0  0  0  0  0  0
   20.2869   15.0011   37.7742 C   0  0  1  0  0  0  0  0  0  0  0  0
   22.2870   16.5062   37.4589 C   0  0  2  0  0  0  0  0  0  0  0  0
   22.8100   17.9487   37.6196 C   0  0  0  0  0  0  0  0  0  0  0  0
   22.3357   16.1303   36.0080 C   0  0  2  0  0  0  0  0  0  0  0  0
   21.8256   14.7363   35.7842 C   0  0  1  0  0  0  0  0  0  0  0  0
   20.4174   14.6546   36.2644 C   0  0  1  0  0  0  0  0  0  0  0  0
  5  4  1  6  0  0  0
  5  8  1  0  0  0  0
  5 16  1  0  0  0  0
  8  7  1  1  0  0  0
  8 10  1  0  0  0  0
 10  1  1  6  0  0  0
 10 12  1  0  0  0  0
 11 18  1  0  0  0  0
 12 14  1  0  0  0  0
 14  2  1  6  0  0  0
 14 16  1  0  0  0  0
 16  9  1  1  0  0  0
 17  9  1  1  0  0  0
 17 11  1  0  0  0  0
 17 22  1  0  0  0  0
 18 19  1  6  0  0  0
 18 20  1  0  0  0  0
 19  3  1  0  0  0  0
 20 13  1  1  0  0  0
 20 21  1  0  0  0  0
 21 15  1  6  0  0  0
 21 22  1  0  0  0  0
 22  6  1  1  0  0  0
M  END
>  <CHROM.1>
165.19975887,153.12392975,160.57688648,21.30600244,13.92895409,38.36411809
2.06395559,-0.94506147,2.82934494

>  <Name>
2et8_lig

>  <RI>
3.14397e+07

>  <Rbt.Current_Directory>
/home/itssahil/PROJECTS/Mol_Feturizer/New_Systems/rnas/2et8

>  <Rbt.Executable>
rbdock ($Id: //depot/dev/client3/rdock/2013.1/src/exe/rbdock.cxx#4 $)

>  <Rbt.Library>
libRbt.so (2013.1, Build901 2013/11/27)

>  <Rbt.Parameter_File>
/export/apps/rDock/src/rDock_2013.1_src/data/scripts/dock_solv.prm

>  <Rbt.Receptor>
prm/pocket_docking_6.prm

>  <SCORE>
-9.11941

>  <SCORE.INTER>
-9.72

>  <SCORE.INTER.CONST>
1

>  <SCORE.INTER.POLAR>
-0.925031

>  <SCORE.INTER.ROT>
3

>  <SCORE.INTER.SOLV>
17.0089

>  <SCORE.INTER.VDW>
-14.6662

>  <SCORE.INTER.norm>
-0.441818

>  <SCORE.INTRA>
0.600587

>  <SCORE.INTRA.DIHEDRAL>
0.386778

>  <SCORE.INTRA.DIHEDRAL.0>
4.99603

>  <SCORE.INTRA.POLAR>
0

>  <SCORE.INTRA.POLAR.0>
0

>  <SCORE.INTRA.REPUL>
0

>  <SCORE.INTRA.REPUL.0>
0

>  <SCORE.INTRA.SOLV>
2.00101

>  <SCORE.INTRA.SOLV.lig_0>
-74.884

>  <SCORE.INTRA.VDW>
-0.593307

>  <SCORE.INTRA.VDW.0>
-0.858933

>  <SCORE.INTRA.norm>
0.0272994

>  <SCORE.RESTR>
0

>  <SCORE.RESTR.CAVITY>
0

>  <SCORE.RESTR.norm>
0

>  <SCORE.SYSTEM>
0

>  <SCORE.SYSTEM.CONST>
0

>  <SCORE.SYSTEM.DIHEDRAL>
0

>  <SCORE.SYSTEM.SOLV>
0

>  <SCORE.SYSTEM.norm>
0

>  <SCORE.heavy>
22

>  <SCORE.norm>
-0.414519

>  <RMSD>
6.480

$$$$
2et8_lig
 OpenBabel11021811433D
libRbt.so/2013.1/901 2013/11/27
 22 23  0  0  0  0  0  0  0  0999 V2000
   17.7345   12.4334   29.7226 N   0  0  0  0  0  0  0  0  0  0  0  0
   15.9108   13.0192   34.2985 N   0  0  0  0  0  0  0  0  0  0  0  0
   16.3189   17.2136   35.1130 N   0  0  0  0  0  0  0  0  0  0  0  0
   20.6952   13.7336   33.4467 O   0  0  0  0  0  0  0  0  0  0  0  0
   19.5244   12.9482   33.1125 C   0  0  2  0  0  0  0  0  0  0  0  0
   20.3439   12.6273   37.5643 N   0  0  0  0  0  0  0  0  0  0  0  0
   20.3210   12.6521   30.7712 O   0  0  0  0  0  0  0  0  0  0  0  0
   19.2186   13.0947   31.5730 C   0  0  1  0  0  0  0  0  0  0  0  0
   18.5761   13.3140   35.2614 O   0  0  0  0  0  0  0  0  0  0  0  0
   18.0105   12.2750   31.1914 C   0  0  1  0  0  0  0  0  0  0  0  0
   18.5924   15.5373   35.8604 O   0  0  0  0  0  0  0  0  0  0  0  0
   16.7964   12.7402   32.0277 C   0  0  0  0  0  0  0  0  0  0  0  0
   16.3711   15.0658   38.7178 O   0  0  0  0  0  0  0  0  0  0  0  0
   17.1457   12.5559   33.5335 C   0  0  1  0  0  0  0  0  0  0  0  0
   18.5808   13.5636   39.5533 O   0  0  0  0  0  0  0  0  0  0  0  0
   18.2734   13.4620   33.9301 C   0  0  2  0  0  0  0  0  0  0  0  0
   19.3863   14.2329   35.9177 C   0  0  1  0  0  0  0  0  0  0  0  0
   17.2948   15.4681   36.6000 C   0  0  2  0  0  0  0  0  0  0  0  0
   16.5564   16.8208   36.5286 C   0  0  0  0  0  0  0  0  0  0  0  0
   17.5769   15.1433   38.0365 C   0  0  2  0  0  0  0  0  0  0  0  0
   18.3081   13.8393   38.1717 C   0  0  1  0  0  0  0  0  0  0  0  0
   19.5960   13.9286   37.4276 C   0  0  1  0  0  0  0  0  0  0  0  0
  5  4  1  1  0  0  0
  5  8  1  0  0  0  0
  5 16  1  0  0  0  0
  8  7  1  6  0  0  0
  8 10  1  0  0  0  0
 10  1  1  6  0  0  0
 10 12  1  0  0  0  0
 11 18  1  0  0  0  0
 12 14  1  0  0  0  0
 14  2  1  1  0  0  0
 14 16  1  0  0  0  0
 16  9  1  1  0  0  0
 17  9  1  1  0  0  0
 17 11  1  0  0  0  0
 17 22  1  0  0  0  0
 18 19  1  1  0  0  0
 18 20  1  0  0  0  0
 19  3  1  0  0  0  0
 20 13  1  1  0  0  0
 20 21  1  0  0  0  0
 21 15  1  1  0  0  0
 21 22  1  0  0  0  0
 22  6  1  6  0  0  0
M  END
>  <CHROM.1>
79.26982406,63.69279173,57.71347656,18.25070770,13.90372340,34.95065335,1.43778546
0.56274733,-1.80834168

>  <Name>
2et8_lig

>  <RI>
2.82936e+07

>  <Rbt.Current_Directory>
/home/itssahil/PROJECTS/Mol_Feturizer/New_Systems/rnas/2et8

>  <Rbt.Executable>
rbdock ($Id: //depot/dev/client3/rdock/2013.1/src/exe/rbdock.cxx#4 $)

>  <Rbt.Library>
libRbt.so (2013.1, Build901 2013/11/27)

>  <Rbt.Parameter_File>
/export/apps/rDock/src/rDock_2013.1_src/data/scripts/dock_solv.prm

>  <Rbt.Receptor>
prm/pocket_docking_8.prm

>  <SCORE>
-11.8382

>  <SCORE.INTER>
-9.59325

>  <SCORE.INTER.CONST>
1

>  <SCORE.INTER.POLAR>
-1.16278

>  <SCORE.INTER.ROT>
3

>  <SCORE.INTER.SOLV>
14.4999

>  <SCORE.INTER.VDW>
-12.9528

>  <SCORE.INTER.norm>
-0.436057

>  <SCORE.INTRA>
-2.24894

>  <SCORE.INTRA.DIHEDRAL>
-3.08607

>  <SCORE.INTRA.DIHEDRAL.0>
4.99603

>  <SCORE.INTRA.POLAR>
0

>  <SCORE.INTRA.POLAR.0>
0

>  <SCORE.INTRA.REPUL>
0

>  <SCORE.INTRA.REPUL.0>
0

>  <SCORE.INTRA.SOLV>
-0.141868

>  <SCORE.INTRA.SOLV.lig_0>
-74.884

>  <SCORE.INTRA.VDW>
-0.634974

>  <SCORE.INTRA.VDW.0>
-0.858933

>  <SCORE.INTRA.norm>
-0.102225

>  <SCORE.RESTR>
0.00403261

>  <SCORE.RESTR.CAVITY>
0.00403261

>  <SCORE.RESTR.norm>
0.0001833

>  <SCORE.SYSTEM>
0

>  <SCORE.SYSTEM.CONST>
0

>  <SCORE.SYSTEM.DIHEDRAL>
0

>  <SCORE.SYSTEM.SOLV>
0

>  <SCORE.SYSTEM.norm>
0

>  <SCORE.heavy>
22

>  <SCORE.norm>
-0.538098

>  <RMSD>
6.499

$$$$
2et8_lig
 OpenBabel11021811433D
libRbt.so/2013.1/901 2013/11/27
 22 23  0  0  0  0  0  0  0  0999 V2000
   20.7194   16.6114   29.8820 N   0  0  0  0  0  0  0  0  0  0  0  0
   24.8209   16.0926   32.6235 N   0  0  0  0  0  0  0  0  0  0  0  0
   22.6939   15.0061   36.5571 N   0  0  0  0  0  0  0  0  0  0  0  0
   21.5131   19.5370   33.7727 O   0  0  0  0  0  0  0  0  0  0  0  0
   22.1766   18.8259   32.6987 C   0  0  2  0  0  0  0  0  0  0  0  0
   25.4951   20.7971   35.2717 N   0  0  0  0  0  0  0  0  0  0  0  0
   20.1437   18.9751   31.2673 O   0  0  0  0  0  0  0  0  0  0  0  0
   21.1008   18.0689   31.8300 C   0  0  1  0  0  0  0  0  0  0  0  0
   24.1087   18.4629   34.0349 O   0  0  0  0  0  0  0  0  0  0  0  0
   21.7616   17.3292   30.6928 C   0  0  1  0  0  0  0  0  0  0  0  0
   23.3241   17.7882   36.0920 O   0  0  0  0  0  0  0  0  0  0  0  0
   22.7901   16.3283   31.2677 C   0  0  0  0  0  0  0  0  0  0  0  0
   26.5624   16.5411   37.2230 O   0  0  0  0  0  0  0  0  0  0  0  0
   23.8353   17.1300   32.0972 C   0  0  1  0  0  0  0  0  0  0  0  0
   27.1398   19.2692   36.9752 O   0  0  0  0  0  0  0  0  0  0  0  0
   23.1880   17.7662   33.2914 C   0  0  2  0  0  0  0  0  0  0  0  0
   23.7720   18.9979   35.2727 C   0  0  1  0  0  0  0  0  0  0  0  0
   24.4159   16.7907   36.3115 C   0  0  2  0  0  0  0  0  0  0  0  0
   23.9094   15.6108   37.1668 C   0  0  0  0  0  0  0  0  0  0  0  0
   25.5449   17.4645   37.0327 C   0  0  2  0  0  0  0  0  0  0  0  0
   26.0748   18.6333   36.2538 C   0  0  1  0  0  0  0  0  0  0  0  0
   24.9723   19.6138   36.0450 C   0  0  1  0  0  0  0  0  0  0  0  0
  5  4  1  1  0  0  0
  5  8  1  0  0  0  0
  5 16  1  0  0  0  0
  8  7  1  6  0  0  0
  8 10  1  0  0  0  0
 10  1  1  1  0  0  0
 10 12  1  0  0  0  0
 11 18  1  0  0  0  0
 12 14  1  0  0  0  0
 14  2  1  1  0  0  0
 14 16  1  0  0  0  0
 16  9  1  1  0  0  0
 17  9  1  6  0  0  0
 17 11  1  0  0  0  0
 17 22  1  0  0  0  0
 18 19  1  1  0  0  0
 18 20  1  0  0  0  0
 19  3  1  0  0  0  0
 20 13  1  6  0  0  0
 20 21  1  0  0  0  0
 21 15  1  1  0  0  0
 21 22  1  0  0  0  0
 22  6  1  6  0  0  0
M  END
>  <CHROM.1>
73.74094288,58.57901523,54.46309470,23.64388508,17.81747328,34.28513849,2.98673495
-0.91036550,-0.23545754

>  <Name>
2et8_lig

>  <RI>
0

>  <Rbt.Current_Directory>
/home/itssahil/PROJECTS/Mol_Feturizer/New_Systems/rnas/2et8

>  <Rbt.Executable>
rbdock ($Id: //depot/dev/client3/rdock/2013.1/src/exe/rbdock.cxx#4 $)

>  <Rbt.Library>
libRbt.so (2013.1, Build901 2013/11/27)

>  <Rbt.Parameter_File>
/export/apps/rDock/src/rDock_2013.1_src/data/scripts/dock_solv.prm

>  <Rbt.Receptor>
prm/pocket_docking_7.prm

>  <SCORE>
-8.36368

>  <SCORE.INTER>
-5.9474

>  <SCORE.INTER.CONST>
1

>  <SCORE.INTER.POLAR>
-0.83955

>  <SCORE.INTER.ROT>
3

>  <SCORE.INTER.SOLV>
13.7594

>  <SCORE.INTER.VDW>
-11.3529

>  <SCORE.INTER.norm>
-0.270336

>  <SCORE.INTRA>
-2.41628

>  <SCORE.INTRA.DIHEDRAL>
-3.81702

>  <SCORE.INTRA.DIHEDRAL.0>
4.99603

>  <SCORE.INTRA.POLAR>
0

>  <SCORE.INTRA.POLAR.0>
0

>  <SCORE.INTRA.REPUL>
0

>  <SCORE.INTRA.REPUL.0>
0

>  <SCORE.INTRA.SOLV>
-0.540906

>  <SCORE.INTRA.SOLV.lig_0>
-74.884

>  <SCORE.INTRA.VDW>
-0.237317

>  <SCORE.INTRA.VDW.0>
-0.858933

>  <SCORE.INTRA.norm>
-0.109831

>  <SCORE.RESTR>
0

>  <SCORE.RESTR.CAVITY>
0

>  <SCORE.RESTR.norm>
0

>  <SCORE.SYSTEM>
0

>  <SCORE.SYSTEM.CONST>
0

>  <SCORE.SYSTEM.DIHEDRAL>
0

>  <SCORE.SYSTEM.SOLV>
0

>  <SCORE.SYSTEM.norm>
0

>  <SCORE.heavy>
22

>  <SCORE.norm>
-0.380167

>  <RMSD>
6.500

$$$$
2et8_lig
 OpenBabel11021811433D
libRbt.so/2013.1/901 2013/11/27
 22 23  0  0  0  0  0  0  0  0999 V2000
   19.9588    9.8696   42.1132 N   0  0  0  0  0  0  0  0  0  0  0  0
   18.5091   14.0307   39.8348 N   0  0  0  0  0  0  0  0  0  0  0  0
   22.0044   18.7580   36.5909 N   0  0  0  0  0  0  0  0  0  0  0  0
   22.8395   11.9972   38.7218 O   0  0  0  0  0  0  0  0  0  0  0  0
   21.8831   12.2752   39.7741 C   0  0  2  0  0  0  0  0  0  0  0  0
   19.7599   13.1367   36.1975 N   0  0  0  0  0  0  0  0  0  0  0  0
   22.4927   10.1725   40.9620 O   0  0  0  0  0  0  0  0  0  0  0  0
   21.3987   10.9176   40.4124 C   0  0  1  0  0  0  0  0  0  0  0  0
   21.0906   14.2096   38.6425 O   0  0  0  0  0  0  0  0  0  0  0  0
   20.4107   11.1760   41.5232 C   0  0  1  0  0  0  0  0  0  0  0  0
   20.9262   16.3604   37.8366 O   0  0  0  0  0  0  0  0  0  0  0  0
   19.2068   11.9648   40.9588 C   0  0  0  0  0  0  0  0  0  0  0  0
   23.5773   15.9288   35.3655 O   0  0  0  0  0  0  0  0  0  0  0  0
   19.7395   13.2997   40.3609 C   0  0  1  0  0  0  0  0  0  0  0  0
   21.6847   14.1135   34.3856 O   0  0  0  0  0  0  0  0  0  0  0  0
   20.6295   13.0344   39.1830 C   0  0  2  0  0  0  0  0  0  0  0  0
   20.2919   14.9707   37.7973 C   0  0  1  0  0  0  0  0  0  0  0  0
   22.3175   16.3866   37.2900 C   0  0  2  0  0  0  0  0  0  0  0  0
   22.8901   17.8186   37.3310 C   0  0  0  0  0  0  0  0  0  0  0  0
   22.2838   15.9170   35.8662 C   0  0  2  0  0  0  0  0  0  0  0  0
   21.7225   14.5289   35.7586 C   0  0  1  0  0  0  0  0  0  0  0  0
   20.3377   14.5241   36.3090 C   0  0  1  0  0  0  0  0  0  0  0  0
  5  4  1  6  0  0  0
  5  8  1  0  0  0  0
  5 16  1  0  0  0  0
  8  7  1  1  0  0  0
  8 10  1  0  0  0  0
 10  1  1  6  0  0  0
 10 12  1  0  0  0  0
 11 18  1  0  0  0  0
 12 14  1  0  0  0  0
 14  2  1  6  0  0  0
 14 16  1  0  0  0  0
 16  9  1  1  0  0  0
 17  9  1  1  0  0  0
 17 11  1  0  0  0  0
 17 22  1  0  0  0  0
 18 19  1  6  0  0  0
 18 20  1  0  0  0  0
 19  3  1  0  0  0  0
 20 13  1  1  0  0  0
 20 21  1  0  0  0  0
 21 15  1  6  0  0  0
 21 22  1  0  0  0  0
 22  6  1  1  0  0  0
M  END
>  <CHROM.1>
166.17834406,160.15231543,-56.40480547,21.21778920,13.88395613,38.29886396
1.88297277,-0.85796783,2.63925731

>  <Name>
2et8_lig

>  <RI>
0

>  <Rbt.Current_Directory>
/home/itssahil/PROJECTS/Mol_Feturizer/New_Systems/rnas/2et8

>  <Rbt.Executable>
rbdock ($Id: //depot/dev/client3/rdock/2013.1/src/exe/rbdock.cxx#4 $)

>  <Rbt.Library>
libRbt.so (2013.1, Build901 2013/11/27)

>  <Rbt.Parameter_File>
/export/apps/rDock/src/rDock_2013.1_src/data/scripts/dock_solv.prm

>  <Rbt.Receptor>
prm/pocket_docking_5.prm

>  <SCORE>
-9.85363

>  <SCORE.INTER>
-9.65958

>  <SCORE.INTER.CONST>
1

>  <SCORE.INTER.POLAR>
-0.900068

>  <SCORE.INTER.ROT>
3

>  <SCORE.INTER.SOLV>
17.4996

>  <SCORE.INTER.VDW>
-14.8727

>  <SCORE.INTER.norm>
-0.439072

>  <SCORE.INTRA>
-0.194052

>  <SCORE.INTRA.DIHEDRAL>
-2.14518

>  <SCORE.INTRA.DIHEDRAL.0>
4.99603

>  <SCORE.INTRA.POLAR>
0

>  <SCORE.INTRA.POLAR.0>
0

>  <SCORE.INTRA.REPUL>
0

>  <SCORE.INTRA.REPUL.0>
0

>  <SCORE.INTRA.SOLV>
2.93389

>  <SCORE.INTRA.SOLV.lig_0>
-74.884

>  <SCORE.INTRA.VDW>
-0.588406

>  <SCORE.INTRA.VDW.0>
-0.858933

>  <SCORE.INTRA.norm>
-0.00882055

>  <SCORE.RESTR>
0

>  <SCORE.RESTR.CAVITY>
0

>  <SCORE.RESTR.norm>
0

>  <SCORE.SYSTEM>
0

>  <SCORE.SYSTEM.CONST>
0

>  <SCORE.SYSTEM.DIHEDRAL>
0

>  <SCORE.SYSTEM.SOLV>
0

>  <SCORE.SYSTEM.norm>
0

>  <SCORE.heavy>
22

>  <SCORE.norm>
-0.447892

>  <RMSD>
6.518

$$$$
2et8_lig
 OpenBabel11021811433D
libRbt.so/2013.1/901 2013/11/27
 22 23  0  0  0  0  0  0  0  0999 V2000
   19.9047    9.8856   42.1293 N   0  0  0  0  0  0  0  0  0  0  0  0
   18.5114   14.1019   39.9180 N   0  0  0  0  0  0  0  0  0  0  0  0
   22.0262   18.7529   36.6048 N   0  0  0  0  0  0  0  0  0  0  0  0
   22.7479   11.9526   38.6695 O   0  0  0  0  0  0  0  0  0  0  0  0
   21.8303   12.2508   39.7504 C   0  0  2  0  0  0  0  0  0  0  0  0
   19.7662   13.1392   36.1908 N   0  0  0  0  0  0  0  0  0  0  0  0
   22.4125   10.1236   40.9078 O   0  0  0  0  0  0  0  0  0  0  0  0
   21.3253   10.9034   40.3942 C   0  0  1  0  0  0  0  0  0  0  0  0
   21.0620   14.2147   38.6534 O   0  0  0  0  0  0  0  0  0  0  0  0
   20.3771   11.1825   41.5344 C   0  0  1  0  0  0  0  0  0  0  0  0
   20.9198   16.3635   37.8378 O   0  0  0  0  0  0  0  0  0  0  0  0
   19.1810   12.0093   41.0094 C   0  0  0  0  0  0  0  0  0  0  0  0
   23.6084   15.9122   35.4111 O   0  0  0  0  0  0  0  0  0  0  0  0
   19.7347   13.3324   40.4043 C   0  0  1  0  0  0  0  0  0  0  0  0
   21.7241   14.1016   34.4070 O   0  0  0  0  0  0  0  0  0  0  0  0
   20.5828   13.0496   39.1999 C   0  0  2  0  0  0  0  0  0  0  0  0
   20.2802   14.9763   37.7929 C   0  0  1  0  0  0  0  0  0  0  0  0
   22.3199   16.3818   37.3136 C   0  0  2  0  0  0  0  0  0  0  0  0
   22.8979   17.8116   37.3590 C   0  0  0  0  0  0  0  0  0  0  0  0
   22.3070   15.9076   35.8910 C   0  0  2  0  0  0  0  0  0  0  0  0
   21.7416   14.5215   35.7790 C   0  0  1  0  0  0  0  0  0  0  0  0
   20.3481   14.5245   36.3071 C   0  0  1  0  0  0  0  0  0  0  0  0
  5  4  1  6  0  0  0
  5  8  1  0  0  0  0
  5 16  1  0  0  0  0
  8  7  1  1  0  0  0
  8 10  1  0  0  0  0
 10  1  1  6  0  0  0
 10 12  1  0  0  0  0
 11 18  1  0  0  0  0
 12 14  1  0  0  0  0
 14  2  1  6  0  0  0
 14 16  1  0  0  0  0
 16  9  1  1  0  0  0
 17  9  1  1  0  0  0
 17 11  1  0  0  0  0
 17 22  1  0  0  0  0
 18 19  1  6  0  0  0
 18 20  1  0  0  0  0
 19  3  1  0  0  0  0
 20 13  1  1  0  0  0
 20 21  1  0  0  0  0
 21 15  1  6  0  0  0
 21 22  1  0  0  0  0
 22  6  1  1  0  0  0
M  END
>  <CHROM.1>
163.55994767,159.55461974,-56.24877027,21.20183363,13.88360303,38.30965440
1.91765787,-0.89962905,2.67655799

>  <Name>
2et8_lig

>  <RI>
3.14397e+07

>  <Rbt.Current_Directory>
/home/itssahil/PROJECTS/Mol_Feturizer/New_Systems/rnas/2et8

>  <Rbt.Executable>
rbdock ($Id: //depot/dev/client3/rdock/2013.1/src/exe/rbdock.cxx#4 $)

>  <Rbt.Library>
libRbt.so (2013.1, Build901 2013/11/27)

>  <Rbt.Parameter_File>
/export/apps/rDock/src/rDock_2013.1_src/data/scripts/dock_solv.prm

>  <Rbt.Receptor>
prm/pocket_docking_6.prm

>  <SCORE>
-9.76378

>  <SCORE.INTER>
-9.62455

>  <SCORE.INTER.CONST>
1

>  <SCORE.INTER.POLAR>
-0.896443

>  <SCORE.INTER.ROT>
3

>  <SCORE.INTER.SOLV>
17.7371

>  <SCORE.INTER.VDW>
-14.9406

>  <SCORE.INTER.norm>
-0.43748

>  <SCORE.INTRA>
-0.139233

>  <SCORE.INTRA.DIHEDRAL>
-1.70495

>  <SCORE.INTRA.DIHEDRAL.0>
4.99603

>  <SCORE.INTRA.POLAR>
0

>  <SCORE.INTRA.POLAR.0>
0

>  <SCORE.INTRA.REPUL>
0

>  <SCORE.INTRA.REPUL.0>
0

>  <SCORE.INTRA.SOLV>
2.81888

>  <SCORE.INTRA.SOLV.lig_0>
-74.884

>  <SCORE.INTRA.VDW>
-0.696199

>  <SCORE.INTRA.VDW.0>
-0.858933

>  <SCORE.INTRA.norm>
-0.00632876

>  <SCORE.RESTR>
0

>  <SCORE.RESTR.CAVITY>
0

>  <SCORE.RESTR.norm>
0

>  <SCORE.SYSTEM>
0

>  <SCORE.SYSTEM.CONST>
0

>  <SCORE.SYSTEM.DIHEDRAL>
0

>  <SCORE.SYSTEM.SOLV>
0

>  <SCORE.SYSTEM.norm>
0

>  <SCORE.heavy>
22

>  <SCORE.norm>
-0.443808

>  <RMSD>
6.522

$$$$
2et8_lig
 OpenBabel11021811433D
libRbt.so/2013.1/901 2013/11/27
 22 23  0  0  0  0  0  0  0  0999 V2000
   18.1206   15.0879   38.2139 N   0  0  0  0  0  0  0  0  0  0  0  0
   19.3887   12.5712   42.2962 N   0  0  0  0  0  0  0  0  0  0  0  0
   20.5787    6.4360   41.8943 N   0  0  0  0  0  0  0  0  0  0  0  0
   21.4113   11.4220   37.9702 O   0  0  0  0  0  0  0  0  0  0  0  0
   20.2102   11.8623   38.6504 C   0  0  2  0  0  0  0  0  0  0  0  0
   23.3720   12.3137   41.0458 N   0  0  0  0  0  0  0  0  0  0  0  0
   19.5177   13.2122   36.6751 O   0  0  0  0  0  0  0  0  0  0  0  0
   19.7738   13.2673   38.0841 C   0  0  1  0  0  0  0  0  0  0  0  0
   20.8548   10.7608   40.6559 O   0  0  0  0  0  0  0  0  0  0  0  0
   18.5151   13.7462   38.7646 C   0  0  1  0  0  0  0  0  0  0  0  0
   21.5773    9.1439   42.1277 O   0  0  0  0  0  0  0  0  0  0  0  0
   18.7632   13.8338   40.2881 C   0  0  0  0  0  0  0  0  0  0  0  0
   23.9997    7.7189   39.7991 O   0  0  0  0  0  0  0  0  0  0  0  0
   19.1708   12.4194   40.7948 C   0  0  1  0  0  0  0  0  0  0  0  0
   25.0967   10.2695   40.1578 O   0  0  0  0  0  0  0  0  0  0  0  0
   20.4833   12.0020   40.2006 C   0  0  2  0  0  0  0  0  0  0  0  0
   21.6875   10.6231   41.7600 C   0  0  1  0  0  0  0  0  0  0  0  0
   22.0890    8.2332   41.0580 C   0  0  2  0  0  0  0  0  0  0  0  0
   21.9768    6.7595   41.5003 C   0  0  0  0  0  0  0  0  0  0  0  0
   23.5309    8.5554   40.8013 C   0  0  2  0  0  0  0  0  0  0  0  0
   23.7076    9.9848   40.3780 C   0  0  1  0  0  0  0  0  0  0  0  0
   23.1910   10.8748   41.4557 C   0  0  1  0  0  0  0  0  0  0  0  0
  5  4  1  6  0  0  0
  5  8  1  0  0  0  0
  5 16  1  0  0  0  0
  8  7  1  6  0  0  0
  8 10  1  0  0  0  0
 10  1  1  6  0  0  0
 10 12  1  0  0  0  0
 11 18  1  0  0  0  0
 12 14  1  0  0  0  0
 14  2  1  1  0  0  0
 14 16  1  0  0  0  0
 16  9  1  1  0  0  0
 17  9  1  6  0  0  0
 17 11  1  0  0  0  0
 17 22  1  0  0  0  0
 18 19  1  1  0  0  0
 18 20  1  0  0  0  0
 19  3  1  0  0  0  0
 20 13  1  6  0  0  0
 20 21  1  0  0  0  0
 21 15  1  1  0  0  0
 21 22  1  0  0  0  0
 22  6  1  6  0  0  0
M  END
>  <CHROM.1>
151.98382698,166.85498301,55.01249603,21.26035542,10.93188907,40.18351001
2.21818388,0.41468375,-0.70960435

>  <Name>
2et8_lig

>  <RI>
3.14397e+07

>  <Rbt.Current_Directory>
/home/itssahil/PROJECTS/Mol_Feturizer/New_Systems/rnas/2et8

>  <Rbt.Executable>
rbdock ($Id: //depot/dev/client3/rdock/2013.1/src/exe/rbdock.cxx#4 $)

>  <Rbt.Library>
libRbt.so (2013.1, Build901 2013/11/27)

>  <Rbt.Parameter_File>
/export/apps/rDock/src/rDock_2013.1_src/data/scripts/dock_solv.prm

>  <Rbt.Receptor>
prm/pocket_docking_6.prm

>  <SCORE>
-14.5791

>  <SCORE.INTER>
-13.8366

>  <SCORE.INTER.CONST>
1

>  <SCORE.INTER.POLAR>
-0.28392

>  <SCORE.INTER.ROT>
3

>  <SCORE.INTER.SOLV>
21.9828

>  <SCORE.INTER.VDW>
-21.2056

>  <SCORE.INTER.norm>
-0.628937

>  <SCORE.INTRA>
-0.742537

>  <SCORE.INTRA.DIHEDRAL>
-0.783749

>  <SCORE.INTRA.DIHEDRAL.0>
4.99603

>  <SCORE.INTRA.POLAR>
0

>  <SCORE.INTRA.POLAR.0>
0

>  <SCORE.INTRA.REPUL>
0

>  <SCORE.INTRA.REPUL.0>
0

>  <SCORE.INTRA.SOLV>
1.39197

>  <SCORE.INTRA.SOLV.lig_0>
-74.884

>  <SCORE.INTRA.VDW>
-1.04665

>  <SCORE.INTRA.VDW.0>
-0.858933

>  <SCORE.INTRA.norm>
-0.0337517

>  <SCORE.RESTR>
0

>  <SCORE.RESTR.CAVITY>
0

>  <SCORE.RESTR.norm>
0

>  <SCORE.SYSTEM>
0

>  <SCORE.SYSTEM.CONST>
0

>  <SCORE.SYSTEM.DIHEDRAL>
0

>  <SCORE.SYSTEM.SOLV>
0

>  <SCORE.SYSTEM.norm>
0

>  <SCORE.heavy>
22

>  <SCORE.norm>
-0.662688

>  <RMSD>
6.523

$$$$
2et8_lig
 OpenBabel11021811433D
libRbt.so/2013.1/901 2013/11/27
 22 23  0  0  0  0  0  0  0  0999 V2000
   19.9543    9.8650   42.1193 N   0  0  0  0  0  0  0  0  0  0  0  0
   18.5396   13.9952   39.7638 N   0  0  0  0  0  0  0  0  0  0  0  0
   22.1339   18.7887   36.7098 N   0  0  0  0  0  0  0  0  0  0  0  0
   22.9753   12.0688   38.9032 O   0  0  0  0  0  0  0  0  0  0  0  0
   21.9528   12.3214   39.8982 C   0  0  2  0  0  0  0  0  0  0  0  0
   19.8404   13.1896   36.2742 N   0  0  0  0  0  0  0  0  0  0  0  0
   22.5428   10.2314   41.1179 O   0  0  0  0  0  0  0  0  0  0  0  0
   21.4650   10.9512   40.5061 C   0  0  1  0  0  0  0  0  0  0  0  0
   21.1811   14.2388   38.7240 O   0  0  0  0  0  0  0  0  0  0  0  0
   20.4081   11.1833   41.5577 C   0  0  1  0  0  0  0  0  0  0  0  0
   21.0406   16.3942   37.9260 O   0  0  0  0  0  0  0  0  0  0  0  0
   19.2204   11.9442   40.9248 C   0  0  0  0  0  0  0  0  0  0  0  0
   23.6885   15.9429   35.4550 O   0  0  0  0  0  0  0  0  0  0  0  0
   19.7546   13.2928   40.3600 C   0  0  1  0  0  0  0  0  0  0  0  0
   21.7769   14.1520   34.4672 O   0  0  0  0  0  0  0  0  0  0  0  0
   20.7178   13.0516   39.2358 C   0  0  2  0  0  0  0  0  0  0  0  0
   20.3912   15.0117   37.8812 C   0  0  1  0  0  0  0  0  0  0  0  0
   22.4325   16.4072   37.3804 C   0  0  2  0  0  0  0  0  0  0  0  0
   23.0206   17.8328   37.4271 C   0  0  0  0  0  0  0  0  0  0  0  0
   22.3946   15.9434   35.9549 C   0  0  2  0  0  0  0  0  0  0  0  0
   21.8183   14.5619   35.8417 C   0  0  1  0  0  0  0  0  0  0  0  0
   20.4332   14.5702   36.3912 C   0  0  1  0  0  0  0  0  0  0  0  0
  5  4  1  6  0  0  0
  5  8  1  0  0  0  0
  5 16  1  0  0  0  0
  8  7  1  1  0  0  0
  8 10  1  0  0  0  0
 10  1  1  6  0  0  0
 10 12  1  0  0  0  0
 11 18  1  0  0  0  0
 12 14  1  0  0  0  0
 14  2  1  6  0  0  0
 14 16  1  0  0  0  0
 16  9  1  1  0  0  0
 17  9  1  1  0  0  0
 17 11  1  0  0  0  0
 17 22  1  0  0  0  0
 18 19  1  6  0  0  0
 18 20  1  0  0  0  0
 19  3  1  0  0  0  0
 20 13  1  1  0  0  0
 20 21  1  0  0  0  0
 21 15  1  6  0  0  0
 21 22  1  0  0  0  0
 22  6  1  1  0  0  0
M  END
>  <CHROM.1>
169.06420925,161.63439138,-55.43881814,21.29718887,13.90940731,38.37331112
1.87049055,-0.77039223,2.61796942

>  <Name>
2et8_lig

>  <RI>
0

>  <Rbt.Current_Directory>
/home/itssahil/PROJECTS/Mol_Feturizer/New_Systems/rnas/2et8

>  <Rbt.Executable>
rbdock ($Id: //depot/dev/client3/rdock/2013.1/src/exe/rbdock.cxx#4 $)

>  <Rbt.Library>
libRbt.so (2013.1, Build901 2013/11/27)

>  <Rbt.Parameter_File>
/export/apps/rDock/src/rDock_2013.1_src/data/scripts/dock_solv.prm

>  <Rbt.Receptor>
prm/pocket_docking_7.prm

>  <SCORE>
-9.75379

>  <SCORE.INTER>
-9.48831

>  <SCORE.INTER.CONST>
1

>  <SCORE.INTER.POLAR>
-0.956885

>  <SCORE.INTER.ROT>
3

>  <SCORE.INTER.SOLV>
16.9828

>  <SCORE.INTER.VDW>
-14.3968

>  <SCORE.INTER.norm>
-0.431287

>  <SCORE.INTRA>
-0.265483

>  <SCORE.INTRA.DIHEDRAL>
-2.66435

>  <SCORE.INTRA.DIHEDRAL.0>
4.99603

>  <SCORE.INTRA.POLAR>
0

>  <SCORE.INTRA.POLAR.0>
0

>  <SCORE.INTRA.REPUL>
0

>  <SCORE.INTRA.REPUL.0>
0

>  <SCORE.INTRA.SOLV>
3.09666

>  <SCORE.INTRA.SOLV.lig_0>
-74.884

>  <SCORE.INTRA.VDW>
-0.481634

>  <SCORE.INTRA.VDW.0>
-0.858933

>  <SCORE.INTRA.norm>
-0.0120674

>  <SCORE.RESTR>
0

>  <SCORE.RESTR.CAVITY>
0

>  <SCORE.RESTR.norm>
0

>  <SCORE.SYSTEM>
0

>  <SCORE.SYSTEM.CONST>
0

>  <SCORE.SYSTEM.DIHEDRAL>
0

>  <SCORE.SYSTEM.SOLV>
0

>  <SCORE.SYSTEM.norm>
0

>  <SCORE.heavy>
22

>  <SCORE.norm>
-0.443354

>  <RMSD>
6.529

$$$$
2et8_lig
 OpenBabel11021811433D
libRbt.so/2013.1/901 2013/11/27
 22 23  0  0  0  0  0  0  0  0999 V2000
   17.2786   21.1519   40.0343 N   0  0  0  0  0  0  0  0  0  0  0  0
   15.2703   16.7720   38.8549 N   0  0  0  0  0  0  0  0  0  0  0  0
   15.9537   14.7076   33.3090 N   0  0  0  0  0  0  0  0  0  0  0  0
   19.8703   17.8176   37.4864 O   0  0  0  0  0  0  0  0  0  0  0  0
   18.5351   18.3408   37.6934 C   0  0  2  0  0  0  0  0  0  0  0  0
   18.8581   14.4078   39.2261 N   0  0  0  0  0  0  0  0  0  0  0  0
   19.4468   20.5591   38.3655 O   0  0  0  0  0  0  0  0  0  0  0  0
   18.5849   19.4888   38.7725 C   0  0  1  0  0  0  0  0  0  0  0  0
   17.5566   16.2210   37.2466 O   0  0  0  0  0  0  0  0  0  0  0  0
   17.2086   20.0642   38.9994 C   0  0  1  0  0  0  0  0  0  0  0  0
   16.5552   14.4288   36.2036 O   0  0  0  0  0  0  0  0  0  0  0  0
   16.2558   18.9362   39.4577 C   0  0  0  0  0  0  0  0  0  0  0  0
   19.6372   13.2756   34.6249 O   0  0  0  0  0  0  0  0  0  0  0  0
   16.2306   17.8431   38.3495 C   0  0  1  0  0  0  0  0  0  0  0  0
   20.2917   12.9049   37.3214 O   0  0  0  0  0  0  0  0  0  0  0  0
   17.5771   17.1965   38.2130 C   0  0  2  0  0  0  0  0  0  0  0  0
   17.1078   14.9375   37.5344 C   0  0  1  0  0  0  0  0  0  0  0  0
   17.5990   14.3156   35.1392 C   0  0  2  0  0  0  0  0  0  0  0  0
   16.9851   13.7713   33.8326 C   0  0  0  0  0  0  0  0  0  0  0  0
   18.6630   13.3684   35.6079 C   0  0  2  0  0  0  0  0  0  0  0  0
   19.2921   13.8384   36.8873 C   0  0  1  0  0  0  0  0  0  0  0  0
   18.2363   13.9457   37.9334 C   0  0  1  0  0  0  0  0  0  0  0  0
  5  4  1  1  0  0  0
  5  8  1  0  0  0  0
  5 16  1  0  0  0  0
  8  7  1  6  0  0  0
  8 10  1  0  0  0  0
 10  1  1  1  0  0  0
 10 12  1  0  0  0  0
 11 18  1  0  0  0  0
 12 14  1  0  0  0  0
 14  2  1  1  0  0  0
 14 16  1  0  0  0  0
 16  9  1  6  0  0  0
 17  9  1  6  0  0  0
 17 11  1  0  0  0  0
 17 22  1  0  0  0  0
 18 19  1  6  0  0  0
 18 20  1  0  0  0  0
 19  3  1  0  0  0  0
 20 13  1  6  0  0  0
 20 21  1  0  0  0  0
 21 15  1  1  0  0  0
 21 22  1  0  0  0  0
 22  6  1  1  0  0  0
M  END
>  <CHROM.1>
162.57722954,151.29378008,62.48222966,17.90160500,16.26839964,37.29899529
1.65435876,-0.41214647,0.56431798

>  <Name>
2et8_lig

>  <RI>
2.82936e+07

>  <Rbt.Current_Directory>
/home/itssahil/PROJECTS/Mol_Feturizer/New_Systems/rnas/2et8

>  <Rbt.Executable>
rbdock ($Id: //depot/dev/client3/rdock/2013.1/src/exe/rbdock.cxx#4 $)

>  <Rbt.Library>
libRbt.so (2013.1, Build901 2013/11/27)

>  <Rbt.Parameter_File>
/export/apps/rDock/src/rDock_2013.1_src/data/scripts/dock_solv.prm

>  <Rbt.Receptor>
prm/pocket_docking_8.prm

>  <SCORE>
-8.43717

>  <SCORE.INTER>
-8.06781

>  <SCORE.INTER.CONST>
1

>  <SCORE.INTER.POLAR>
-0.959166

>  <SCORE.INTER.ROT>
3

>  <SCORE.INTER.SOLV>
10.7348

>  <SCORE.INTER.VDW>
-11.3596

>  <SCORE.INTER.norm>
-0.366718

>  <SCORE.INTRA>
-0.369369

>  <SCORE.INTRA.DIHEDRAL>
-0.146192

>  <SCORE.INTRA.DIHEDRAL.0>
4.99603

>  <SCORE.INTRA.POLAR>
0

>  <SCORE.INTRA.POLAR.0>
0

>  <SCORE.INTRA.REPUL>
0

>  <SCORE.INTRA.REPUL.0>
0

>  <SCORE.INTRA.SOLV>
0.854192

>  <SCORE.INTRA.SOLV.lig_0>
-74.884

>  <SCORE.INTRA.VDW>
-0.723368

>  <SCORE.INTRA.VDW.0>
-0.858933

>  <SCORE.INTRA.norm>
-0.0167895

>  <SCORE.RESTR>
0

>  <SCORE.RESTR.CAVITY>
0

>  <SCORE.RESTR.norm>
0

>  <SCORE.SYSTEM>
0

>  <SCORE.SYSTEM.CONST>
0

>  <SCORE.SYSTEM.DIHEDRAL>
0

>  <SCORE.SYSTEM.SOLV>
0

>  <SCORE.SYSTEM.norm>
0

>  <SCORE.heavy>
22

>  <SCORE.norm>
-0.383508

>  <RMSD>
6.531

$$$$
2et8_lig
 OpenBabel11021811433D
libRbt.so/2013.1/901 2013/11/27
 22 23  0  0  0  0  0  0  0  0999 V2000
   21.9526   12.8072   39.8866 N   0  0  0  0  0  0  0  0  0  0  0  0
   20.3600   14.4225   35.4751 N   0  0  0  0  0  0  0  0  0  0  0  0
   18.2594   15.1712   32.0910 N   0  0  0  0  0  0  0  0  0  0  0  0
   17.2799   14.2720   39.2982 O   0  0  0  0  0  0  0  0  0  0  0  0
   18.3873   13.6218   38.6273 C   0  0  2  0  0  0  0  0  0  0  0  0
   15.2269   15.3055   37.9532 N   0  0  0  0  0  0  0  0  0  0  0  0
   19.3058   12.8188   40.7988 O   0  0  0  0  0  0  0  0  0  0  0  0
   19.6209   13.5481   39.6059 C   0  0  1  0  0  0  0  0  0  0  0  0
   17.7091   14.4822   36.5177 O   0  0  0  0  0  0  0  0  0  0  0  0
   20.7875   12.8617   38.9388 C   0  0  1  0  0  0  0  0  0  0  0  0
   17.2292   15.9175   34.7822 O   0  0  0  0  0  0  0  0  0  0  0  0
   21.1650   13.6352   37.6546 C   0  0  0  0  0  0  0  0  0  0  0  0
   14.5569   13.8295   33.4330 O   0  0  0  0  0  0  0  0  0  0  0  0
   19.9203   13.6600   36.7201 C   0  0  1  0  0  0  0  0  0  0  0  0
   13.4525   14.5075   35.9145 O   0  0  0  0  0  0  0  0  0  0  0  0
   18.8049   14.4448   37.3445 C   0  0  2  0  0  0  0  0  0  0  0  0
   17.0336   15.6729   36.2779 C   0  0  1  0  0  0  0  0  0  0  0  0
   16.6037   14.8619   33.9278 C   0  0  2  0  0  0  0  0  0  0  0  0
   16.8109   15.1805   32.4325 C   0  0  0  0  0  0  0  0  0  0  0  0
   15.1328   14.8188   34.2164 C   0  0  2  0  0  0  0  0  0  0  0  0
   14.8653   14.5241   35.6639 C   0  0  1  0  0  0  0  0  0  0  0  0
   15.4972   15.5856   36.4973 C   0  0  1  0  0  0  0  0  0  0  0  0
  5  4  1  1  0  0  0
  5  8  1  0  0  0  0
  5 16  1  0  0  0  0
  8  7  1  1  0  0  0
  8 10  1  0  0  0  0
 10  1  1  1  0  0  0
 10 12  1  0  0  0  0
 11 18  1  0  0  0  0
 12 14  1  0  0  0  0
 14  2  1  6  0  0  0
 14 16  1  0  0  0  0
 16  9  1  6  0  0  0
 17  9  1  6  0  0  0
 17 11  1  0  0  0  0
 17 22  1  0  0  0  0
 18 19  1  6  0  0  0
 18 20  1  0  0  0  0
 19  3  1  0  0  0  0
 20 13  1  6  0  0  0
 20 21  1  0  0  0  0
 21 15  1  6  0  0  0
 21 22  1  0  0  0  0
 22  6  1  1  0  0  0
M  END
>  <CHROM.1>
112.02154153,116.12090222,63.17618332,17.68380686,14.35919748,36.54977776
-0.84285144,0.14150573,-1.38819815

>  <Name>
2et8_lig

>  <RI>
2.82936e+07

>  <Rbt.Current_Directory>
/home/itssahil/PROJECTS/Mol_Feturizer/New_Systems/rnas/2et8

>  <Rbt.Executable>
rbdock ($Id: //depot/dev/client3/rdock/2013.1/src/exe/rbdock.cxx#4 $)

>  <Rbt.Library>
libRbt.so (2013.1, Build901 2013/11/27)

>  <Rbt.Parameter_File>
/export/apps/rDock/src/rDock_2013.1_src/data/scripts/dock_solv.prm

>  <Rbt.Receptor>
prm/pocket_docking_8.prm

>  <SCORE>
-5.52951

>  <SCORE.INTER>
-9.80691

>  <SCORE.INTER.CONST>
1

>  <SCORE.INTER.POLAR>
0

>  <SCORE.INTER.ROT>
3

>  <SCORE.INTER.SOLV>
16.1694

>  <SCORE.INTER.VDW>
-17.5277

>  <SCORE.INTER.norm>
-0.445769

>  <SCORE.INTRA>
4.2774

>  <SCORE.INTRA.DIHEDRAL>
8.87514

>  <SCORE.INTRA.DIHEDRAL.0>
4.99603

>  <SCORE.INTRA.POLAR>
0

>  <SCORE.INTRA.POLAR.0>
0

>  <SCORE.INTRA.REPUL>
0

>  <SCORE.INTRA.REPUL.0>
0

>  <SCORE.INTRA.SOLV>
1.8464

>  <SCORE.INTRA.SOLV.lig_0>
-74.884

>  <SCORE.INTRA.VDW>
-1.08337

>  <SCORE.INTRA.VDW.0>
-0.858933

>  <SCORE.INTRA.norm>
0.194427

>  <SCORE.RESTR>
0

>  <SCORE.RESTR.CAVITY>
0

>  <SCORE.RESTR.norm>
0

>  <SCORE.SYSTEM>
0

>  <SCORE.SYSTEM.CONST>
0

>  <SCORE.SYSTEM.DIHEDRAL>
0

>  <SCORE.SYSTEM.SOLV>
0

>  <SCORE.SYSTEM.norm>
0

>  <SCORE.heavy>
22

>  <SCORE.norm>
-0.251341

>  <RMSD>
6.536

$$$$
2et8_lig
 OpenBabel11021811433D
libRbt.so/2013.1/901 2013/11/27
 22 23  0  0  0  0  0  0  0  0999 V2000
   18.1247   15.1522   38.3490 N   0  0  0  0  0  0  0  0  0  0  0  0
   19.4218   12.5278   42.3537 N   0  0  0  0  0  0  0  0  0  0  0  0
   22.6298    6.4727   42.7034 N   0  0  0  0  0  0  0  0  0  0  0  0
   21.3859   11.4707   37.9775 O   0  0  0  0  0  0  0  0  0  0  0  0
   20.1959   11.9025   38.6824 C   0  0  2  0  0  0  0  0  0  0  0  0
   23.3347   12.3108   41.2114 N   0  0  0  0  0  0  0  0  0  0  0  0
   19.4903   13.3051   36.7487 O   0  0  0  0  0  0  0  0  0  0  0  0
   19.7631   13.3239   38.1556 C   0  0  1  0  0  0  0  0  0  0  0  0
   20.8557   10.7480   40.6527 O   0  0  0  0  0  0  0  0  0  0  0  0
   18.5158   13.7948   38.8623 C   0  0  1  0  0  0  0  0  0  0  0  0
   21.5355    9.0808   42.0883 O   0  0  0  0  0  0  0  0  0  0  0  0
   18.7822   13.8434   40.3844 C   0  0  0  0  0  0  0  0  0  0  0  0
   24.0717    7.7773   39.8102 O   0  0  0  0  0  0  0  0  0  0  0  0
   19.1854   12.4143   40.8517 C   0  0  1  0  0  0  0  0  0  0  0  0
   25.1206   10.3229   40.3170 O   0  0  0  0  0  0  0  0  0  0  0  0
   20.4879   12.0025   40.2322 C   0  0  2  0  0  0  0  0  0  0  0  0
   21.6427   10.5747   41.7850 C   0  0  1  0  0  0  0  0  0  0  0  0
   22.1033    8.2196   41.0059 C   0  0  2  0  0  0  0  0  0  0  0  0
   21.9909    6.7281   41.3838 C   0  0  0  0  0  0  0  0  0  0  0  0
   23.5506    8.5675   40.8241 C   0  0  2  0  0  0  0  0  0  0  0  0
   23.7271   10.0146   40.4661 C   0  0  1  0  0  0  0  0  0  0  0  0
   23.1545   10.8547   41.5555 C   0  0  1  0  0  0  0  0  0  0  0  0
  5  4  1  6  0  0  0
  5  8  1  0  0  0  0
  5 16  1  0  0  0  0
  8  7  1  6  0  0  0
  8 10  1  0  0  0  0
 10  1  1  6  0  0  0
 10 12  1  0  0  0  0
 11 18  1  0  0  0  0
 12 14  1  0  0  0  0
 14  2  1  1  0  0  0
 14 16  1  0  0  0  0
 16  9  1  1  0  0  0
 17  9  1  6  0  0  0
 17 11  1  0  0  0  0
 17 22  1  0  0  0  0
 18 19  1  1  0  0  0
 18 20  1  0  0  0  0
 19  3  1  0  0  0  0
 20 13  1  6  0  0  0
 20 21  1  0  0  0  0
 21 15  1  1  0  0  0
 21 22  1  0  0  0  0
 22  6  1  6  0  0  0
M  END
>  <CHROM.1>
155.39961293,166.83228678,-54.89530332,21.35318807,10.94673977,40.26590602
2.33281821,0.60224831,-0.92119208

>  <Name>
2et8_lig

>  <RI>
0

>  <Rbt.Current_Directory>
/home/itssahil/PROJECTS/Mol_Feturizer/New_Systems/rnas/2et8

>  <Rbt.Executable>
rbdock ($Id: //depot/dev/client3/rdock/2013.1/src/exe/rbdock.cxx#4 $)

>  <Rbt.Library>
libRbt.so (2013.1, Build901 2013/11/27)

>  <Rbt.Parameter_File>
/export/apps/rDock/src/rDock_2013.1_src/data/scripts/dock_solv.prm

>  <Rbt.Receptor>
prm/pocket_docking_7.prm

>  <SCORE>
-14.8225

>  <SCORE.INTER>
-14.64

>  <SCORE.INTER.CONST>
1

>  <SCORE.INTER.POLAR>
-0.278748

>  <SCORE.INTER.ROT>
3

>  <SCORE.INTER.SOLV>
17.9802

>  <SCORE.INTER.VDW>
-20.4243

>  <SCORE.INTER.norm>
-0.665456

>  <SCORE.INTRA>
-0.182462

>  <SCORE.INTRA.DIHEDRAL>
-1.38667

>  <SCORE.INTRA.DIHEDRAL.0>
4.99603

>  <SCORE.INTRA.POLAR>
0

>  <SCORE.INTRA.POLAR.0>
0

>  <SCORE.INTRA.REPUL>
0

>  <SCORE.INTRA.REPUL.0>
0

>  <SCORE.INTRA.SOLV>
2.92587

>  <SCORE.INTRA.SOLV.lig_0>
-74.884

>  <SCORE.INTRA.VDW>
-0.952061

>  <SCORE.INTRA.VDW.0>
-0.858933

>  <SCORE.INTRA.norm>
-0.00829373

>  <SCORE.RESTR>
0

>  <SCORE.RESTR.CAVITY>
0

>  <SCORE.RESTR.norm>
0

>  <SCORE.SYSTEM>
0

>  <SCORE.SYSTEM.CONST>
0

>  <SCORE.SYSTEM.DIHEDRAL>
0

>  <SCORE.SYSTEM.SOLV>
0

>  <SCORE.SYSTEM.norm>
0

>  <SCORE.heavy>
22

>  <SCORE.norm>
-0.67375

>  <RMSD>
6.539

$$$$
2et8_lig
 OpenBabel11021811433D
libRbt.so/2013.1/901 2013/11/27
 22 23  0  0  0  0  0  0  0  0999 V2000
   18.0909   15.1191   38.3784 N   0  0  0  0  0  0  0  0  0  0  0  0
   19.4405   12.5160   42.3796 N   0  0  0  0  0  0  0  0  0  0  0  0
   22.7217    6.4691   42.6890 N   0  0  0  0  0  0  0  0  0  0  0  0
   21.3602   11.4470   37.9867 O   0  0  0  0  0  0  0  0  0  0  0  0
   20.1765   11.8778   38.7027 C   0  0  2  0  0  0  0  0  0  0  0  0
   23.3348   12.3166   41.1980 N   0  0  0  0  0  0  0  0  0  0  0  0
   19.4451   13.2698   36.7710 O   0  0  0  0  0  0  0  0  0  0  0  0
   19.7332   13.2955   38.1747 C   0  0  1  0  0  0  0  0  0  0  0  0
   20.8617   10.7338   40.6705 O   0  0  0  0  0  0  0  0  0  0  0  0
   18.4922   13.7652   38.8930 C   0  0  1  0  0  0  0  0  0  0  0  0
   21.5715    9.0737   42.0997 O   0  0  0  0  0  0  0  0  0  0  0  0
   18.7750   13.8212   40.4119 C   0  0  0  0  0  0  0  0  0  0  0  0
   24.0906    7.7872   39.7932 O   0  0  0  0  0  0  0  0  0  0  0  0
   19.1881   12.3954   40.8808 C   0  0  1  0  0  0  0  0  0  0  0  0
   25.1255   10.3416   40.2847 O   0  0  0  0  0  0  0  0  0  0  0  0
   20.4851   11.9852   40.2488 C   0  0  2  0  0  0  0  0  0  0  0  0
   21.6634   10.5680   41.7936 C   0  0  1  0  0  0  0  0  0  0  0  0
   22.1331    8.2157   41.0117 C   0  0  2  0  0  0  0  0  0  0  0  0
   22.0369    6.7237   41.3925 C   0  0  0  0  0  0  0  0  0  0  0  0
   23.5754    8.5746   40.8124 C   0  0  2  0  0  0  0  0  0  0  0  0
   23.7364   10.0226   40.4507 C   0  0  1  0  0  0  0  0  0  0  0  0
   23.1701   10.8595   41.5458 C   0  0  1  0  0  0  0  0  0  0  0  0
  5  4  1  6  0  0  0
  5  8  1  0  0  0  0
  5 16  1  0  0  0  0
  8  7  1  6  0  0  0
  8 10  1  0  0  0  0
 10  1  1  6  0  0  0
 10 12  1  0  0  0  0
 11 18  1  0  0  0  0
 12 14  1  0  0  0  0
 14  2  1  1  0  0  0
 14 16  1  0  0  0  0
 16  9  1  1  0  0  0
 17  9  1  6  0  0  0
 17 11  1  0  0  0  0
 17 22  1  0  0  0  0
 18 19  1  1  0  0  0
 18 20  1  0  0  0  0
 19  3  1  0  0  0  0
 20 13  1  6  0  0  0
 20 21  1  0  0  0  0
 21 15  1  1  0  0  0
 21 22  1  0  0  0  0
 22  6  1  6  0  0  0
M  END
>  <CHROM.1>
155.29536694,167.18731886,-56.25270022,21.35928272,10.93633918,40.27328720
2.35142266,0.60897803,-0.93757899

>  <Name>
2et8_lig

>  <RI>
2.82936e+07

>  <Rbt.Current_Directory>
/home/itssahil/PROJECTS/Mol_Feturizer/New_Systems/rnas/2et8

>  <Rbt.Executable>
rbdock ($Id: //depot/dev/client3/rdock/2013.1/src/exe/rbdock.cxx#4 $)

>  <Rbt.Library>
libRbt.so (2013.1, Build901 2013/11/27)

>  <Rbt.Parameter_File>
/export/apps/rDock/src/rDock_2013.1_src/data/scripts/dock_solv.prm

>  <Rbt.Receptor>
prm/pocket_docking_8.prm

>  <SCORE>
-14.8299

>  <SCORE.INTER>
-14.6403

>  <SCORE.INTER.CONST>
1

>  <SCORE.INTER.POLAR>
-0.309235

>  <SCORE.INTER.ROT>
3

>  <SCORE.INTER.SOLV>
18.3169

>  <SCORE.INTER.VDW>
-20.435

>  <SCORE.INTER.norm>
-0.665467

>  <SCORE.INTRA>
-0.189639

>  <SCORE.INTRA.DIHEDRAL>
-1.45279

>  <SCORE.INTRA.DIHEDRAL.0>
4.99603

>  <SCORE.INTRA.POLAR>
0

>  <SCORE.INTRA.POLAR.0>
0

>  <SCORE.INTRA.REPUL>
0

>  <SCORE.INTRA.REPUL.0>
0

>  <SCORE.INTRA.SOLV>
2.96106

>  <SCORE.INTRA.SOLV.lig_0>
-74.884

>  <SCORE.INTRA.VDW>
-0.943774

>  <SCORE.INTRA.VDW.0>
-0.858933

>  <SCORE.INTRA.norm>
-0.00861994

>  <SCORE.RESTR>
0

>  <SCORE.RESTR.CAVITY>
0

>  <SCORE.RESTR.norm>
0

>  <SCORE.SYSTEM>
0

>  <SCORE.SYSTEM.CONST>
0

>  <SCORE.SYSTEM.DIHEDRAL>
0

>  <SCORE.SYSTEM.SOLV>
0

>  <SCORE.SYSTEM.norm>
0

>  <SCORE.heavy>
22

>  <SCORE.norm>
-0.674087

>  <RMSD>
6.557

$$$$
2et8_lig
 OpenBabel11021811433D
libRbt.so/2013.1/901 2013/11/27
 22 23  0  0  0  0  0  0  0  0999 V2000
   17.6068   13.7685   39.3566 N   0  0  0  0  0  0  0  0  0  0  0  0
   20.1233   17.6137   37.4886 N   0  0  0  0  0  0  0  0  0  0  0  0
   22.1858   15.8211   32.0521 N   0  0  0  0  0  0  0  0  0  0  0  0
   22.0309   13.0921   37.2841 O   0  0  0  0  0  0  0  0  0  0  0  0
   21.2437   14.0246   38.0651 C   0  0  2  0  0  0  0  0  0  0  0  0
   25.3251   16.1441   37.2365 N   0  0  0  0  0  0  0  0  0  0  0  0
   19.8778   12.1685   39.0100 O   0  0  0  0  0  0  0  0  0  0  0  0
   19.8096   13.4188   38.3128 C   0  0  1  0  0  0  0  0  0  0  0  0
   22.3562   15.8883   37.0956 O   0  0  0  0  0  0  0  0  0  0  0  0
   18.9697   14.3630   39.1373 C   0  0  1  0  0  0  0  0  0  0  0  0
   22.4708   15.3234   34.8662 O   0  0  0  0  0  0  0  0  0  0  0  0
   18.8612   15.7193   38.4033 C   0  0  0  0  0  0  0  0  0  0  0  0
   23.2334   18.7183   33.7640 O   0  0  0  0  0  0  0  0  0  0  0  0
   20.3002   16.2785   38.2032 C   0  0  1  0  0  0  0  0  0  0  0  0
   25.5205   18.1627   35.2799 O   0  0  0  0  0  0  0  0  0  0  0  0
   21.0903   15.3916   37.2872 C   0  0  2  0  0  0  0  0  0  0  0  0
   23.2293   15.2936   36.1924 C   0  0  1  0  0  0  0  0  0  0  0  0
   22.1915   16.7096   34.3805 C   0  0  2  0  0  0  0  0  0  0  0  0
   21.4511   16.6718   33.0274 C   0  0  0  0  0  0  0  0  0  0  0  0
   23.4955   17.4282   34.2013 C   0  0  2  0  0  0  0  0  0  0  0  0
   24.2712   17.4872   35.4851 C   0  0  1  0  0  0  0  0  0  0  0  0
   24.5379   16.0976   35.9523 C   0  0  1  0  0  0  0  0  0  0  0  0
  5  4  1  6  0  0  0
  5  8  1  0  0  0  0
  5 16  1  0  0  0  0
  8  7  1  1  0  0  0
  8 10  1  0  0  0  0
 10  1  1  6  0  0  0
 10 12  1  0  0  0  0
 11 18  1  0  0  0  0
 12 14  1  0  0  0  0
 14  2  1  6  0  0  0
 14 16  1  0  0  0  0
 16  9  1  1  0  0  0
 17  9  1  1  0  0  0
 17 11  1  0  0  0  0
 17 22  1  0  0  0  0
 18 19  1  6  0  0  0
 18 20  1  0  0  0  0
 19  3  1  0  0  0  0
 20 13  1  1  0  0  0
 20 21  1  0  0  0  0
 21 15  1  6  0  0  0
 21 22  1  0  0  0  0
 22  6  1  1  0  0  0
M  END
>  <CHROM.1>
71.38801735,56.82177702,-52.52410290,21.85254617,15.70456890,36.44045114
2.24934381,0.10252038,2.14346359

>  <Name>
2et8_lig

>  <RI>
0

>  <Rbt.Current_Directory>
/home/itssahil/PROJECTS/Mol_Feturizer/New_Systems/rnas/2et8

>  <Rbt.Executable>
rbdock ($Id: //depot/dev/client3/rdock/2013.1/src/exe/rbdock.cxx#4 $)

>  <Rbt.Library>
libRbt.so (2013.1, Build901 2013/11/27)

>  <Rbt.Parameter_File>
/export/apps/rDock/src/rDock_2013.1_src/data/scripts/dock_solv.prm

>  <Rbt.Receptor>
prm/pocket_docking_3.prm

>  <SCORE>
-8.14562

>  <SCORE.INTER>
-6.46958

>  <SCORE.INTER.CONST>
1

>  <SCORE.INTER.POLAR>
-1.14385

>  <SCORE.INTER.ROT>
3

>  <SCORE.INTER.SOLV>
17.2957

>  <SCORE.INTER.VDW>
-11.8654

>  <SCORE.INTER.norm>
-0.294072

>  <SCORE.INTRA>
-1.69044

>  <SCORE.INTRA.DIHEDRAL>
-3.94893

>  <SCORE.INTRA.DIHEDRAL.0>
4.99603

>  <SCORE.INTRA.POLAR>
0

>  <SCORE.INTRA.POLAR.0>
0

>  <SCORE.INTRA.REPUL>
0

>  <SCORE.INTRA.REPUL.0>
0

>  <SCORE.INTRA.SOLV>
0.549186

>  <SCORE.INTRA.SOLV.lig_0>
-74.884

>  <SCORE.INTRA.VDW>
0.00942969

>  <SCORE.INTRA.VDW.0>
-0.858933

>  <SCORE.INTRA.norm>
-0.0768383

>  <SCORE.RESTR>
0.0144104

>  <SCORE.RESTR.CAVITY>
0.0144104

>  <SCORE.RESTR.norm>
0.000655017

>  <SCORE.SYSTEM>
0

>  <SCORE.SYSTEM.CONST>
0

>  <SCORE.SYSTEM.DIHEDRAL>
0

>  <SCORE.SYSTEM.SOLV>
0

>  <SCORE.SYSTEM.norm>
0

>  <SCORE.heavy>
22

>  <SCORE.norm>
-0.370255

>  <RMSD>
6.570

$$$$
2et8_lig
 OpenBabel11021811433D
libRbt.so/2013.1/901 2013/11/27
 22 23  0  0  0  0  0  0  0  0999 V2000
   18.9793   12.5983   41.9714 N   0  0  0  0  0  0  0  0  0  0  0  0
   17.7615   15.1812   37.9151 N   0  0  0  0  0  0  0  0  0  0  0  0
   19.0499   18.2187   37.3660 N   0  0  0  0  0  0  0  0  0  0  0  0
   21.0958   11.5855   37.6331 O   0  0  0  0  0  0  0  0  0  0  0  0
   20.5623   12.6621   38.4428 C   0  0  2  0  0  0  0  0  0  0  0  0
   20.0056   12.8028   33.7299 N   0  0  0  0  0  0  0  0  0  0  0  0
   21.0733   11.4160   40.5380 O   0  0  0  0  0  0  0  0  0  0  0  0
   20.0326   12.0769   39.8073 C   0  0  1  0  0  0  0  0  0  0  0  0
   19.8640   13.8640   36.5145 O   0  0  0  0  0  0  0  0  0  0  0  0
   19.4829   13.1787   40.6797 C   0  0  1  0  0  0  0  0  0  0  0  0
   18.7411   15.7377   35.7858 O   0  0  0  0  0  0  0  0  0  0  0  0
   18.3434   13.9023   39.9261 C   0  0  0  0  0  0  0  0  0  0  0  0
   21.6991   17.2618   34.2863 O   0  0  0  0  0  0  0  0  0  0  0  0
   18.9258   14.4748   38.6008 C   0  0  1  0  0  0  0  0  0  0  0  0
   21.4428   14.9860   32.6763 O   0  0  0  0  0  0  0  0  0  0  0  0
   19.3627   13.3648   37.6915 C   0  0  2  0  0  0  0  0  0  0  0  0
   19.0166   14.2643   35.4883 C   0  0  1  0  0  0  0  0  0  0  0  0
   19.9679   16.5896   35.7186 C   0  0  2  0  0  0  0  0  0  0  0  0
   19.6195   18.0661   35.9996 C   0  0  0  0  0  0  0  0  0  0  0  0
   20.5535   16.4817   34.3423 C   0  0  2  0  0  0  0  0  0  0  0  0
   20.9030   15.0616   34.0037 C   0  0  1  0  0  0  0  0  0  0  0  0
   19.6687   14.2300   34.0776 C   0  0  1  0  0  0  0  0  0  0  0  0
  5  4  1  6  0  0  0
  5  8  1  0  0  0  0
  5 16  1  0  0  0  0
  8  7  1  1  0  0  0
  8 10  1  0  0  0  0
 10  1  1  1  0  0  0
 10 12  1  0  0  0  0
 11 18  1  0  0  0  0
 12 14  1  0  0  0  0
 14  2  1  6  0  0  0
 14 16  1  0  0  0  0
 16  9  1  6  0  0  0
 17  9  1  1  0  0  0
 17 11  1  0  0  0  0
 17 22  1  0  0  0  0
 18 19  1  6  0  0  0
 18 20  1  0  0  0  0
 19  3  1  0  0  0  0
 20 13  1  1  0  0  0
 20 21  1  0  0  0  0
 21 15  1  6  0  0  0
 21 22  1  0  0  0  0
 22  6  1  1  0  0  0
M  END
>  <CHROM.1>
164.92712620,89.46125015,61.30724763,19.85612053,14.44979943,36.93810594
1.83745617,-1.15406091,2.34844182

>  <Name>
2et8_lig

>  <RI>
3.14397e+07

>  <Rbt.Current_Directory>
/home/itssahil/PROJECTS/Mol_Feturizer/New_Systems/rnas/2et8

>  <Rbt.Executable>
rbdock ($Id: //depot/dev/client3/rdock/2013.1/src/exe/rbdock.cxx#4 $)

>  <Rbt.Library>
libRbt.so (2013.1, Build901 2013/11/27)

>  <Rbt.Parameter_File>
/export/apps/rDock/src/rDock_2013.1_src/data/scripts/dock_solv.prm

>  <Rbt.Receptor>
prm/pocket_docking_6.prm

>  <SCORE>
-13.1324

>  <SCORE.INTER>
-14.6308

>  <SCORE.INTER.CONST>
1

>  <SCORE.INTER.POLAR>
-2.01875

>  <SCORE.INTER.ROT>
3

>  <SCORE.INTER.SOLV>
16.6466

>  <SCORE.INTER.VDW>
-14.1736

>  <SCORE.INTER.norm>
-0.665035

>  <SCORE.INTRA>
1.4984

>  <SCORE.INTRA.DIHEDRAL>
-0.346308

>  <SCORE.INTRA.DIHEDRAL.0>
4.99603

>  <SCORE.INTRA.POLAR>
0

>  <SCORE.INTRA.POLAR.0>
0

>  <SCORE.INTRA.REPUL>
0

>  <SCORE.INTRA.REPUL.0>
0

>  <SCORE.INTRA.SOLV>
3.26824

>  <SCORE.INTRA.SOLV.lig_0>
-74.884

>  <SCORE.INTRA.VDW>
0.0374288

>  <SCORE.INTRA.VDW.0>
-0.858933

>  <SCORE.INTRA.norm>
0.0681089

>  <SCORE.RESTR>
0

>  <SCORE.RESTR.CAVITY>
0

>  <SCORE.RESTR.norm>
0

>  <SCORE.SYSTEM>
0

>  <SCORE.SYSTEM.CONST>
0

>  <SCORE.SYSTEM.DIHEDRAL>
0

>  <SCORE.SYSTEM.SOLV>
0

>  <SCORE.SYSTEM.norm>
0

>  <SCORE.heavy>
22

>  <SCORE.norm>
-0.596926

>  <RMSD>
6.579

$$$$
2et8_lig
 OpenBabel11021811433D
libRbt.so/2013.1/901 2013/11/27
 22 23  0  0  0  0  0  0  0  0999 V2000
   25.8542   15.3697   28.3333 N   0  0  0  0  0  0  0  0  0  0  0  0
   21.6069   17.5554   29.6715 N   0  0  0  0  0  0  0  0  0  0  0  0
   18.4875   14.9757   33.5067 N   0  0  0  0  0  0  0  0  0  0  0  0
   24.9346   16.3526   33.0783 O   0  0  0  0  0  0  0  0  0  0  0  0
   24.3096   15.9702   31.8283 C   0  0  2  0  0  0  0  0  0  0  0  0
   22.8415   19.9195   33.2490 N   0  0  0  0  0  0  0  0  0  0  0  0
   26.4159   14.9025   31.0359 O   0  0  0  0  0  0  0  0  0  0  0  0
   25.4096   15.8675   30.7037 C   0  0  1  0  0  0  0  0  0  0  0  0
   22.3036   17.1111   32.3982 O   0  0  0  0  0  0  0  0  0  0  0  0
   24.7898   15.4562   29.3909 C   0  0  1  0  0  0  0  0  0  0  0  0
   20.0507   17.3818   32.7902 O   0  0  0  0  0  0  0  0  0  0  0  0
   23.7093   16.4882   28.9939 C   0  0  0  0  0  0  0  0  0  0  0  0
   20.3918   17.2760   36.4225 O   0  0  0  0  0  0  0  0  0  0  0  0
   22.6430   16.5338   30.1271 C   0  0  1  0  0  0  0  0  0  0  0  0
   21.8191   19.6172   35.8576 O   0  0  0  0  0  0  0  0  0  0  0  0
   23.2438   17.0550   31.3988 C   0  0  2  0  0  0  0  0  0  0  0  0
   21.3404   18.1128   32.4193 C   0  0  1  0  0  0  0  0  0  0  0  0
   20.0951   16.7671   34.1525 C   0  0  2  0  0  0  0  0  0  0  0  0
   18.7573   16.0708   34.4776 C   0  0  0  0  0  0  0  0  0  0  0  0
   20.3372   17.8502   35.1610 C   0  0  2  0  0  0  0  0  0  0  0  0
   21.6229   18.5760   34.8899 C   0  0  1  0  0  0  0  0  0  0  0  0
   21.5589   19.1794   33.5289 C   0  0  1  0  0  0  0  0  0  0  0  0
  5  4  1  1  0  0  0
  5  8  1  0  0  0  0
  5 16  1  0  0  0  0
  8  7  1  1  0  0  0
  8 10  1  0  0  0  0
 10  1  1  6  0  0  0
 10 12  1  0  0  0  0
 11 18  1  0  0  0  0
 12 14  1  0  0  0  0
 14  2  1  6  0  0  0
 14 16  1  0  0  0  0
 16  9  1  1  0  0  0
 17  9  1  1  0  0  0
 17 11  1  0  0  0  0
 17 22  1  0  0  0  0
 18 19  1  1  0  0  0
 18 20  1  0  0  0  0
 19  3  1  0  0  0  0
 20 13  1  1  0  0  0
 20 21  1  0  0  0  0
 21 15  1  1  0  0  0
 21 22  1  0  0  0  0
 22  6  1  6  0  0  0
M  END
>  <CHROM.1>
170.12495295,137.13533728,61.27545793,22.39276706,17.01720647,32.47510561
0.81489581,-0.23646901,-2.15401997

>  <Name>
2et8_lig

>  <RI>
2.82936e+07

>  <Rbt.Current_Directory>
/home/itssahil/PROJECTS/Mol_Feturizer/New_Systems/rnas/2et8

>  <Rbt.Executable>
rbdock ($Id: //depot/dev/client3/rdock/2013.1/src/exe/rbdock.cxx#4 $)

>  <Rbt.Library>
libRbt.so (2013.1, Build901 2013/11/27)

>  <Rbt.Parameter_File>
/export/apps/rDock/src/rDock_2013.1_src/data/scripts/dock_solv.prm

>  <Rbt.Receptor>
prm/pocket_docking_8.prm

>  <SCORE>
-11.5524

>  <SCORE.INTER>
-12.0117

>  <SCORE.INTER.CONST>
1

>  <SCORE.INTER.POLAR>
-0.946523

>  <SCORE.INTER.ROT>
3

>  <SCORE.INTER.SOLV>
15.9689

>  <SCORE.INTER.VDW>
-15.7757

>  <SCORE.INTER.norm>
-0.545988

>  <SCORE.INTRA>
0.451282

>  <SCORE.INTRA.DIHEDRAL>
1.37012

>  <SCORE.INTRA.DIHEDRAL.0>
4.99603

>  <SCORE.INTRA.POLAR>
0

>  <SCORE.INTRA.POLAR.0>
0

>  <SCORE.INTRA.REPUL>
0

>  <SCORE.INTRA.REPUL.0>
0

>  <SCORE.INTRA.SOLV>
0.438992

>  <SCORE.INTRA.SOLV.lig_0>
-74.884

>  <SCORE.INTRA.VDW>
-0.453276

>  <SCORE.INTRA.VDW.0>
-0.858933

>  <SCORE.INTRA.norm>
0.0205128

>  <SCORE.RESTR>
0.00806801

>  <SCORE.RESTR.CAVITY>
0.00806801

>  <SCORE.RESTR.norm>
0.000366728

>  <SCORE.SYSTEM>
0

>  <SCORE.SYSTEM.CONST>
0

>  <SCORE.SYSTEM.DIHEDRAL>
0

>  <SCORE.SYSTEM.SOLV>
0

>  <SCORE.SYSTEM.norm>
0

>  <SCORE.heavy>
22

>  <SCORE.norm>
-0.525108

>  <RMSD>
6.583

$$$$
2et8_lig
 OpenBabel11021811433D
libRbt.so/2013.1/901 2013/11/27
 22 23  0  0  0  0  0  0  0  0999 V2000
   18.9793   12.5875   41.9728 N   0  0  0  0  0  0  0  0  0  0  0  0
   17.7574   15.1977   37.9353 N   0  0  0  0  0  0  0  0  0  0  0  0
   18.9953   18.2367   37.3479 N   0  0  0  0  0  0  0  0  0  0  0  0
   21.0806   11.5943   37.6226 O   0  0  0  0  0  0  0  0  0  0  0  0
   20.5526   12.6677   38.4402 C   0  0  2  0  0  0  0  0  0  0  0  0
   20.0326   12.8016   33.7464 N   0  0  0  0  0  0  0  0  0  0  0  0
   21.0660   11.4077   40.5266 O   0  0  0  0  0  0  0  0  0  0  0  0
   20.0250   12.0759   39.8027 C   0  0  1  0  0  0  0  0  0  0  0  0
   19.8522   13.8828   36.5210 O   0  0  0  0  0  0  0  0  0  0  0  0
   19.4809   13.1740   40.6831 C   0  0  1  0  0  0  0  0  0  0  0  0
   18.6991   15.7288   35.7693 O   0  0  0  0  0  0  0  0  0  0  0  0
   18.3413   13.9054   39.9371 C   0  0  0  0  0  0  0  0  0  0  0  0
   21.6378   17.2963   34.2765 O   0  0  0  0  0  0  0  0  0  0  0  0
   18.9216   14.4840   38.6136 C   0  0  1  0  0  0  0  0  0  0  0  0
   21.4353   15.0027   32.6840 O   0  0  0  0  0  0  0  0  0  0  0  0
   19.3529   13.3781   37.6965 C   0  0  2  0  0  0  0  0  0  0  0  0
   19.0043   14.2585   35.4859 C   0  0  1  0  0  0  0  0  0  0  0  0
   19.9100   16.6033   35.7030 C   0  0  2  0  0  0  0  0  0  0  0  0
   19.5319   18.0752   35.9693 C   0  0  0  0  0  0  0  0  0  0  0  0
   20.5068   16.4951   34.3315 C   0  0  2  0  0  0  0  0  0  0  0  0
   20.8853   15.0791   34.0071 C   0  0  1  0  0  0  0  0  0  0  0  0
   19.6664   14.2249   34.0798 C   0  0  1  0  0  0  0  0  0  0  0  0
  5  4  1  6  0  0  0
  5  8  1  0  0  0  0
  5 16  1  0  0  0  0
  8  7  1  1  0  0  0
  8 10  1  0  0  0  0
 10  1  1  1  0  0  0
 10 12  1  0  0  0  0
 11 18  1  0  0  0  0
 12 14  1  0  0  0  0
 14  2  1  6  0  0  0
 14 16  1  0  0  0  0
 16  9  1  6  0  0  0
 17  9  1  1  0  0  0
 17 11  1  0  0  0  0
 17 22  1  0  0  0  0
 18 19  1  6  0  0  0
 18 20  1  0  0  0  0
 19  3  1  0  0  0  0
 20 13  1  1  0  0  0
 20 21  1  0  0  0  0
 21 15  1  6  0  0  0
 21 22  1  0  0  0  0
 22  6  1  1  0  0  0
M  END
>  <CHROM.1>
163.20617924,89.76928281,63.31689508,19.83602023,14.45689337,36.93597938
1.81915944,-1.14554556,2.33451182

>  <Name>
2et8_lig

>  <RI>
0

>  <Rbt.Current_Directory>
/home/itssahil/PROJECTS/Mol_Feturizer/New_Systems/rnas/2et8

>  <Rbt.Executable>
rbdock ($Id: //depot/dev/client3/rdock/2013.1/src/exe/rbdock.cxx#4 $)

>  <Rbt.Library>
libRbt.so (2013.1, Build901 2013/11/27)

>  <Rbt.Parameter_File>
/export/apps/rDock/src/rDock_2013.1_src/data/scripts/dock_solv.prm

>  <Rbt.Receptor>
prm/pocket_docking_7.prm

>  <SCORE>
-13.1311

>  <SCORE.INTER>
-14.646

>  <SCORE.INTER.CONST>
1

>  <SCORE.INTER.POLAR>
-2.04648

>  <SCORE.INTER.ROT>
3

>  <SCORE.INTER.SOLV>
16.6656

>  <SCORE.INTER.VDW>
-14.0976

>  <SCORE.INTER.norm>
-0.665727

>  <SCORE.INTRA>
1.51487

>  <SCORE.INTRA.DIHEDRAL>
-0.0228123

>  <SCORE.INTRA.DIHEDRAL.0>
4.99603

>  <SCORE.INTRA.POLAR>
0

>  <SCORE.INTRA.POLAR.0>
0

>  <SCORE.INTRA.REPUL>
0

>  <SCORE.INTRA.REPUL.0>
0

>  <SCORE.INTRA.SOLV>
3.26933

>  <SCORE.INTRA.SOLV.lig_0>
-74.884

>  <SCORE.INTRA.VDW>
-0.108387

>  <SCORE.INTRA.VDW.0>
-0.858933

>  <SCORE.INTRA.norm>
0.0688578

>  <SCORE.RESTR>
0

>  <SCORE.RESTR.CAVITY>
0

>  <SCORE.RESTR.norm>
0

>  <SCORE.SYSTEM>
0

>  <SCORE.SYSTEM.CONST>
0

>  <SCORE.SYSTEM.DIHEDRAL>
0

>  <SCORE.SYSTEM.SOLV>
0

>  <SCORE.SYSTEM.norm>
0

>  <SCORE.heavy>
22

>  <SCORE.norm>
-0.596869

>  <RMSD>
6.586

$$$$
2et8_lig
 OpenBabel11021811433D
libRbt.so/2013.1/901 2013/11/27
 22 23  0  0  0  0  0  0  0  0999 V2000
   18.9787   12.6117   41.9726 N   0  0  0  0  0  0  0  0  0  0  0  0
   17.7384   15.1853   37.9172 N   0  0  0  0  0  0  0  0  0  0  0  0
   18.9571   18.2378   37.3143 N   0  0  0  0  0  0  0  0  0  0  0  0
   21.1033   11.6183   37.6337 O   0  0  0  0  0  0  0  0  0  0  0  0
   20.5608   12.6901   38.4439 C   0  0  2  0  0  0  0  0  0  0  0  0
   20.0441   12.7900   33.7481 N   0  0  0  0  0  0  0  0  0  0  0  0
   21.0827   11.4477   40.5386 O   0  0  0  0  0  0  0  0  0  0  0  0
   20.0362   12.1000   39.8083 C   0  0  1  0  0  0  0  0  0  0  0  0
   19.8520   13.8865   36.5160 O   0  0  0  0  0  0  0  0  0  0  0  0
   19.4772   13.1967   40.6810 C   0  0  1  0  0  0  0  0  0  0  0  0
   18.6858   15.7191   35.7517 O   0  0  0  0  0  0  0  0  0  0  0  0
   18.3314   13.9108   39.9278 C   0  0  0  0  0  0  0  0  0  0  0  0
   21.6143   17.2999   34.2532 O   0  0  0  0  0  0  0  0  0  0  0  0
   18.9088   14.4886   38.6026 C   0  0  1  0  0  0  0  0  0  0  0  0
   21.4314   14.9954   32.6743 O   0  0  0  0  0  0  0  0  0  0  0  0
   19.3551   13.3827   37.6929 C   0  0  2  0  0  0  0  0  0  0  0  0
   19.0025   14.2495   35.4776 C   0  0  1  0  0  0  0  0  0  0  0  0
   19.8900   16.6024   35.6817 C   0  0  2  0  0  0  0  0  0  0  0  0
   19.5004   18.0729   35.9387 C   0  0  0  0  0  0  0  0  0  0  0  0
   20.4893   16.4905   34.3116 C   0  0  2  0  0  0  0  0  0  0  0  0
   20.8791   15.0755   33.9962 C   0  0  1  0  0  0  0  0  0  0  0  0
   19.6667   14.2125   34.0726 C   0  0  1  0  0  0  0  0  0  0  0  0
  5  4  1  6  0  0  0
  5  8  1  0  0  0  0
  5 16  1  0  0  0  0
  8  7  1  1  0  0  0
  8 10  1  0  0  0  0
 10  1  1  1  0  0  0
 10 12  1  0  0  0  0
 11 18  1  0  0  0  0
 12 14  1  0  0  0  0
 14  2  1  6  0  0  0
 14 16  1  0  0  0  0
 16  9  1  6  0  0  0
 17  9  1  1  0  0  0
 17 11  1  0  0  0  0
 17 22  1  0  0  0  0
 18 19  1  6  0  0  0
 18 20  1  0  0  0  0
 19  3  1  0  0  0  0
 20 13  1  1  0  0  0
 20 21  1  0  0  0  0
 21 15  1  6  0  0  0
 21 22  1  0  0  0  0
 22  6  1  1  0  0  0
M  END
>  <CHROM.1>
163.34894907,89.89419260,63.15543754,19.83029791,14.46189086,36.92707658
1.80816203,-1.13735105,2.31860525

>  <Name>
2et8_lig

>  <RI>
3.42619e+07

>  <Rbt.Current_Directory>
/home/itssahil/PROJECTS/Mol_Feturizer/New_Systems/rnas/2et8

>  <Rbt.Executable>
rbdock ($Id: //depot/dev/client3/rdock/2013.1/src/exe/rbdock.cxx#4 $)

>  <Rbt.Library>
libRbt.so (2013.1, Build901 2013/11/27)

>  <Rbt.Parameter_File>
/export/apps/rDock/src/rDock_2013.1_src/data/scripts/dock_solv.prm

>  <Rbt.Receptor>
prm/pocket_docking_4.prm

>  <SCORE>
-13.114

>  <SCORE.INTER>
-14.6101

>  <SCORE.INTER.CONST>
1

>  <SCORE.INTER.POLAR>
-2.05299

>  <SCORE.INTER.ROT>
3

>  <SCORE.INTER.SOLV>
16.7142

>  <SCORE.INTER.VDW>
-14.0682

>  <SCORE.INTER.norm>
-0.664095

>  <SCORE.INTRA>
1.49603

>  <SCORE.INTRA.DIHEDRAL>
-0.023649

>  <SCORE.INTRA.DIHEDRAL.0>
4.99603

>  <SCORE.INTRA.POLAR>
0

>  <SCORE.INTRA.POLAR.0>
0

>  <SCORE.INTRA.REPUL>
0

>  <SCORE.INTRA.REPUL.0>
0

>  <SCORE.INTRA.SOLV>
3.25044

>  <SCORE.INTRA.SOLV.lig_0>
-74.884

>  <SCORE.INTRA.VDW>
-0.117361

>  <SCORE.INTRA.VDW.0>
-0.858933

>  <SCORE.INTRA.norm>
0.0680015

>  <SCORE.RESTR>
0

>  <SCORE.RESTR.CAVITY>
0

>  <SCORE.RESTR.norm>
0

>  <SCORE.SYSTEM>
0

>  <SCORE.SYSTEM.CONST>
0

>  <SCORE.SYSTEM.DIHEDRAL>
0

>  <SCORE.SYSTEM.SOLV>
0

>  <SCORE.SYSTEM.norm>
0

>  <SCORE.heavy>
22

>  <SCORE.norm>
-0.596093

>  <RMSD>
6.589

$$$$
2et8_lig
 OpenBabel11021811433D
libRbt.so/2013.1/901 2013/11/27
 22 23  0  0  0  0  0  0  0  0999 V2000
   18.9842   12.6580   41.9623 N   0  0  0  0  0  0  0  0  0  0  0  0
   17.7131   15.1690   37.8773 N   0  0  0  0  0  0  0  0  0  0  0  0
   18.9530   18.2282   37.2670 N   0  0  0  0  0  0  0  0  0  0  0  0
   21.1091   11.6288   37.6320 O   0  0  0  0  0  0  0  0  0  0  0  0
   20.5586   12.7059   38.4296 C   0  0  2  0  0  0  0  0  0  0  0  0
   20.0017   12.7603   33.7246 N   0  0  0  0  0  0  0  0  0  0  0  0
   21.0956   11.4948   40.5389 O   0  0  0  0  0  0  0  0  0  0  0  0
   20.0420   12.1285   39.8025 C   0  0  1  0  0  0  0  0  0  0  0  0
   19.8354   13.8715   36.4882 O   0  0  0  0  0  0  0  0  0  0  0  0
   19.4749   13.2311   40.6624 C   0  0  1  0  0  0  0  0  0  0  0  0
   18.6711   15.7052   35.7238 O   0  0  0  0  0  0  0  0  0  0  0  0
   18.3214   13.9254   39.9026 C   0  0  0  0  0  0  0  0  0  0  0  0
   21.5947   17.2660   34.1948 O   0  0  0  0  0  0  0  0  0  0  0  0
   18.8910   14.4915   38.5690 C   0  0  1  0  0  0  0  0  0  0  0  0
   21.3899   14.9544   32.6290 O   0  0  0  0  0  0  0  0  0  0  0  0
   19.3454   13.3782   37.6725 C   0  0  2  0  0  0  0  0  0  0  0  0
   18.9796   14.2329   35.4546 C   0  0  1  0  0  0  0  0  0  0  0  0
   19.8786   16.5830   35.6400 C   0  0  2  0  0  0  0  0  0  0  0  0
   19.4971   18.0564   35.8926 C   0  0  0  0  0  0  0  0  0  0  0  0
   20.4668   16.4617   34.2660 C   0  0  2  0  0  0  0  0  0  0  0  0
   20.8481   15.0435   33.9547 C   0  0  1  0  0  0  0  0  0  0  0  0
   19.6328   14.1860   34.0447 C   0  0  1  0  0  0  0  0  0  0  0  0
  5  4  1  6  0  0  0
  5  8  1  0  0  0  0
  5 16  1  0  0  0  0
  8  7  1  1  0  0  0
  8 10  1  0  0  0  0
 10  1  1  1  0  0  0
 10 12  1  0  0  0  0
 11 18  1  0  0  0  0
 12 14  1  0  0  0  0
 14  2  1  6  0  0  0
 14 16  1  0  0  0  0
 16  9  1  6  0  0  0
 17  9  1  1  0  0  0
 17 11  1  0  0  0  0
 17 22  1  0  0  0  0
 18 19  1  6  0  0  0
 18 20  1  0  0  0  0
 19  3  1  0  0  0  0
 20 13  1  1  0  0  0
 20 21  1  0  0  0  0
 21 15  1  6  0  0  0
 21 22  1  0  0  0  0
 22  6  1  1  0  0  0
M  END
>  <CHROM.1>
164.33924221,89.76369958,62.61338529,19.81669757,14.45707443,36.89868312
1.80145066,-1.14089153,2.30157612

>  <Name>
2et8_lig

>  <RI>
0

>  <Rbt.Current_Directory>
/home/itssahil/PROJECTS/Mol_Feturizer/New_Systems/rnas/2et8

>  <Rbt.Executable>
rbdock ($Id: //depot/dev/client3/rdock/2013.1/src/exe/rbdock.cxx#4 $)

>  <Rbt.Library>
libRbt.so (2013.1, Build901 2013/11/27)

>  <Rbt.Parameter_File>
/export/apps/rDock/src/rDock_2013.1_src/data/scripts/dock_solv.prm

>  <Rbt.Receptor>
prm/pocket_docking_7.prm

>  <SCORE>
-13.0946

>  <SCORE.INTER>
-14.5716

>  <SCORE.INTER.CONST>
1

>  <SCORE.INTER.POLAR>
-2.02026

>  <SCORE.INTER.ROT>
3

>  <SCORE.INTER.SOLV>
16.7538

>  <SCORE.INTER.VDW>
-14.1648

>  <SCORE.INTER.norm>
-0.662345

>  <SCORE.INTRA>
1.47703

>  <SCORE.INTRA.DIHEDRAL>
-0.194496

>  <SCORE.INTRA.DIHEDRAL.0>
4.99603

>  <SCORE.INTRA.POLAR>
0

>  <SCORE.INTRA.POLAR.0>
0

>  <SCORE.INTRA.REPUL>
0

>  <SCORE.INTRA.REPUL.0>
0

>  <SCORE.INTRA.SOLV>
3.23186

>  <SCORE.INTRA.SOLV.lig_0>
-74.884

>  <SCORE.INTRA.VDW>
-0.0416557

>  <SCORE.INTRA.VDW.0>
-0.858933

>  <SCORE.INTRA.norm>
0.0671375

>  <SCORE.RESTR>
0

>  <SCORE.RESTR.CAVITY>
0

>  <SCORE.RESTR.norm>
0

>  <SCORE.SYSTEM>
0

>  <SCORE.SYSTEM.CONST>
0

>  <SCORE.SYSTEM.DIHEDRAL>
0

>  <SCORE.SYSTEM.SOLV>
0

>  <SCORE.SYSTEM.norm>
0

>  <SCORE.heavy>
22

>  <SCORE.norm>
-0.595208

>  <RMSD>
6.590

$$$$
2et8_lig
 OpenBabel11021811433D
libRbt.so/2013.1/901 2013/11/27
 22 23  0  0  0  0  0  0  0  0999 V2000
   19.1030   12.6122   42.0621 N   0  0  0  0  0  0  0  0  0  0  0  0
   17.7161   15.4152   38.2115 N   0  0  0  0  0  0  0  0  0  0  0  0
   22.7241   16.9482   33.9631 N   0  0  0  0  0  0  0  0  0  0  0  0
   20.6173   11.5165   37.4978 O   0  0  0  0  0  0  0  0  0  0  0  0
   20.2879   12.6176   38.3801 C   0  0  2  0  0  0  0  0  0  0  0  0
   17.7276   12.6743   34.5281 N   0  0  0  0  0  0  0  0  0  0  0  0
   20.8965   11.2690   40.3838 O   0  0  0  0  0  0  0  0  0  0  0  0
   19.8543   12.0498   39.7853 C   0  0  1  0  0  0  0  0  0  0  0  0
   19.5078   13.9360   36.5624 O   0  0  0  0  0  0  0  0  0  0  0  0
   19.5182   13.1758   40.7320 C   0  0  1  0  0  0  0  0  0  0  0  0
   19.3784   15.9627   35.4768 O   0  0  0  0  0  0  0  0  0  0  0  0
   18.3822   14.0294   40.1230 C   0  0  0  0  0  0  0  0  0  0  0  0
   21.5616   14.9429   32.7354 O   0  0  0  0  0  0  0  0  0  0  0  0
   18.8709   14.5782   38.7506 C   0  0  1  0  0  0  0  0  0  0  0  0
   19.4063   13.2034   32.3274 O   0  0  0  0  0  0  0  0  0  0  0  0
   19.0906   13.4562   37.7796 C   0  0  2  0  0  0  0  0  0  0  0  0
   18.6437   14.6488   35.7397 C   0  0  1  0  0  0  0  0  0  0  0  0
   20.6628   15.7788   34.7339 C   0  0  2  0  0  0  0  0  0  0  0  0
   21.3402   17.1407   34.4755 C   0  0  0  0  0  0  0  0  0  0  0  0
   20.3673   15.1251   33.4170 C   0  0  2  0  0  0  0  0  0  0  0  0
   19.6937   13.7964   33.6021 C   0  0  1  0  0  0  0  0  0  0  0  0
   18.4180   14.0012   34.3446 C   0  0  1  0  0  0  0  0  0  0  0  0
  5  4  1  6  0  0  0
  5  8  1  0  0  0  0
  5 16  1  0  0  0  0
  8  7  1  1  0  0  0
  8 10  1  0  0  0  0
 10  1  1  1  0  0  0
 10 12  1  0  0  0  0
 11 18  1  0  0  0  0
 12 14  1  0  0  0  0
 14  2  1  6  0  0  0
 14 16  1  0  0  0  0
 16  9  1  6  0  0  0
 17  9  1  1  0  0  0
 17 11  1  0  0  0  0
 17 22  1  0  0  0  0
 18 19  1  6  0  0  0
 18 20  1  0  0  0  0
 19  3  1  0  0  0  0
 20 13  1  1  0  0  0
 20 21  1  0  0  0  0
 21 15  1  6  0  0  0
 21 22  1  0  0  0  0
 22  6  1  1  0  0  0
M  END
>  <CHROM.1>
175.90966235,124.70889180,169.67803060,19.74208027,14.02196411,36.58499887
-1.98920073,-1.22879162,-1.61346321

>  <Name>
2et8_lig

>  <RI>
2.82936e+07

>  <Rbt.Current_Directory>
/home/itssahil/PROJECTS/Mol_Feturizer/New_Systems/rnas/2et8

>  <Rbt.Executable>
rbdock ($Id: //depot/dev/client3/rdock/2013.1/src/exe/rbdock.cxx#4 $)

>  <Rbt.Library>
libRbt.so (2013.1, Build901 2013/11/27)

>  <Rbt.Parameter_File>
/export/apps/rDock/src/rDock_2013.1_src/data/scripts/dock_solv.prm

>  <Rbt.Receptor>
prm/pocket_docking_8.prm

>  <SCORE>
-8.96011

>  <SCORE.INTER>
-11.1211

>  <SCORE.INTER.CONST>
1

>  <SCORE.INTER.POLAR>
-1.31476

>  <SCORE.INTER.ROT>
3

>  <SCORE.INTER.SOLV>
17.6753

>  <SCORE.INTER.VDW>
-14.5233

>  <SCORE.INTER.norm>
-0.505506

>  <SCORE.INTRA>
2.16103

>  <SCORE.INTRA.DIHEDRAL>
2.57796

>  <SCORE.INTRA.DIHEDRAL.0>
4.99603

>  <SCORE.INTRA.POLAR>
0

>  <SCORE.INTRA.POLAR.0>
0

>  <SCORE.INTRA.REPUL>
0

>  <SCORE.INTRA.REPUL.0>
0

>  <SCORE.INTRA.SOLV>
1.51647

>  <SCORE.INTRA.SOLV.lig_0>
-74.884

>  <SCORE.INTRA.VDW>
0.113818

>  <SCORE.INTRA.VDW.0>
-0.858933

>  <SCORE.INTRA.norm>
0.0982288

>  <SCORE.RESTR>
0

>  <SCORE.RESTR.CAVITY>
0

>  <SCORE.RESTR.norm>
0

>  <SCORE.SYSTEM>
0

>  <SCORE.SYSTEM.CONST>
0

>  <SCORE.SYSTEM.DIHEDRAL>
0

>  <SCORE.SYSTEM.SOLV>
0

>  <SCORE.SYSTEM.norm>
0

>  <SCORE.heavy>
22

>  <SCORE.norm>
-0.407278

>  <RMSD>
6.600

$$$$
2et8_lig
 OpenBabel11021811433D
libRbt.so/2013.1/901 2013/11/27
 22 23  0  0  0  0  0  0  0  0999 V2000
   18.9796   12.6989   41.9624 N   0  0  0  0  0  0  0  0  0  0  0  0
   17.6707   15.1815   37.8720 N   0  0  0  0  0  0  0  0  0  0  0  0
   18.7390   18.2144   37.1434 N   0  0  0  0  0  0  0  0  0  0  0  0
   21.0629   11.6381   37.6194 O   0  0  0  0  0  0  0  0  0  0  0  0
   20.5204   12.7211   38.4146 C   0  0  2  0  0  0  0  0  0  0  0  0
   20.0120   12.7013   33.7384 N   0  0  0  0  0  0  0  0  0  0  0  0
   21.0770   11.5247   40.5272 O   0  0  0  0  0  0  0  0  0  0  0  0
   20.0166   12.1536   39.7964 C   0  0  1  0  0  0  0  0  0  0  0  0
   19.7792   13.8732   36.4720 O   0  0  0  0  0  0  0  0  0  0  0  0
   19.4582   13.2625   40.6538 C   0  0  1  0  0  0  0  0  0  0  0  0
   18.5480   15.6386   35.6536 O   0  0  0  0  0  0  0  0  0  0  0  0
   18.2977   13.9520   39.9001 C   0  0  0  0  0  0  0  0  0  0  0  0
   21.4182   17.2782   34.1061 O   0  0  0  0  0  0  0  0  0  0  0  0
   18.8548   14.5084   38.5573 C   0  0  1  0  0  0  0  0  0  0  0  0
   21.3193   14.9219   32.5976 O   0  0  0  0  0  0  0  0  0  0  0  0
   19.3003   13.3885   37.6643 C   0  0  2  0  0  0  0  0  0  0  0  0
   18.9177   14.1738   35.4237 C   0  0  1  0  0  0  0  0  0  0  0  0
   19.7196   16.5623   35.5561 C   0  0  2  0  0  0  0  0  0  0  0  0
   19.2771   18.0248   35.7689 C   0  0  0  0  0  0  0  0  0  0  0  0
   20.3232   16.4308   34.1897 C   0  0  2  0  0  0  0  0  0  0  0  0
   20.7639   15.0220   33.9169 C   0  0  1  0  0  0  0  0  0  0  0  0
   19.5834   14.1184   34.0200 C   0  0  1  0  0  0  0  0  0  0  0  0
  5  4  1  6  0  0  0
  5  8  1  0  0  0  0
  5 16  1  0  0  0  0
  8  7  1  1  0  0  0
  8 10  1  0  0  0  0
 10  1  1  1  0  0  0
 10 12  1  0  0  0  0
 11 18  1  0  0  0  0
 12 14  1  0  0  0  0
 14  2  1  6  0  0  0
 14 16  1  0  0  0  0
 16  9  1  6  0  0  0
 17  9  1  1  0  0  0
 17 11  1  0  0  0  0
 17 22  1  0  0  0  0
 18 19  1  6  0  0  0
 18 20  1  0  0  0  0
 19  3  1  0  0  0  0
 20 13  1  1  0  0  0
 20 21  1  0  0  0  0
 21 15  1  6  0  0  0
 21 22  1  0  0  0  0
 22  6  1  1  0  0  0
M  END
>  <CHROM.1>
161.56380105,89.84284442,63.66505178,19.74135202,14.44935689,36.86316742
1.75261045,-1.11989996,2.24673935

>  <Name>
2et8_lig

>  <RI>
3.42619e+07

>  <Rbt.Current_Directory>
/home/itssahil/PROJECTS/Mol_Feturizer/New_Systems/rnas/2et8

>  <Rbt.Executable>
rbdock ($Id: //depot/dev/client3/rdock/2013.1/src/exe/rbdock.cxx#4 $)

>  <Rbt.Library>
libRbt.so (2013.1, Build901 2013/11/27)

>  <Rbt.Parameter_File>
/export/apps/rDock/src/rDock_2013.1_src/data/scripts/dock_solv.prm

>  <Rbt.Receptor>
prm/pocket_docking_4.prm

>  <SCORE>
-13.0349

>  <SCORE.INTER>
-14.5994

>  <SCORE.INTER.CONST>
1

>  <SCORE.INTER.POLAR>
-2.05789

>  <SCORE.INTER.ROT>
3

>  <SCORE.INTER.SOLV>
16.9988

>  <SCORE.INTER.VDW>
-14.1396

>  <SCORE.INTER.norm>
-0.663609

>  <SCORE.INTRA>
1.56454

>  <SCORE.INTRA.DIHEDRAL>
0.238671

>  <SCORE.INTRA.DIHEDRAL.0>
4.99603

>  <SCORE.INTRA.POLAR>
0

>  <SCORE.INTRA.POLAR.0>
0

>  <SCORE.INTRA.REPUL>
0

>  <SCORE.INTRA.REPUL.0>
0

>  <SCORE.INTRA.SOLV>
3.32492

>  <SCORE.INTRA.SOLV.lig_0>
-74.884

>  <SCORE.INTRA.VDW>
-0.217258

>  <SCORE.INTRA.VDW.0>
-0.858933

>  <SCORE.INTRA.norm>
0.0711153

>  <SCORE.RESTR>
0

>  <SCORE.RESTR.CAVITY>
0

>  <SCORE.RESTR.norm>
0

>  <SCORE.SYSTEM>
0

>  <SCORE.SYSTEM.CONST>
0

>  <SCORE.SYSTEM.DIHEDRAL>
0

>  <SCORE.SYSTEM.SOLV>
0

>  <SCORE.SYSTEM.norm>
0

>  <SCORE.heavy>
22

>  <SCORE.norm>
-0.592493

>  <RMSD>
6.614

$$$$
2et8_lig
 OpenBabel11021811433D
libRbt.so/2013.1/901 2013/11/27
 22 23  0  0  0  0  0  0  0  0999 V2000
   19.9122   12.3554   40.4490 N   0  0  0  0  0  0  0  0  0  0  0  0
   18.5830   16.9274   39.0570 N   0  0  0  0  0  0  0  0  0  0  0  0
   21.1671   19.0471   33.5764 N   0  0  0  0  0  0  0  0  0  0  0  0
   19.3898   13.4618   35.6710 O   0  0  0  0  0  0  0  0  0  0  0  0
   19.7997   14.0027   36.9512 C   0  0  2  0  0  0  0  0  0  0  0  0
   16.0873   15.9548   36.4086 N   0  0  0  0  0  0  0  0  0  0  0  0
   20.4352   11.7374   37.7690 O   0  0  0  0  0  0  0  0  0  0  0  0
   19.6420   12.8948   38.0614 C   0  0  1  0  0  0  0  0  0  0  0  0
   19.0615   16.1806   36.3494 O   0  0  0  0  0  0  0  0  0  0  0  0
   20.0757   13.4251   39.4059 C   0  0  1  0  0  0  0  0  0  0  0  0
   18.9251   18.2257   35.2999 O   0  0  0  0  0  0  0  0  0  0  0  0
   19.2256   14.6668   39.7603 C   0  0  0  0  0  0  0  0  0  0  0  0
   17.9671   16.8129   32.0739 O   0  0  0  0  0  0  0  0  0  0  0  0
   19.4341   15.7316   38.6441 C   0  0  1  0  0  0  0  0  0  0  0  0
   15.7459   16.0845   33.6143 O   0  0  0  0  0  0  0  0  0  0  0  0
   18.8932   15.2389   37.3347 C   0  0  2  0  0  0  0  0  0  0  0  0
   18.1993   17.2653   36.2413 C   0  0  1  0  0  0  0  0  0  0  0  0
   19.1229   17.6658   33.9278 C   0  0  2  0  0  0  0  0  0  0  0  0
   19.8334   18.6912   33.0202 C   0  0  0  0  0  0  0  0  0  0  0  0
   17.7806   17.3451   33.3412 C   0  0  2  0  0  0  0  0  0  0  0  0
   17.0321   16.3579   34.1889 C   0  0  1  0  0  0  0  0  0  0  0  0
   16.8467   16.9338   35.5506 C   0  0  1  0  0  0  0  0  0  0  0  0
  5  4  1  6  0  0  0
  5  8  1  0  0  0  0
  5 16  1  0  0  0  0
  8  7  1  6  0  0  0
  8 10  1  0  0  0  0
 10  1  1  1  0  0  0
 10 12  1  0  0  0  0
 11 18  1  0  0  0  0
 12 14  1  0  0  0  0
 14  2  1  1  0  0  0
 14 16  1  0  0  0  0
 16  9  1  6  0  0  0
 17  9  1  6  0  0  0
 17 11  1  0  0  0  0
 17 22  1  0  0  0  0
 18 19  1  6  0  0  0
 18 20  1  0  0  0  0
 19  3  1  0  0  0  0
 20 13  1  6  0  0  0
 20 21  1  0  0  0  0
 21 15  1  6  0  0  0
 21 22  1  0  0  0  0
 22  6  1  1  0  0  0
M  END
>  <CHROM.1>
166.49310798,165.69618273,60.02553039,18.77575461,15.76220814,36.16689849
-1.30009347,-0.71618085,-0.71914222

>  <Name>
2et8_lig

>  <RI>
3.14397e+07

>  <Rbt.Current_Directory>
/home/itssahil/PROJECTS/Mol_Feturizer/New_Systems/rnas/2et8

>  <Rbt.Executable>
rbdock ($Id: //depot/dev/client3/rdock/2013.1/src/exe/rbdock.cxx#4 $)

>  <Rbt.Library>
libRbt.so (2013.1, Build901 2013/11/27)

>  <Rbt.Parameter_File>
/export/apps/rDock/src/rDock_2013.1_src/data/scripts/dock_solv.prm

>  <Rbt.Receptor>
prm/pocket_docking_6.prm

>  <SCORE>
-8.22274

>  <SCORE.INTER>
-6.95057

>  <SCORE.INTER.CONST>
1

>  <SCORE.INTER.POLAR>
-0.959166

>  <SCORE.INTER.ROT>
3

>  <SCORE.INTER.SOLV>
9.60091

>  <SCORE.INTER.VDW>
-10.2368

>  <SCORE.INTER.norm>
-0.315935

>  <SCORE.INTRA>
-1.27217

>  <SCORE.INTRA.DIHEDRAL>
-3.02304

>  <SCORE.INTRA.DIHEDRAL.0>
4.99603

>  <SCORE.INTRA.POLAR>
0

>  <SCORE.INTRA.POLAR.0>
0

>  <SCORE.INTRA.REPUL>
0

>  <SCORE.INTRA.REPUL.0>
0

>  <SCORE.INTRA.SOLV>
1.73969

>  <SCORE.INTRA.SOLV.lig_0>
-74.884

>  <SCORE.INTRA.VDW>
-0.63049

>  <SCORE.INTRA.VDW.0>
-0.858933

>  <SCORE.INTRA.norm>
-0.0578258

>  <SCORE.RESTR>
0

>  <SCORE.RESTR.CAVITY>
0

>  <SCORE.RESTR.norm>
0

>  <SCORE.SYSTEM>
0

>  <SCORE.SYSTEM.CONST>
0

>  <SCORE.SYSTEM.DIHEDRAL>
0

>  <SCORE.SYSTEM.SOLV>
0

>  <SCORE.SYSTEM.norm>
0

>  <SCORE.heavy>
22

>  <SCORE.norm>
-0.373761

>  <RMSD>
6.614

$$$$
2et8_lig
 OpenBabel11021811433D
libRbt.so/2013.1/901 2013/11/27
 22 23  0  0  0  0  0  0  0  0999 V2000
   18.9663   12.6676   41.9789 N   0  0  0  0  0  0  0  0  0  0  0  0
   17.7794   15.2924   37.9404 N   0  0  0  0  0  0  0  0  0  0  0  0
   20.5631   18.9227   36.1407 N   0  0  0  0  0  0  0  0  0  0  0  0
   20.9662   11.5697   37.6061 O   0  0  0  0  0  0  0  0  0  0  0  0
   20.4891   12.6669   38.4233 C   0  0  2  0  0  0  0  0  0  0  0  0
   20.0467   12.7815   33.7478 N   0  0  0  0  0  0  0  0  0  0  0  0
   20.9877   11.4036   40.5113 O   0  0  0  0  0  0  0  0  0  0  0  0
   19.9608   12.1039   39.7977 C   0  0  1  0  0  0  0  0  0  0  0  0
   19.8046   13.8933   36.5055 O   0  0  0  0  0  0  0  0  0  0  0  0
   19.4695   13.2269   40.6777 C   0  0  1  0  0  0  0  0  0  0  0  0
   18.6076   15.6954   35.7168 O   0  0  0  0  0  0  0  0  0  0  0  0
   18.3460   13.9936   39.9429 C   0  0  0  0  0  0  0  0  0  0  0  0
   21.5167   17.3270   34.2350 O   0  0  0  0  0  0  0  0  0  0  0  0
   18.9271   14.5419   38.6069 C   0  0  1  0  0  0  0  0  0  0  0  0
   21.3977   15.0080   32.6712 O   0  0  0  0  0  0  0  0  0  0  0  0
   19.3048   13.4149   37.6918 C   0  0  2  0  0  0  0  0  0  0  0  0
   18.9578   14.2309   35.4564 C   0  0  1  0  0  0  0  0  0  0  0  0
   19.7936   16.6034   35.6519 C   0  0  2  0  0  0  0  0  0  0  0  0
   19.3707   18.0671   35.8944 C   0  0  0  0  0  0  0  0  0  0  0  0
   20.4085   16.4945   34.2885 C   0  0  2  0  0  0  0  0  0  0  0  0
   20.8310   15.0859   33.9872 C   0  0  1  0  0  0  0  0  0  0  0  0
   19.6363   14.1980   34.0582 C   0  0  1  0  0  0  0  0  0  0  0  0
  5  4  1  6  0  0  0
  5  8  1  0  0  0  0
  5 16  1  0  0  0  0
  8  7  1  1  0  0  0
  8 10  1  0  0  0  0
 10  1  1  1  0  0  0
 10 12  1  0  0  0  0
 11 18  1  0  0  0  0
 12 14  1  0  0  0  0
 14  2  1  6  0  0  0
 14 16  1  0  0  0  0
 16  9  1  6  0  0  0
 17  9  1  1  0  0  0
 17 11  1  0  0  0  0
 17 22  1  0  0  0  0
 18 19  1  6  0  0  0
 18 20  1  0  0  0  0
 19  3  1  0  0  0  0
 20 13  1  1  0  0  0
 20 21  1  0  0  0  0
 21 15  1  6  0  0  0
 21 22  1  0  0  0  0
 22  6  1  1  0  0  0
M  END
>  <CHROM.1>
160.04577701,88.45717707,167.01947827,19.85335751,14.50297382,36.86243992
1.90738848,-1.23471334,2.45774241

>  <Name>
2et8_lig

>  <RI>
0

>  <Rbt.Current_Directory>
/home/itssahil/PROJECTS/Mol_Feturizer/New_Systems/rnas/2et8

>  <Rbt.Executable>
rbdock ($Id: //depot/dev/client3/rdock/2013.1/src/exe/rbdock.cxx#4 $)

>  <Rbt.Library>
libRbt.so (2013.1, Build901 2013/11/27)

>  <Rbt.Parameter_File>
/export/apps/rDock/src/rDock_2013.1_src/data/scripts/dock_solv.prm

>  <Rbt.Receptor>
prm/pocket_docking_5.prm

>  <SCORE>
-12.7317

>  <SCORE.INTER>
-14.8072

>  <SCORE.INTER.CONST>
1

>  <SCORE.INTER.POLAR>
-2.08382

>  <SCORE.INTER.ROT>
3

>  <SCORE.INTER.SOLV>
16.869

>  <SCORE.INTER.VDW>
-14.1484

>  <SCORE.INTER.norm>
-0.673053

>  <SCORE.INTRA>
2.07547

>  <SCORE.INTRA.DIHEDRAL>
0.752968

>  <SCORE.INTRA.DIHEDRAL.0>
4.99603

>  <SCORE.INTRA.POLAR>
0

>  <SCORE.INTRA.POLAR.0>
0

>  <SCORE.INTRA.REPUL>
0

>  <SCORE.INTRA.REPUL.0>
0

>  <SCORE.INTRA.SOLV>
2.82404

>  <SCORE.INTRA.SOLV.lig_0>
-74.884

>  <SCORE.INTRA.VDW>
0.286968

>  <SCORE.INTRA.VDW.0>
-0.858933

>  <SCORE.INTRA.norm>
0.0943396

>  <SCORE.RESTR>
0

>  <SCORE.RESTR.CAVITY>
0

>  <SCORE.RESTR.norm>
0

>  <SCORE.SYSTEM>
0

>  <SCORE.SYSTEM.CONST>
0

>  <SCORE.SYSTEM.DIHEDRAL>
0

>  <SCORE.SYSTEM.SOLV>
0

>  <SCORE.SYSTEM.norm>
0

>  <SCORE.heavy>
22

>  <SCORE.norm>
-0.578714

>  <RMSD>
6.620

$$$$
2et8_lig
 OpenBabel11021811433D
libRbt.so/2013.1/901 2013/11/27
 22 23  0  0  0  0  0  0  0  0999 V2000
   19.0506   12.7274   41.9898 N   0  0  0  0  0  0  0  0  0  0  0  0
   17.8847   15.6533   38.1574 N   0  0  0  0  0  0  0  0  0  0  0  0
   15.2843   13.5116   33.6918 N   0  0  0  0  0  0  0  0  0  0  0  0
   20.4564   11.5349   37.4151 O   0  0  0  0  0  0  0  0  0  0  0  0
   20.2205   12.6547   38.3038 C   0  0  2  0  0  0  0  0  0  0  0  0
   21.2930   14.2177   34.0842 N   0  0  0  0  0  0  0  0  0  0  0  0
   20.7235   11.2510   40.2989 O   0  0  0  0  0  0  0  0  0  0  0  0
   19.7465   12.1171   39.7078 C   0  0  1  0  0  0  0  0  0  0  0  0
   19.5448   14.0414   36.4951 O   0  0  0  0  0  0  0  0  0  0  0  0
   19.5062   13.2619   40.6610 C   0  0  1  0  0  0  0  0  0  0  0  0
   17.8284   13.1641   35.2355 O   0  0  0  0  0  0  0  0  0  0  0  0
   18.4416   14.2082   40.0600 C   0  0  0  0  0  0  0  0  0  0  0  0
   17.0097   16.3427   33.6395 O   0  0  0  0  0  0  0  0  0  0  0  0
   18.9691   14.7223   38.6886 C   0  0  1  0  0  0  0  0  0  0  0  0
   19.5902   15.9325   32.6345 O   0  0  0  0  0  0  0  0  0  0  0  0
   19.0937   13.5910   37.7115 C   0  0  2  0  0  0  0  0  0  0  0  0
   19.3473   13.2971   35.3382 C   0  0  1  0  0  0  0  0  0  0  0  0
   17.1350   14.4761   35.0540 C   0  0  2  0  0  0  0  0  0  0  0  0
   15.6109   14.2719   34.9288 C   0  0  0  0  0  0  0  0  0  0  0  0
   17.6440   15.1194   33.7986 C   0  0  2  0  0  0  0  0  0  0  0  0
   19.1288   15.3338   33.8542 C   0  0  1  0  0  0  0  0  0  0  0  0
   19.8002   14.0161   34.0365 C   0  0  1  0  0  0  0  0  0  0  0  0
  5  4  1  6  0  0  0
  5  8  1  0  0  0  0
  5 16  1  0  0  0  0
  8  7  1  1  0  0  0
  8 10  1  0  0  0  0
 10  1  1  1  0  0  0
 10 12  1  0  0  0  0
 11 18  1  0  0  0  0
 12 14  1  0  0  0  0
 14  2  1  6  0  0  0
 14 16  1  0  0  0  0
 16  9  1  6  0  0  0
 17  9  1  1  0  0  0
 17 11  1  0  0  0  0
 17 22  1  0  0  0  0
 18 19  1  6  0  0  0
 18 20  1  0  0  0  0
 19  3  1  0  0  0  0
 20 13  1  1  0  0  0
 20 21  1  0  0  0  0
 21 15  1  6  0  0  0
 21 22  1  0  0  0  0
 22  6  1  1  0  0  0
M  END
>  <CHROM.1>
86.19793608,59.56348756,-65.06275803,18.79351066,13.87810111,36.59791065
1.29989451,-0.34278580,1.82178229

>  <Name>
2et8_lig

>  <RI>
3.14397e+07

>  <Rbt.Current_Directory>
/home/itssahil/PROJECTS/Mol_Feturizer/New_Systems/rnas/2et8

>  <Rbt.Executable>
rbdock ($Id: //depot/dev/client3/rdock/2013.1/src/exe/rbdock.cxx#4 $)

>  <Rbt.Library>
libRbt.so (2013.1, Build901 2013/11/27)

>  <Rbt.Parameter_File>
/export/apps/rDock/src/rDock_2013.1_src/data/scripts/dock_solv.prm

>  <Rbt.Receptor>
prm/pocket_docking_6.prm

>  <SCORE>
-12.4002

>  <SCORE.INTER>
-11.6681

>  <SCORE.INTER.CONST>
1

>  <SCORE.INTER.POLAR>
-1.19284

>  <SCORE.INTER.ROT>
3

>  <SCORE.INTER.SOLV>
20.3227

>  <SCORE.INTER.VDW>
-16.1768

>  <SCORE.INTER.norm>
-0.530368

>  <SCORE.INTRA>
-0.732076

>  <SCORE.INTRA.DIHEDRAL>
-1.90881

>  <SCORE.INTRA.DIHEDRAL.0>
4.99603

>  <SCORE.INTRA.POLAR>
0

>  <SCORE.INTRA.POLAR.0>
0

>  <SCORE.INTRA.REPUL>
0

>  <SCORE.INTRA.REPUL.0>
0

>  <SCORE.INTRA.SOLV>
1.70168

>  <SCORE.INTRA.SOLV.lig_0>
-74.884

>  <SCORE.INTRA.VDW>
-0.628509

>  <SCORE.INTRA.VDW.0>
-0.858933

>  <SCORE.INTRA.norm>
-0.0332762

>  <SCORE.RESTR>
0

>  <SCORE.RESTR.CAVITY>
0

>  <SCORE.RESTR.norm>
0

>  <SCORE.SYSTEM>
0

>  <SCORE.SYSTEM.CONST>
0

>  <SCORE.SYSTEM.DIHEDRAL>
0

>  <SCORE.SYSTEM.SOLV>
0

>  <SCORE.SYSTEM.norm>
0

>  <SCORE.heavy>
22

>  <SCORE.norm>
-0.563644

>  <RMSD>
6.640

$$$$
2et8_lig
 OpenBabel11021811433D
libRbt.so/2013.1/901 2013/11/27
 22 23  0  0  0  0  0  0  0  0999 V2000
   22.9533   13.8635   39.1209 N   0  0  0  0  0  0  0  0  0  0  0  0
   23.8045   17.4468   35.7978 N   0  0  0  0  0  0  0  0  0  0  0  0
   19.8077   19.9088   35.5922 N   0  0  0  0  0  0  0  0  0  0  0  0
   20.1711   14.2240   35.0643 O   0  0  0  0  0  0  0  0  0  0  0  0
   21.5133   14.4187   35.5742 C   0  0  2  0  0  0  0  0  0  0  0  0
   21.5564   15.2701   31.2618 N   0  0  0  0  0  0  0  0  0  0  0  0
   21.1623   12.6807   37.3235 O   0  0  0  0  0  0  0  0  0  0  0  0
   21.5508   14.0427   37.1046 C   0  0  1  0  0  0  0  0  0  0  0  0
   21.9022   16.2174   34.0695 O   0  0  0  0  0  0  0  0  0  0  0  0
   22.9418   14.2221   37.6614 C   0  0  1  0  0  0  0  0  0  0  0  0
   20.0054   17.5129   33.9081 O   0  0  0  0  0  0  0  0  0  0  0  0
   23.3855   15.6888   37.4567 C   0  0  0  0  0  0  0  0  0  0  0  0
   21.5814   20.0418   31.8005 O   0  0  0  0  0  0  0  0  0  0  0  0
   23.3482   15.9981   35.9315 C   0  0  1  0  0  0  0  0  0  0  0  0
   21.6934   17.8290   30.0893 O   0  0  0  0  0  0  0  0  0  0  0  0
   21.9427   15.9308   35.4119 C   0  0  2  0  0  0  0  0  0  0  0  0
   20.6951   16.2550   33.3817 C   0  0  1  0  0  0  0  0  0  0  0  0
   20.7495   18.7691   33.5861 C   0  0  2  0  0  0  0  0  0  0  0  0
   19.9896   20.0018   34.1181 C   0  0  0  0  0  0  0  0  0  0  0  0
   20.8787   18.8831   32.0965 C   0  0  2  0  0  0  0  0  0  0  0  0
   21.6012   17.7024   31.5156 C   0  0  1  0  0  0  0  0  0  0  0  0
   20.8450   16.4622   31.8484 C   0  0  1  0  0  0  0  0  0  0  0  0
  5  4  1  1  0  0  0
  5  8  1  0  0  0  0
  5 16  1  0  0  0  0
  8  7  1  6  0  0  0
  8 10  1  0  0  0  0
 10  1  1  1  0  0  0
 10 12  1  0  0  0  0
 11 18  1  0  0  0  0
 12 14  1  0  0  0  0
 14  2  1  1  0  0  0
 14 16  1  0  0  0  0
 16  9  1  6  0  0  0
 17  9  1  1  0  0  0
 17 11  1  0  0  0  0
 17 22  1  0  0  0  0
 18 19  1  6  0  0  0
 18 20  1  0  0  0  0
 19  3  1  0  0  0  0
 20 13  1  1  0  0  0
 20 21  1  0  0  0  0
 21 15  1  6  0  0  0
 21 22  1  0  0  0  0
 22  6  1  1  0  0  0
M  END
>  <CHROM.1>
67.80685243,70.51689819,59.06203907,21.52937808,16.52107198,34.50477127,-0.21950989
-1.38406389,0.46529973

>  <Name>
2et8_lig

>  <RI>
0

>  <Rbt.Current_Directory>
/home/itssahil/PROJECTS/Mol_Feturizer/New_Systems/rnas/2et8

>  <Rbt.Executable>
rbdock ($Id: //depot/dev/client3/rdock/2013.1/src/exe/rbdock.cxx#4 $)

>  <Rbt.Library>
libRbt.so (2013.1, Build901 2013/11/27)

>  <Rbt.Parameter_File>
/export/apps/rDock/src/rDock_2013.1_src/data/scripts/dock_solv.prm

>  <Rbt.Receptor>
prm/pocket_docking_5.prm

>  <SCORE>
-12.3653

>  <SCORE.INTER>
-10.1285

>  <SCORE.INTER.CONST>
1

>  <SCORE.INTER.POLAR>
-1.67948

>  <SCORE.INTER.ROT>
3

>  <SCORE.INTER.SOLV>
11.5246

>  <SCORE.INTER.VDW>
-10.5956

>  <SCORE.INTER.norm>
-0.460386

>  <SCORE.INTRA>
-2.23677

>  <SCORE.INTRA.DIHEDRAL>
-3.9906

>  <SCORE.INTRA.DIHEDRAL.0>
4.99603

>  <SCORE.INTRA.POLAR>
0

>  <SCORE.INTRA.POLAR.0>
0

>  <SCORE.INTRA.REPUL>
0

>  <SCORE.INTRA.REPUL.0>
0

>  <SCORE.INTRA.SOLV>
-0.750069

>  <SCORE.INTRA.SOLV.lig_0>
-74.884

>  <SCORE.INTRA.VDW>
0.13356

>  <SCORE.INTRA.VDW.0>
-0.858933

>  <SCORE.INTRA.norm>
-0.101672

>  <SCORE.RESTR>
0

>  <SCORE.RESTR.CAVITY>
0

>  <SCORE.RESTR.norm>
0

>  <SCORE.SYSTEM>
0

>  <SCORE.SYSTEM.CONST>
0

>  <SCORE.SYSTEM.DIHEDRAL>
0

>  <SCORE.SYSTEM.SOLV>
0

>  <SCORE.SYSTEM.norm>
0

>  <SCORE.heavy>
22

>  <SCORE.norm>
-0.562058

>  <RMSD>
6.648

$$$$
2et8_lig
 OpenBabel11021811433D
libRbt.so/2013.1/901 2013/11/27
 22 23  0  0  0  0  0  0  0  0999 V2000
   19.0624   12.7765   41.9776 N   0  0  0  0  0  0  0  0  0  0  0  0
   17.9125   15.6806   38.1238 N   0  0  0  0  0  0  0  0  0  0  0  0
   14.8691   15.5506   35.1340 N   0  0  0  0  0  0  0  0  0  0  0  0
   20.4459   11.5335   37.4095 O   0  0  0  0  0  0  0  0  0  0  0  0
   20.2222   12.6628   38.2893 C   0  0  2  0  0  0  0  0  0  0  0  0
   21.2487   14.2234   34.0224 N   0  0  0  0  0  0  0  0  0  0  0  0
   20.7179   11.2713   40.2949 O   0  0  0  0  0  0  0  0  0  0  0  0
   19.7471   12.1411   39.6990 C   0  0  1  0  0  0  0  0  0  0  0  0
   19.5541   14.0402   36.4709 O   0  0  0  0  0  0  0  0  0  0  0  0
   19.5193   13.2959   40.6432 C   0  0  1  0  0  0  0  0  0  0  0  0
   17.8143   13.1557   35.2489 O   0  0  0  0  0  0  0  0  0  0  0  0
   18.4616   14.2465   40.0370 C   0  0  0  0  0  0  0  0  0  0  0  0
   16.9480   16.3308   33.6710 O   0  0  0  0  0  0  0  0  0  0  0  0
   18.9900   14.7445   38.6600 C   0  0  1  0  0  0  0  0  0  0  0  0
   19.5077   15.9310   32.6101 O   0  0  0  0  0  0  0  0  0  0  0  0
   19.1021   13.6041   37.6921 C   0  0  2  0  0  0  0  0  0  0  0  0
   19.3345   13.2950   35.3185 C   0  0  1  0  0  0  0  0  0  0  0  0
   17.1117   14.4649   35.0824 C   0  0  2  0  0  0  0  0  0  0  0  0
   15.5861   14.2545   34.9904 C   0  0  0  0  0  0  0  0  0  0  0  0
   17.5907   15.1102   33.8163 C   0  0  2  0  0  0  0  0  0  0  0  0
   19.0754   15.3306   33.8396 C   0  0  1  0  0  0  0  0  0  0  0  0
   19.7561   14.0157   34.0073 C   0  0  1  0  0  0  0  0  0  0  0  0
  5  4  1  6  0  0  0
  5  8  1  0  0  0  0
  5 16  1  0  0  0  0
  8  7  1  1  0  0  0
  8 10  1  0  0  0  0
 10  1  1  1  0  0  0
 10 12  1  0  0  0  0
 11 18  1  0  0  0  0
 12 14  1  0  0  0  0
 14  2  1  6  0  0  0
 14 16  1  0  0  0  0
 16  9  1  6  0  0  0
 17  9  1  1  0  0  0
 17 11  1  0  0  0  0
 17 22  1  0  0  0  0
 18 19  1  6  0  0  0
 18 20  1  0  0  0  0
 19  3  1  0  0  0  0
 20 13  1  1  0  0  0
 20 21  1  0  0  0  0
 21 15  1  6  0  0  0
 21 22  1  0  0  0  0
 22  6  1  1  0  0  0
M  END
>  <CHROM.1>
86.89371596,57.92897241,167.23066474,18.75985161,13.97774967,36.65473039
1.27073013,-0.46171233,1.82403010

>  <Name>
2et8_lig

>  <RI>
0

>  <Rbt.Current_Directory>
/home/itssahil/PROJECTS/Mol_Feturizer/New_Systems/rnas/2et8

>  <Rbt.Executable>
rbdock ($Id: //depot/dev/client3/rdock/2013.1/src/exe/rbdock.cxx#4 $)

>  <Rbt.Library>
libRbt.so (2013.1, Build901 2013/11/27)

>  <Rbt.Parameter_File>
/export/apps/rDock/src/rDock_2013.1_src/data/scripts/dock_solv.prm

>  <Rbt.Receptor>
prm/pocket_docking_5.prm

>  <SCORE>
-13.2759

>  <SCORE.INTER>
-12.7828

>  <SCORE.INTER.CONST>
1

>  <SCORE.INTER.POLAR>
-1.23246

>  <SCORE.INTER.ROT>
3

>  <SCORE.INTER.SOLV>
17.9737

>  <SCORE.INTER.VDW>
-16.0049

>  <SCORE.INTER.norm>
-0.581036

>  <SCORE.INTRA>
-0.493141

>  <SCORE.INTRA.DIHEDRAL>
-1.28931

>  <SCORE.INTRA.DIHEDRAL.0>
4.99603

>  <SCORE.INTRA.POLAR>
0

>  <SCORE.INTRA.POLAR.0>
0

>  <SCORE.INTRA.REPUL>
0

>  <SCORE.INTRA.REPUL.0>
0

>  <SCORE.INTRA.SOLV>
1.46323

>  <SCORE.INTRA.SOLV.lig_0>
-74.884

>  <SCORE.INTRA.VDW>
-0.580101

>  <SCORE.INTRA.VDW.0>
-0.858933

>  <SCORE.INTRA.norm>
-0.0224155

>  <SCORE.RESTR>
0

>  <SCORE.RESTR.CAVITY>
0

>  <SCORE.RESTR.norm>
0

>  <SCORE.SYSTEM>
0

>  <SCORE.SYSTEM.CONST>
0

>  <SCORE.SYSTEM.DIHEDRAL>
0

>  <SCORE.SYSTEM.SOLV>
0

>  <SCORE.SYSTEM.norm>
0

>  <SCORE.heavy>
22

>  <SCORE.norm>
-0.603451

>  <RMSD>
6.653

$$$$
2et8_lig
 OpenBabel11021811433D
libRbt.so/2013.1/901 2013/11/27
 22 23  0  0  0  0  0  0  0  0999 V2000
   18.9722   12.5565   41.9865 N   0  0  0  0  0  0  0  0  0  0  0  0
   17.7862   15.2254   37.9767 N   0  0  0  0  0  0  0  0  0  0  0  0
   18.4742   18.5417   35.0950 N   0  0  0  0  0  0  0  0  0  0  0  0
   21.0556   11.5767   37.6246 O   0  0  0  0  0  0  0  0  0  0  0  0
   20.5440   12.6493   38.4535 C   0  0  2  0  0  0  0  0  0  0  0  0
   20.0576   12.8383   33.7641 N   0  0  0  0  0  0  0  0  0  0  0  0
   21.0402   11.3608   40.5265 O   0  0  0  0  0  0  0  0  0  0  0  0
   20.0087   12.0517   39.8104 C   0  0  1  0  0  0  0  0  0  0  0  0
   19.8603   13.8942   36.5473 O   0  0  0  0  0  0  0  0  0  0  0  0
   19.4815   13.1487   40.7023 C   0  0  1  0  0  0  0  0  0  0  0  0
   18.7097   15.7458   35.8058 O   0  0  0  0  0  0  0  0  0  0  0  0
   18.3524   13.9043   39.9648 C   0  0  0  0  0  0  0  0  0  0  0  0
   21.6553   17.3295   34.3442 O   0  0  0  0  0  0  0  0  0  0  0  0
   18.9402   14.4877   38.6467 C   0  0  1  0  0  0  0  0  0  0  0  0
   21.4642   15.0504   32.7298 O   0  0  0  0  0  0  0  0  0  0  0  0
   19.3544   13.3850   37.7180 C   0  0  2  0  0  0  0  0  0  0  0  0
   19.0180   14.2785   35.5108 C   0  0  1  0  0  0  0  0  0  0  0  0
   19.9201   16.6220   35.7544 C   0  0  2  0  0  0  0  0  0  0  0  0
   19.5390   18.0910   36.0319 C   0  0  0  0  0  0  0  0  0  0  0  0
   20.5248   16.5269   34.3854 C   0  0  2  0  0  0  0  0  0  0  0  0
   20.9065   15.1142   34.0504 C   0  0  1  0  0  0  0  0  0  0  0  0
   19.6882   14.2583   34.1083 C   0  0  1  0  0  0  0  0  0  0  0  0
  5  4  1  6  0  0  0
  5  8  1  0  0  0  0
  5 16  1  0  0  0  0
  8  7  1  1  0  0  0
  8 10  1  0  0  0  0
 10  1  1  1  0  0  0
 10 12  1  0  0  0  0
 11 18  1  0  0  0  0
 12 14  1  0  0  0  0
 14  2  1  6  0  0  0
 14 16  1  0  0  0  0
 16  9  1  6  0  0  0
 17  9  1  1  0  0  0
 17 11  1  0  0  0  0
 17 22  1  0  0  0  0
 18 19  1  6  0  0  0
 18 20  1  0  0  0  0
 19  3  1  0  0  0  0
 20 13  1  1  0  0  0
 20 21  1  0  0  0  0
 21 15  1  6  0  0  0
 21 22  1  0  0  0  0
 22  6  1  1  0  0  0
M  END
>  <CHROM.1>
162.45586093,89.41897977,-54.88946356,19.81954652,14.47856944,36.86329008
1.72486856,-1.06722517,2.28331890

>  <Name>
2et8_lig

>  <RI>
3.14397e+07

>  <Rbt.Current_Directory>
/home/itssahil/PROJECTS/Mol_Feturizer/New_Systems/rnas/2et8

>  <Rbt.Executable>
rbdock ($Id: //depot/dev/client3/rdock/2013.1/src/exe/rbdock.cxx#4 $)

>  <Rbt.Library>
libRbt.so (2013.1, Build901 2013/11/27)

>  <Rbt.Parameter_File>
/export/apps/rDock/src/rDock_2013.1_src/data/scripts/dock_solv.prm

>  <Rbt.Receptor>
prm/pocket_docking_6.prm

>  <SCORE>
-12.9777

>  <SCORE.INTER>
-14.6544

>  <SCORE.INTER.CONST>
1

>  <SCORE.INTER.POLAR>
-2.06447

>  <SCORE.INTER.ROT>
3

>  <SCORE.INTER.SOLV>
16.6908

>  <SCORE.INTER.VDW>
-14.0516

>  <SCORE.INTER.norm>
-0.666109

>  <SCORE.INTRA>
1.67675

>  <SCORE.INTRA.DIHEDRAL>
0.0745952

>  <SCORE.INTRA.DIHEDRAL.0>
4.99603

>  <SCORE.INTRA.POLAR>
0

>  <SCORE.INTRA.POLAR.0>
0

>  <SCORE.INTRA.REPUL>
0

>  <SCORE.INTRA.REPUL.0>
0

>  <SCORE.INTRA.SOLV>
3.09544

>  <SCORE.INTRA.SOLV.lig_0>
-74.884

>  <SCORE.INTRA.VDW>
0.091728

>  <SCORE.INTRA.VDW.0>
-0.858933

>  <SCORE.INTRA.norm>
0.0762157

>  <SCORE.RESTR>
0

>  <SCORE.RESTR.CAVITY>
0

>  <SCORE.RESTR.norm>
0

>  <SCORE.SYSTEM>
0

>  <SCORE.SYSTEM.CONST>
0

>  <SCORE.SYSTEM.DIHEDRAL>
0

>  <SCORE.SYSTEM.SOLV>
0

>  <SCORE.SYSTEM.norm>
0

>  <SCORE.heavy>
22

>  <SCORE.norm>
-0.589894

>  <RMSD>
6.660

$$$$
2et8_lig
 OpenBabel11021811433D
libRbt.so/2013.1/901 2013/11/27
 22 23  0  0  0  0  0  0  0  0999 V2000
   18.9438   12.6845   41.9625 N   0  0  0  0  0  0  0  0  0  0  0  0
   17.7433   15.2660   37.9002 N   0  0  0  0  0  0  0  0  0  0  0  0
   18.3625   18.4846   34.8810 N   0  0  0  0  0  0  0  0  0  0  0  0
   20.9857   11.5879   37.6089 O   0  0  0  0  0  0  0  0  0  0  0  0
   20.4878   12.6833   38.4161 C   0  0  2  0  0  0  0  0  0  0  0  0
   20.0217   12.7652   33.7314 N   0  0  0  0  0  0  0  0  0  0  0  0
   20.9921   11.4407   40.5151 O   0  0  0  0  0  0  0  0  0  0  0  0
   19.9595   12.1214   39.7910 C   0  0  1  0  0  0  0  0  0  0  0  0
   19.7971   13.8873   36.4865 O   0  0  0  0  0  0  0  0  0  0  0  0
   19.4467   13.2427   40.6608 C   0  0  1  0  0  0  0  0  0  0  0  0
   18.6133   15.6973   35.6958 O   0  0  0  0  0  0  0  0  0  0  0  0
   18.3166   13.9883   39.9144 C   0  0  0  0  0  0  0  0  0  0  0  0
   21.5320   17.2994   34.2005 O   0  0  0  0  0  0  0  0  0  0  0  0
   18.8978   14.5365   38.5783 C   0  0  1  0  0  0  0  0  0  0  0  0
   21.3886   14.9768   32.6442 O   0  0  0  0  0  0  0  0  0  0  0  0
   19.2972   13.4094   37.6728 C   0  0  2  0  0  0  0  0  0  0  0  0
   18.9503   14.2291   35.4388 C   0  0  1  0  0  0  0  0  0  0  0  0
   19.8069   16.5949   35.6246 C   0  0  2  0  0  0  0  0  0  0  0  0
   19.3973   18.0629   35.8639 C   0  0  0  0  0  0  0  0  0  0  0  0
   20.4169   16.4766   34.2598 C   0  0  2  0  0  0  0  0  0  0  0  0
   20.8263   15.0635   33.9615 C   0  0  1  0  0  0  0  0  0  0  0  0
   19.6243   14.1861   34.0387 C   0  0  1  0  0  0  0  0  0  0  0  0
  5  4  1  6  0  0  0
  5  8  1  0  0  0  0
  5 16  1  0  0  0  0
  8  7  1  1  0  0  0
  8 10  1  0  0  0  0
 10  1  1  1  0  0  0
 10 12  1  0  0  0  0
 11 18  1  0  0  0  0
 12 14  1  0  0  0  0
 14  2  1  6  0  0  0
 14 16  1  0  0  0  0
 16  9  1  6  0  0  0
 17  9  1  1  0  0  0
 17 11  1  0  0  0  0
 17 22  1  0  0  0  0
 18 19  1  6  0  0  0
 18 20  1  0  0  0  0
 19  3  1  0  0  0  0
 20 13  1  1  0  0  0
 20 21  1  0  0  0  0
 21 15  1  6  0  0  0
 21 22  1  0  0  0  0
 22  6  1  1  0  0  0
M  END
>  <CHROM.1>
161.23460930,88.84861632,-56.98894854,19.74883201,14.48021494,36.78643285
1.70535977,-1.06517769,2.24360966

>  <Name>
2et8_lig

>  <RI>
3.42619e+07

>  <Rbt.Current_Directory>
/home/itssahil/PROJECTS/Mol_Feturizer/New_Systems/rnas/2et8

>  <Rbt.Executable>
rbdock ($Id: //depot/dev/client3/rdock/2013.1/src/exe/rbdock.cxx#4 $)

>  <Rbt.Library>
libRbt.so (2013.1, Build901 2013/11/27)

>  <Rbt.Parameter_File>
/export/apps/rDock/src/rDock_2013.1_src/data/scripts/dock_solv.prm

>  <Rbt.Receptor>
prm/pocket_docking_4.prm

>  <SCORE>
-12.964

>  <SCORE.INTER>
-14.7108

>  <SCORE.INTER.CONST>
1

>  <SCORE.INTER.POLAR>
-2.07622

>  <SCORE.INTER.ROT>
3

>  <SCORE.INTER.SOLV>
16.977

>  <SCORE.INTER.VDW>
-14.1455

>  <SCORE.INTER.norm>
-0.668674

>  <SCORE.INTRA>
1.74684

>  <SCORE.INTRA.DIHEDRAL>
0.0897012

>  <SCORE.INTRA.DIHEDRAL.0>
4.99603

>  <SCORE.INTRA.POLAR>
0

>  <SCORE.INTRA.POLAR.0>
0

>  <SCORE.INTRA.REPUL>
0

>  <SCORE.INTRA.REPUL.0>
0

>  <SCORE.INTRA.SOLV>
3.17118

>  <SCORE.INTRA.SOLV.lig_0>
-74.884

>  <SCORE.INTRA.VDW>
0.116405

>  <SCORE.INTRA.VDW.0>
-0.858933

>  <SCORE.INTRA.norm>
0.079402

>  <SCORE.RESTR>
0

>  <SCORE.RESTR.CAVITY>
0

>  <SCORE.RESTR.norm>
0

>  <SCORE.SYSTEM>
0

>  <SCORE.SYSTEM.CONST>
0

>  <SCORE.SYSTEM.DIHEDRAL>
0

>  <SCORE.SYSTEM.SOLV>
0

>  <SCORE.SYSTEM.norm>
0

>  <SCORE.heavy>
22

>  <SCORE.norm>
-0.589272

>  <RMSD>
6.684

$$$$
2et8_lig
 OpenBabel11021811433D
libRbt.so/2013.1/901 2013/11/27
 22 23  0  0  0  0  0  0  0  0999 V2000
   19.0592   12.8202   41.9451 N   0  0  0  0  0  0  0  0  0  0  0  0
   17.7501   15.6501   38.0868 N   0  0  0  0  0  0  0  0  0  0  0  0
   14.9014   14.2078   35.7766 N   0  0  0  0  0  0  0  0  0  0  0  0
   20.3655   11.5564   37.3600 O   0  0  0  0  0  0  0  0  0  0  0  0
   20.1352   12.6904   38.2321 C   0  0  2  0  0  0  0  0  0  0  0  0
   21.3478   13.9485   34.1632 N   0  0  0  0  0  0  0  0  0  0  0  0
   20.7108   11.3351   40.2410 O   0  0  0  0  0  0  0  0  0  0  0  0
   19.7057   12.1743   39.6584 C   0  0  1  0  0  0  0  0  0  0  0  0
   19.3919   14.0298   36.4144 O   0  0  0  0  0  0  0  0  0  0  0  0
   19.4722   13.3344   40.5945 C   0  0  1  0  0  0  0  0  0  0  0  0
   17.7367   13.1767   35.0597 O   0  0  0  0  0  0  0  0  0  0  0  0
   18.3780   14.2524   40.0027 C   0  0  0  0  0  0  0  0  0  0  0  0
   17.2639   16.2897   33.2140 O   0  0  0  0  0  0  0  0  0  0  0  0
   18.8621   14.7464   38.6080 C   0  0  1  0  0  0  0  0  0  0  0  0
   19.8892   15.6647   32.4694 O   0  0  0  0  0  0  0  0  0  0  0  0
   18.9791   13.5975   37.6508 C   0  0  2  0  0  0  0  0  0  0  0  0
   19.2466   13.2261   35.2898 C   0  0  1  0  0  0  0  0  0  0  0  0
   17.1472   14.5131   34.7406 C   0  0  2  0  0  0  0  0  0  0  0  0
   15.6295   14.3916   34.4918 C   0  0  0  0  0  0  0  0  0  0  0  0
   17.8023   15.0438   33.5004 C   0  0  2  0  0  0  0  0  0  0  0  0
   19.2875   15.1734   33.6759 C   0  0  1  0  0  0  0  0  0  0  0  0
   19.8547   13.8327   33.9941 C   0  0  1  0  0  0  0  0  0  0  0  0
  5  4  1  6  0  0  0
  5  8  1  0  0  0  0
  5 16  1  0  0  0  0
  8  7  1  1  0  0  0
  8 10  1  0  0  0  0
 10  1  1  1  0  0  0
 10 12  1  0  0  0  0
 11 18  1  0  0  0  0
 12 14  1  0  0  0  0
 14  2  1  6  0  0  0
 14 16  1  0  0  0  0
 16  9  1  6  0  0  0
 17  9  1  1  0  0  0
 17 11  1  0  0  0  0
 17 22  1  0  0  0  0
 18 19  1  6  0  0  0
 18 20  1  0  0  0  0
 19  3  1  0  0  0  0
 20 13  1  1  0  0  0
 20 21  1  0  0  0  0
 21 15  1  6  0  0  0
 21 22  1  0  0  0  0
 22  6  1  1  0  0  0
M  END
>  <CHROM.1>
82.41292905,69.05528864,75.08221695,18.77740737,13.88697761,36.56777752,1.34245549
-0.38069812,1.82181596

>  <Name>
2et8_lig

>  <RI>
3.14397e+07

>  <Rbt.Current_Directory>
/home/itssahil/PROJECTS/Mol_Feturizer/New_Systems/rnas/2et8

>  <Rbt.Executable>
rbdock ($Id: //depot/dev/client3/rdock/2013.1/src/exe/rbdock.cxx#4 $)

>  <Rbt.Library>
libRbt.so (2013.1, Build901 2013/11/27)

>  <Rbt.Parameter_File>
/export/apps/rDock/src/rDock_2013.1_src/data/scripts/dock_solv.prm

>  <Rbt.Receptor>
prm/pocket_docking_6.prm

>  <SCORE>
-11.7155

>  <SCORE.INTER>
-10.3659

>  <SCORE.INTER.CONST>
1

>  <SCORE.INTER.POLAR>
-1.12088

>  <SCORE.INTER.ROT>
3

>  <SCORE.INTER.SOLV>
22.3995

>  <SCORE.INTER.VDW>
-16.2408

>  <SCORE.INTER.norm>
-0.471176

>  <SCORE.INTRA>
-1.34964

>  <SCORE.INTRA.DIHEDRAL>
-1.48951

>  <SCORE.INTRA.DIHEDRAL.0>
4.99603

>  <SCORE.INTRA.POLAR>
0

>  <SCORE.INTRA.POLAR.0>
0

>  <SCORE.INTRA.REPUL>
0

>  <SCORE.INTRA.REPUL.0>
0

>  <SCORE.INTRA.SOLV>
0.413769

>  <SCORE.INTRA.SOLV.lig_0>
-74.884

>  <SCORE.INTRA.VDW>
-0.811772

>  <SCORE.INTRA.VDW.0>
-0.858933

>  <SCORE.INTRA.norm>
-0.0613474

>  <SCORE.RESTR>
0

>  <SCORE.RESTR.CAVITY>
0

>  <SCORE.RESTR.norm>
0

>  <SCORE.SYSTEM>
0

>  <SCORE.SYSTEM.CONST>
0

>  <SCORE.SYSTEM.DIHEDRAL>
0

>  <SCORE.SYSTEM.SOLV>
0

>  <SCORE.SYSTEM.norm>
0

>  <SCORE.heavy>
22

>  <SCORE.norm>
-0.532523

>  <RMSD>
6.685

$$$$
2et8_lig
 OpenBabel11021811433D
libRbt.so/2013.1/901 2013/11/27
 22 23  0  0  0  0  0  0  0  0999 V2000
   18.9919   12.6898   41.9780 N   0  0  0  0  0  0  0  0  0  0  0  0
   17.6850   15.1917   37.8988 N   0  0  0  0  0  0  0  0  0  0  0  0
   18.0918   18.3276   34.8135 N   0  0  0  0  0  0  0  0  0  0  0  0
   20.9889   11.5687   37.6098 O   0  0  0  0  0  0  0  0  0  0  0  0
   20.4832   12.6662   38.4092 C   0  0  2  0  0  0  0  0  0  0  0  0
   19.9980   12.6705   33.7369 N   0  0  0  0  0  0  0  0  0  0  0  0
   21.0409   11.4626   40.5174 O   0  0  0  0  0  0  0  0  0  0  0  0
   19.9855   12.1144   39.7994 C   0  0  1  0  0  0  0  0  0  0  0  0
   19.7424   13.8303   36.4736 O   0  0  0  0  0  0  0  0  0  0  0  0
   19.4653   13.2385   40.6613 C   0  0  1  0  0  0  0  0  0  0  0  0
   18.4798   15.5754   35.6593 O   0  0  0  0  0  0  0  0  0  0  0  0
   18.3111   13.9531   39.9217 C   0  0  0  0  0  0  0  0  0  0  0  0
   21.3206   17.2711   34.1181 O   0  0  0  0  0  0  0  0  0  0  0  0
   18.8624   14.4927   38.5696 C   0  0  1  0  0  0  0  0  0  0  0  0
   21.2654   14.9176   32.6030 O   0  0  0  0  0  0  0  0  0  0  0  0
   19.2688   13.3603   37.6739 C   0  0  2  0  0  0  0  0  0  0  0  0
   18.8761   14.1182   35.4256 C   0  0  1  0  0  0  0  0  0  0  0  0
   19.6345   16.5204   35.5651 C   0  0  2  0  0  0  0  0  0  0  0  0
   19.1653   17.9741   35.7817 C   0  0  0  0  0  0  0  0  0  0  0  0
   20.2411   16.4037   34.1987 C   0  0  2  0  0  0  0  0  0  0  0  0
   20.7074   15.0039   33.9223 C   0  0  1  0  0  0  0  0  0  0  0  0
   19.5435   14.0788   34.0222 C   0  0  1  0  0  0  0  0  0  0  0  0
  5  4  1  6  0  0  0
  5  8  1  0  0  0  0
  5 16  1  0  0  0  0
  8  7  1  1  0  0  0
  8 10  1  0  0  0  0
 10  1  1  1  0  0  0
 10 12  1  0  0  0  0
 11 18  1  0  0  0  0
 12 14  1  0  0  0  0
 14  2  1  6  0  0  0
 14 16  1  0  0  0  0
 16  9  1  6  0  0  0
 17  9  1  1  0  0  0
 17 11  1  0  0  0  0
 17 22  1  0  0  0  0
 18 19  1  6  0  0  0
 18 20  1  0  0  0  0
 19  3  1  0  0  0  0
 20 13  1  1  0  0  0
 20 21  1  0  0  0  0
 21 15  1  6  0  0  0
 21 22  1  0  0  0  0
 22  6  1  1  0  0  0
M  END
>  <CHROM.1>
160.01333724,88.46368569,-56.01059359,19.67297906,14.42360114,36.76394140
1.64460757,-1.04511468,2.17612089

>  <Name>
2et8_lig

>  <RI>
0

>  <Rbt.Current_Directory>
/home/itssahil/PROJECTS/Mol_Feturizer/New_Systems/rnas/2et8

>  <Rbt.Executable>
rbdock ($Id: //depot/dev/client3/rdock/2013.1/src/exe/rbdock.cxx#4 $)

>  <Rbt.Library>
libRbt.so (2013.1, Build901 2013/11/27)

>  <Rbt.Parameter_File>
/export/apps/rDock/src/rDock_2013.1_src/data/scripts/dock_solv.prm

>  <Rbt.Receptor>
prm/pocket_docking_5.prm

>  <SCORE>
-12.9562

>  <SCORE.INTER>
-14.7534

>  <SCORE.INTER.CONST>
1

>  <SCORE.INTER.POLAR>
-2.04599

>  <SCORE.INTER.ROT>
3

>  <SCORE.INTER.SOLV>
17.1813

>  <SCORE.INTER.VDW>
-14.3428

>  <SCORE.INTER.norm>
-0.67061

>  <SCORE.INTRA>
1.79724

>  <SCORE.INTRA.DIHEDRAL>
0.233342

>  <SCORE.INTRA.DIHEDRAL.0>
4.99603

>  <SCORE.INTRA.POLAR>
0

>  <SCORE.INTRA.POLAR.0>
0

>  <SCORE.INTRA.REPUL>
0

>  <SCORE.INTRA.REPUL.0>
0

>  <SCORE.INTRA.SOLV>
3.19094

>  <SCORE.INTRA.SOLV.lig_0>
-74.884

>  <SCORE.INTRA.VDW>
0.085102

>  <SCORE.INTRA.VDW.0>
-0.858933

>  <SCORE.INTRA.norm>
0.0816929

>  <SCORE.RESTR>
0

>  <SCORE.RESTR.CAVITY>
0

>  <SCORE.RESTR.norm>
0

>  <SCORE.SYSTEM>
0

>  <SCORE.SYSTEM.CONST>
0

>  <SCORE.SYSTEM.DIHEDRAL>
0

>  <SCORE.SYSTEM.SOLV>
0

>  <SCORE.SYSTEM.norm>
0

>  <SCORE.heavy>
22

>  <SCORE.norm>
-0.588917

>  <RMSD>
6.695

$$$$
2et8_lig
 OpenBabel11021811433D
libRbt.so/2013.1/901 2013/11/27
 22 23  0  0  0  0  0  0  0  0999 V2000
   23.9319   16.3393   38.0268 N   0  0  0  0  0  0  0  0  0  0  0  0
   23.0647   16.7268   33.1580 N   0  0  0  0  0  0  0  0  0  0  0  0
   19.4399   17.9352   30.0250 N   0  0  0  0  0  0  0  0  0  0  0  0
   20.3748   13.6653   35.8999 O   0  0  0  0  0  0  0  0  0  0  0  0
   21.6891   14.2348   35.6812 C   0  0  2  0  0  0  0  0  0  0  0  0
   20.4757   11.8370   32.3649 N   0  0  0  0  0  0  0  0  0  0  0  0
   22.1965   14.1444   38.1181 O   0  0  0  0  0  0  0  0  0  0  0  0
   22.1455   15.0091   36.9763 C   0  0  1  0  0  0  0  0  0  0  0  0
   21.2518   14.5386   33.3645 O   0  0  0  0  0  0  0  0  0  0  0  0
   23.5195   15.6023   36.7835 C   0  0  1  0  0  0  0  0  0  0  0  0
   19.1784   15.3795   32.8200 O   0  0  0  0  0  0  0  0  0  0  0  0
   23.4948   16.5561   35.5671 C   0  0  0  0  0  0  0  0  0  0  0  0
   19.8343   15.4175   29.2298 O   0  0  0  0  0  0  0  0  0  0  0  0
   23.0578   15.7369   34.3177 C   0  0  1  0  0  0  0  0  0  0  0  0
   19.9397   12.6641   29.7248 O   0  0  0  0  0  0  0  0  0  0  0  0
   21.6474   15.2497   34.4707 C   0  0  2  0  0  0  0  0  0  0  0  0
   19.9363   14.1141   33.2193 C   0  0  1  0  0  0  0  0  0  0  0  0
   19.6213   15.9394   31.5063 C   0  0  2  0  0  0  0  0  0  0  0  0
   18.8009   17.1957   31.1473 C   0  0  0  0  0  0  0  0  0  0  0  0
   19.4098   14.9011   30.4452 C   0  0  2  0  0  0  0  0  0  0  0  0
   20.1752   13.6450   30.7453 C   0  0  1  0  0  0  0  0  0  0  0  0
   19.7204   13.1044   32.0573 C   0  0  1  0  0  0  0  0  0  0  0  0
  5  4  1  1  0  0  0
  5  8  1  0  0  0  0
  5 16  1  0  0  0  0
  8  7  1  1  0  0  0
  8 10  1  0  0  0  0
 10  1  1  1  0  0  0
 10 12  1  0  0  0  0
 11 18  1  0  0  0  0
 12 14  1  0  0  0  0
 14  2  1  6  0  0  0
 14 16  1  0  0  0  0
 16  9  1  6  0  0  0
 17  9  1  6  0  0  0
 17 11  1  0  0  0  0
 17 22  1  0  0  0  0
 18 19  1  6  0  0  0
 18 20  1  0  0  0  0
 19  3  1  0  0  0  0
 20 13  1  6  0  0  0
 20 21  1  0  0  0  0
 21 15  1  6  0  0  0
 21 22  1  0  0  0  0
 22  6  1  1  0  0  0
M  END
>  <CHROM.1>
72.85994173,76.01046746,166.52807851,21.01725638,14.97829965,33.42332844
-0.42794589,-1.05334763,-0.53464575

>  <Name>
2et8_lig

>  <RI>
2.82936e+07

>  <Rbt.Current_Directory>
/home/itssahil/PROJECTS/Mol_Feturizer/New_Systems/rnas/2et8

>  <Rbt.Executable>
rbdock ($Id: //depot/dev/client3/rdock/2013.1/src/exe/rbdock.cxx#4 $)

>  <Rbt.Library>
libRbt.so (2013.1, Build901 2013/11/27)

>  <Rbt.Parameter_File>
/export/apps/rDock/src/rDock_2013.1_src/data/scripts/dock_solv.prm

>  <Rbt.Receptor>
prm/pocket_docking_8.prm

>  <SCORE>
-9.84499

>  <SCORE.INTER>
-9.0303

>  <SCORE.INTER.CONST>
1

>  <SCORE.INTER.POLAR>
-1.51548

>  <SCORE.INTER.ROT>
3

>  <SCORE.INTER.SOLV>
13.9097

>  <SCORE.INTER.VDW>
-11.2052

>  <SCORE.INTER.norm>
-0.410468

>  <SCORE.INTRA>
-0.814694

>  <SCORE.INTRA.DIHEDRAL>
-2.24707

>  <SCORE.INTRA.DIHEDRAL.0>
4.99603

>  <SCORE.INTRA.POLAR>
0

>  <SCORE.INTRA.POLAR.0>
0

>  <SCORE.INTRA.REPUL>
0

>  <SCORE.INTRA.REPUL.0>
0

>  <SCORE.INTRA.SOLV>
0.645911

>  <SCORE.INTRA.SOLV.lig_0>
-74.884

>  <SCORE.INTRA.VDW>
-0.0141148

>  <SCORE.INTRA.VDW.0>
-0.858933

>  <SCORE.INTRA.norm>
-0.0370316

>  <SCORE.RESTR>
0

>  <SCORE.RESTR.CAVITY>
0

>  <SCORE.RESTR.norm>
0

>  <SCORE.SYSTEM>
0

>  <SCORE.SYSTEM.CONST>
0

>  <SCORE.SYSTEM.DIHEDRAL>
0

>  <SCORE.SYSTEM.SOLV>
0

>  <SCORE.SYSTEM.norm>
0

>  <SCORE.heavy>
22

>  <SCORE.norm>
-0.4475

>  <RMSD>
6.700

$$$$
2et8_lig
 OpenBabel11021811433D
libRbt.so/2013.1/901 2013/11/27
 22 23  0  0  0  0  0  0  0  0999 V2000
   18.7650   15.0335   38.3887 N   0  0  0  0  0  0  0  0  0  0  0  0
   19.2377   12.3179   42.5130 N   0  0  0  0  0  0  0  0  0  0  0  0
   22.6494    6.0930   42.8550 N   0  0  0  0  0  0  0  0  0  0  0  0
   21.8542   11.1906   38.5118 O   0  0  0  0  0  0  0  0  0  0  0  0
   20.5857   11.6787   39.0139 C   0  0  2  0  0  0  0  0  0  0  0  0
   23.3583   11.9867   41.6095 N   0  0  0  0  0  0  0  0  0  0  0  0
   20.2862   13.1292   37.0114 O   0  0  0  0  0  0  0  0  0  0  0  0
   20.3192   13.1241   38.4442 C   0  0  1  0  0  0  0  0  0  0  0  0
   20.8465   10.4779   41.0488 O   0  0  0  0  0  0  0  0  0  0  0  0
   18.9960   13.6542   38.9392 C   0  0  1  0  0  0  0  0  0  0  0  0
   21.5400    8.7442   42.3963 O   0  0  0  0  0  0  0  0  0  0  0  0
   19.0048   13.6784   40.4849 C   0  0  0  0  0  0  0  0  0  0  0  0
   24.0024    7.5074   40.0029 O   0  0  0  0  0  0  0  0  0  0  0  0
   19.2518   12.2272   40.9910 C   0  0  1  0  0  0  0  0  0  0  0  0
   25.0960   10.0171   40.5885 O   0  0  0  0  0  0  0  0  0  0  0  0
   20.6177   11.7526   40.5921 C   0  0  2  0  0  0  0  0  0  0  0  0
   21.6589   10.2481   42.1528 C   0  0  1  0  0  0  0  0  0  0  0  0
   22.0698    7.9225   41.2651 C   0  0  2  0  0  0  0  0  0  0  0  0
   21.9477    6.4178   41.5834 C   0  0  0  0  0  0  0  0  0  0  0  0
   23.5166    8.2605   41.0616 C   0  0  2  0  0  0  0  0  0  0  0  0
   23.7028    9.7192   40.7597 C   0  0  1  0  0  0  0  0  0  0  0  0
   23.1680   10.5197   41.8971 C   0  0  1  0  0  0  0  0  0  0  0  0
  5  4  1  6  0  0  0
  5  8  1  0  0  0  0
  5 16  1  0  0  0  0
  8  7  1  6  0  0  0
  8 10  1  0  0  0  0
 10  1  1  6  0  0  0
 10 12  1  0  0  0  0
 11 18  1  0  0  0  0
 12 14  1  0  0  0  0
 14  2  1  1  0  0  0
 14 16  1  0  0  0  0
 16  9  1  1  0  0  0
 17  9  1  6  0  0  0
 17 11  1  0  0  0  0
 17 22  1  0  0  0  0
 18 19  1  1  0  0  0
 18 20  1  0  0  0  0
 19  3  1  0  0  0  0
 20 13  1  6  0  0  0
 20 21  1  0  0  0  0
 21 15  1  1  0  0  0
 21 22  1  0  0  0  0
 22  6  1  6  0  0  0
M  END
>  <CHROM.1>
142.10903470,174.88943551,-56.52983798,21.50940244,10.68664828,40.52774550
-2.22950033,-0.60507369,2.31223895

>  <Name>
2et8_lig

>  <RI>
2.82936e+07

>  <Rbt.Current_Directory>
/home/itssahil/PROJECTS/Mol_Feturizer/New_Systems/rnas/2et8

>  <Rbt.Executable>
rbdock ($Id: //depot/dev/client3/rdock/2013.1/src/exe/rbdock.cxx#4 $)

>  <Rbt.Library>
libRbt.so (2013.1, Build901 2013/11/27)

>  <Rbt.Parameter_File>
/export/apps/rDock/src/rDock_2013.1_src/data/scripts/dock_solv.prm

>  <Rbt.Receptor>
prm/pocket_docking_8.prm

>  <SCORE>
-17.6098

>  <SCORE.INTER>
-18.1296

>  <SCORE.INTER.CONST>
1

>  <SCORE.INTER.POLAR>
-0.958516

>  <SCORE.INTER.ROT>
3

>  <SCORE.INTER.SOLV>
15.2915

>  <SCORE.INTER.VDW>
-19.5885

>  <SCORE.INTER.norm>
-0.824072

>  <SCORE.INTRA>
0.519756

>  <SCORE.INTRA.DIHEDRAL>
0.259835

>  <SCORE.INTRA.DIHEDRAL.0>
4.99603

>  <SCORE.INTRA.POLAR>
0

>  <SCORE.INTRA.POLAR.0>
0

>  <SCORE.INTRA.REPUL>
0

>  <SCORE.INTRA.REPUL.0>
0

>  <SCORE.INTRA.SOLV>
3.10874

>  <SCORE.INTRA.SOLV.lig_0>
-74.884

>  <SCORE.INTRA.VDW>
-1.16453

>  <SCORE.INTRA.VDW.0>
-0.858933

>  <SCORE.INTRA.norm>
0.0236253

>  <SCORE.RESTR>
0

>  <SCORE.RESTR.CAVITY>
0

>  <SCORE.RESTR.norm>
0

>  <SCORE.SYSTEM>
0

>  <SCORE.SYSTEM.CONST>
0

>  <SCORE.SYSTEM.DIHEDRAL>
0

>  <SCORE.SYSTEM.SOLV>
0

>  <SCORE.SYSTEM.norm>
0

>  <SCORE.heavy>
22

>  <SCORE.norm>
-0.800447

>  <RMSD>
6.714

$$$$
2et8_lig
 OpenBabel11021811433D
libRbt.so/2013.1/901 2013/11/27
 22 23  0  0  0  0  0  0  0  0999 V2000
   18.5699   14.9241   38.2877 N   0  0  0  0  0  0  0  0  0  0  0  0
   19.2140   12.3616   42.4861 N   0  0  0  0  0  0  0  0  0  0  0  0
   20.4304    6.3291   42.4728 N   0  0  0  0  0  0  0  0  0  0  0  0
   21.8944   11.2877   38.5126 O   0  0  0  0  0  0  0  0  0  0  0  0
   20.5980   11.7092   39.0035 C   0  0  2  0  0  0  0  0  0  0  0  0
   23.5945   11.9359   41.0940 N   0  0  0  0  0  0  0  0  0  0  0  0
   20.2071   13.0807   36.9614 O   0  0  0  0  0  0  0  0  0  0  0  0
   20.2410   13.1184   38.3937 C   0  0  1  0  0  0  0  0  0  0  0  0
   20.9345   10.5854   41.0710 O   0  0  0  0  0  0  0  0  0  0  0  0
   18.8873   13.5782   38.8764 C   0  0  1  0  0  0  0  0  0  0  0  0
   21.6911    8.9824   42.5409 O   0  0  0  0  0  0  0  0  0  0  0  0
   18.8952   13.6467   40.4209 C   0  0  0  0  0  0  0  0  0  0  0  0
   23.7105    7.2521   40.0410 O   0  0  0  0  0  0  0  0  0  0  0  0
   19.2331   12.2288   40.9672 C   0  0  1  0  0  0  0  0  0  0  0  0
   25.0392    9.7144   40.1351 O   0  0  0  0  0  0  0  0  0  0  0  0
   20.6259   11.8298   40.5789 C   0  0  2  0  0  0  0  0  0  0  0  0
   21.8748   10.4285   42.0823 C   0  0  1  0  0  0  0  0  0  0  0  0
   22.0033    7.9835   41.4731 C   0  0  2  0  0  0  0  0  0  0  0  0
   21.8266    6.5464   42.0057 C   0  0  0  0  0  0  0  0  0  0  0  0
   23.4272    8.1704   41.0413 C   0  0  2  0  0  0  0  0  0  0  0  0
   23.6664    9.5587   40.5228 C   0  0  1  0  0  0  0  0  0  0  0  0
   23.3487   10.5378   41.6002 C   0  0  1  0  0  0  0  0  0  0  0  0
  5  4  1  6  0  0  0
  5  8  1  0  0  0  0
  5 16  1  0  0  0  0
  8  7  1  6  0  0  0
  8 10  1  0  0  0  0
 10  1  1  6  0  0  0
 10 12  1  0  0  0  0
 11 18  1  0  0  0  0
 12 14  1  0  0  0  0
 14  2  1  1  0  0  0
 14 16  1  0  0  0  0
 16  9  1  1  0  0  0
 17  9  1  6  0  0  0
 17 11  1  0  0  0  0
 17 22  1  0  0  0  0
 18 19  1  1  0  0  0
 18 20  1  0  0  0  0
 19  3  1  0  0  0  0
 20 13  1  6  0  0  0
 20 21  1  0  0  0  0
 21 15  1  1  0  0  0
 21 22  1  0  0  0  0
 22  6  1  6  0  0  0
M  END
>  <CHROM.1>
134.86699283,167.76821890,59.37800961,21.39273280,10.68951864,40.45806881
2.14632532,0.47801617,-0.70605849

>  <Name>
2et8_lig

>  <RI>
2.82936e+07

>  <Rbt.Current_Directory>
/home/itssahil/PROJECTS/Mol_Feturizer/New_Systems/rnas/2et8

>  <Rbt.Executable>
rbdock ($Id: //depot/dev/client3/rdock/2013.1/src/exe/rbdock.cxx#4 $)

>  <Rbt.Library>
libRbt.so (2013.1, Build901 2013/11/27)

>  <Rbt.Parameter_File>
/export/apps/rDock/src/rDock_2013.1_src/data/scripts/dock_solv.prm

>  <Rbt.Receptor>
prm/pocket_docking_8.prm

>  <SCORE>
-16.8047

>  <SCORE.INTER>
-17.1359

>  <SCORE.INTER.CONST>
1

>  <SCORE.INTER.POLAR>
-0.959166

>  <SCORE.INTER.ROT>
3

>  <SCORE.INTER.SOLV>
18.0629

>  <SCORE.INTER.VDW>
-19.8477

>  <SCORE.INTER.norm>
-0.778906

>  <SCORE.INTRA>
0.331268

>  <SCORE.INTRA.DIHEDRAL>
1.87225

>  <SCORE.INTRA.DIHEDRAL.0>
4.99603

>  <SCORE.INTRA.POLAR>
0

>  <SCORE.INTRA.POLAR.0>
0

>  <SCORE.INTRA.REPUL>
0

>  <SCORE.INTRA.REPUL.0>
0

>  <SCORE.INTRA.SOLV>
1.46986

>  <SCORE.INTRA.SOLV.lig_0>
-74.884

>  <SCORE.INTRA.VDW>
-1.33979

>  <SCORE.INTRA.VDW.0>
-0.858933

>  <SCORE.INTRA.norm>
0.0150576

>  <SCORE.RESTR>
0

>  <SCORE.RESTR.CAVITY>
0

>  <SCORE.RESTR.norm>
0

>  <SCORE.SYSTEM>
0

>  <SCORE.SYSTEM.CONST>
0

>  <SCORE.SYSTEM.DIHEDRAL>
0

>  <SCORE.SYSTEM.SOLV>
0

>  <SCORE.SYSTEM.norm>
0

>  <SCORE.heavy>
22

>  <SCORE.norm>
-0.763848

>  <RMSD>
6.717

$$$$
2et8_lig
 OpenBabel11021811433D
libRbt.so/2013.1/901 2013/11/27
 22 23  0  0  0  0  0  0  0  0999 V2000
   18.6032   14.9214   38.2863 N   0  0  0  0  0  0  0  0  0  0  0  0
   19.2575   12.3633   42.4858 N   0  0  0  0  0  0  0  0  0  0  0  0
   20.4624    6.3106   42.4347 N   0  0  0  0  0  0  0  0  0  0  0  0
   21.9108   11.2689   38.4997 O   0  0  0  0  0  0  0  0  0  0  0  0
   20.6192   11.6978   38.9969 C   0  0  2  0  0  0  0  0  0  0  0  0
   23.5850   11.9784   41.2886 N   0  0  0  0  0  0  0  0  0  0  0  0
   20.2240   13.0675   36.9545 O   0  0  0  0  0  0  0  0  0  0  0  0
   20.2658   13.1076   38.3865 C   0  0  1  0  0  0  0  0  0  0  0  0
   20.9614   10.5760   41.0646 O   0  0  0  0  0  0  0  0  0  0  0  0
   18.9171   13.5750   38.8757 C   0  0  1  0  0  0  0  0  0  0  0  0
   21.6473    8.9688   42.5642 O   0  0  0  0  0  0  0  0  0  0  0  0
   18.9338   13.6463   40.4200 C   0  0  0  0  0  0  0  0  0  0  0  0
   23.8702    7.3123   40.1902 O   0  0  0  0  0  0  0  0  0  0  0  0
   19.2677   12.2277   40.9671 C   0  0  1  0  0  0  0  0  0  0  0  0
   25.1381    9.7989   40.4059 O   0  0  0  0  0  0  0  0  0  0  0  0
   20.6563   11.8210   40.5719 C   0  0  2  0  0  0  0  0  0  0  0  0
   21.8325   10.4242   42.1368 C   0  0  1  0  0  0  0  0  0  0  0  0
   22.0532    7.9906   41.5088 C   0  0  2  0  0  0  0  0  0  0  0  0
   21.8698    6.5433   42.0105 C   0  0  0  0  0  0  0  0  0  0  0  0
   23.4994    8.2114   41.1793 C   0  0  2  0  0  0  0  0  0  0  0  0
   23.7453    9.6109   40.6953 C   0  0  1  0  0  0  0  0  0  0  0  0
   23.3336   10.5691   41.7597 C   0  0  1  0  0  0  0  0  0  0  0  0
  5  4  1  6  0  0  0
  5  8  1  0  0  0  0
  5 16  1  0  0  0  0
  8  7  1  6  0  0  0
  8 10  1  0  0  0  0
 10  1  1  6  0  0  0
 10 12  1  0  0  0  0
 11 18  1  0  0  0  0
 12 14  1  0  0  0  0
 14  2  1  1  0  0  0
 14 16  1  0  0  0  0
 16  9  1  1  0  0  0
 17  9  1  6  0  0  0
 17 11  1  0  0  0  0
 17 22  1  0  0  0  0
 18 19  1  1  0  0  0
 18 20  1  0  0  0  0
 19  3  1  0  0  0  0
 20 13  1  6  0  0  0
 20 21  1  0  0  0  0
 21 15  1  1  0  0  0
 21 22  1  0  0  0  0
 22  6  1  6  0  0  0
M  END
>  <CHROM.1>
139.64612643,167.40675925,56.82250245,21.42705041,10.69887721,40.50934575
2.13963448,0.43837883,-0.69954548

>  <Name>
2et8_lig

>  <RI>
2.82936e+07

>  <Rbt.Current_Directory>
/home/itssahil/PROJECTS/Mol_Feturizer/New_Systems/rnas/2et8

>  <Rbt.Executable>
rbdock ($Id: //depot/dev/client3/rdock/2013.1/src/exe/rbdock.cxx#4 $)

>  <Rbt.Library>
libRbt.so (2013.1, Build901 2013/11/27)

>  <Rbt.Parameter_File>
/export/apps/rDock/src/rDock_2013.1_src/data/scripts/dock_solv.prm

>  <Rbt.Receptor>
prm/pocket_docking_8.prm

>  <SCORE>
-16.7002

>  <SCORE.INTER>
-16.7253

>  <SCORE.INTER.CONST>
1

>  <SCORE.INTER.POLAR>
-0.959166

>  <SCORE.INTER.ROT>
3

>  <SCORE.INTER.SOLV>
17.7581

>  <SCORE.INTER.VDW>
-19.4724

>  <SCORE.INTER.norm>
-0.760241

>  <SCORE.INTRA>
0.0251512

>  <SCORE.INTRA.DIHEDRAL>
1.26281

>  <SCORE.INTRA.DIHEDRAL.0>
4.99603

>  <SCORE.INTRA.POLAR>
0

>  <SCORE.INTRA.POLAR.0>
0

>  <SCORE.INTRA.REPUL>
0

>  <SCORE.INTRA.REPUL.0>
0

>  <SCORE.INTRA.SOLV>
1.34052

>  <SCORE.INTRA.SOLV.lig_0>
-74.884

>  <SCORE.INTRA.VDW>
-1.27651

>  <SCORE.INTRA.VDW.0>
-0.858933

>  <SCORE.INTRA.norm>
0.00114324

>  <SCORE.RESTR>
0

>  <SCORE.RESTR.CAVITY>
0

>  <SCORE.RESTR.norm>
0

>  <SCORE.SYSTEM>
0

>  <SCORE.SYSTEM.CONST>
0

>  <SCORE.SYSTEM.DIHEDRAL>
0

>  <SCORE.SYSTEM.SOLV>
0

>  <SCORE.SYSTEM.norm>
0

>  <SCORE.heavy>
22

>  <SCORE.norm>
-0.759098

>  <RMSD>
6.730

$$$$
2et8_lig
 OpenBabel11021811433D
libRbt.so/2013.1/901 2013/11/27
 22 23  0  0  0  0  0  0  0  0999 V2000
   22.9284   13.7641   39.1448 N   0  0  0  0  0  0  0  0  0  0  0  0
   23.8660   17.3874   35.8889 N   0  0  0  0  0  0  0  0  0  0  0  0
   20.9869   21.2148   34.2683 N   0  0  0  0  0  0  0  0  0  0  0  0
   20.1856   14.2385   35.0732 O   0  0  0  0  0  0  0  0  0  0  0  0
   21.5266   14.4022   35.5968 C   0  0  2  0  0  0  0  0  0  0  0  0
   21.6237   15.3385   31.2946 N   0  0  0  0  0  0  0  0  0  0  0  0
   21.1326   12.6415   37.3139 O   0  0  0  0  0  0  0  0  0  0  0  0
   21.5455   14.0003   37.1209 C   0  0  1  0  0  0  0  0  0  0  0  0
   21.9576   16.2188   34.1254 O   0  0  0  0  0  0  0  0  0  0  0  0
   22.9347   14.1470   37.6914 C   0  0  1  0  0  0  0  0  0  0  0  0
   20.0787   17.5419   33.9773 O   0  0  0  0  0  0  0  0  0  0  0  0
   23.4044   15.6093   37.5149 C   0  0  0  0  0  0  0  0  0  0  0  0
   21.7045   20.0964   31.9395 O   0  0  0  0  0  0  0  0  0  0  0  0
   23.3846   15.9445   35.9948 C   0  0  1  0  0  0  0  0  0  0  0  0
   21.8031   17.9207   30.1805 O   0  0  0  0  0  0  0  0  0  0  0  0
   21.9824   15.9094   35.4632 C   0  0  2  0  0  0  0  0  0  0  0  0
   20.7569   16.2872   33.4288 C   0  0  1  0  0  0  0  0  0  0  0  0
   20.8415   18.7952   33.6895 C   0  0  2  0  0  0  0  0  0  0  0  0
   20.0927   20.0256   34.2425 C   0  0  0  0  0  0  0  0  0  0  0  0
   20.9847   18.9405   32.2039 C   0  0  2  0  0  0  0  0  0  0  0  0
   21.6972   17.7637   31.6029 C   0  0  1  0  0  0  0  0  0  0  0  0
   20.9225   16.5264   31.9017 C   0  0  1  0  0  0  0  0  0  0  0  0
  5  4  1  1  0  0  0
  5  8  1  0  0  0  0
  5 16  1  0  0  0  0
  8  7  1  6  0  0  0
  8 10  1  0  0  0  0
 10  1  1  1  0  0  0
 10 12  1  0  0  0  0
 11 18  1  0  0  0  0
 12 14  1  0  0  0  0
 14  2  1  1  0  0  0
 14 16  1  0  0  0  0
 16  9  1  6  0  0  0
 17  9  1  1  0  0  0
 17 11  1  0  0  0  0
 17 22  1  0  0  0  0
 18 19  1  6  0  0  0
 18 20  1  0  0  0  0
 19  3  1  0  0  0  0
 20 13  1  1  0  0  0
 20 21  1  0  0  0  0
 21 15  1  6  0  0  0
 21 22  1  0  0  0  0
 22  6  1  1  0  0  0
M  END
>  <CHROM.1>
67.76074201,70.15327600,165.76642211,21.63210628,16.58261813,34.50264692
-0.93268913,-1.31184303,-0.19929528

>  <Name>
2et8_lig

>  <RI>
3.14397e+07

>  <Rbt.Current_Directory>
/home/itssahil/PROJECTS/Mol_Feturizer/New_Systems/rnas/2et8

>  <Rbt.Executable>
rbdock ($Id: //depot/dev/client3/rdock/2013.1/src/exe/rbdock.cxx#4 $)

>  <Rbt.Library>
libRbt.so (2013.1, Build901 2013/11/27)

>  <Rbt.Parameter_File>
/export/apps/rDock/src/rDock_2013.1_src/data/scripts/dock_solv.prm

>  <Rbt.Receptor>
prm/pocket_docking_6.prm

>  <SCORE>
-11.3438

>  <SCORE.INTER>
-10.1584

>  <SCORE.INTER.CONST>
1

>  <SCORE.INTER.POLAR>
-1.65579

>  <SCORE.INTER.ROT>
3

>  <SCORE.INTER.SOLV>
12.4512

>  <SCORE.INTER.VDW>
-11.0034

>  <SCORE.INTER.norm>
-0.461745

>  <SCORE.INTRA>
-1.18545

>  <SCORE.INTRA.DIHEDRAL>
-3.33434

>  <SCORE.INTRA.DIHEDRAL.0>
4.99603

>  <SCORE.INTRA.POLAR>
0

>  <SCORE.INTRA.POLAR.0>
0

>  <SCORE.INTRA.REPUL>
0

>  <SCORE.INTRA.REPUL.0>
0

>  <SCORE.INTRA.SOLV>
0.269493

>  <SCORE.INTRA.SOLV.lig_0>
-74.884

>  <SCORE.INTRA.VDW>
0.346971

>  <SCORE.INTRA.VDW.0>
-0.858933

>  <SCORE.INTRA.norm>
-0.0538841

>  <SCORE.RESTR>
0

>  <SCORE.RESTR.CAVITY>
0

>  <SCORE.RESTR.norm>
0

>  <SCORE.SYSTEM>
0

>  <SCORE.SYSTEM.CONST>
0

>  <SCORE.SYSTEM.DIHEDRAL>
0

>  <SCORE.SYSTEM.SOLV>
0

>  <SCORE.SYSTEM.norm>
0

>  <SCORE.heavy>
22

>  <SCORE.norm>
-0.515629

>  <RMSD>
6.739

$$$$
2et8_lig
 OpenBabel11021811433D
libRbt.so/2013.1/901 2013/11/27
 22 23  0  0  0  0  0  0  0  0999 V2000
   18.7145   15.0200   38.3940 N   0  0  0  0  0  0  0  0  0  0  0  0
   19.2400   12.3327   42.5304 N   0  0  0  0  0  0  0  0  0  0  0  0
   20.2760    6.2419   42.3689 N   0  0  0  0  0  0  0  0  0  0  0  0
   21.8753   11.2363   38.5330 O   0  0  0  0  0  0  0  0  0  0  0  0
   20.5982   11.7028   39.0336 C   0  0  2  0  0  0  0  0  0  0  0  0
   23.4935   11.8759   41.5570 N   0  0  0  0  0  0  0  0  0  0  0  0
   20.2705   13.1382   37.0246 O   0  0  0  0  0  0  0  0  0  0  0  0
   20.3043   13.1404   38.4574 C   0  0  1  0  0  0  0  0  0  0  0  0
   20.8823   10.5165   41.0738 O   0  0  0  0  0  0  0  0  0  0  0  0
   18.9716   13.6478   38.9507 C   0  0  1  0  0  0  0  0  0  0  0  0
   21.4367    8.8394   42.5512 O   0  0  0  0  0  0  0  0  0  0  0  0
   18.9807   13.6792   40.4963 C   0  0  0  0  0  0  0  0  0  0  0  0
   23.8201    7.2569   40.2849 O   0  0  0  0  0  0  0  0  0  0  0  0
   19.2551   12.2352   41.0089 C   0  0  1  0  0  0  0  0  0  0  0  0
   25.0901    9.7165   40.7029 O   0  0  0  0  0  0  0  0  0  0  0  0
   20.6295   11.7846   40.6114 C   0  0  2  0  0  0  0  0  0  0  0  0
   21.6672   10.3091   42.2019 C   0  0  1  0  0  0  0  0  0  0  0  0
   21.9136    7.9015   41.4890 C   0  0  2  0  0  0  0  0  0  0  0  0
   21.6791    6.4368   41.9129 C   0  0  0  0  0  0  0  0  0  0  0  0
   23.3827    8.1181   41.2804 C   0  0  2  0  0  0  0  0  0  0  0  0
   23.6775    9.5337   40.8769 C   0  0  1  0  0  0  0  0  0  0  0  0
   23.1941   10.4513   41.9469 C   0  0  1  0  0  0  0  0  0  0  0  0
  5  4  1  6  0  0  0
  5  8  1  0  0  0  0
  5 16  1  0  0  0  0
  8  7  1  6  0  0  0
  8 10  1  0  0  0  0
 10  1  1  6  0  0  0
 10 12  1  0  0  0  0
 11 18  1  0  0  0  0
 12 14  1  0  0  0  0
 14  2  1  1  0  0  0
 14 16  1  0  0  0  0
 16  9  1  1  0  0  0
 17  9  1  6  0  0  0
 17 11  1  0  0  0  0
 17 22  1  0  0  0  0
 18 19  1  1  0  0  0
 18 20  1  0  0  0  0
 19  3  1  0  0  0  0
 20 13  1  6  0  0  0
 20 21  1  0  0  0  0
 21 15  1  1  0  0  0
 21 22  1  0  0  0  0
 22  6  1  6  0  0  0
M  END
>  <CHROM.1>
144.02892733,167.54353193,50.27120902,21.36777118,10.65877803,40.58242493
2.09942969,0.41945485,-0.65797695

>  <Name>
2et8_lig

>  <RI>
0

>  <Rbt.Current_Directory>
/home/itssahil/PROJECTS/Mol_Feturizer/New_Systems/rnas/2et8

>  <Rbt.Executable>
rbdock ($Id: //depot/dev/client3/rdock/2013.1/src/exe/rbdock.cxx#4 $)

>  <Rbt.Library>
libRbt.so (2013.1, Build901 2013/11/27)

>  <Rbt.Parameter_File>
/export/apps/rDock/src/rDock_2013.1_src/data/scripts/dock_solv.prm

>  <Rbt.Receptor>
prm/pocket_docking_7.prm

>  <SCORE>
-16.6934

>  <SCORE.INTER>
-16.5712

>  <SCORE.INTER.CONST>
1

>  <SCORE.INTER.POLAR>
-0.959166

>  <SCORE.INTER.ROT>
3

>  <SCORE.INTER.SOLV>
17.763

>  <SCORE.INTER.VDW>
-19.3713

>  <SCORE.INTER.norm>
-0.753238

>  <SCORE.INTRA>
-0.122152

>  <SCORE.INTRA.DIHEDRAL>
0.817598

>  <SCORE.INTRA.DIHEDRAL.0>
4.99603

>  <SCORE.INTRA.POLAR>
0

>  <SCORE.INTRA.POLAR.0>
0

>  <SCORE.INTRA.REPUL>
0

>  <SCORE.INTRA.REPUL.0>
0

>  <SCORE.INTRA.SOLV>
1.30956

>  <SCORE.INTRA.SOLV.lig_0>
-74.884

>  <SCORE.INTRA.VDW>
-1.18573

>  <SCORE.INTRA.VDW.0>
-0.858933

>  <SCORE.INTRA.norm>
-0.00555234

>  <SCORE.RESTR>
0

>  <SCORE.RESTR.CAVITY>
0

>  <SCORE.RESTR.norm>
0

>  <SCORE.SYSTEM>
0

>  <SCORE.SYSTEM.CONST>
0

>  <SCORE.SYSTEM.DIHEDRAL>
0

>  <SCORE.SYSTEM.SOLV>
0

>  <SCORE.SYSTEM.norm>
0

>  <SCORE.heavy>
22

>  <SCORE.norm>
-0.758791

>  <RMSD>
6.765

$$$$
2et8_lig
 OpenBabel11021811433D
libRbt.so/2013.1/901 2013/11/27
 22 23  0  0  0  0  0  0  0  0999 V2000
   18.7141   14.9927   38.3987 N   0  0  0  0  0  0  0  0  0  0  0  0
   19.2340   12.2789   42.5185 N   0  0  0  0  0  0  0  0  0  0  0  0
   20.2329    6.1669   42.2328 N   0  0  0  0  0  0  0  0  0  0  0  0
   21.8680   11.2025   38.5148 O   0  0  0  0  0  0  0  0  0  0  0  0
   20.5916   11.6682   39.0180 C   0  0  2  0  0  0  0  0  0  0  0  0
   23.4878   11.8187   41.5427 N   0  0  0  0  0  0  0  0  0  0  0  0
   20.2669   13.1166   37.0179 O   0  0  0  0  0  0  0  0  0  0  0  0
   20.3005   13.1098   38.4507 C   0  0  1  0  0  0  0  0  0  0  0  0
   20.8733   10.4687   41.0509 O   0  0  0  0  0  0  0  0  0  0  0  0
   18.9686   13.6166   38.9469 C   0  0  1  0  0  0  0  0  0  0  0  0
   21.4228    8.7819   42.5190 O   0  0  0  0  0  0  0  0  0  0  0  0
   18.9775   13.6385   40.4927 C   0  0  0  0  0  0  0  0  0  0  0  0
   23.8030    7.2061   40.2446 O   0  0  0  0  0  0  0  0  0  0  0  0
   19.2492   12.1908   40.9964 C   0  0  1  0  0  0  0  0  0  0  0  0
   25.0791    9.6601   40.6768 O   0  0  0  0  0  0  0  0  0  0  0  0
   20.6228   11.7401   40.5964 C   0  0  2  0  0  0  0  0  0  0  0  0
   21.6572   10.2530   42.1780 C   0  0  1  0  0  0  0  0  0  0  0  0
   21.8976    7.8488   41.4516 C   0  0  2  0  0  0  0  0  0  0  0  0
   21.6593    6.3823   41.8672 C   0  0  0  0  0  0  0  0  0  0  0  0
   23.3674    8.0628   41.2448 C   0  0  2  0  0  0  0  0  0  0  0  0
   23.6660    9.4799   40.8494 C   0  0  1  0  0  0  0  0  0  0  0  0
   23.1846   10.3926   41.9243 C   0  0  1  0  0  0  0  0  0  0  0  0
  5  4  1  6  0  0  0
  5  8  1  0  0  0  0
  5 16  1  0  0  0  0
  8  7  1  6  0  0  0
  8 10  1  0  0  0  0
 10  1  1  6  0  0  0
 10 12  1  0  0  0  0
 11 18  1  0  0  0  0
 12 14  1  0  0  0  0
 14  2  1  1  0  0  0
 14 16  1  0  0  0  0
 16  9  1  1  0  0  0
 17  9  1  6  0  0  0
 17 11  1  0  0  0  0
 17 22  1  0  0  0  0
 18 19  1  1  0  0  0
 18 20  1  0  0  0  0
 19  3  1  0  0  0  0
 20 13  1  6  0  0  0
 20 21  1  0  0  0  0
 21 15  1  1  0  0  0
 21 22  1  0  0  0  0
 22  6  1  6  0  0  0
M  END
>  <CHROM.1>
144.04938076,167.48305206,54.14434136,21.35734303,10.61164046,40.55711467
2.09608505,0.41381367,-0.64468026

>  <Name>
2et8_lig

>  <RI>
2.82936e+07

>  <Rbt.Current_Directory>
/home/itssahil/PROJECTS/Mol_Feturizer/New_Systems/rnas/2et8

>  <Rbt.Executable>
rbdock ($Id: //depot/dev/client3/rdock/2013.1/src/exe/rbdock.cxx#4 $)

>  <Rbt.Library>
libRbt.so (2013.1, Build901 2013/11/27)

>  <Rbt.Parameter_File>
/export/apps/rDock/src/rDock_2013.1_src/data/scripts/dock_solv.prm

>  <Rbt.Receptor>
prm/pocket_docking_8.prm

>  <SCORE>
-16.7538

>  <SCORE.INTER>
-16.497

>  <SCORE.INTER.CONST>
1

>  <SCORE.INTER.POLAR>
-0.959166

>  <SCORE.INTER.ROT>
3

>  <SCORE.INTER.SOLV>
18.4015

>  <SCORE.INTER.VDW>
-19.5346

>  <SCORE.INTER.norm>
-0.749862

>  <SCORE.INTRA>
-0.256852

>  <SCORE.INTRA.DIHEDRAL>
0.609516

>  <SCORE.INTRA.DIHEDRAL.0>
4.99603

>  <SCORE.INTRA.POLAR>
0

>  <SCORE.INTRA.POLAR.0>
0

>  <SCORE.INTRA.REPUL>
0

>  <SCORE.INTRA.REPUL.0>
0

>  <SCORE.INTRA.SOLV>
1.27032

>  <SCORE.INTRA.SOLV.lig_0>
-74.884

>  <SCORE.INTRA.VDW>
-1.19677

>  <SCORE.INTRA.VDW.0>
-0.858933

>  <SCORE.INTRA.norm>
-0.0116751

>  <SCORE.RESTR>
0

>  <SCORE.RESTR.CAVITY>
0

>  <SCORE.RESTR.norm>
0

>  <SCORE.SYSTEM>
0

>  <SCORE.SYSTEM.CONST>
0

>  <SCORE.SYSTEM.DIHEDRAL>
0

>  <SCORE.SYSTEM.SOLV>
0

>  <SCORE.SYSTEM.norm>
0

>  <SCORE.heavy>
22

>  <SCORE.norm>
-0.761537

>  <RMSD>
6.783

$$$$
2et8_lig
 OpenBabel11021811433D
libRbt.so/2013.1/901 2013/11/27
 22 23  0  0  0  0  0  0  0  0999 V2000
   18.7096   14.8890   38.4741 N   0  0  0  0  0  0  0  0  0  0  0  0
   19.3843   12.1556   42.5584 N   0  0  0  0  0  0  0  0  0  0  0  0
   25.7726   11.6562   42.4520 N   0  0  0  0  0  0  0  0  0  0  0  0
   21.9406   11.1625   38.4834 O   0  0  0  0  0  0  0  0  0  0  0  0
   20.6678   11.5986   39.0212 C   0  0  2  0  0  0  0  0  0  0  0  0
   21.5341    7.4664   41.3402 N   0  0  0  0  0  0  0  0  0  0  0  0
   20.2654   13.0550   37.0411 O   0  0  0  0  0  0  0  0  0  0  0  0
   20.3341   13.0383   38.4726 C   0  0  1  0  0  0  0  0  0  0  0  0
   21.0230   10.3899   41.0371 O   0  0  0  0  0  0  0  0  0  0  0  0
   19.0049   13.5143   39.0050 C   0  0  1  0  0  0  0  0  0  0  0  0
   23.2839   10.8268   41.0481 O   0  0  0  0  0  0  0  0  0  0  0  0
   19.0511   13.5249   40.5503 C   0  0  0  0  0  0  0  0  0  0  0  0
   23.6562   10.2451   44.6319 O   0  0  0  0  0  0  0  0  0  0  0  0
   19.3639   12.0793   41.0357 C   0  0  1  0  0  0  0  0  0  0  0  0
   22.9158    7.6810   43.7869 O   0  0  0  0  0  0  0  0  0  0  0  0
   20.7361   11.6594   40.5989 C   0  0  2  0  0  0  0  0  0  0  0  0
   22.2267    9.7756   40.7125 C   0  0  1  0  0  0  0  0  0  0  0  0
   23.3287   11.1712   42.5023 C   0  0  2  0  0  0  0  0  0  0  0  0
   24.4321   12.2133   42.7796 C   0  0  0  0  0  0  0  0  0  0  0  0
   23.6288    9.9261   43.2823 C   0  0  2  0  0  0  0  0  0  0  0  0
   22.5935    8.8655   43.0439 C   0  0  1  0  0  0  0  0  0  0  0  0
   22.5639    8.5379   41.5905 C   0  0  1  0  0  0  0  0  0  0  0  0
  5  4  1  6  0  0  0
  5  8  1  0  0  0  0
  5 16  1  0  0  0  0
  8  7  1  6  0  0  0
  8 10  1  0  0  0  0
 10  1  1  6  0  0  0
 10 12  1  0  0  0  0
 11 18  1  0  0  0  0
 12 14  1  0  0  0  0
 14  2  1  1  0  0  0
 14 16  1  0  0  0  0
 16  9  1  1  0  0  0
 17  9  1  1  0  0  0
 17 11  1  0  0  0  0
 17 22  1  0  0  0  0
 18 19  1  6  0  0  0
 18 20  1  0  0  0  0
 19  3  1  0  0  0  0
 20 13  1  1  0  0  0
 20 21  1  0  0  0  0
 21 15  1  1  0  0  0
 21 22  1  0  0  0  0
 22  6  1  1  0  0  0
M  END
>  <CHROM.1>
63.71100553,48.86402011,-63.05221039,21.68228186,11.13769286,41.06798535
-2.35587623,0.64538805,2.83250157

>  <Name>
2et8_lig

>  <RI>
2.82936e+07

>  <Rbt.Current_Directory>
/home/itssahil/PROJECTS/Mol_Feturizer/New_Systems/rnas/2et8

>  <Rbt.Executable>
rbdock ($Id: //depot/dev/client3/rdock/2013.1/src/exe/rbdock.cxx#4 $)

>  <Rbt.Library>
libRbt.so (2013.1, Build901 2013/11/27)

>  <Rbt.Parameter_File>
/export/apps/rDock/src/rDock_2013.1_src/data/scripts/dock_solv.prm

>  <Rbt.Receptor>
prm/pocket_docking_8.prm

>  <SCORE>
-16.8623

>  <SCORE.INTER>
-16.0159

>  <SCORE.INTER.CONST>
1

>  <SCORE.INTER.POLAR>
-0.957289

>  <SCORE.INTER.ROT>
3

>  <SCORE.INTER.SOLV>
19.6505

>  <SCORE.INTER.VDW>
-19.6365

>  <SCORE.INTER.norm>
-0.727996

>  <SCORE.INTRA>
-0.846393

>  <SCORE.INTRA.DIHEDRAL>
-4.12123

>  <SCORE.INTRA.DIHEDRAL.0>
4.99603

>  <SCORE.INTRA.POLAR>
0

>  <SCORE.INTRA.POLAR.0>
0

>  <SCORE.INTRA.REPUL>
0

>  <SCORE.INTRA.REPUL.0>
0

>  <SCORE.INTRA.SOLV>
0.580191

>  <SCORE.INTRA.SOLV.lig_0>
-74.884

>  <SCORE.INTRA.VDW>
0.924128

>  <SCORE.INTRA.VDW.0>
-0.858933

>  <SCORE.INTRA.norm>
-0.0384724

>  <SCORE.RESTR>
0

>  <SCORE.RESTR.CAVITY>
0

>  <SCORE.RESTR.norm>
0

>  <SCORE.SYSTEM>
0

>  <SCORE.SYSTEM.CONST>
0

>  <SCORE.SYSTEM.DIHEDRAL>
0

>  <SCORE.SYSTEM.SOLV>
0

>  <SCORE.SYSTEM.norm>
0

>  <SCORE.heavy>
22

>  <SCORE.norm>
-0.766468

>  <RMSD>
6.796

$$$$
2et8_lig
 OpenBabel11021811433D
libRbt.so/2013.1/901 2013/11/27
 22 23  0  0  0  0  0  0  0  0999 V2000
   18.0252   13.9396   39.7037 N   0  0  0  0  0  0  0  0  0  0  0  0
   19.1243   17.3861   36.3094 N   0  0  0  0  0  0  0  0  0  0  0  0
   19.1850   16.6661   31.2125 N   0  0  0  0  0  0  0  0  0  0  0  0
   21.8513   13.3154   36.6547 O   0  0  0  0  0  0  0  0  0  0  0  0
   21.0961   14.3152   37.3822 C   0  0  2  0  0  0  0  0  0  0  0  0
   24.4058   16.5120   35.2496 N   0  0  0  0  0  0  0  0  0  0  0  0
   20.4330   12.6429   39.1050 O   0  0  0  0  0  0  0  0  0  0  0  0
   19.9301   13.6131   38.1777 C   0  0  1  0  0  0  0  0  0  0  0  0
   21.5118   15.9518   35.7092 O   0  0  0  0  0  0  0  0  0  0  0  0
   19.1331   14.6292   38.9582 C   0  0  1  0  0  0  0  0  0  0  0  0
   21.3733   14.8165   33.7105 O   0  0  0  0  0  0  0  0  0  0  0  0
   18.5604   15.6833   37.9829 C   0  0  0  0  0  0  0  0  0  0  0  0
   21.4928   17.8408   31.6707 O   0  0  0  0  0  0  0  0  0  0  0  0
   19.7525   16.3558   37.2415 C   0  0  1  0  0  0  0  0  0  0  0  0
   24.0324   17.9331   32.8449 O   0  0  0  0  0  0  0  0  0  0  0  0
   20.4679   15.3603   36.3771 C   0  0  2  0  0  0  0  0  0  0  0  0
   22.3156   15.2185   34.8444 C   0  0  1  0  0  0  0  0  0  0  0  0
   20.8382   15.9866   32.9490 C   0  0  2  0  0  0  0  0  0  0  0  0
   19.9189   15.5143   31.8035 C   0  0  0  0  0  0  0  0  0  0  0  0
   21.9906   16.7480   32.3650 C   0  0  2  0  0  0  0  0  0  0  0  0
   22.9315   17.2252   33.4330 C   0  0  1  0  0  0  0  0  0  0  0  0
   23.4519   16.0456   34.1801 C   0  0  1  0  0  0  0  0  0  0  0  0
  5  4  1  6  0  0  0
  5  8  1  0  0  0  0
  5 16  1  0  0  0  0
  8  7  1  1  0  0  0
  8 10  1  0  0  0  0
 10  1  1  6  0  0  0
 10 12  1  0  0  0  0
 11 18  1  0  0  0  0
 12 14  1  0  0  0  0
 14  2  1  6  0  0  0
 14 16  1  0  0  0  0
 16  9  1  1  0  0  0
 17  9  1  1  0  0  0
 17 11  1  0  0  0  0
 17 22  1  0  0  0  0
 18 19  1  6  0  0  0
 18 20  1  0  0  0  0
 19  3  1  0  0  0  0
 20 13  1  1  0  0  0
 20 21  1  0  0  0  0
 21 15  1  6  0  0  0
 21 22  1  0  0  0  0
 22  6  1  1  0  0  0
M  END
>  <CHROM.1>
65.99738392,65.34610505,169.21341934,21.01580578,15.61708065,35.33426411
1.92937435,-0.02983182,2.00792577

>  <Name>
2et8_lig

>  <RI>
0

>  <Rbt.Current_Directory>
/home/itssahil/PROJECTS/Mol_Feturizer/New_Systems/rnas/2et8

>  <Rbt.Executable>
rbdock ($Id: //depot/dev/client3/rdock/2013.1/src/exe/rbdock.cxx#4 $)

>  <Rbt.Library>
libRbt.so (2013.1, Build901 2013/11/27)

>  <Rbt.Parameter_File>
/export/apps/rDock/src/rDock_2013.1_src/data/scripts/dock_solv.prm

>  <Rbt.Receptor>
prm/pocket_docking_7.prm

>  <SCORE>
-7.7837

>  <SCORE.INTER>
-6.42798

>  <SCORE.INTER.CONST>
1

>  <SCORE.INTER.POLAR>
-0.931331

>  <SCORE.INTER.ROT>
3

>  <SCORE.INTER.SOLV>
12.4472

>  <SCORE.INTER.VDW>
-10.9299

>  <SCORE.INTER.norm>
-0.292181

>  <SCORE.INTRA>
-1.35572

>  <SCORE.INTRA.DIHEDRAL>
-4.08547

>  <SCORE.INTRA.DIHEDRAL.0>
4.99603

>  <SCORE.INTRA.POLAR>
0

>  <SCORE.INTRA.POLAR.0>
0

>  <SCORE.INTRA.REPUL>
0

>  <SCORE.INTRA.REPUL.0>
0

>  <SCORE.INTRA.SOLV>
0.161193

>  <SCORE.INTRA.SOLV.lig_0>
-74.884

>  <SCORE.INTRA.VDW>
0.606423

>  <SCORE.INTRA.VDW.0>
-0.858933

>  <SCORE.INTRA.norm>
-0.0616234

>  <SCORE.RESTR>
0

>  <SCORE.RESTR.CAVITY>
0

>  <SCORE.RESTR.norm>
0

>  <SCORE.SYSTEM>
0

>  <SCORE.SYSTEM.CONST>
0

>  <SCORE.SYSTEM.DIHEDRAL>
0

>  <SCORE.SYSTEM.SOLV>
0

>  <SCORE.SYSTEM.norm>
0

>  <SCORE.heavy>
22

>  <SCORE.norm>
-0.353804

>  <RMSD>
6.822

$$$$
2et8_lig
 OpenBabel11021811433D
libRbt.so/2013.1/901 2013/11/27
 22 23  0  0  0  0  0  0  0  0999 V2000
   18.8138   14.9903   37.7250 N   0  0  0  0  0  0  0  0  0  0  0  0
   18.9524   12.9171   42.2295 N   0  0  0  0  0  0  0  0  0  0  0  0
   18.2110   12.4523   44.6404 N   0  0  0  0  0  0  0  0  0  0  0  0
   21.8741   11.2363   38.6568 O   0  0  0  0  0  0  0  0  0  0  0  0
   20.5711   11.7813   38.9801 C   0  0  2  0  0  0  0  0  0  0  0  0
   22.6890    8.7275   41.5145 N   0  0  0  0  0  0  0  0  0  0  0  0
   20.4344   12.9178   36.7679 O   0  0  0  0  0  0  0  0  0  0  0  0
   20.3541   13.1244   38.1839 C   0  0  1  0  0  0  0  0  0  0  0  0
   20.6673   10.8962   41.1842 O   0  0  0  0  0  0  0  0  0  0  0  0
   18.9972   13.7094   38.4897 C   0  0  1  0  0  0  0  0  0  0  0  0
   20.7272   11.3504   43.4409 O   0  0  0  0  0  0  0  0  0  0  0  0
   18.8839   13.9614   40.0108 C   0  0  0  0  0  0  0  0  0  0  0  0
   18.8450    8.3644   44.3696 O   0  0  0  0  0  0  0  0  0  0  0  0
   19.0865   12.6030   40.7435 C   0  0  1  0  0  0  0  0  0  0  0  0
   21.1500    7.1868   43.3032 O   0  0  0  0  0  0  0  0  0  0  0  0
   20.4785   12.0875   40.5276 C   0  0  2  0  0  0  0  0  0  0  0  0
   21.5362   10.8044   42.2650 C   0  0  1  0  0  0  0  0  0  0  0  0
   19.5214   10.5251   43.7577 C   0  0  2  0  0  0  0  0  0  0  0  0
   18.7655   11.1107   44.9684 C   0  0  0  0  0  0  0  0  0  0  0  0
   19.9660    9.1319   44.0897 C   0  0  2  0  0  0  0  0  0  0  0  0
   20.7214    8.5102   42.9511 C   0  0  1  0  0  0  0  0  0  0  0  0
   21.9169    9.3474   42.6506 C   0  0  1  0  0  0  0  0  0  0  0  0
  5  4  1  1  0  0  0
  5  8  1  0  0  0  0
  5 16  1  0  0  0  0
  8  7  1  6  0  0  0
  8 10  1  0  0  0  0
 10  1  1  6  0  0  0
 10 12  1  0  0  0  0
 11 18  1  0  0  0  0
 12 14  1  0  0  0  0
 14  2  1  1  0  0  0
 14 16  1  0  0  0  0
 16  9  1  1  0  0  0
 17  9  1  6  0  0  0
 17 11  1  0  0  0  0
 17 22  1  0  0  0  0
 18 19  1  1  0  0  0
 18 20  1  0  0  0  0
 19  3  1  0  0  0  0
 20 13  1  6  0  0  0
 20 21  1  0  0  0  0
 21 15  1  1  0  0  0
 21 22  1  0  0  0  0
 22  6  1  6  0  0  0
M  END
>  <CHROM.1>
133.24737206,80.27630735,65.19307966,20.15635885,11.22796031,41.42946594
1.65920345,0.85691878,-0.98860501

>  <Name>
2et8_lig

>  <RI>
2.82936e+07

>  <Rbt.Current_Directory>
/home/itssahil/PROJECTS/Mol_Feturizer/New_Systems/rnas/2et8

>  <Rbt.Executable>
rbdock ($Id: //depot/dev/client3/rdock/2013.1/src/exe/rbdock.cxx#4 $)

>  <Rbt.Library>
libRbt.so (2013.1, Build901 2013/11/27)

>  <Rbt.Parameter_File>
/export/apps/rDock/src/rDock_2013.1_src/data/scripts/dock_solv.prm

>  <Rbt.Receptor>
prm/pocket_docking_8.prm

>  <SCORE>
-13.3679

>  <SCORE.INTER>
-16.5712

>  <SCORE.INTER.CONST>
1

>  <SCORE.INTER.POLAR>
-1.4517

>  <SCORE.INTER.ROT>
3

>  <SCORE.INTER.SOLV>
16.4797

>  <SCORE.INTER.VDW>
-17.3017

>  <SCORE.INTER.norm>
-0.753236

>  <SCORE.INTRA>
3.20331

>  <SCORE.INTRA.DIHEDRAL>
3.2729

>  <SCORE.INTRA.DIHEDRAL.0>
4.99603

>  <SCORE.INTRA.POLAR>
0

>  <SCORE.INTRA.POLAR.0>
0

>  <SCORE.INTRA.REPUL>
0

>  <SCORE.INTRA.REPUL.0>
0

>  <SCORE.INTRA.SOLV>
4.6703

>  <SCORE.INTRA.SOLV.lig_0>
-74.884

>  <SCORE.INTRA.VDW>
-0.768289

>  <SCORE.INTRA.VDW.0>
-0.858933

>  <SCORE.INTRA.norm>
0.145605

>  <SCORE.RESTR>
0

>  <SCORE.RESTR.CAVITY>
0

>  <SCORE.RESTR.norm>
0

>  <SCORE.SYSTEM>
0

>  <SCORE.SYSTEM.CONST>
0

>  <SCORE.SYSTEM.DIHEDRAL>
0

>  <SCORE.SYSTEM.SOLV>
0

>  <SCORE.SYSTEM.norm>
0

>  <SCORE.heavy>
22

>  <SCORE.norm>
-0.607631

>  <RMSD>
6.823

$$$$
2et8_lig
 OpenBabel11021811433D
libRbt.so/2013.1/901 2013/11/27
 22 23  0  0  0  0  0  0  0  0999 V2000
   19.0091   12.7631   41.4006 N   0  0  0  0  0  0  0  0  0  0  0  0
   17.1076   15.3427   37.6141 N   0  0  0  0  0  0  0  0  0  0  0  0
   18.0730   19.0562   35.5840 N   0  0  0  0  0  0  0  0  0  0  0  0
   21.2895   12.8338   37.0278 O   0  0  0  0  0  0  0  0  0  0  0  0
   20.4901   13.6325   37.9348 C   0  0  2  0  0  0  0  0  0  0  0  0
   20.0659   13.0169   33.8120 N   0  0  0  0  0  0  0  0  0  0  0  0
   21.3348   12.3523   39.8973 O   0  0  0  0  0  0  0  0  0  0  0  0
   20.1486   12.7823   39.2176 C   0  0  1  0  0  0  0  0  0  0  0  0
   19.4782   14.8016   36.1292 O   0  0  0  0  0  0  0  0  0  0  0  0
   19.3272   13.5937   40.1890 C   0  0  1  0  0  0  0  0  0  0  0  0
   18.2185   16.1896   34.7918 O   0  0  0  0  0  0  0  0  0  0  0  0
   18.0288   14.0595   39.4910 C   0  0  0  0  0  0  0  0  0  0  0  0
   21.1119   17.6516   33.1149 O   0  0  0  0  0  0  0  0  0  0  0  0
   18.4247   14.9074   38.2470 C   0  0  1  0  0  0  0  0  0  0  0  0
   21.3272   14.9968   32.2529 O   0  0  0  0  0  0  0  0  0  0  0  0
   19.1395   14.0616   37.2354 C   0  0  2  0  0  0  0  0  0  0  0  0
   18.7087   14.7536   34.9729 C   0  0  1  0  0  0  0  0  0  0  0  0
   19.3281   17.1638   34.5573 C   0  0  2  0  0  0  0  0  0  0  0  0
   18.7675   18.5867   34.3544 C   0  0  0  0  0  0  0  0  0  0  0  0
   20.0744   16.7546   33.3227 C   0  0  2  0  0  0  0  0  0  0  0  0
   20.6356   15.3684   33.4540 C   0  0  1  0  0  0  0  0  0  0  0  0
   19.5152   14.4143   33.6880 C   0  0  1  0  0  0  0  0  0  0  0  0
  5  4  1  6  0  0  0
  5  8  1  0  0  0  0
  5 16  1  0  0  0  0
  8  7  1  1  0  0  0
  8 10  1  0  0  0  0
 10  1  1  1  0  0  0
 10 12  1  0  0  0  0
 11 18  1  0  0  0  0
 12 14  1  0  0  0  0
 14  2  1  6  0  0  0
 14 16  1  0  0  0  0
 16  9  1  6  0  0  0
 17  9  1  1  0  0  0
 17 11  1  0  0  0  0
 17 22  1  0  0  0  0
 18 19  1  6  0  0  0
 18 20  1  0  0  0  0
 19  3  1  0  0  0  0
 20 13  1  1  0  0  0
 20 21  1  0  0  0  0
 21 15  1  6  0  0  0
 21 22  1  0  0  0  0
 22  6  1  1  0  0  0
M  END
>  <CHROM.1>
146.25131389,118.53628928,63.26342038,19.56160064,14.95940582,36.25713475
1.62626768,-0.89397758,2.13866298

>  <Name>
2et8_lig

>  <RI>
0

>  <Rbt.Current_Directory>
/home/itssahil/PROJECTS/Mol_Feturizer/New_Systems/rnas/2et8

>  <Rbt.Executable>
rbdock ($Id: //depot/dev/client3/rdock/2013.1/src/exe/rbdock.cxx#4 $)

>  <Rbt.Library>
libRbt.so (2013.1, Build901 2013/11/27)

>  <Rbt.Parameter_File>
/export/apps/rDock/src/rDock_2013.1_src/data/scripts/dock_solv.prm

>  <Rbt.Receptor>
prm/pocket_docking_5.prm

>  <SCORE>
-9.24471

>  <SCORE.INTER>
-11.8343

>  <SCORE.INTER.CONST>
1

>  <SCORE.INTER.POLAR>
-1.77539

>  <SCORE.INTER.ROT>
3

>  <SCORE.INTER.SOLV>
14.812

>  <SCORE.INTER.VDW>
-12.5089

>  <SCORE.INTER.norm>
-0.537923

>  <SCORE.INTRA>
2.58959

>  <SCORE.INTRA.DIHEDRAL>
6.42982

>  <SCORE.INTRA.DIHEDRAL.0>
4.99603

>  <SCORE.INTRA.POLAR>
0

>  <SCORE.INTRA.POLAR.0>
0

>  <SCORE.INTRA.REPUL>
0

>  <SCORE.INTRA.REPUL.0>
0

>  <SCORE.INTRA.SOLV>
1.02559

>  <SCORE.INTRA.SOLV.lig_0>
-74.884

>  <SCORE.INTRA.VDW>
-1.13812

>  <SCORE.INTRA.VDW.0>
-0.858933

>  <SCORE.INTRA.norm>
0.117709

>  <SCORE.RESTR>
0

>  <SCORE.RESTR.CAVITY>
0

>  <SCORE.RESTR.norm>
0

>  <SCORE.SYSTEM>
0

>  <SCORE.SYSTEM.CONST>
0

>  <SCORE.SYSTEM.DIHEDRAL>
0

>  <SCORE.SYSTEM.SOLV>
0

>  <SCORE.SYSTEM.norm>
0

>  <SCORE.heavy>
22

>  <SCORE.norm>
-0.420214

>  <RMSD>
6.831

$$$$
2et8_lig
 OpenBabel11021811433D
libRbt.so/2013.1/901 2013/11/27
 22 23  0  0  0  0  0  0  0  0999 V2000
   18.6447   14.9112   37.9156 N   0  0  0  0  0  0  0  0  0  0  0  0
   19.0548   12.5320   42.2491 N   0  0  0  0  0  0  0  0  0  0  0  0
   19.2322   11.1923   45.8384 N   0  0  0  0  0  0  0  0  0  0  0  0
   22.0389   11.3841   38.5204 O   0  0  0  0  0  0  0  0  0  0  0  0
   20.7002   11.7865   38.9016 C   0  0  2  0  0  0  0  0  0  0  0  0
   22.5785    8.2763   40.9515 N   0  0  0  0  0  0  0  0  0  0  0  0
   20.4201   13.0664   36.7833 O   0  0  0  0  0  0  0  0  0  0  0  0
   20.3507   13.1601   38.2117 C   0  0  1  0  0  0  0  0  0  0  0  0
   20.9178   10.7533   41.0313 O   0  0  0  0  0  0  0  0  0  0  0  0
   18.9545   13.5987   38.5792 C   0  0  1  0  0  0  0  0  0  0  0  0
   21.8256   11.3442   43.0634 O   0  0  0  0  0  0  0  0  0  0  0  0
   18.8505   13.7269   40.1163 C   0  0  0  0  0  0  0  0  0  0  0  0
   19.9582    8.8299   44.9374 O   0  0  0  0  0  0  0  0  0  0  0  0
   19.1856   12.3414   40.7420 C   0  0  1  0  0  0  0  0  0  0  0  0
   21.5444    7.1750   43.3305 O   0  0  0  0  0  0  0  0  0  0  0  0
   20.6126   11.9683   40.4689 C   0  0  2  0  0  0  0  0  0  0  0  0
   22.0839   10.5777   41.7669 C   0  0  1  0  0  0  0  0  0  0  0  0
   20.6959   10.7803   43.8639 C   0  0  2  0  0  0  0  0  0  0  0  0
   20.5048   11.5784   45.1703 C   0  0  0  0  0  0  0  0  0  0  0  0
   21.0137    9.3554   44.2067 C   0  0  2  0  0  0  0  0  0  0  0  0
   21.2239    8.5271   42.9725 C   0  0  1  0  0  0  0  0  0  0  0  0
   22.3517    9.1058   42.1891 C   0  0  1  0  0  0  0  0  0  0  0  0
  5  4  1  1  0  0  0
  5  8  1  0  0  0  0
  5 16  1  0  0  0  0
  8  7  1  6  0  0  0
  8 10  1  0  0  0  0
 10  1  1  6  0  0  0
 10 12  1  0  0  0  0
 11 18  1  0  0  0  0
 12 14  1  0  0  0  0
 14  2  1  1  0  0  0
 14 16  1  0  0  0  0
 16  9  1  1  0  0  0
 17  9  1  6  0  0  0
 17 11  1  0  0  0  0
 17 22  1  0  0  0  0
 18 19  1  1  0  0  0
 18 20  1  0  0  0  0
 19  3  1  0  0  0  0
 20 13  1  6  0  0  0
 20 21  1  0  0  0  0
 21 15  1  1  0  0  0
 21 22  1  0  0  0  0
 22  6  1  6  0  0  0
M  END
>  <CHROM.1>
112.47598196,71.81032653,169.16392290,20.59548086,11.15351660,41.44773200
1.83790791,0.92071928,-1.18087091

>  <Name>
2et8_lig

>  <RI>
0

>  <Rbt.Current_Directory>
/home/itssahil/PROJECTS/Mol_Feturizer/New_Systems/rnas/2et8

>  <Rbt.Executable>
rbdock ($Id: //depot/dev/client3/rdock/2013.1/src/exe/rbdock.cxx#4 $)

>  <Rbt.Library>
libRbt.so (2013.1, Build901 2013/11/27)

>  <Rbt.Parameter_File>
/export/apps/rDock/src/rDock_2013.1_src/data/scripts/dock_solv.prm

>  <Rbt.Receptor>
prm/pocket_docking_7.prm

>  <SCORE>
-13.6236

>  <SCORE.INTER>
-15.969

>  <SCORE.INTER.CONST>
1

>  <SCORE.INTER.POLAR>
-0.959166

>  <SCORE.INTER.ROT>
3

>  <SCORE.INTER.SOLV>
15.0062

>  <SCORE.INTER.VDW>
-18.0508

>  <SCORE.INTER.norm>
-0.725862

>  <SCORE.INTRA>
2.34539

>  <SCORE.INTRA.DIHEDRAL>
2.97455

>  <SCORE.INTRA.DIHEDRAL.0>
4.99603

>  <SCORE.INTRA.POLAR>
0

>  <SCORE.INTRA.POLAR.0>
0

>  <SCORE.INTRA.REPUL>
0

>  <SCORE.INTRA.REPUL.0>
0

>  <SCORE.INTRA.SOLV>
3.52178

>  <SCORE.INTRA.SOLV.lig_0>
-74.884

>  <SCORE.INTRA.VDW>
-0.902774

>  <SCORE.INTRA.VDW.0>
-0.858933

>  <SCORE.INTRA.norm>
0.106609

>  <SCORE.RESTR>
0

>  <SCORE.RESTR.CAVITY>
0

>  <SCORE.RESTR.norm>
0

>  <SCORE.SYSTEM>
0

>  <SCORE.SYSTEM.CONST>
0

>  <SCORE.SYSTEM.DIHEDRAL>
0

>  <SCORE.SYSTEM.SOLV>
0

>  <SCORE.SYSTEM.norm>
0

>  <SCORE.heavy>
22

>  <SCORE.norm>
-0.619253

>  <RMSD>
6.836

$$$$
2et8_lig
 OpenBabel11021811433D
libRbt.so/2013.1/901 2013/11/27
 22 23  0  0  0  0  0  0  0  0999 V2000
   16.3474   22.3465   36.7117 N   0  0  0  0  0  0  0  0  0  0  0  0
   18.1505   18.2810   34.5142 N   0  0  0  0  0  0  0  0  0  0  0  0
   14.6819   15.5488   34.8789 N   0  0  0  0  0  0  0  0  0  0  0  0
   17.0219   18.1988   39.2940 O   0  0  0  0  0  0  0  0  0  0  0  0
   17.5573   18.9894   38.2041 C   0  0  2  0  0  0  0  0  0  0  0  0
   20.1159   15.2004   38.5912 N   0  0  0  0  0  0  0  0  0  0  0  0
   16.6340   21.0810   39.1924 O   0  0  0  0  0  0  0  0  0  0  0  0
   16.6691   20.2768   38.0067 C   0  0  1  0  0  0  0  0  0  0  0  0
   18.3270   17.0444   37.0749 O   0  0  0  0  0  0  0  0  0  0  0  0
   17.2112   21.1289   36.8856 C   0  0  1  0  0  0  0  0  0  0  0  0
   16.6365   15.4809   37.0898 O   0  0  0  0  0  0  0  0  0  0  0  0
   17.2459   20.2945   35.5846 C   0  0  0  0  0  0  0  0  0  0  0  0
   18.2190   13.3451   34.5888 O   0  0  0  0  0  0  0  0  0  0  0  0
   18.1493   19.0508   35.8304 C   0  0  1  0  0  0  0  0  0  0  0  0
   20.0837   13.1418   36.6670 O   0  0  0  0  0  0  0  0  0  0  0  0
   17.5412   18.1508   36.8648 C   0  0  2  0  0  0  0  0  0  0  0  0
   17.8714   15.9778   37.8406 C   0  0  1  0  0  0  0  0  0  0  0  0
   16.9502   14.9575   35.7249 C   0  0  2  0  0  0  0  0  0  0  0  0
   15.6700   14.4465   35.0320 C   0  0  0  0  0  0  0  0  0  0  0  0
   17.9186   13.8201   35.8569 C   0  0  2  0  0  0  0  0  0  0  0  0
   19.1847   14.2528   36.5376 C   0  0  1  0  0  0  0  0  0  0  0  0
   18.8506   14.7716   37.8940 C   0  0  1  0  0  0  0  0  0  0  0  0
  5  4  1  1  0  0  0
  5  8  1  0  0  0  0
  5 16  1  0  0  0  0
  8  7  1  1  0  0  0
  8 10  1  0  0  0  0
 10  1  1  6  0  0  0
 10 12  1  0  0  0  0
 11 18  1  0  0  0  0
 12 14  1  0  0  0  0
 14  2  1  6  0  0  0
 14 16  1  0  0  0  0
 16  9  1  1  0  0  0
 17  9  1  6  0  0  0
 17 11  1  0  0  0  0
 17 22  1  0  0  0  0
 18 19  1  1  0  0  0
 18 20  1  0  0  0  0
 19  3  1  0  0  0  0
 20 13  1  6  0  0  0
 20 21  1  0  0  0  0
 21 15  1  1  0  0  0
 21 22  1  0  0  0  0
 22  6  1  6  0  0  0
M  END
>  <CHROM.1>
75.39929242,61.14162037,60.72348581,17.59494707,17.05248506,36.78135224,1.88479666
-0.90490250,0.44182879

>  <Name>
2et8_lig

>  <RI>
2.82936e+07

>  <Rbt.Current_Directory>
/home/itssahil/PROJECTS/Mol_Feturizer/New_Systems/rnas/2et8

>  <Rbt.Executable>
rbdock ($Id: //depot/dev/client3/rdock/2013.1/src/exe/rbdock.cxx#4 $)

>  <Rbt.Library>
libRbt.so (2013.1, Build901 2013/11/27)

>  <Rbt.Parameter_File>
/export/apps/rDock/src/rDock_2013.1_src/data/scripts/dock_solv.prm

>  <Rbt.Receptor>
prm/pocket_docking_8.prm

>  <SCORE>
-6.43706

>  <SCORE.INTER>
-3.90671

>  <SCORE.INTER.CONST>
1

>  <SCORE.INTER.POLAR>
-0.868546

>  <SCORE.INTER.ROT>
3

>  <SCORE.INTER.SOLV>
4.70892

>  <SCORE.INTER.VDW>
-6.87896

>  <SCORE.INTER.norm>
-0.177578

>  <SCORE.INTRA>
-2.53035

>  <SCORE.INTRA.DIHEDRAL>
-3.71815

>  <SCORE.INTRA.DIHEDRAL.0>
4.99603

>  <SCORE.INTRA.POLAR>
0

>  <SCORE.INTRA.POLAR.0>
0

>  <SCORE.INTRA.REPUL>
0

>  <SCORE.INTRA.REPUL.0>
0

>  <SCORE.INTRA.SOLV>
-0.532736

>  <SCORE.INTRA.SOLV.lig_0>
-74.884

>  <SCORE.INTRA.VDW>
-0.404909

>  <SCORE.INTRA.VDW.0>
-0.858933

>  <SCORE.INTRA.norm>
-0.115016

>  <SCORE.RESTR>
0

>  <SCORE.RESTR.CAVITY>
0

>  <SCORE.RESTR.norm>
0

>  <SCORE.SYSTEM>
0

>  <SCORE.SYSTEM.CONST>
0

>  <SCORE.SYSTEM.DIHEDRAL>
0

>  <SCORE.SYSTEM.SOLV>
0

>  <SCORE.SYSTEM.norm>
0

>  <SCORE.heavy>
22

>  <SCORE.norm>
-0.292594

>  <RMSD>
6.839

$$$$
2et8_lig
 OpenBabel11021811433D
libRbt.so/2013.1/901 2013/11/27
 22 23  0  0  0  0  0  0  0  0999 V2000
   18.7082   14.9353   37.9266 N   0  0  0  0  0  0  0  0  0  0  0  0
   19.0716   12.5663   42.2698 N   0  0  0  0  0  0  0  0  0  0  0  0
   19.0783   11.1606   45.8137 N   0  0  0  0  0  0  0  0  0  0  0  0
   22.0239   11.3362   38.5420 O   0  0  0  0  0  0  0  0  0  0  0  0
   20.6950   11.7699   38.9233 C   0  0  2  0  0  0  0  0  0  0  0  0
   22.5411    8.2555   40.9973 N   0  0  0  0  0  0  0  0  0  0  0  0
   20.4404   13.0465   36.7998 O   0  0  0  0  0  0  0  0  0  0  0  0
   20.3752   13.1480   38.2279 C   0  0  1  0  0  0  0  0  0  0  0  0
   20.8926   10.7413   41.0572 O   0  0  0  0  0  0  0  0  0  0  0  0
   18.9897   13.6191   38.5954 C   0  0  1  0  0  0  0  0  0  0  0  0
   21.7514   11.3088   43.1171 O   0  0  0  0  0  0  0  0  0  0  0  0
   18.8908   13.7563   40.1321 C   0  0  0  0  0  0  0  0  0  0  0  0
   19.8227    8.7886   44.9198 O   0  0  0  0  0  0  0  0  0  0  0  0
   19.1959   12.3664   40.7634 C   0  0  1  0  0  0  0  0  0  0  0  0
   21.4404    7.1390   43.3389 O   0  0  0  0  0  0  0  0  0  0  0  0
   20.6137   11.9604   40.4899 C   0  0  2  0  0  0  0  0  0  0  0  0
   22.0385   10.5524   41.8207 C   0  0  1  0  0  0  0  0  0  0  0  0
   20.5984   10.7442   43.8833 C   0  0  2  0  0  0  0  0  0  0  0  0
   20.3784   11.5316   45.1917 C   0  0  0  0  0  0  0  0  0  0  0  0
   20.8995    9.3145   44.2212 C   0  0  2  0  0  0  0  0  0  0  0  0
   21.1366    8.4961   42.9853 C   0  0  1  0  0  0  0  0  0  0  0  0
   22.2873    9.0752   42.2362 C   0  0  1  0  0  0  0  0  0  0  0  0
  5  4  1  1  0  0  0
  5  8  1  0  0  0  0
  5 16  1  0  0  0  0
  8  7  1  6  0  0  0
  8 10  1  0  0  0  0
 10  1  1  6  0  0  0
 10 12  1  0  0  0  0
 11 18  1  0  0  0  0
 12 14  1  0  0  0  0
 14  2  1  1  0  0  0
 14 16  1  0  0  0  0
 16  9  1  1  0  0  0
 17  9  1  6  0  0  0
 17 11  1  0  0  0  0
 17 22  1  0  0  0  0
 18 19  1  1  0  0  0
 18 20  1  0  0  0  0
 19  3  1  0  0  0  0
 20 13  1  6  0  0  0
 20 21  1  0  0  0  0
 21 15  1  1  0  0  0
 21 22  1  0  0  0  0
 22  6  1  6  0  0  0
M  END
>  <CHROM.1>
114.14854956,72.30285243,168.38462277,20.55497315,11.13656885,41.46763439
1.80625329,0.92638523,-1.15093224

>  <Name>
2et8_lig

>  <RI>
0

>  <Rbt.Current_Directory>
/home/itssahil/PROJECTS/Mol_Feturizer/New_Systems/rnas/2et8

>  <Rbt.Executable>
rbdock ($Id: //depot/dev/client3/rdock/2013.1/src/exe/rbdock.cxx#4 $)

>  <Rbt.Library>
libRbt.so (2013.1, Build901 2013/11/27)

>  <Rbt.Parameter_File>
/export/apps/rDock/src/rDock_2013.1_src/data/scripts/dock_solv.prm

>  <Rbt.Receptor>
prm/pocket_docking_7.prm

>  <SCORE>
-13.5655

>  <SCORE.INTER>
-16.0716

>  <SCORE.INTER.CONST>
1

>  <SCORE.INTER.POLAR>
-0.959166

>  <SCORE.INTER.ROT>
3

>  <SCORE.INTER.SOLV>
14.605

>  <SCORE.INTER.VDW>
-17.9855

>  <SCORE.INTER.norm>
-0.730526

>  <SCORE.INTRA>
2.50605

>  <SCORE.INTRA.DIHEDRAL>
3.19246

>  <SCORE.INTRA.DIHEDRAL.0>
4.99603

>  <SCORE.INTRA.POLAR>
0

>  <SCORE.INTRA.POLAR.0>
0

>  <SCORE.INTRA.REPUL>
0

>  <SCORE.INTRA.REPUL.0>
0

>  <SCORE.INTRA.SOLV>
3.60224

>  <SCORE.INTRA.SOLV.lig_0>
-74.884

>  <SCORE.INTRA.VDW>
-0.891305

>  <SCORE.INTRA.VDW.0>
-0.858933

>  <SCORE.INTRA.norm>
0.113911

>  <SCORE.RESTR>
0

>  <SCORE.RESTR.CAVITY>
0

>  <SCORE.RESTR.norm>
0

>  <SCORE.SYSTEM>
0

>  <SCORE.SYSTEM.CONST>
0

>  <SCORE.SYSTEM.DIHEDRAL>
0

>  <SCORE.SYSTEM.SOLV>
0

>  <SCORE.SYSTEM.norm>
0

>  <SCORE.heavy>
22

>  <SCORE.norm>
-0.616615

>  <RMSD>
6.845

$$$$
2et8_lig
 OpenBabel11021811433D
libRbt.so/2013.1/901 2013/11/27
 22 23  0  0  0  0  0  0  0  0999 V2000
   20.9527   13.1513   37.4295 N   0  0  0  0  0  0  0  0  0  0  0  0
   22.9568   16.8484   34.7984 N   0  0  0  0  0  0  0  0  0  0  0  0
   25.7440   18.4991   38.1251 N   0  0  0  0  0  0  0  0  0  0  0  0
   20.3741   17.8365   38.8579 O   0  0  0  0  0  0  0  0  0  0  0  0
   20.4929   16.9827   37.6933 C   0  0  2  0  0  0  0  0  0  0  0  0
   20.1271   21.3008   36.1379 N   0  0  0  0  0  0  0  0  0  0  0  0
   19.5574   15.0449   38.9477 O   0  0  0  0  0  0  0  0  0  0  0  0
   20.6686   15.4866   38.1576 C   0  0  1  0  0  0  0  0  0  0  0  0
   21.5621   18.7040   36.4504 O   0  0  0  0  0  0  0  0  0  0  0  0
   20.7808   14.5701   36.9642 C   0  0  1  0  0  0  0  0  0  0  0  0
   23.0519   19.6590   37.9238 O   0  0  0  0  0  0  0  0  0  0  0  0
   21.9837   15.0093   36.0980 C   0  0  0  0  0  0  0  0  0  0  0  0
   24.8578   21.4918   35.3352 O   0  0  0  0  0  0  0  0  0  0  0  0
   21.7483   16.4823   35.6531 C   0  0  1  0  0  0  0  0  0  0  0  0
   22.3525   22.7292   35.1637 O   0  0  0  0  0  0  0  0  0  0  0  0
   21.7547   17.4010   36.8388 C   0  0  2  0  0  0  0  0  0  0  0  0
   21.6296   19.7428   37.3712 C   0  0  1  0  0  0  0  0  0  0  0  0
   24.1003   19.9043   36.8865 C   0  0  2  0  0  0  0  0  0  0  0  0
   25.5091   19.8344   37.5114 C   0  0  0  0  0  0  0  0  0  0  0  0
   23.8928   21.2718   36.3070 C   0  0  2  0  0  0  0  0  0  0  0  0
   22.5298   21.4072   35.6926 C   0  0  1  0  0  0  0  0  0  0  0  0
   21.5008   21.1581   36.7412 C   0  0  1  0  0  0  0  0  0  0  0  0
  5  4  1  1  0  0  0
  5  8  1  0  0  0  0
  5 16  1  0  0  0  0
  8  7  1  6  0  0  0
  8 10  1  0  0  0  0
 10  1  1  1  0  0  0
 10 12  1  0  0  0  0
 11 18  1  0  0  0  0
 12 14  1  0  0  0  0
 14  2  1  6  0  0  0
 14 16  1  0  0  0  0
 16  9  1  6  0  0  0
 17  9  1  6  0  0  0
 17 11  1  0  0  0  0
 17 22  1  0  0  0  0
 18 19  1  1  0  0  0
 18 20  1  0  0  0  0
 19  3  1  0  0  0  0
 20 13  1  6  0  0  0
 20 21  1  0  0  0  0
 21 15  1  1  0  0  0
 21 22  1  0  0  0  0
 22  6  1  6  0  0  0
M  END
>  <CHROM.1>
70.62163239,60.41494033,59.36699212,22.18786698,18.41827952,36.87811756,-1.96666141
0.10337895,-0.16968151

>  <Name>
2et8_lig

>  <RI>
0

>  <Rbt.Current_Directory>
/home/itssahil/PROJECTS/Mol_Feturizer/New_Systems/rnas/2et8

>  <Rbt.Executable>
rbdock ($Id: //depot/dev/client3/rdock/2013.1/src/exe/rbdock.cxx#4 $)

>  <Rbt.Library>
libRbt.so (2013.1, Build901 2013/11/27)

>  <Rbt.Parameter_File>
/export/apps/rDock/src/rDock_2013.1_src/data/scripts/dock_solv.prm

>  <Rbt.Receptor>
prm/pocket_docking_7.prm

>  <SCORE>
-8.27868

>  <SCORE.INTER>
-5.7155

>  <SCORE.INTER.CONST>
1

>  <SCORE.INTER.POLAR>
-1.85359

>  <SCORE.INTER.ROT>
3

>  <SCORE.INTER.SOLV>
5.15922

>  <SCORE.INTER.VDW>
-4.95143

>  <SCORE.INTER.norm>
-0.259795

>  <SCORE.INTRA>
-2.56319

>  <SCORE.INTRA.DIHEDRAL>
-4.27269

>  <SCORE.INTRA.DIHEDRAL.0>
4.99603

>  <SCORE.INTRA.POLAR>
0

>  <SCORE.INTRA.POLAR.0>
0

>  <SCORE.INTRA.REPUL>
0

>  <SCORE.INTRA.REPUL.0>
0

>  <SCORE.INTRA.SOLV>
-0.729556

>  <SCORE.INTRA.SOLV.lig_0>
-74.884

>  <SCORE.INTRA.VDW>
-0.0620629

>  <SCORE.INTRA.VDW.0>
-0.858933

>  <SCORE.INTRA.norm>
-0.116508

>  <SCORE.RESTR>
0

>  <SCORE.RESTR.CAVITY>
0

>  <SCORE.RESTR.norm>
0

>  <SCORE.SYSTEM>
0

>  <SCORE.SYSTEM.CONST>
0

>  <SCORE.SYSTEM.DIHEDRAL>
0

>  <SCORE.SYSTEM.SOLV>
0

>  <SCORE.SYSTEM.norm>
0

>  <SCORE.heavy>
22

>  <SCORE.norm>
-0.376304

>  <RMSD>
6.870

$$$$
2et8_lig
 OpenBabel11021811433D
libRbt.so/2013.1/901 2013/11/27
 22 23  0  0  0  0  0  0  0  0999 V2000
   24.4784   16.8302   37.2893 N   0  0  0  0  0  0  0  0  0  0  0  0
   23.5405   16.7584   32.4187 N   0  0  0  0  0  0  0  0  0  0  0  0
   18.1840   17.1903   29.7237 N   0  0  0  0  0  0  0  0  0  0  0  0
   20.4820   14.5244   35.5462 O   0  0  0  0  0  0  0  0  0  0  0  0
   21.8628   14.8445   35.2456 C   0  0  2  0  0  0  0  0  0  0  0  0
   20.0539   12.2793   32.7540 N   0  0  0  0  0  0  0  0  0  0  0  0
   22.4210   14.9701   37.6698 O   0  0  0  0  0  0  0  0  0  0  0  0
   22.4739   15.6868   36.4298 C   0  0  1  0  0  0  0  0  0  0  0  0
   21.4110   14.9313   32.9135 O   0  0  0  0  0  0  0  0  0  0  0  0
   23.9181   16.0237   36.1515 C   0  0  1  0  0  0  0  0  0  0  0  0
   19.5948   15.9636   31.9449 O   0  0  0  0  0  0  0  0  0  0  0  0
   24.0089   16.8144   34.8261 C   0  0  0  0  0  0  0  0  0  0  0  0
   20.3025   14.6799   28.6024 O   0  0  0  0  0  0  0  0  0  0  0  0
   23.4112   15.9305   33.6926 C   0  0  1  0  0  0  0  0  0  0  0  0
   19.7662   12.2857   29.9506 O   0  0  0  0  0  0  0  0  0  0  0  0
   21.9466   15.6985   33.9187 C   0  0  2  0  0  0  0  0  0  0  0  0
   20.0360   14.7702   32.7912 C   0  0  1  0  0  0  0  0  0  0  0  0
   20.1763   15.9537   30.5675 C   0  0  2  0  0  0  0  0  0  0  0  0
   19.6716   17.1652   29.7565 C   0  0  0  0  0  0  0  0  0  0  0  0
   19.7506   14.6936   29.8749 C   0  0  2  0  0  0  0  0  0  0  0  0
   20.2029   13.4746   30.6252 C   0  0  1  0  0  0  0  0  0  0  0  0
   19.6143   13.5041   31.9938 C   0  0  1  0  0  0  0  0  0  0  0  0
  5  4  1  1  0  0  0
  5  8  1  0  0  0  0
  5 16  1  0  0  0  0
  8  7  1  1  0  0  0
  8 10  1  0  0  0  0
 10  1  1  1  0  0  0
 10 12  1  0  0  0  0
 11 18  1  0  0  0  0
 12 14  1  0  0  0  0
 14  2  1  6  0  0  0
 14 16  1  0  0  0  0
 16  9  1  6  0  0  0
 17  9  1  6  0  0  0
 17 11  1  0  0  0  0
 17 22  1  0  0  0  0
 18 19  1  6  0  0  0
 18 20  1  0  0  0  0
 19  3  1  0  0  0  0
 20 13  1  6  0  0  0
 20 21  1  0  0  0  0
 21 15  1  6  0  0  0
 21 22  1  0  0  0  0
 22  6  1  1  0  0  0
M  END
>  <CHROM.1>
76.47898280,86.97314772,-55.81031724,21.21592455,15.20592752,32.92768712
-0.58295457,-0.93624226,-0.85396212

>  <Name>
2et8_lig

>  <RI>
0

>  <Rbt.Current_Directory>
/home/itssahil/PROJECTS/Mol_Feturizer/New_Systems/rnas/2et8

>  <Rbt.Executable>
rbdock ($Id: //depot/dev/client3/rdock/2013.1/src/exe/rbdock.cxx#4 $)

>  <Rbt.Library>
libRbt.so (2013.1, Build901 2013/11/27)

>  <Rbt.Parameter_File>
/export/apps/rDock/src/rDock_2013.1_src/data/scripts/dock_solv.prm

>  <Rbt.Receptor>
prm/pocket_docking_7.prm

>  <SCORE>
-11.4354

>  <SCORE.INTER>
-11.4886

>  <SCORE.INTER.CONST>
1

>  <SCORE.INTER.POLAR>
-1.67276

>  <SCORE.INTER.ROT>
3

>  <SCORE.INTER.SOLV>
10.8707

>  <SCORE.INTER.VDW>
-11.3068

>  <SCORE.INTER.norm>
-0.522209

>  <SCORE.INTRA>
0.0526011

>  <SCORE.INTRA.DIHEDRAL>
-0.555481

>  <SCORE.INTRA.DIHEDRAL.0>
4.99603

>  <SCORE.INTRA.POLAR>
0

>  <SCORE.INTRA.POLAR.0>
0

>  <SCORE.INTRA.REPUL>
0

>  <SCORE.INTRA.REPUL.0>
0

>  <SCORE.INTRA.SOLV>
1.49499

>  <SCORE.INTRA.SOLV.lig_0>
-74.884

>  <SCORE.INTRA.VDW>
-0.417153

>  <SCORE.INTRA.VDW.0>
-0.858933

>  <SCORE.INTRA.norm>
0.00239096

>  <SCORE.RESTR>
0.000543543

>  <SCORE.RESTR.CAVITY>
0.000543543

>  <SCORE.RESTR.norm>
2.47065e-05

>  <SCORE.SYSTEM>
0

>  <SCORE.SYSTEM.CONST>
0

>  <SCORE.SYSTEM.DIHEDRAL>
0

>  <SCORE.SYSTEM.SOLV>
0

>  <SCORE.SYSTEM.norm>
0

>  <SCORE.heavy>
22

>  <SCORE.norm>
-0.519793

>  <RMSD>
6.896

$$$$
2et8_lig
 OpenBabel11021811433D
libRbt.so/2013.1/901 2013/11/27
 22 23  0  0  0  0  0  0  0  0999 V2000
   23.6041   16.2813   37.9203 N   0  0  0  0  0  0  0  0  0  0  0  0
   23.1115   16.6767   33.0000 N   0  0  0  0  0  0  0  0  0  0  0  0
   19.7137   18.0571   30.5782 N   0  0  0  0  0  0  0  0  0  0  0  0
   20.0555   13.8031   35.5554 O   0  0  0  0  0  0  0  0  0  0  0  0
   21.4136   14.2922   35.4291 C   0  0  2  0  0  0  0  0  0  0  0  0
   20.0912   11.8425   32.7051 N   0  0  0  0  0  0  0  0  0  0  0  0
   21.7393   14.1933   37.8965 O   0  0  0  0  0  0  0  0  0  0  0  0
   21.8214   15.0495   36.7501 C   0  0  1  0  0  0  0  0  0  0  0  0
   21.1617   14.6010   33.0856 O   0  0  0  0  0  0  0  0  0  0  0  0
   23.2385   15.5590   36.6539 C   0  0  1  0  0  0  0  0  0  0  0  0
   19.3656   15.4966   31.9567 O   0  0  0  0  0  0  0  0  0  0  0  0
   23.3575   16.5020   35.4346 C   0  0  0  0  0  0  0  0  0  0  0  0
   20.5398   14.4144   28.6747 O   0  0  0  0  0  0  0  0  0  0  0  0
   22.9630   15.6991   34.1607 C   0  0  1  0  0  0  0  0  0  0  0  0
   20.0992   11.9304   29.8884 O   0  0  0  0  0  0  0  0  0  0  0  0
   21.5189   15.2972   34.2142 C   0  0  2  0  0  0  0  0  0  0  0  0
   19.8290   14.3175   32.8113 C   0  0  1  0  0  0  0  0  0  0  0  0
   20.0862   15.5940   30.6503 C   0  0  2  0  0  0  0  0  0  0  0  0
   19.5545   16.7838   29.8245 C   0  0  0  0  0  0  0  0  0  0  0  0
   19.8591   14.3275   29.8802 C   0  0  2  0  0  0  0  0  0  0  0  0
   20.3460   13.1278   30.6398 C   0  0  1  0  0  0  0  0  0  0  0  0
   19.6173   13.0495   31.9373 C   0  0  1  0  0  0  0  0  0  0  0  0
  5  4  1  1  0  0  0
  5  8  1  0  0  0  0
  5 16  1  0  0  0  0
  8  7  1  1  0  0  0
  8 10  1  0  0  0  0
 10  1  1  1  0  0  0
 10 12  1  0  0  0  0
 11 18  1  0  0  0  0
 12 14  1  0  0  0  0
 14  2  1  6  0  0  0
 14 16  1  0  0  0  0
 16  9  1  6  0  0  0
 17  9  1  6  0  0  0
 17 11  1  0  0  0  0
 17 22  1  0  0  0  0
 18 19  1  6  0  0  0
 18 20  1  0  0  0  0
 19  3  1  0  0  0  0
 20 13  1  6  0  0  0
 20 21  1  0  0  0  0
 21 15  1  6  0  0  0
 21 22  1  0  0  0  0
 22  6  1  1  0  0  0
M  END
>  <CHROM.1>
76.43857077,91.49705260,58.41218335,21.02737841,14.83607805,33.14858057,-0.60373816
-1.10938765,-0.78764670

>  <Name>
2et8_lig

>  <RI>
2.82936e+07

>  <Rbt.Current_Directory>
/home/itssahil/PROJECTS/Mol_Feturizer/New_Systems/rnas/2et8

>  <Rbt.Executable>
rbdock ($Id: //depot/dev/client3/rdock/2013.1/src/exe/rbdock.cxx#4 $)

>  <Rbt.Library>
libRbt.so (2013.1, Build901 2013/11/27)

>  <Rbt.Parameter_File>
/export/apps/rDock/src/rDock_2013.1_src/data/scripts/dock_solv.prm

>  <Rbt.Receptor>
prm/pocket_docking_8.prm

>  <SCORE>
-11.8239

>  <SCORE.INTER>
-11.4976

>  <SCORE.INTER.CONST>
1

>  <SCORE.INTER.POLAR>
-1.64689

>  <SCORE.INTER.ROT>
3

>  <SCORE.INTER.SOLV>
12.9135

>  <SCORE.INTER.VDW>
-12.0799

>  <SCORE.INTER.norm>
-0.522616

>  <SCORE.INTRA>
-0.326374

>  <SCORE.INTRA.DIHEDRAL>
0.213781

>  <SCORE.INTRA.DIHEDRAL.0>
4.99603

>  <SCORE.INTRA.POLAR>
0

>  <SCORE.INTRA.POLAR.0>
0

>  <SCORE.INTRA.REPUL>
0

>  <SCORE.INTRA.REPUL.0>
0

>  <SCORE.INTRA.SOLV>
0.161252

>  <SCORE.INTRA.SOLV.lig_0>
-74.884

>  <SCORE.INTRA.VDW>
-0.513891

>  <SCORE.INTRA.VDW.0>
-0.858933

>  <SCORE.INTRA.norm>
-0.0148352

>  <SCORE.RESTR>
0

>  <SCORE.RESTR.CAVITY>
0

>  <SCORE.RESTR.norm>
0

>  <SCORE.SYSTEM>
0

>  <SCORE.SYSTEM.CONST>
0

>  <SCORE.SYSTEM.DIHEDRAL>
0

>  <SCORE.SYSTEM.SOLV>
0

>  <SCORE.SYSTEM.norm>
0

>  <SCORE.heavy>
22

>  <SCORE.norm>
-0.537451

>  <RMSD>
6.898

$$$$
2et8_lig
 OpenBabel11021811433D
libRbt.so/2013.1/901 2013/11/27
 22 23  0  0  0  0  0  0  0  0999 V2000
   24.0765   16.4027   37.7406 N   0  0  0  0  0  0  0  0  0  0  0  0
   23.3206   16.8511   32.8585 N   0  0  0  0  0  0  0  0  0  0  0  0
   18.2237   17.1697   29.7844 N   0  0  0  0  0  0  0  0  0  0  0  0
   20.2954   14.0935   35.5733 O   0  0  0  0  0  0  0  0  0  0  0  0
   21.6637   14.5251   35.3712 C   0  0  2  0  0  0  0  0  0  0  0  0
   20.0162   12.1803   32.7419 N   0  0  0  0  0  0  0  0  0  0  0  0
   22.1256   14.3962   37.8154 O   0  0  0  0  0  0  0  0  0  0  0  0
   22.1787   15.2557   36.6697 C   0  0  1  0  0  0  0  0  0  0  0  0
   21.2916   14.8598   33.0474 O   0  0  0  0  0  0  0  0  0  0  0  0
   23.6084   15.7050   36.4944 C   0  0  1  0  0  0  0  0  0  0  0  0
   19.5184   15.8696   31.9804 O   0  0  0  0  0  0  0  0  0  0  0  0
   23.6978   16.6501   35.2742 C   0  0  0  0  0  0  0  0  0  0  0  0
   20.4802   14.6786   28.6672 O   0  0  0  0  0  0  0  0  0  0  0  0
   23.1970   15.8731   34.0217 C   0  0  1  0  0  0  0  0  0  0  0  0
   19.9163   12.2426   29.9263 O   0  0  0  0  0  0  0  0  0  0  0  0
   21.7423   15.5327   34.1564 C   0  0  2  0  0  0  0  0  0  0  0  0
   19.9324   14.6685   32.8296 C   0  0  1  0  0  0  0  0  0  0  0  0
   20.1906   15.9046   30.6454 C   0  0  2  0  0  0  0  0  0  0  0  0
   19.7104   17.1215   29.8276 C   0  0  0  0  0  0  0  0  0  0  0  0
   19.8444   14.6505   29.8997 C   0  0  2  0  0  0  0  0  0  0  0  0
   20.2765   13.4262   30.6532 C   0  0  1  0  0  0  0  0  0  0  0  0
   19.5973   13.4109   31.9795 C   0  0  1  0  0  0  0  0  0  0  0  0
  5  4  1  1  0  0  0
  5  8  1  0  0  0  0
  5 16  1  0  0  0  0
  8  7  1  1  0  0  0
  8 10  1  0  0  0  0
 10  1  1  1  0  0  0
 10 12  1  0  0  0  0
 11 18  1  0  0  0  0
 12 14  1  0  0  0  0
 14  2  1  6  0  0  0
 14 16  1  0  0  0  0
 16  9  1  6  0  0  0
 17  9  1  6  0  0  0
 17 11  1  0  0  0  0
 17 22  1  0  0  0  0
 18 19  1  6  0  0  0
 18 20  1  0  0  0  0
 19  3  1  0  0  0  0
 20 13  1  6  0  0  0
 20 21  1  0  0  0  0
 21 15  1  6  0  0  0
 21 22  1  0  0  0  0
 22  6  1  1  0  0  0
M  END
>  <CHROM.1>
78.29241630,91.85579587,-51.42955656,21.10883967,15.04506328,33.07330257
-0.61691667,-0.99830575,-0.80600235

>  <Name>
2et8_lig

>  <RI>
0

>  <Rbt.Current_Directory>
/home/itssahil/PROJECTS/Mol_Feturizer/New_Systems/rnas/2et8

>  <Rbt.Executable>
rbdock ($Id: //depot/dev/client3/rdock/2013.1/src/exe/rbdock.cxx#4 $)

>  <Rbt.Library>
libRbt.so (2013.1, Build901 2013/11/27)

>  <Rbt.Parameter_File>
/export/apps/rDock/src/rDock_2013.1_src/data/scripts/dock_solv.prm

>  <Rbt.Receptor>
prm/pocket_docking_7.prm

>  <SCORE>
-11.2687

>  <SCORE.INTER>
-11.9483

>  <SCORE.INTER.CONST>
1

>  <SCORE.INTER.POLAR>
-1.64937

>  <SCORE.INTER.ROT>
3

>  <SCORE.INTER.SOLV>
10.868

>  <SCORE.INTER.VDW>
-11.6903

>  <SCORE.INTER.norm>
-0.543103

>  <SCORE.INTRA>
0.67953

>  <SCORE.INTRA.DIHEDRAL>
0.80088

>  <SCORE.INTRA.DIHEDRAL.0>
4.99603

>  <SCORE.INTRA.POLAR>
0

>  <SCORE.INTRA.POLAR.0>
0

>  <SCORE.INTRA.REPUL>
0

>  <SCORE.INTRA.REPUL.0>
0

>  <SCORE.INTRA.SOLV>
1.64384

>  <SCORE.INTRA.SOLV.lig_0>
-74.884

>  <SCORE.INTRA.VDW>
-0.542833

>  <SCORE.INTRA.VDW.0>
-0.858933

>  <SCORE.INTRA.norm>
0.0308877

>  <SCORE.RESTR>
0

>  <SCORE.RESTR.CAVITY>
0

>  <SCORE.RESTR.norm>
0

>  <SCORE.SYSTEM>
0

>  <SCORE.SYSTEM.CONST>
0

>  <SCORE.SYSTEM.DIHEDRAL>
0

>  <SCORE.SYSTEM.SOLV>
0

>  <SCORE.SYSTEM.norm>
0

>  <SCORE.heavy>
22

>  <SCORE.norm>
-0.512215

>  <RMSD>
6.899

$$$$
2et8_lig
 OpenBabel11021811433D
libRbt.so/2013.1/901 2013/11/27
 22 23  0  0  0  0  0  0  0  0999 V2000
   27.2586   15.0628   30.4554 N   0  0  0  0  0  0  0  0  0  0  0  0
   23.2884   16.5637   33.0230 N   0  0  0  0  0  0  0  0  0  0  0  0
   18.7340   12.5369   32.0761 N   0  0  0  0  0  0  0  0  0  0  0  0
   22.7777   14.9982   28.3954 O   0  0  0  0  0  0  0  0  0  0  0  0
   23.6178   15.7219   29.3281 C   0  0  2  0  0  0  0  0  0  0  0  0
   19.5474   17.8668   29.2957 N   0  0  0  0  0  0  0  0  0  0  0  0
   25.6769   14.9671   28.1474 O   0  0  0  0  0  0  0  0  0  0  0  0
   25.0237   15.0152   29.4222 C   0  0  1  0  0  0  0  0  0  0  0  0
   21.7398   16.3553   30.6406 O   0  0  0  0  0  0  0  0  0  0  0  0
   25.9272   15.7558   30.3772 C   0  0  1  0  0  0  0  0  0  0  0  0
   20.4349   14.4599   30.7254 O   0  0  0  0  0  0  0  0  0  0  0  0
   25.2584   15.8106   31.7700 C   0  0  0  0  0  0  0  0  0  0  0  0
   18.3006   15.7183   33.4054 O   0  0  0  0  0  0  0  0  0  0  0  0
   23.8876   16.5330   31.6212 C   0  0  1  0  0  0  0  0  0  0  0  0
   17.6723   17.5390   31.3737 O   0  0  0  0  0  0  0  0  0  0  0  0
   22.9560   15.7295   30.7631 C   0  0  2  0  0  0  0  0  0  0  0  0
   20.6913   15.7541   29.9544 C   0  0  1  0  0  0  0  0  0  0  0  0
   19.9816   14.6936   32.1309 C   0  0  2  0  0  0  0  0  0  0  0  0
   19.7132   13.3525   32.8448 C   0  0  0  0  0  0  0  0  0  0  0  0
   18.7119   15.4908   32.1003 C   0  0  2  0  0  0  0  0  0  0  0  0
   18.9060   16.8067   31.4045 C   0  0  1  0  0  0  0  0  0  0  0  0
   19.3583   16.5521   30.0077 C   0  0  1  0  0  0  0  0  0  0  0  0
  5  4  1  6  0  0  0
  5  8  1  0  0  0  0
  5 16  1  0  0  0  0
  8  7  1  6  0  0  0
  8 10  1  0  0  0  0
 10  1  1  1  0  0  0
 10 12  1  0  0  0  0
 11 18  1  0  0  0  0
 12 14  1  0  0  0  0
 14  2  1  1  0  0  0
 14 16  1  0  0  0  0
 16  9  1  6  0  0  0
 17  9  1  1  0  0  0
 17 11  1  0  0  0  0
 17 22  1  0  0  0  0
 18 19  1  6  0  0  0
 18 20  1  0  0  0  0
 19  3  1  0  0  0  0
 20 13  1  1  0  0  0
 20 21  1  0  0  0  0
 21 15  1  6  0  0  0
 21 22  1  0  0  0  0
 22  6  1  1  0  0  0
M  END
>  <CHROM.1>
69.66714354,60.60440176,-55.56027589,21.76358897,15.59992483,30.86451951
-0.19845210,-0.18343346,2.19867896

>  <Name>
2et8_lig

>  <RI>
0

>  <Rbt.Current_Directory>
/home/itssahil/PROJECTS/Mol_Feturizer/New_Systems/rnas/2et8

>  <Rbt.Executable>
rbdock ($Id: //depot/dev/client3/rdock/2013.1/src/exe/rbdock.cxx#4 $)

>  <Rbt.Library>
libRbt.so (2013.1, Build901 2013/11/27)

>  <Rbt.Parameter_File>
/export/apps/rDock/src/rDock_2013.1_src/data/scripts/dock_solv.prm

>  <Rbt.Receptor>
prm/pocket_docking_7.prm

>  <SCORE>
-12.5245

>  <SCORE.INTER>
-10.8366

>  <SCORE.INTER.CONST>
1

>  <SCORE.INTER.POLAR>
-1.09545

>  <SCORE.INTER.ROT>
3

>  <SCORE.INTER.SOLV>
20.0754

>  <SCORE.INTER.VDW>
-15.8647

>  <SCORE.INTER.norm>
-0.492574

>  <SCORE.INTRA>
-1.7878

>  <SCORE.INTRA.DIHEDRAL>
-4.28958

>  <SCORE.INTRA.DIHEDRAL.0>
4.99603

>  <SCORE.INTRA.POLAR>
0

>  <SCORE.INTRA.POLAR.0>
0

>  <SCORE.INTRA.REPUL>
0

>  <SCORE.INTRA.REPUL.0>
0

>  <SCORE.INTRA.SOLV>
0.53275

>  <SCORE.INTRA.SOLV.lig_0>
-74.884

>  <SCORE.INTRA.VDW>
0.090609

>  <SCORE.INTRA.VDW.0>
-0.858933

>  <SCORE.INTRA.norm>
-0.0812638

>  <SCORE.RESTR>
0.0999298

>  <SCORE.RESTR.CAVITY>
0.0999298

>  <SCORE.RESTR.norm>
0.00454226

>  <SCORE.SYSTEM>
0

>  <SCORE.SYSTEM.CONST>
0

>  <SCORE.SYSTEM.DIHEDRAL>
0

>  <SCORE.SYSTEM.SOLV>
0

>  <SCORE.SYSTEM.norm>
0

>  <SCORE.heavy>
22

>  <SCORE.norm>
-0.569296

>  <RMSD>
6.935

$$$$
2et8_lig
 OpenBabel11021811433D
libRbt.so/2013.1/901 2013/11/27
 22 23  0  0  0  0  0  0  0  0999 V2000
   21.3399   13.0608   37.2730 N   0  0  0  0  0  0  0  0  0  0  0  0
   24.4940   16.4434   39.0667 N   0  0  0  0  0  0  0  0  0  0  0  0
   29.0996   17.9114   38.5520 N   0  0  0  0  0  0  0  0  0  0  0  0
   22.4480   17.0866   34.6479 O   0  0  0  0  0  0  0  0  0  0  0  0
   22.9904   16.1259   35.5872 C   0  0  2  0  0  0  0  0  0  0  0  0
   24.2262   20.7275   36.2957 N   0  0  0  0  0  0  0  0  0  0  0  0
   21.4015   14.3757   34.8022 O   0  0  0  0  0  0  0  0  0  0  0  0
   21.8774   15.0736   35.9600 C   0  0  1  0  0  0  0  0  0  0  0  0
   24.4276   17.7612   36.5415 O   0  0  0  0  0  0  0  0  0  0  0  0
   22.4178   14.0497   36.9276 C   0  0  1  0  0  0  0  0  0  0  0  0
   26.2265   17.9614   37.9651 O   0  0  0  0  0  0  0  0  0  0  0  0
   22.9246   14.7697   38.1984 C   0  0  0  0  0  0  0  0  0  0  0  0
   28.5610   18.9046   35.3228 O   0  0  0  0  0  0  0  0  0  0  0  0
   24.0314   15.7791   37.7746 C   0  0  1  0  0  0  0  0  0  0  0  0
   26.8171   21.0934   35.2493 O   0  0  0  0  0  0  0  0  0  0  0  0
   23.4582   16.8595   36.9063 C   0  0  2  0  0  0  0  0  0  0  0  0
   24.9592   18.6535   37.4650 C   0  0  1  0  0  0  0  0  0  0  0  0
   27.2474   17.7587   36.8917 C   0  0  2  0  0  0  0  0  0  0  0  0
   28.5107   17.0834   37.4646 C   0  0  0  0  0  0  0  0  0  0  0  0
   27.6243   19.0961   36.3278 C   0  0  2  0  0  0  0  0  0  0  0  0
   26.4307   19.8109   35.7641 C   0  0  1  0  0  0  0  0  0  0  0  0
   25.4260   20.0017   36.8479 C   0  0  1  0  0  0  0  0  0  0  0  0
  5  4  1  6  0  0  0
  5  8  1  0  0  0  0
  5 16  1  0  0  0  0
  8  7  1  6  0  0  0
  8 10  1  0  0  0  0
 10  1  1  1  0  0  0
 10 12  1  0  0  0  0
 11 18  1  0  0  0  0
 12 14  1  0  0  0  0
 14  2  1  1  0  0  0
 14 16  1  0  0  0  0
 16  9  1  6  0  0  0
 17  9  1  6  0  0  0
 17 11  1  0  0  0  0
 17 22  1  0  0  0  0
 18 19  1  1  0  0  0
 18 20  1  0  0  0  0
 19  3  1  0  0  0  0
 20 13  1  6  0  0  0
 20 21  1  0  0  0  0
 21 15  1  1  0  0  0
 21 22  1  0  0  0  0
 22  6  1  6  0  0  0
M  END
>  <CHROM.1>
174.15633980,95.22018133,-58.82481729,24.87243748,17.31131495,36.68493231
-2.56768330,-0.44612822,-0.56906562

>  <Name>
2et8_lig

>  <RI>
0

>  <Rbt.Current_Directory>
/home/itssahil/PROJECTS/Mol_Feturizer/New_Systems/rnas/2et8

>  <Rbt.Executable>
rbdock ($Id: //depot/dev/client3/rdock/2013.1/src/exe/rbdock.cxx#4 $)

>  <Rbt.Library>
libRbt.so (2013.1, Build901 2013/11/27)

>  <Rbt.Parameter_File>
/export/apps/rDock/src/rDock_2013.1_src/data/scripts/dock_solv.prm

>  <Rbt.Receptor>
prm/pocket_docking_7.prm

>  <SCORE>
-9.65938

>  <SCORE.INTER>
-10.9449

>  <SCORE.INTER.CONST>
1

>  <SCORE.INTER.POLAR>
-1.99761

>  <SCORE.INTER.ROT>
3

>  <SCORE.INTER.SOLV>
12.4529

>  <SCORE.INTER.VDW>
-10.3889

>  <SCORE.INTER.norm>
-0.497495

>  <SCORE.INTRA>
1.2855

>  <SCORE.INTRA.DIHEDRAL>
-0.168937

>  <SCORE.INTRA.DIHEDRAL.0>
4.99603

>  <SCORE.INTRA.POLAR>
0

>  <SCORE.INTRA.POLAR.0>
0

>  <SCORE.INTRA.REPUL>
0

>  <SCORE.INTRA.REPUL.0>
0

>  <SCORE.INTRA.SOLV>
2.67536

>  <SCORE.INTRA.SOLV.lig_0>
-74.884

>  <SCORE.INTRA.VDW>
0.0322911

>  <SCORE.INTRA.VDW.0>
-0.858933

>  <SCORE.INTRA.norm>
0.0584319

>  <SCORE.RESTR>
0

>  <SCORE.RESTR.CAVITY>
0

>  <SCORE.RESTR.norm>
0

>  <SCORE.SYSTEM>
0

>  <SCORE.SYSTEM.CONST>
0

>  <SCORE.SYSTEM.DIHEDRAL>
0

>  <SCORE.SYSTEM.SOLV>
0

>  <SCORE.SYSTEM.norm>
0

>  <SCORE.heavy>
22

>  <SCORE.norm>
-0.439063

>  <RMSD>
6.945

$$$$
2et8_lig
 OpenBabel11021811433D
libRbt.so/2013.1/901 2013/11/27
 22 23  0  0  0  0  0  0  0  0999 V2000
   19.0689   19.9251   32.6958 N   0  0  0  0  0  0  0  0  0  0  0  0
   22.7758   16.7444   33.5615 N   0  0  0  0  0  0  0  0  0  0  0  0
   24.5973   16.8217   39.1047 N   0  0  0  0  0  0  0  0  0  0  0  0
   23.1201   21.3990   35.0920 O   0  0  0  0  0  0  0  0  0  0  0  0
   22.6448   20.5148   34.0472 C   0  0  2  0  0  0  0  0  0  0  0  0
   27.1630   19.8940   34.5420 N   0  0  0  0  0  0  0  0  0  0  0  0
   20.7107   22.0132   33.5802 O   0  0  0  0  0  0  0  0  0  0  0  0
   21.0824   20.6674   33.9039 C   0  0  1  0  0  0  0  0  0  0  0  0
   24.3429   18.9209   34.5230 O   0  0  0  0  0  0  0  0  0  0  0  0
   20.5591   19.7676   32.8114 C   0  0  1  0  0  0  0  0  0  0  0  0
   24.4285   18.5070   36.7866 O   0  0  0  0  0  0  0  0  0  0  0  0
   20.9287   18.3027   33.1394 C   0  0  0  0  0  0  0  0  0  0  0  0
   26.5133   15.5313   36.4407 O   0  0  0  0  0  0  0  0  0  0  0  0
   22.4786   18.2071   33.2499 C   0  0  1  0  0  0  0  0  0  0  0  0
   28.2781   17.4870   35.4931 O   0  0  0  0  0  0  0  0  0  0  0  0
   22.9773   19.0136   34.4121 C   0  0  2  0  0  0  0  0  0  0  0  0
   25.0006   19.3694   35.6623 C   0  0  1  0  0  0  0  0  0  0  0  0
   24.7386   17.0531   36.6274 C   0  0  2  0  0  0  0  0  0  0  0  0
   24.1599   16.2424   37.8055 C   0  0  0  0  0  0  0  0  0  0  0  0
   26.2279   16.8790   36.6024 C   0  0  2  0  0  0  0  0  0  0  0  0
   26.8533   17.6569   35.4812 C   0  0  1  0  0  0  0  0  0  0  0  0
   26.5318   19.1012   35.6575 C   0  0  1  0  0  0  0  0  0  0  0  0
  5  4  1  1  0  0  0
  5  8  1  0  0  0  0
  5 16  1  0  0  0  0
  8  7  1  6  0  0  0
  8 10  1  0  0  0  0
 10  1  1  1  0  0  0
 10 12  1  0  0  0  0
 11 18  1  0  0  0  0
 12 14  1  0  0  0  0
 14  2  1  1  0  0  0
 14 16  1  0  0  0  0
 16  9  1  6  0  0  0
 17  9  1  6  0  0  0
 17 11  1  0  0  0  0
 17 22  1  0  0  0  0
 18 19  1  1  0  0  0
 18 20  1  0  0  0  0
 19  3  1  0  0  0  0
 20 13  1  6  0  0  0
 20 21  1  0  0  0  0
 21 15  1  1  0  0  0
 21 22  1  0  0  0  0
 22  6  1  6  0  0  0
M  END
>  <CHROM.1>
78.16612708,61.21408902,-52.42072270,23.89726201,18.64419381,35.07234888
2.49686382,-0.22472737,-0.52185586

>  <Name>
2et8_lig

>  <RI>
0

>  <Rbt.Current_Directory>
/home/itssahil/PROJECTS/Mol_Feturizer/New_Systems/rnas/2et8

>  <Rbt.Executable>
rbdock ($Id: //depot/dev/client3/rdock/2013.1/src/exe/rbdock.cxx#4 $)

>  <Rbt.Library>
libRbt.so (2013.1, Build901 2013/11/27)

>  <Rbt.Parameter_File>
/export/apps/rDock/src/rDock_2013.1_src/data/scripts/dock_solv.prm

>  <Rbt.Receptor>
prm/pocket_docking_7.prm

>  <SCORE>
-6.04957

>  <SCORE.INTER>
-4.46838

>  <SCORE.INTER.CONST>
1

>  <SCORE.INTER.POLAR>
-0.665463

>  <SCORE.INTER.ROT>
3

>  <SCORE.INTER.SOLV>
15.4106

>  <SCORE.INTER.VDW>
-11.4976

>  <SCORE.INTER.norm>
-0.203108

>  <SCORE.INTRA>
-1.58119

>  <SCORE.INTRA.DIHEDRAL>
-3.12386

>  <SCORE.INTRA.DIHEDRAL.0>
4.99603

>  <SCORE.INTRA.POLAR>
0

>  <SCORE.INTRA.POLAR.0>
0

>  <SCORE.INTRA.REPUL>
0

>  <SCORE.INTRA.REPUL.0>
0

>  <SCORE.INTRA.SOLV>
0.885643

>  <SCORE.INTRA.SOLV.lig_0>
-74.884

>  <SCORE.INTRA.VDW>
-0.462078

>  <SCORE.INTRA.VDW.0>
-0.858933

>  <SCORE.INTRA.norm>
-0.0718721

>  <SCORE.RESTR>
0

>  <SCORE.RESTR.CAVITY>
0

>  <SCORE.RESTR.norm>
0

>  <SCORE.SYSTEM>
0

>  <SCORE.SYSTEM.CONST>
0

>  <SCORE.SYSTEM.DIHEDRAL>
0

>  <SCORE.SYSTEM.SOLV>
0

>  <SCORE.SYSTEM.norm>
0

>  <SCORE.heavy>
22

>  <SCORE.norm>
-0.27498

>  <RMSD>
6.982

$$$$
2et8_lig
 OpenBabel11021811433D
libRbt.so/2013.1/901 2013/11/27
 22 23  0  0  0  0  0  0  0  0999 V2000
   21.2007   12.9745   36.9655 N   0  0  0  0  0  0  0  0  0  0  0  0
   23.1647   10.3093   40.6597 N   0  0  0  0  0  0  0  0  0  0  0  0
   21.2518    5.9284   42.8818 N   0  0  0  0  0  0  0  0  0  0  0  0
   18.6184   12.1205   41.0799 O   0  0  0  0  0  0  0  0  0  0  0  0
   19.9565   12.3512   40.5744 C   0  0  2  0  0  0  0  0  0  0  0  0
   20.2978   12.1327   44.9504 N   0  0  0  0  0  0  0  0  0  0  0  0
   19.0653   13.6502   38.6451 O   0  0  0  0  0  0  0  0  0  0  0  0
   19.8988   12.5432   39.0108 C   0  0  1  0  0  0  0  0  0  0  0  0
   20.9105   10.9818   42.2671 O   0  0  0  0  0  0  0  0  0  0  0  0
   21.2785   12.7999   38.4563 C   0  0  1  0  0  0  0  0  0  0  0  0
   19.4328    9.2529   42.6272 O   0  0  0  0  0  0  0  0  0  0  0  0
   22.2005   11.6132   38.8189 C   0  0  0  0  0  0  0  0  0  0  0  0
   21.6152    7.5150   44.9805 O   0  0  0  0  0  0  0  0  0  0  0  0
   22.2353   11.4828   40.3697 C   0  0  1  0  0  0  0  0  0  0  0  0
   21.1109    9.8661   46.4141 O   0  0  0  0  0  0  0  0  0  0  0  0
   20.8821   11.1126   40.9004 C   0  0  2  0  0  0  0  0  0  0  0  0
   19.7526   10.7040   42.9838 C   0  0  1  0  0  0  0  0  0  0  0  0
   20.4858    8.2917   43.0775 C   0  0  2  0  0  0  0  0  0  0  0  0
   20.0916    6.8451   42.7141 C   0  0  0  0  0  0  0  0  0  0  0  0
   20.6282    8.3973   44.5665 C   0  0  2  0  0  0  0  0  0  0  0  0
   21.0000    9.7901   44.9855 C   0  0  1  0  0  0  0  0  0  0  0  0
   19.9399   10.7314   44.5268 C   0  0  1  0  0  0  0  0  0  0  0  0
  5  4  1  6  0  0  0
  5  8  1  0  0  0  0
  5 16  1  0  0  0  0
  8  7  1  1  0  0  0
  8 10  1  0  0  0  0
 10  1  1  6  0  0  0
 10 12  1  0  0  0  0
 11 18  1  0  0  0  0
 12 14  1  0  0  0  0
 14  2  1  6  0  0  0
 14 16  1  0  0  0  0
 16  9  1  1  0  0  0
 17  9  1  6  0  0  0
 17 11  1  0  0  0  0
 17 22  1  0  0  0  0
 18 19  1  1  0  0  0
 18 20  1  0  0  0  0
 19  3  1  0  0  0  0
 20 13  1  6  0  0  0
 20 21  1  0  0  0  0
 21 15  1  1  0  0  0
 21 22  1  0  0  0  0
 22  6  1  6  0  0  0
M  END
>  <CHROM.1>
62.75372141,70.91958234,167.44458861,20.66366450,10.50989580,41.95766875
-1.62578425,-1.14963857,2.14600453

>  <Name>
2et8_lig

>  <RI>
0

>  <Rbt.Current_Directory>
/home/itssahil/PROJECTS/Mol_Feturizer/New_Systems/rnas/2et8

>  <Rbt.Executable>
rbdock ($Id: //depot/dev/client3/rdock/2013.1/src/exe/rbdock.cxx#4 $)

>  <Rbt.Library>
libRbt.so (2013.1, Build901 2013/11/27)

>  <Rbt.Parameter_File>
/export/apps/rDock/src/rDock_2013.1_src/data/scripts/dock_solv.prm

>  <Rbt.Receptor>
prm/pocket_docking_7.prm

>  <SCORE>
-19.7129

>  <SCORE.INTER>
-18.878

>  <SCORE.INTER.CONST>
1

>  <SCORE.INTER.POLAR>
-2.5193

>  <SCORE.INTER.ROT>
3

>  <SCORE.INTER.SOLV>
15.7605

>  <SCORE.INTER.VDW>
-15.0411

>  <SCORE.INTER.norm>
-0.858089

>  <SCORE.INTRA>
-0.853255

>  <SCORE.INTRA.DIHEDRAL>
-3.65772

>  <SCORE.INTRA.DIHEDRAL.0>
4.99603

>  <SCORE.INTRA.POLAR>
0

>  <SCORE.INTRA.POLAR.0>
0

>  <SCORE.INTRA.REPUL>
0

>  <SCORE.INTRA.REPUL.0>
0

>  <SCORE.INTRA.SOLV>
0.172178

>  <SCORE.INTRA.SOLV.lig_0>
-74.884

>  <SCORE.INTRA.VDW>
0.889518

>  <SCORE.INTRA.VDW.0>
-0.858933

>  <SCORE.INTRA.norm>
-0.0387843

>  <SCORE.RESTR>
0.0183516

>  <SCORE.RESTR.CAVITY>
0.0183516

>  <SCORE.RESTR.norm>
0.000834162

>  <SCORE.SYSTEM>
0

>  <SCORE.SYSTEM.CONST>
0

>  <SCORE.SYSTEM.DIHEDRAL>
0

>  <SCORE.SYSTEM.SOLV>
0

>  <SCORE.SYSTEM.norm>
0

>  <SCORE.heavy>
22

>  <SCORE.norm>
-0.896039

>  <RMSD>
6.984

$$$$
2et8_lig
 OpenBabel11021811433D
libRbt.so/2013.1/901 2013/11/27
 22 23  0  0  0  0  0  0  0  0999 V2000
   23.4209   16.3546   37.8555 N   0  0  0  0  0  0  0  0  0  0  0  0
   23.0257   16.7153   32.9239 N   0  0  0  0  0  0  0  0  0  0  0  0
   19.6330   18.0101   30.4360 N   0  0  0  0  0  0  0  0  0  0  0  0
   19.9804   13.7859   35.4282 O   0  0  0  0  0  0  0  0  0  0  0  0
   21.3296   14.3048   35.3285 C   0  0  2  0  0  0  0  0  0  0  0  0
   20.1347   11.8092   32.5833 N   0  0  0  0  0  0  0  0  0  0  0  0
   21.6042   14.2251   37.8028 O   0  0  0  0  0  0  0  0  0  0  0  0
   21.6919   15.0775   36.6539 C   0  0  1  0  0  0  0  0  0  0  0  0
   21.1214   14.5967   32.9786 O   0  0  0  0  0  0  0  0  0  0  0  0
   23.0989   15.6182   36.5855 C   0  0  1  0  0  0  0  0  0  0  0  0
   19.3219   15.4410   31.8160 O   0  0  0  0  0  0  0  0  0  0  0  0
   23.2230   16.5578   35.3640 C   0  0  0  0  0  0  0  0  0  0  0  0
   20.5847   14.3880   28.5575 O   0  0  0  0  0  0  0  0  0  0  0  0
   22.8742   15.7401   34.0862 C   0  0  1  0  0  0  0  0  0  0  0  0
   20.1910   11.8942   29.7670 O   0  0  0  0  0  0  0  0  0  0  0  0
   21.4385   15.3061   34.1108 C   0  0  2  0  0  0  0  0  0  0  0  0
   19.8023   14.2762   32.6807 C   0  0  1  0  0  0  0  0  0  0  0  0
   20.0630   15.5569   30.5227 C   0  0  2  0  0  0  0  0  0  0  0  0
   19.5136   16.7306   29.6855 C   0  0  0  0  0  0  0  0  0  0  0  0
   19.8849   14.2837   29.7506 C   0  0  2  0  0  0  0  0  0  0  0  0
   20.3910   13.0987   30.5208 C   0  0  1  0  0  0  0  0  0  0  0  0
   19.6415   13.0018   31.8051 C   0  0  1  0  0  0  0  0  0  0  0  0
  5  4  1  1  0  0  0
  5  8  1  0  0  0  0
  5 16  1  0  0  0  0
  8  7  1  1  0  0  0
  8 10  1  0  0  0  0
 10  1  1  1  0  0  0
 10 12  1  0  0  0  0
 11 18  1  0  0  0  0
 12 14  1  0  0  0  0
 14  2  1  6  0  0  0
 14 16  1  0  0  0  0
 16  9  1  6  0  0  0
 17  9  1  6  0  0  0
 17 11  1  0  0  0  0
 17 22  1  0  0  0  0
 18 19  1  6  0  0  0
 18 20  1  0  0  0  0
 19  3  1  0  0  0  0
 20 13  1  6  0  0  0
 20 21  1  0  0  0  0
 21 15  1  6  0  0  0
 21 22  1  0  0  0  0
 22  6  1  1  0  0  0
M  END
>  <CHROM.1>
76.10750516,91.36226946,58.82102442,20.97749324,14.82998905,33.03894583,-0.59317640
-1.14165604,-0.78139184

>  <Name>
2et8_lig

>  <RI>
0

>  <Rbt.Current_Directory>
/home/itssahil/PROJECTS/Mol_Feturizer/New_Systems/rnas/2et8

>  <Rbt.Executable>
rbdock ($Id: //depot/dev/client3/rdock/2013.1/src/exe/rbdock.cxx#4 $)

>  <Rbt.Library>
libRbt.so (2013.1, Build901 2013/11/27)

>  <Rbt.Parameter_File>
/export/apps/rDock/src/rDock_2013.1_src/data/scripts/dock_solv.prm

>  <Rbt.Receptor>
prm/pocket_docking_7.prm

>  <SCORE>
-11.7896

>  <SCORE.INTER>
-11.4315

>  <SCORE.INTER.CONST>
1

>  <SCORE.INTER.POLAR>
-1.69664

>  <SCORE.INTER.ROT>
3

>  <SCORE.INTER.SOLV>
12.8192

>  <SCORE.INTER.VDW>
-11.8386

>  <SCORE.INTER.norm>
-0.519615

>  <SCORE.INTRA>
-0.35803

>  <SCORE.INTRA.DIHEDRAL>
0.139498

>  <SCORE.INTRA.DIHEDRAL.0>
4.99603

>  <SCORE.INTRA.POLAR>
0

>  <SCORE.INTRA.POLAR.0>
0

>  <SCORE.INTRA.REPUL>
0

>  <SCORE.INTRA.REPUL.0>
0

>  <SCORE.INTRA.SOLV>
0.136184

>  <SCORE.INTRA.SOLV.lig_0>
-74.884

>  <SCORE.INTRA.VDW>
-0.49587

>  <SCORE.INTRA.VDW.0>
-0.858933

>  <SCORE.INTRA.norm>
-0.0162741

>  <SCORE.RESTR>
0

>  <SCORE.RESTR.CAVITY>
0

>  <SCORE.RESTR.norm>
0

>  <SCORE.SYSTEM>
0

>  <SCORE.SYSTEM.CONST>
0

>  <SCORE.SYSTEM.DIHEDRAL>
0

>  <SCORE.SYSTEM.SOLV>
0

>  <SCORE.SYSTEM.norm>
0

>  <SCORE.heavy>
22

>  <SCORE.norm>
-0.535889

>  <RMSD>
6.988

$$$$
2et8_lig
 OpenBabel11021811433D
libRbt.so/2013.1/901 2013/11/27
 22 23  0  0  0  0  0  0  0  0999 V2000
   18.7053   14.9497   38.0031 N   0  0  0  0  0  0  0  0  0  0  0  0
   19.0438   12.6239   42.3717 N   0  0  0  0  0  0  0  0  0  0  0  0
   16.9483    8.3687   43.6172 N   0  0  0  0  0  0  0  0  0  0  0  0
   21.8761   11.2212   38.6117 O   0  0  0  0  0  0  0  0  0  0  0  0
   20.5736   11.7158   39.0094 C   0  0  2  0  0  0  0  0  0  0  0  0
   23.2569    9.2292   41.8632 N   0  0  0  0  0  0  0  0  0  0  0  0
   20.3361   12.9745   36.8733 O   0  0  0  0  0  0  0  0  0  0  0  0
   20.3003   13.0972   38.3007 C   0  0  1  0  0  0  0  0  0  0  0  0
   20.7647   10.7076   41.1536 O   0  0  0  0  0  0  0  0  0  0  0  0
   18.9424   13.6315   38.6851 C   0  0  1  0  0  0  0  0  0  0  0  0
   20.0236   10.5828   43.3302 O   0  0  0  0  0  0  0  0  0  0  0  0
   18.8763   13.7926   40.2212 C   0  0  0  0  0  0  0  0  0  0  0  0
   19.1742    7.0391   43.1259 O   0  0  0  0  0  0  0  0  0  0  0  0
   19.1333   12.3993   40.8662 C   0  0  1  0  0  0  0  0  0  0  0  0
   21.9484    6.9059   42.7750 O   0  0  0  0  0  0  0  0  0  0  0  0
   20.5278   11.9300   40.5745 C   0  0  2  0  0  0  0  0  0  0  0  0
   21.2690   10.6132   42.4453 C   0  0  1  0  0  0  0  0  0  0  0  0
   19.1625    9.3841   43.0913 C   0  0  2  0  0  0  0  0  0  0  0  0
   17.9401    9.3975   44.0325 C   0  0  0  0  0  0  0  0  0  0  0  0
   19.9706    8.1501   43.3615 C   0  0  2  0  0  0  0  0  0  0  0  0
   21.1855    8.0854   42.4821 C   0  0  1  0  0  0  0  0  0  0  0  0
   22.0285    9.2879   42.7342 C   0  0  1  0  0  0  0  0  0  0  0  0
  5  4  1  1  0  0  0
  5  8  1  0  0  0  0
  5 16  1  0  0  0  0
  8  7  1  6  0  0  0
  8 10  1  0  0  0  0
 10  1  1  6  0  0  0
 10 12  1  0  0  0  0
 11 18  1  0  0  0  0
 12 14  1  0  0  0  0
 14  2  1  1  0  0  0
 14 16  1  0  0  0  0
 16  9  1  1  0  0  0
 17  9  1  6  0  0  0
 17 11  1  0  0  0  0
 17 22  1  0  0  0  0
 18 19  1  1  0  0  0
 18 20  1  0  0  0  0
 19  3  1  0  0  0  0
 20 13  1  6  0  0  0
 20 21  1  0  0  0  0
 21 15  1  1  0  0  0
 21 22  1  0  0  0  0
 22  6  1  6  0  0  0
M  END
>  <CHROM.1>
156.23261631,89.70243863,168.59136922,20.10614109,10.69638507,41.24397107
1.62151991,0.47952204,-0.76377779

>  <Name>
2et8_lig

>  <RI>
2.82936e+07

>  <Rbt.Current_Directory>
/home/itssahil/PROJECTS/Mol_Feturizer/New_Systems/rnas/2et8

>  <Rbt.Executable>
rbdock ($Id: //depot/dev/client3/rdock/2013.1/src/exe/rbdock.cxx#4 $)

>  <Rbt.Library>
libRbt.so (2013.1, Build901 2013/11/27)

>  <Rbt.Parameter_File>
/export/apps/rDock/src/rDock_2013.1_src/data/scripts/dock_solv.prm

>  <Rbt.Receptor>
prm/pocket_docking_8.prm

>  <SCORE>
-13.297

>  <SCORE.INTER>
-15.3757

>  <SCORE.INTER.CONST>
1

>  <SCORE.INTER.POLAR>
-0.959166

>  <SCORE.INTER.ROT>
3

>  <SCORE.INTER.SOLV>
11.9985

>  <SCORE.INTER.VDW>
-16.6527

>  <SCORE.INTER.norm>
-0.698894

>  <SCORE.INTRA>
2.07862

>  <SCORE.INTRA.DIHEDRAL>
1.48615

>  <SCORE.INTRA.DIHEDRAL.0>
4.99603

>  <SCORE.INTRA.POLAR>
0

>  <SCORE.INTRA.POLAR.0>
0

>  <SCORE.INTRA.REPUL>
0

>  <SCORE.INTRA.REPUL.0>
0

>  <SCORE.INTRA.SOLV>
2.84162

>  <SCORE.INTRA.SOLV.lig_0>
-74.884

>  <SCORE.INTRA.VDW>
-0.0852646

>  <SCORE.INTRA.VDW.0>
-0.858933

>  <SCORE.INTRA.norm>
0.0944827

>  <SCORE.RESTR>
0

>  <SCORE.RESTR.CAVITY>
0

>  <SCORE.RESTR.norm>
0

>  <SCORE.SYSTEM>
0

>  <SCORE.SYSTEM.CONST>
0

>  <SCORE.SYSTEM.DIHEDRAL>
0

>  <SCORE.SYSTEM.SOLV>
0

>  <SCORE.SYSTEM.norm>
0

>  <SCORE.heavy>
22

>  <SCORE.norm>
-0.604411

>  <RMSD>
6.988

$$$$
2et8_lig
 OpenBabel11021811433D
libRbt.so/2013.1/901 2013/11/27
 22 23  0  0  0  0  0  0  0  0999 V2000
   21.2275   12.9830   36.9790 N   0  0  0  0  0  0  0  0  0  0  0  0
   23.1340   10.2398   40.6461 N   0  0  0  0  0  0  0  0  0  0  0  0
   21.2238    5.9106   42.9197 N   0  0  0  0  0  0  0  0  0  0  0  0
   18.6431   12.1765   41.1017 O   0  0  0  0  0  0  0  0  0  0  0  0
   19.9847   12.3724   40.5906 C   0  0  2  0  0  0  0  0  0  0  0  0
   20.3029   12.1296   44.9490 N   0  0  0  0  0  0  0  0  0  0  0  0
   19.1208   13.7083   38.6741 O   0  0  0  0  0  0  0  0  0  0  0  0
   19.9244   12.5758   39.0285 C   0  0  1  0  0  0  0  0  0  0  0  0
   20.9080   10.9657   42.2696 O   0  0  0  0  0  0  0  0  0  0  0  0
   21.3080   12.7969   38.4682 C   0  0  1  0  0  0  0  0  0  0  0  0
   19.4233    9.2445   42.6378 O   0  0  0  0  0  0  0  0  0  0  0  0
   22.1978   11.5822   38.8186 C   0  0  0  0  0  0  0  0  0  0  0  0
   21.6007    7.5065   44.9958 O   0  0  0  0  0  0  0  0  0  0  0  0
   22.2368   11.4410   40.3684 C   0  0  1  0  0  0  0  0  0  0  0  0
   21.1078    9.8653   46.4208 O   0  0  0  0  0  0  0  0  0  0  0  0
   20.8764   11.1059   40.9039 C   0  0  2  0  0  0  0  0  0  0  0  0
   19.7497   10.6956   42.9885 C   0  0  1  0  0  0  0  0  0  0  0  0
   20.4727    8.2806   43.0908 C   0  0  2  0  0  0  0  0  0  0  0  0
   20.0720    6.8343   42.7335 C   0  0  0  0  0  0  0  0  0  0  0  0
   20.6170    8.3914   44.5794 C   0  0  2  0  0  0  0  0  0  0  0  0
   20.9952    9.7842   44.9925 C   0  0  1  0  0  0  0  0  0  0  0  0
   19.9386   10.7282   44.5312 C   0  0  1  0  0  0  0  0  0  0  0  0
  5  4  1  6  0  0  0
  5  8  1  0  0  0  0
  5 16  1  0  0  0  0
  8  7  1  1  0  0  0
  8 10  1  0  0  0  0
 10  1  1  6  0  0  0
 10 12  1  0  0  0  0
 11 18  1  0  0  0  0
 12 14  1  0  0  0  0
 14  2  1  6  0  0  0
 14 16  1  0  0  0  0
 16  9  1  1  0  0  0
 17  9  1  6  0  0  0
 17 11  1  0  0  0  0
 17 22  1  0  0  0  0
 18 19  1  1  0  0  0
 18 20  1  0  0  0  0
 19  3  1  0  0  0  0
 20 13  1  6  0  0  0
 20 21  1  0  0  0  0
 21 15  1  1  0  0  0
 21 22  1  0  0  0  0
 22  6  1  6  0  0  0
M  END
>  <CHROM.1>
63.76545132,71.64595164,168.14129061,20.66598309,10.50709465,41.96838647
-1.61473676,-1.15413376,2.16050283

>  <Name>
2et8_lig

>  <RI>
0

>  <Rbt.Current_Directory>
/home/itssahil/PROJECTS/Mol_Feturizer/New_Systems/rnas/2et8

>  <Rbt.Executable>
rbdock ($Id: //depot/dev/client3/rdock/2013.1/src/exe/rbdock.cxx#4 $)

>  <Rbt.Library>
libRbt.so (2013.1, Build901 2013/11/27)

>  <Rbt.Parameter_File>
/export/apps/rDock/src/rDock_2013.1_src/data/scripts/dock_solv.prm

>  <Rbt.Receptor>
prm/pocket_docking_7.prm

>  <SCORE>
-19.7503

>  <SCORE.INTER>
-18.8608

>  <SCORE.INTER.CONST>
1

>  <SCORE.INTER.POLAR>
-2.51248

>  <SCORE.INTER.ROT>
3

>  <SCORE.INTER.SOLV>
15.6254

>  <SCORE.INTER.VDW>
-15.0074

>  <SCORE.INTER.norm>
-0.85731

>  <SCORE.INTRA>
-0.902844

>  <SCORE.INTRA.DIHEDRAL>
-3.60917

>  <SCORE.INTRA.DIHEDRAL.0>
4.99603

>  <SCORE.INTRA.POLAR>
0

>  <SCORE.INTRA.POLAR.0>
0

>  <SCORE.INTRA.REPUL>
0

>  <SCORE.INTRA.REPUL.0>
0

>  <SCORE.INTRA.SOLV>
0.23212

>  <SCORE.INTRA.SOLV.lig_0>
-74.884

>  <SCORE.INTRA.VDW>
0.785683

>  <SCORE.INTRA.VDW.0>
-0.858933

>  <SCORE.INTRA.norm>
-0.0410384

>  <SCORE.RESTR>
0.0133948

>  <SCORE.RESTR.CAVITY>
0.0133948

>  <SCORE.RESTR.norm>
0.000608854

>  <SCORE.SYSTEM>
0

>  <SCORE.SYSTEM.CONST>
0

>  <SCORE.SYSTEM.DIHEDRAL>
0

>  <SCORE.SYSTEM.SOLV>
0

>  <SCORE.SYSTEM.norm>
0

>  <SCORE.heavy>
22

>  <SCORE.norm>
-0.897739

>  <RMSD>
6.990

$$$$
2et8_lig
 OpenBabel11021811433D
libRbt.so/2013.1/901 2013/11/27
 22 23  0  0  0  0  0  0  0  0999 V2000
   21.0516   13.0592   36.9969 N   0  0  0  0  0  0  0  0  0  0  0  0
   23.4513   10.5989   40.5741 N   0  0  0  0  0  0  0  0  0  0  0  0
   21.1557    6.7539   40.6445 N   0  0  0  0  0  0  0  0  0  0  0  0
   18.7405   11.8495   41.1828 O   0  0  0  0  0  0  0  0  0  0  0  0
   20.0225   12.2447   40.6354 C   0  0  2  0  0  0  0  0  0  0  0  0
   20.6040   11.6074   45.1257 N   0  0  0  0  0  0  0  0  0  0  0  0
   18.9137   13.4534   38.7609 O   0  0  0  0  0  0  0  0  0  0  0  0
   19.8855   12.4489   39.0783 C   0  0  1  0  0  0  0  0  0  0  0  0
   21.1933   10.9767   42.2700 O   0  0  0  0  0  0  0  0  0  0  0  0
   21.2038   12.8756   38.4809 C   0  0  1  0  0  0  0  0  0  0  0  0
   20.0908    8.9627   42.4458 O   0  0  0  0  0  0  0  0  0  0  0  0
   22.2728   11.8026   38.7907 C   0  0  0  0  0  0  0  0  0  0  0  0
   22.7401    7.3705   44.3868 O   0  0  0  0  0  0  0  0  0  0  0  0
   22.3793   11.6569   40.3369 C   0  0  1  0  0  0  0  0  0  0  0  0
   21.9349    9.3602   46.1840 O   0  0  0  0  0  0  0  0  0  0  0  0
   21.0998   11.1210   40.9075 C   0  0  2  0  0  0  0  0  0  0  0  0
   20.1686   10.3850   42.9991 C   0  0  1  0  0  0  0  0  0  0  0  0
   21.3350    8.1697   42.6875 C   0  0  2  0  0  0  0  0  0  0  0  0
   21.1828    6.7383   42.1324 C   0  0  0  0  0  0  0  0  0  0  0  0
   21.5779    8.0947   44.1654 C   0  0  2  0  0  0  0  0  0  0  0  0
   21.7225    9.4617   44.7685 C   0  0  1  0  0  0  0  0  0  0  0  0
   20.4742   10.2353   44.5159 C   0  0  1  0  0  0  0  0  0  0  0  0
  5  4  1  6  0  0  0
  5  8  1  0  0  0  0
  5 16  1  0  0  0  0
  8  7  1  1  0  0  0
  8 10  1  0  0  0  0
 10  1  1  6  0  0  0
 10 12  1  0  0  0  0
 11 18  1  0  0  0  0
 12 14  1  0  0  0  0
 14  2  1  6  0  0  0
 14 16  1  0  0  0  0
 16  9  1  1  0  0  0
 17  9  1  6  0  0  0
 17 11  1  0  0  0  0
 17 22  1  0  0  0  0
 18 19  1  1  0  0  0
 18 20  1  0  0  0  0
 19  3  1  0  0  0  0
 20 13  1  6  0  0  0
 20 21  1  0  0  0  0
 21 15  1  1  0  0  0
 21 22  1  0  0  0  0
 22  6  1  6  0  0  0
M  END
>  <CHROM.1>
71.51095924,61.99147435,69.54787456,21.03938268,10.40779589,41.75738916,-1.92008335
-1.14173041,1.89045549

>  <Name>
2et8_lig

>  <RI>
0

>  <Rbt.Current_Directory>
/home/itssahil/PROJECTS/Mol_Feturizer/New_Systems/rnas/2et8

>  <Rbt.Executable>
rbdock ($Id: //depot/dev/client3/rdock/2013.1/src/exe/rbdock.cxx#4 $)

>  <Rbt.Library>
libRbt.so (2013.1, Build901 2013/11/27)

>  <Rbt.Parameter_File>
/export/apps/rDock/src/rDock_2013.1_src/data/scripts/dock_solv.prm

>  <Rbt.Receptor>
prm/pocket_docking_7.prm

>  <SCORE>
-19.2988

>  <SCORE.INTER>
-16.9091

>  <SCORE.INTER.CONST>
1

>  <SCORE.INTER.POLAR>
-2.52939

>  <SCORE.INTER.ROT>
3

>  <SCORE.INTER.SOLV>
21.7161

>  <SCORE.INTER.VDW>
-15.6802

>  <SCORE.INTER.norm>
-0.768597

>  <SCORE.INTRA>
-2.47386

>  <SCORE.INTRA.DIHEDRAL>
-3.842

>  <SCORE.INTRA.DIHEDRAL.0>
4.99603

>  <SCORE.INTRA.POLAR>
0

>  <SCORE.INTRA.POLAR.0>
0

>  <SCORE.INTRA.REPUL>
0

>  <SCORE.INTRA.REPUL.0>
0

>  <SCORE.INTRA.SOLV>
-0.790717

>  <SCORE.INTRA.SOLV.lig_0>
-74.884

>  <SCORE.INTRA.VDW>
-0.157502

>  <SCORE.INTRA.VDW.0>
-0.858933

>  <SCORE.INTRA.norm>
-0.112448

>  <SCORE.RESTR>
0.0842251

>  <SCORE.RESTR.CAVITY>
0.0842251

>  <SCORE.RESTR.norm>
0.00382842

>  <SCORE.SYSTEM>
0

>  <SCORE.SYSTEM.CONST>
0

>  <SCORE.SYSTEM.DIHEDRAL>
0

>  <SCORE.SYSTEM.SOLV>
0

>  <SCORE.SYSTEM.norm>
0

>  <SCORE.heavy>
22

>  <SCORE.norm>
-0.877217

>  <RMSD>
7.000

$$$$
2et8_lig
 OpenBabel11021811433D
libRbt.so/2013.1/901 2013/11/27
 22 23  0  0  0  0  0  0  0  0999 V2000
   21.0293   13.0686   36.9934 N   0  0  0  0  0  0  0  0  0  0  0  0
   23.4656   10.6042   40.5429 N   0  0  0  0  0  0  0  0  0  0  0  0
   21.1085    6.7463   40.6489 N   0  0  0  0  0  0  0  0  0  0  0  0
   18.7562   11.8385   41.1941 O   0  0  0  0  0  0  0  0  0  0  0  0
   20.0325   12.2394   40.6375 C   0  0  2  0  0  0  0  0  0  0  0  0
   20.6518   11.6124   45.1156 N   0  0  0  0  0  0  0  0  0  0  0  0
   18.9048   13.4506   38.7761 O   0  0  0  0  0  0  0  0  0  0  0  0
   19.8822   12.4481   39.0823 C   0  0  1  0  0  0  0  0  0  0  0  0
   21.2204   10.9697   42.2584 O   0  0  0  0  0  0  0  0  0  0  0  0
   21.1942   12.8807   38.4755 C   0  0  1  0  0  0  0  0  0  0  0  0
   20.1096    8.9615   42.4477 O   0  0  0  0  0  0  0  0  0  0  0  0
   22.2689   11.8100   38.7731 C   0  0  0  0  0  0  0  0  0  0  0  0
   22.7635    7.3632   44.3774 O   0  0  0  0  0  0  0  0  0  0  0  0
   22.3885   11.6597   40.3179 C   0  0  1  0  0  0  0  0  0  0  0  0
   21.9788    9.3625   46.1731 O   0  0  0  0  0  0  0  0  0  0  0  0
   21.1153   11.1181   40.8973 C   0  0  2  0  0  0  0  0  0  0  0  0
   20.1975   10.3852   42.9958 C   0  0  1  0  0  0  0  0  0  0  0  0
   21.3516    8.1634   42.6843 C   0  0  2  0  0  0  0  0  0  0  0  0
   21.1893    6.7310   42.1348 C   0  0  0  0  0  0  0  0  0  0  0  0
   21.6033    8.0921   44.1609 C   0  0  2  0  0  0  0  0  0  0  0  0
   21.7581    9.4604   44.7586 C   0  0  1  0  0  0  0  0  0  0  0  0
   20.5119   10.2390   44.5112 C   0  0  1  0  0  0  0  0  0  0  0  0
  5  4  1  6  0  0  0
  5  8  1  0  0  0  0
  5 16  1  0  0  0  0
  8  7  1  1  0  0  0
  8 10  1  0  0  0  0
 10  1  1  6  0  0  0
 10 12  1  0  0  0  0
 11 18  1  0  0  0  0
 12 14  1  0  0  0  0
 14  2  1  6  0  0  0
 14 16  1  0  0  0  0
 16  9  1  1  0  0  0
 17  9  1  6  0  0  0
 17 11  1  0  0  0  0
 17 22  1  0  0  0  0
 18 19  1  1  0  0  0
 18 20  1  0  0  0  0
 19  3  1  0  0  0  0
 20 13  1  6  0  0  0
 20 21  1  0  0  0  0
 21 15  1  1  0  0  0
 21 22  1  0  0  0  0
 22  6  1  6  0  0  0
M  END
>  <CHROM.1>
70.83251351,62.42842980,67.70484042,21.05232404,10.40666301,41.75241951,-1.93992830
-1.15267545,1.87187881

>  <Name>
2et8_lig

>  <RI>
0

>  <Rbt.Current_Directory>
/home/itssahil/PROJECTS/Mol_Feturizer/New_Systems/rnas/2et8

>  <Rbt.Executable>
rbdock ($Id: //depot/dev/client3/rdock/2013.1/src/exe/rbdock.cxx#4 $)

>  <Rbt.Library>
libRbt.so (2013.1, Build901 2013/11/27)

>  <Rbt.Parameter_File>
/export/apps/rDock/src/rDock_2013.1_src/data/scripts/dock_solv.prm

>  <Rbt.Receptor>
prm/pocket_docking_7.prm

>  <SCORE>
-19.3033

>  <SCORE.INTER>
-16.8612

>  <SCORE.INTER.CONST>
1

>  <SCORE.INTER.POLAR>
-2.50542

>  <SCORE.INTER.ROT>
3

>  <SCORE.INTER.SOLV>
21.8733

>  <SCORE.INTER.VDW>
-15.7805

>  <SCORE.INTER.norm>
-0.766419

>  <SCORE.INTRA>
-2.51839

>  <SCORE.INTRA.DIHEDRAL>
-4.0126

>  <SCORE.INTRA.DIHEDRAL.0>
4.99603

>  <SCORE.INTRA.POLAR>
0

>  <SCORE.INTRA.POLAR.0>
0

>  <SCORE.INTRA.REPUL>
0

>  <SCORE.INTRA.REPUL.0>
0

>  <SCORE.INTRA.SOLV>
-0.798839

>  <SCORE.INTRA.SOLV.lig_0>
-74.884

>  <SCORE.INTRA.VDW>
-0.112671

>  <SCORE.INTRA.VDW.0>
-0.858933

>  <SCORE.INTRA.norm>
-0.114472

>  <SCORE.RESTR>
0.0763347

>  <SCORE.RESTR.CAVITY>
0.0763347

>  <SCORE.RESTR.norm>
0.00346976

>  <SCORE.SYSTEM>
0

>  <SCORE.SYSTEM.CONST>
0

>  <SCORE.SYSTEM.DIHEDRAL>
0

>  <SCORE.SYSTEM.SOLV>
0

>  <SCORE.SYSTEM.norm>
0

>  <SCORE.heavy>
22

>  <SCORE.norm>
-0.877422

>  <RMSD>
7.002

$$$$
2et8_lig
 OpenBabel11021811433D
libRbt.so/2013.1/901 2013/11/27
 22 23  0  0  0  0  0  0  0  0999 V2000
   19.0258   13.0013   41.2462 N   0  0  0  0  0  0  0  0  0  0  0  0
   16.7413   15.3284   37.5081 N   0  0  0  0  0  0  0  0  0  0  0  0
   16.9500   18.0452   32.5265 N   0  0  0  0  0  0  0  0  0  0  0  0
   20.9958   13.0020   36.7246 O   0  0  0  0  0  0  0  0  0  0  0  0
   20.2205   13.7978   37.6547 C   0  0  2  0  0  0  0  0  0  0  0  0
   19.9602   12.9335   33.7859 N   0  0  0  0  0  0  0  0  0  0  0  0
   21.2614   12.6416   39.6000 O   0  0  0  0  0  0  0  0  0  0  0  0
   20.0111   12.9856   38.9895 C   0  0  1  0  0  0  0  0  0  0  0  0
   19.0296   14.8415   35.8819 O   0  0  0  0  0  0  0  0  0  0  0  0
   19.2177   13.7958   39.9849 C   0  0  1  0  0  0  0  0  0  0  0  0
   17.6350   15.8810   34.3729 O   0  0  0  0  0  0  0  0  0  0  0  0
   17.8527   14.1693   39.3627 C   0  0  0  0  0  0  0  0  0  0  0  0
   20.3489   17.5746   32.6159 O   0  0  0  0  0  0  0  0  0  0  0  0
   18.1190   14.9835   38.0630 C   0  0  1  0  0  0  0  0  0  0  0  0
   20.9808   14.9064   32.0516 O   0  0  0  0  0  0  0  0  0  0  0  0
   18.8053   14.1322   37.0362 C   0  0  2  0  0  0  0  0  0  0  0  0
   18.3209   14.5603   34.7199 C   0  0  1  0  0  0  0  0  0  0  0  0
   18.5998   16.9796   34.0605 C   0  0  2  0  0  0  0  0  0  0  0  0
   17.8470   18.2747   33.6916 C   0  0  0  0  0  0  0  0  0  0  0  0
   19.4453   16.5600   32.8952 C   0  0  2  0  0  0  0  0  0  0  0  0
   20.1961   15.2937   33.1889 C   0  0  1  0  0  0  0  0  0  0  0  0
   19.2178   14.2132   33.4985 C   0  0  1  0  0  0  0  0  0  0  0  0
  5  4  1  6  0  0  0
  5  8  1  0  0  0  0
  5 16  1  0  0  0  0
  8  7  1  1  0  0  0
  8 10  1  0  0  0  0
 10  1  1  1  0  0  0
 10 12  1  0  0  0  0
 11 18  1  0  0  0  0
 12 14  1  0  0  0  0
 14  2  1  6  0  0  0
 14 16  1  0  0  0  0
 16  9  1  6  0  0  0
 17  9  1  1  0  0  0
 17 11  1  0  0  0  0
 17 22  1  0  0  0  0
 18 19  1  6  0  0  0
 18 20  1  0  0  0  0
 19  3  1  0  0  0  0
 20 13  1  1  0  0  0
 20 21  1  0  0  0  0
 21 15  1  6  0  0  0
 21 22  1  0  0  0  0
 22  6  1  1  0  0  0
M  END
>  <CHROM.1>
136.09268869,121.82450280,-58.13790912,19.15873727,14.90660262,35.85453806
1.48790151,-0.69797793,1.97656524

>  <Name>
2et8_lig

>  <RI>
0

>  <Rbt.Current_Directory>
/home/itssahil/PROJECTS/Mol_Feturizer/New_Systems/rnas/2et8

>  <Rbt.Executable>
rbdock ($Id: //depot/dev/client3/rdock/2013.1/src/exe/rbdock.cxx#4 $)

>  <Rbt.Library>
libRbt.so (2013.1, Build901 2013/11/27)

>  <Rbt.Parameter_File>
/export/apps/rDock/src/rDock_2013.1_src/data/scripts/dock_solv.prm

>  <Rbt.Receptor>
prm/pocket_docking_7.prm

>  <SCORE>
-8.42824

>  <SCORE.INTER>
-12.6677

>  <SCORE.INTER.CONST>
1

>  <SCORE.INTER.POLAR>
-2.04009

>  <SCORE.INTER.ROT>
3

>  <SCORE.INTER.SOLV>
14.7811

>  <SCORE.INTER.VDW>
-12.1719

>  <SCORE.INTER.norm>
-0.575805

>  <SCORE.INTRA>
4.23948

>  <SCORE.INTRA.DIHEDRAL>
8.04

>  <SCORE.INTRA.DIHEDRAL.0>
4.99603

>  <SCORE.INTRA.POLAR>
0

>  <SCORE.INTRA.POLAR.0>
0

>  <SCORE.INTRA.REPUL>
0

>  <SCORE.INTRA.REPUL.0>
0

>  <SCORE.INTRA.SOLV>
2.71199

>  <SCORE.INTRA.SOLV.lig_0>
-74.884

>  <SCORE.INTRA.VDW>
-1.13651

>  <SCORE.INTRA.VDW.0>
-0.858933

>  <SCORE.INTRA.norm>
0.192704

>  <SCORE.RESTR>
0

>  <SCORE.RESTR.CAVITY>
0

>  <SCORE.RESTR.norm>
0

>  <SCORE.SYSTEM>
0

>  <SCORE.SYSTEM.CONST>
0

>  <SCORE.SYSTEM.DIHEDRAL>
0

>  <SCORE.SYSTEM.SOLV>
0

>  <SCORE.SYSTEM.norm>
0

>  <SCORE.heavy>
22

>  <SCORE.norm>
-0.383102

>  <RMSD>
7.031

$$$$
2et8_lig
 OpenBabel11021811433D
libRbt.so/2013.1/901 2013/11/27
 22 23  0  0  0  0  0  0  0  0999 V2000
   21.0149   13.0648   36.9694 N   0  0  0  0  0  0  0  0  0  0  0  0
   23.4500   10.6231   40.5354 N   0  0  0  0  0  0  0  0  0  0  0  0
   19.9428    6.1082   42.8186 N   0  0  0  0  0  0  0  0  0  0  0  0
   18.7519   11.8965   41.1932 O   0  0  0  0  0  0  0  0  0  0  0  0
   20.0284   12.2825   40.6267 C   0  0  2  0  0  0  0  0  0  0  0  0
   20.7090   11.6622   45.1261 N   0  0  0  0  0  0  0  0  0  0  0  0
   18.9008   13.4808   38.7569 O   0  0  0  0  0  0  0  0  0  0  0  0
   19.8727   12.4751   39.0699 C   0  0  1  0  0  0  0  0  0  0  0  0
   21.2148   11.0227   42.2564 O   0  0  0  0  0  0  0  0  0  0  0  0
   21.1850   12.8921   38.4528 C   0  0  1  0  0  0  0  0  0  0  0  0
   20.0493    9.0462   42.4502 O   0  0  0  0  0  0  0  0  0  0  0  0
   22.2538   11.8175   38.7576 C   0  0  0  0  0  0  0  0  0  0  0  0
   22.6851    7.3589   44.3283 O   0  0  0  0  0  0  0  0  0  0  0  0
   22.3791   11.6833   40.3034 C   0  0  1  0  0  0  0  0  0  0  0  0
   21.9864    9.3677   46.1486 O   0  0  0  0  0  0  0  0  0  0  0  0
   21.1048   11.1568   40.8942 C   0  0  2  0  0  0  0  0  0  0  0  0
   20.1869   10.4630   43.0059 C   0  0  1  0  0  0  0  0  0  0  0  0
   21.2712    8.2110   42.6624 C   0  0  2  0  0  0  0  0  0  0  0  0
   21.0590    6.7876   42.1064 C   0  0  0  0  0  0  0  0  0  0  0  0
   21.5434    8.1224   44.1345 C   0  0  2  0  0  0  0  0  0  0  0  0
   21.7468    9.4816   44.7384 C   0  0  1  0  0  0  0  0  0  0  0  0
   20.5201   10.2975   44.5153 C   0  0  1  0  0  0  0  0  0  0  0  0
  5  4  1  6  0  0  0
  5  8  1  0  0  0  0
  5 16  1  0  0  0  0
  8  7  1  1  0  0  0
  8 10  1  0  0  0  0
 10  1  1  6  0  0  0
 10 12  1  0  0  0  0
 11 18  1  0  0  0  0
 12 14  1  0  0  0  0
 14  2  1  6  0  0  0
 14 16  1  0  0  0  0
 16  9  1  1  0  0  0
 17  9  1  6  0  0  0
 17 11  1  0  0  0  0
 17 22  1  0  0  0  0
 18 19  1  1  0  0  0
 18 20  1  0  0  0  0
 19  3  1  0  0  0  0
 20 13  1  6  0  0  0
 20 21  1  0  0  0  0
 21 15  1  1  0  0  0
 21 22  1  0  0  0  0
 22  6  1  6  0  0  0
M  END
>  <CHROM.1>
70.31820482,61.00852180,-61.81663885,20.97861721,10.41128465,41.83769762
-1.90290213,-1.21577699,1.92640112

>  <Name>
2et8_lig

>  <RI>
0

>  <Rbt.Current_Directory>
/home/itssahil/PROJECTS/Mol_Feturizer/New_Systems/rnas/2et8

>  <Rbt.Executable>
rbdock ($Id: //depot/dev/client3/rdock/2013.1/src/exe/rbdock.cxx#4 $)

>  <Rbt.Library>
libRbt.so (2013.1, Build901 2013/11/27)

>  <Rbt.Parameter_File>
/export/apps/rDock/src/rDock_2013.1_src/data/scripts/dock_solv.prm

>  <Rbt.Receptor>
prm/pocket_docking_7.prm

>  <SCORE>
-19.5355

>  <SCORE.INTER>
-17.855

>  <SCORE.INTER.CONST>
1

>  <SCORE.INTER.POLAR>
-2.30538

>  <SCORE.INTER.ROT>
3

>  <SCORE.INTER.SOLV>
17.4583

>  <SCORE.INTER.VDW>
-15.6382

>  <SCORE.INTER.norm>
-0.811592

>  <SCORE.INTRA>
-1.72911

>  <SCORE.INTRA.DIHEDRAL>
-4.28727

>  <SCORE.INTRA.DIHEDRAL.0>
4.99603

>  <SCORE.INTRA.POLAR>
0

>  <SCORE.INTRA.POLAR.0>
0

>  <SCORE.INTRA.REPUL>
0

>  <SCORE.INTRA.REPUL.0>
0

>  <SCORE.INTRA.SOLV>
0.644188

>  <SCORE.INTRA.SOLV.lig_0>
-74.884

>  <SCORE.INTRA.VDW>
0.092431

>  <SCORE.INTRA.VDW.0>
-0.858933

>  <SCORE.INTRA.norm>
-0.0785958

>  <SCORE.RESTR>
0.0485856

>  <SCORE.RESTR.CAVITY>
0.0485856

>  <SCORE.RESTR.norm>
0.00220844

>  <SCORE.SYSTEM>
0

>  <SCORE.SYSTEM.CONST>
0

>  <SCORE.SYSTEM.DIHEDRAL>
0

>  <SCORE.SYSTEM.SOLV>
0

>  <SCORE.SYSTEM.norm>
0

>  <SCORE.heavy>
22

>  <SCORE.norm>
-0.887979

>  <RMSD>
7.047

$$$$
2et8_lig
 OpenBabel11021811433D
libRbt.so/2013.1/901 2013/11/27
 22 23  0  0  0  0  0  0  0  0999 V2000
   19.9879   12.7850   40.2059 N   0  0  0  0  0  0  0  0  0  0  0  0
   16.9051   16.1354   38.2364 N   0  0  0  0  0  0  0  0  0  0  0  0
   18.8400   19.4747   36.3591 N   0  0  0  0  0  0  0  0  0  0  0  0
   19.0200   12.7536   35.3698 O   0  0  0  0  0  0  0  0  0  0  0  0
   19.1861   13.6240   36.5162 C   0  0  2  0  0  0  0  0  0  0  0  0
   15.4602   14.4588   33.7247 N   0  0  0  0  0  0  0  0  0  0  0  0
   20.6935   11.9768   37.6201 O   0  0  0  0  0  0  0  0  0  0  0  0
   19.5014   12.7535   37.7921 C   0  0  1  0  0  0  0  0  0  0  0  0
   17.6221   15.1886   35.6466 O   0  0  0  0  0  0  0  0  0  0  0  0
   19.6940   13.6348   39.0016 C   0  0  1  0  0  0  0  0  0  0  0  0
   16.8534   17.3568   35.7494 O   0  0  0  0  0  0  0  0  0  0  0  0
   18.4162   14.4755   39.2262 C   0  0  0  0  0  0  0  0  0  0  0  0
   18.1143   18.2498   32.4427 O   0  0  0  0  0  0  0  0  0  0  0  0
   18.1648   15.3264   37.9471 C   0  0  1  0  0  0  0  0  0  0  0  0
   16.2141   16.3163   31.7442 O   0  0  0  0  0  0  0  0  0  0  0  0
   17.8592   14.4422   36.7746 C   0  0  2  0  0  0  0  0  0  0  0  0
   16.4415   15.9068   35.4985 C   0  0  1  0  0  0  0  0  0  0  0  0
   17.8276   17.8736   34.7398 C   0  0  2  0  0  0  0  0  0  0  0  0
   18.1809   19.3469   35.0309 C   0  0  0  0  0  0  0  0  0  0  0  0
   17.2037   17.7829   33.3792 C   0  0  2  0  0  0  0  0  0  0  0  0
   16.8248   16.3702   33.0416 C   0  0  1  0  0  0  0  0  0  0  0  0
   15.8556   15.8741   34.0590 C   0  0  1  0  0  0  0  0  0  0  0  0
  5  4  1  6  0  0  0
  5  8  1  0  0  0  0
  5 16  1  0  0  0  0
  8  7  1  6  0  0  0
  8 10  1  0  0  0  0
 10  1  1  1  0  0  0
 10 12  1  0  0  0  0
 11 18  1  0  0  0  0
 12 14  1  0  0  0  0
 14  2  1  1  0  0  0
 14 16  1  0  0  0  0
 16  9  1  6  0  0  0
 17  9  1  6  0  0  0
 17 11  1  0  0  0  0
 17 22  1  0  0  0  0
 18 19  1  1  0  0  0
 18 20  1  0  0  0  0
 19  3  1  0  0  0  0
 20 13  1  6  0  0  0
 20 21  1  0  0  0  0
 21 15  1  6  0  0  0
 21 22  1  0  0  0  0
 22  6  1  6  0  0  0
M  END
>  <CHROM.1>
172.64760646,104.54191038,62.23863381,17.95677128,15.54719396,35.87089409
-0.50094152,-1.16104152,0.17994786

>  <Name>
2et8_lig

>  <RI>
0

>  <Rbt.Current_Directory>
/home/itssahil/PROJECTS/Mol_Feturizer/New_Systems/rnas/2et8

>  <Rbt.Executable>
rbdock ($Id: //depot/dev/client3/rdock/2013.1/src/exe/rbdock.cxx#4 $)

>  <Rbt.Library>
libRbt.so (2013.1, Build901 2013/11/27)

>  <Rbt.Parameter_File>
/export/apps/rDock/src/rDock_2013.1_src/data/scripts/dock_solv.prm

>  <Rbt.Receptor>
prm/pocket_docking_7.prm

>  <SCORE>
-6.91344

>  <SCORE.INTER>
-7.63771

>  <SCORE.INTER.CONST>
1

>  <SCORE.INTER.POLAR>
-0.953435

>  <SCORE.INTER.ROT>
3

>  <SCORE.INTER.SOLV>
9.88869

>  <SCORE.INTER.VDW>
-10.8099

>  <SCORE.INTER.norm>
-0.347169

>  <SCORE.INTRA>
0.724272

>  <SCORE.INTRA.DIHEDRAL>
1.41429

>  <SCORE.INTRA.DIHEDRAL.0>
4.99603

>  <SCORE.INTRA.POLAR>
0

>  <SCORE.INTRA.POLAR.0>
0

>  <SCORE.INTRA.REPUL>
0

>  <SCORE.INTRA.REPUL.0>
0

>  <SCORE.INTRA.SOLV>
0.909625

>  <SCORE.INTRA.SOLV.lig_0>
-74.884

>  <SCORE.INTRA.VDW>
-0.437687

>  <SCORE.INTRA.VDW.0>
-0.858933

>  <SCORE.INTRA.norm>
0.0329214

>  <SCORE.RESTR>
0

>  <SCORE.RESTR.CAVITY>
0

>  <SCORE.RESTR.norm>
0

>  <SCORE.SYSTEM>
0

>  <SCORE.SYSTEM.CONST>
0

>  <SCORE.SYSTEM.DIHEDRAL>
0

>  <SCORE.SYSTEM.SOLV>
0

>  <SCORE.SYSTEM.norm>
0

>  <SCORE.heavy>
22

>  <SCORE.norm>
-0.314247

>  <RMSD>
7.069

$$$$
2et8_lig
 OpenBabel11021811433D
libRbt.so/2013.1/901 2013/11/27
 22 23  0  0  0  0  0  0  0  0999 V2000
   18.7039   14.9518   38.4698 N   0  0  0  0  0  0  0  0  0  0  0  0
   19.2850   12.2263   42.5737 N   0  0  0  0  0  0  0  0  0  0  0  0
   17.7053    9.9685   44.2110 N   0  0  0  0  0  0  0  0  0  0  0  0
   21.8856   11.1837   38.5393 O   0  0  0  0  0  0  0  0  0  0  0  0
   20.6111   11.6384   39.0573 C   0  0  2  0  0  0  0  0  0  0  0  0
   23.5075    8.9546   41.2506 N   0  0  0  0  0  0  0  0  0  0  0  0
   20.2558   13.0920   37.0661 O   0  0  0  0  0  0  0  0  0  0  0  0
   20.3040   13.0801   38.4984 C   0  0  1  0  0  0  0  0  0  0  0  0
   20.9220   10.4334   41.0826 O   0  0  0  0  0  0  0  0  0  0  0  0
   18.9737   13.5755   39.0101 C   0  0  1  0  0  0  0  0  0  0  0  0
   20.5226   10.0694   43.3210 O   0  0  0  0  0  0  0  0  0  0  0  0
   18.9982   13.5916   40.5558 C   0  0  0  0  0  0  0  0  0  0  0  0
   19.6866    6.5443   42.8788 O   0  0  0  0  0  0  0  0  0  0  0  0
   19.2853   12.1440   41.0511 C   0  0  1  0  0  0  0  0  0  0  0  0
   22.3761    6.5181   42.1020 O   0  0  0  0  0  0  0  0  0  0  0  0
   20.6579   11.7047   40.6355 C   0  0  2  0  0  0  0  0  0  0  0  0
   21.6182   10.2212   42.2666 C   0  0  1  0  0  0  0  0  0  0  0  0
   19.6470    8.8796   43.0910 C   0  0  2  0  0  0  0  0  0  0  0  0
   18.5823    8.7663   44.2018 C   0  0  0  0  0  0  0  0  0  0  0  0
   20.4988    7.6455   43.1062 C   0  0  2  0  0  0  0  0  0  0  0  0
   21.5659    7.7014   42.0519 C   0  0  1  0  0  0  0  0  0  0  0  0
   22.4258    8.8933   42.2981 C   0  0  1  0  0  0  0  0  0  0  0  0
  5  4  1  6  0  0  0
  5  8  1  0  0  0  0
  5 16  1  0  0  0  0
  8  7  1  6  0  0  0
  8 10  1  0  0  0  0
 10  1  1  6  0  0  0
 10 12  1  0  0  0  0
 11 18  1  0  0  0  0
 12 14  1  0  0  0  0
 14  2  1  1  0  0  0
 14 16  1  0  0  0  0
 16  9  1  1  0  0  0
 17  9  1  6  0  0  0
 17 11  1  0  0  0  0
 17 22  1  0  0  0  0
 18 19  1  1  0  0  0
 18 20  1  0  0  0  0
 19  3  1  0  0  0  0
 20 13  1  6  0  0  0
 20 21  1  0  0  0  0
 21 15  1  1  0  0  0
 21 22  1  0  0  0  0
 22  6  1  6  0  0  0
M  END
>  <CHROM.1>
149.83645757,93.66441883,61.16892517,20.38032384,10.50077789,41.23040791
1.75121673,0.66779863,-0.76808780

>  <Name>
2et8_lig

>  <RI>
2.82936e+07

>  <Rbt.Current_Directory>
/home/itssahil/PROJECTS/Mol_Feturizer/New_Systems/rnas/2et8

>  <Rbt.Executable>
rbdock ($Id: //depot/dev/client3/rdock/2013.1/src/exe/rbdock.cxx#4 $)

>  <Rbt.Library>
libRbt.so (2013.1, Build901 2013/11/27)

>  <Rbt.Parameter_File>
/export/apps/rDock/src/rDock_2013.1_src/data/scripts/dock_solv.prm

>  <Rbt.Receptor>
prm/pocket_docking_8.prm

>  <SCORE>
-12.5965

>  <SCORE.INTER>
-14.6214

>  <SCORE.INTER.CONST>
1

>  <SCORE.INTER.POLAR>
-0.959166

>  <SCORE.INTER.ROT>
3

>  <SCORE.INTER.SOLV>
12.7427

>  <SCORE.INTER.VDW>
-16.398

>  <SCORE.INTER.norm>
-0.664611

>  <SCORE.INTRA>
2.02492

>  <SCORE.INTRA.DIHEDRAL>
2.9103

>  <SCORE.INTRA.DIHEDRAL.0>
4.99603

>  <SCORE.INTRA.POLAR>
0

>  <SCORE.INTRA.POLAR.0>
0

>  <SCORE.INTRA.REPUL>
0

>  <SCORE.INTRA.REPUL.0>
0

>  <SCORE.INTRA.SOLV>
3.32516

>  <SCORE.INTRA.SOLV.lig_0>
-74.884

>  <SCORE.INTRA.VDW>
-1.09281

>  <SCORE.INTRA.VDW.0>
-0.858933

>  <SCORE.INTRA.norm>
0.0920418

>  <SCORE.RESTR>
0

>  <SCORE.RESTR.CAVITY>
0

>  <SCORE.RESTR.norm>
0

>  <SCORE.SYSTEM>
0

>  <SCORE.SYSTEM.CONST>
0

>  <SCORE.SYSTEM.DIHEDRAL>
0

>  <SCORE.SYSTEM.SOLV>
0

>  <SCORE.SYSTEM.norm>
0

>  <SCORE.heavy>
22

>  <SCORE.norm>
-0.572569

>  <RMSD>
7.096

$$$$
2et8_lig
 OpenBabel11021811433D
libRbt.so/2013.1/901 2013/11/27
 22 23  0  0  0  0  0  0  0  0999 V2000
   21.1970   13.0035   37.1110 N   0  0  0  0  0  0  0  0  0  0  0  0
   23.3592   10.4207   40.7526 N   0  0  0  0  0  0  0  0  0  0  0  0
   21.8519    5.8348   42.5028 N   0  0  0  0  0  0  0  0  0  0  0  0
   18.6900   11.8763   41.2062 O   0  0  0  0  0  0  0  0  0  0  0  0
   20.0066   12.2169   40.7062 C   0  0  2  0  0  0  0  0  0  0  0  0
   20.4160   11.6962   45.1703 N   0  0  0  0  0  0  0  0  0  0  0  0
   19.0184   13.4833   38.8025 O   0  0  0  0  0  0  0  0  0  0  0  0
   19.9331   12.4350   39.1467 C   0  0  1  0  0  0  0  0  0  0  0  0
   21.0624   10.8897   42.3718 O   0  0  0  0  0  0  0  0  0  0  0  0
   21.2890   12.8057   38.5981 C   0  0  1  0  0  0  0  0  0  0  0  0
   19.7538    9.0054   42.5703 O   0  0  0  0  0  0  0  0  0  0  0  0
   22.2981   11.6847   38.9376 C   0  0  0  0  0  0  0  0  0  0  0  0
   22.1396    7.2395   44.6941 O   0  0  0  0  0  0  0  0  0  0  0  0
   22.3440   11.5265   40.4855 C   0  0  1  0  0  0  0  0  0  0  0  0
   21.4635    9.3738   46.3748 O   0  0  0  0  0  0  0  0  0  0  0  0
   21.0229   11.0451   41.0079 C   0  0  2  0  0  0  0  0  0  0  0  0
   19.9518   10.4349   43.0728 C   0  0  1  0  0  0  0  0  0  0  0  0
   20.8989    8.1028   42.9009 C   0  0  2  0  0  0  0  0  0  0  0  0
   20.6262    6.6716   42.3932 C   0  0  0  0  0  0  0  0  0  0  0  0
   21.0681    8.0663   44.3904 C   0  0  2  0  0  0  0  0  0  0  0  0
   21.3247    9.4363   44.9480 C   0  0  1  0  0  0  0  0  0  0  0  0
   20.1739   10.3195   44.6071 C   0  0  1  0  0  0  0  0  0  0  0  0
  5  4  1  6  0  0  0
  5  8  1  0  0  0  0
  5 16  1  0  0  0  0
  8  7  1  1  0  0  0
  8 10  1  0  0  0  0
 10  1  1  6  0  0  0
 10 12  1  0  0  0  0
 11 18  1  0  0  0  0
 12 14  1  0  0  0  0
 14  2  1  6  0  0  0
 14 16  1  0  0  0  0
 16  9  1  1  0  0  0
 17  9  1  6  0  0  0
 17 11  1  0  0  0  0
 17 22  1  0  0  0  0
 18 19  1  1  0  0  0
 18 20  1  0  0  0  0
 19  3  1  0  0  0  0
 20 13  1  6  0  0  0
 20 21  1  0  0  0  0
 21 15  1  1  0  0  0
 21 22  1  0  0  0  0
 22  6  1  6  0  0  0
M  END
>  <CHROM.1>
66.61902466,65.09818722,169.97121527,20.88621785,10.33321501,41.96969082
-1.74734302,-1.08520185,2.08638683

>  <Name>
2et8_lig

>  <RI>
2.82936e+07

>  <Rbt.Current_Directory>
/home/itssahil/PROJECTS/Mol_Feturizer/New_Systems/rnas/2et8

>  <Rbt.Executable>
rbdock ($Id: //depot/dev/client3/rdock/2013.1/src/exe/rbdock.cxx#4 $)

>  <Rbt.Library>
libRbt.so (2013.1, Build901 2013/11/27)

>  <Rbt.Parameter_File>
/export/apps/rDock/src/rDock_2013.1_src/data/scripts/dock_solv.prm

>  <Rbt.Receptor>
prm/pocket_docking_8.prm

>  <SCORE>
-20.7258

>  <SCORE.INTER>
-19.345

>  <SCORE.INTER.CONST>
1

>  <SCORE.INTER.POLAR>
-2.56148

>  <SCORE.INTER.ROT>
3

>  <SCORE.INTER.SOLV>
14.9379

>  <SCORE.INTER.VDW>
-14.9377

>  <SCORE.INTER.norm>
-0.87932

>  <SCORE.INTRA>
-1.3808

>  <SCORE.INTRA.DIHEDRAL>
-4.1151

>  <SCORE.INTRA.DIHEDRAL.0>
4.99603

>  <SCORE.INTRA.POLAR>
0

>  <SCORE.INTRA.POLAR.0>
0

>  <SCORE.INTRA.REPUL>
0

>  <SCORE.INTRA.REPUL.0>
0

>  <SCORE.INTRA.SOLV>
0.195124

>  <SCORE.INTRA.SOLV.lig_0>
-74.884

>  <SCORE.INTRA.VDW>
0.579192

>  <SCORE.INTRA.VDW.0>
-0.858933

>  <SCORE.INTRA.norm>
-0.0627635

>  <SCORE.RESTR>
0

>  <SCORE.RESTR.CAVITY>
0

>  <SCORE.RESTR.norm>
0

>  <SCORE.SYSTEM>
0

>  <SCORE.SYSTEM.CONST>
0

>  <SCORE.SYSTEM.DIHEDRAL>
0

>  <SCORE.SYSTEM.SOLV>
0

>  <SCORE.SYSTEM.norm>
0

>  <SCORE.heavy>
22

>  <SCORE.norm>
-0.942084

>  <RMSD>
7.108

$$$$
2et8_lig
 OpenBabel11021811433D
libRbt.so/2013.1/901 2013/11/27
 22 23  0  0  0  0  0  0  0  0999 V2000
   20.5336   12.9003   37.5568 N   0  0  0  0  0  0  0  0  0  0  0  0
   18.9844   16.4077   34.4095 N   0  0  0  0  0  0  0  0  0  0  0  0
   21.4581   14.8900   30.9340 N   0  0  0  0  0  0  0  0  0  0  0  0
   23.7194   16.1724   35.6941 O   0  0  0  0  0  0  0  0  0  0  0  0
   22.3497   16.0059   36.1363 C   0  0  2  0  0  0  0  0  0  0  0  0
   22.6403   20.3808   34.4468 N   0  0  0  0  0  0  0  0  0  0  0  0
   23.0161   14.1862   37.7012 O   0  0  0  0  0  0  0  0  0  0  0  0
   22.1341   14.5219   36.6226 C   0  0  1  0  0  0  0  0  0  0  0  0
   21.5686   17.5987   34.5542 O   0  0  0  0  0  0  0  0  0  0  0  0
   20.7180   14.3213   37.1035 C   0  0  1  0  0  0  0  0  0  0  0  0
   22.7410   17.0312   32.6554 O   0  0  0  0  0  0  0  0  0  0  0  0
   19.7392   14.6589   35.9555 C   0  0  0  0  0  0  0  0  0  0  0  0
   20.5268   18.8676   30.4090 O   0  0  0  0  0  0  0  0  0  0  0  0
   19.9824   16.1363   35.5298 C   0  0  1  0  0  0  0  0  0  0  0  0
   21.5836   20.9847   31.9051 O   0  0  0  0  0  0  0  0  0  0  0  0
   21.3540   16.2998   34.9450 C   0  0  2  0  0  0  0  0  0  0  0  0
   22.7232   17.9588   33.8696 C   0  0  1  0  0  0  0  0  0  0  0  0
   21.5828   17.2466   31.7348 C   0  0  2  0  0  0  0  0  0  0  0  0
   21.6736   16.3025   30.5180 C   0  0  0  0  0  0  0  0  0  0  0  0
   21.6099   18.6660   31.2519 C   0  0  2  0  0  0  0  0  0  0  0  0
   21.5369   19.6367   32.3947 C   0  0  1  0  0  0  0  0  0  0  0  0
   22.6977   19.4049   33.2998 C   0  0  1  0  0  0  0  0  0  0  0  0
  5  4  1  6  0  0  0
  5  8  1  0  0  0  0
  5 16  1  0  0  0  0
  8  7  1  1  0  0  0
  8 10  1  0  0  0  0
 10  1  1  6  0  0  0
 10 12  1  0  0  0  0
 11 18  1  0  0  0  0
 12 14  1  0  0  0  0
 14  2  1  6  0  0  0
 14 16  1  0  0  0  0
 16  9  1  1  0  0  0
 17  9  1  6  0  0  0
 17 11  1  0  0  0  0
 17 22  1  0  0  0  0
 18 19  1  6  0  0  0
 18 20  1  0  0  0  0
 19  3  1  0  0  0  0
 20 13  1  6  0  0  0
 20 21  1  0  0  0  0
 21 15  1  6  0  0  0
 21 22  1  0  0  0  0
 22  6  1  1  0  0  0
M  END
>  <CHROM.1>
71.92517041,55.42196533,68.54576725,21.60578453,16.86298569,34.05722755,1.64933998
1.08511210,2.23012378

>  <Name>
2et8_lig

>  <RI>
3.14397e+07

>  <Rbt.Current_Directory>
/home/itssahil/PROJECTS/Mol_Feturizer/New_Systems/rnas/2et8

>  <Rbt.Executable>
rbdock ($Id: //depot/dev/client3/rdock/2013.1/src/exe/rbdock.cxx#4 $)

>  <Rbt.Library>
libRbt.so (2013.1, Build901 2013/11/27)

>  <Rbt.Parameter_File>
/export/apps/rDock/src/rDock_2013.1_src/data/scripts/dock_solv.prm

>  <Rbt.Receptor>
prm/pocket_docking_6.prm

>  <SCORE>
-11.173

>  <SCORE.INTER>
-8.84602

>  <SCORE.INTER.CONST>
1

>  <SCORE.INTER.POLAR>
-1.37482

>  <SCORE.INTER.ROT>
3

>  <SCORE.INTER.SOLV>
12.3401

>  <SCORE.INTER.VDW>
-11.028

>  <SCORE.INTER.norm>
-0.402092

>  <SCORE.INTRA>
-2.32702

>  <SCORE.INTRA.DIHEDRAL>
-3.78033

>  <SCORE.INTRA.DIHEDRAL.0>
4.99603

>  <SCORE.INTRA.POLAR>
0

>  <SCORE.INTRA.POLAR.0>
0

>  <SCORE.INTRA.REPUL>
0

>  <SCORE.INTRA.REPUL.0>
0

>  <SCORE.INTRA.SOLV>
-0.66909

>  <SCORE.INTRA.SOLV.lig_0>
-74.884

>  <SCORE.INTRA.VDW>
-0.102314

>  <SCORE.INTRA.VDW.0>
-0.858933

>  <SCORE.INTRA.norm>
-0.105774

>  <SCORE.RESTR>
0

>  <SCORE.RESTR.CAVITY>
0

>  <SCORE.RESTR.norm>
0

>  <SCORE.SYSTEM>
0

>  <SCORE.SYSTEM.CONST>
0

>  <SCORE.SYSTEM.DIHEDRAL>
0

>  <SCORE.SYSTEM.SOLV>
0

>  <SCORE.SYSTEM.norm>
0

>  <SCORE.heavy>
22

>  <SCORE.norm>
-0.507866

>  <RMSD>
7.118

$$$$
2et8_lig
 OpenBabel11021811433D
libRbt.so/2013.1/901 2013/11/27
 22 23  0  0  0  0  0  0  0  0999 V2000
   21.2404   12.9875   37.0915 N   0  0  0  0  0  0  0  0  0  0  0  0
   23.3170   10.3620   40.7524 N   0  0  0  0  0  0  0  0  0  0  0  0
   19.2970    6.1719   43.0675 N   0  0  0  0  0  0  0  0  0  0  0  0
   18.6900   11.9528   41.1843 O   0  0  0  0  0  0  0  0  0  0  0  0
   20.0173   12.2532   40.6867 C   0  0  2  0  0  0  0  0  0  0  0  0
   20.3641   11.7704   45.1384 N   0  0  0  0  0  0  0  0  0  0  0  0
   19.0714   13.5378   38.7738 O   0  0  0  0  0  0  0  0  0  0  0  0
   19.9548   12.4655   39.1259 C   0  0  1  0  0  0  0  0  0  0  0  0
   21.0297   10.9046   42.3621 O   0  0  0  0  0  0  0  0  0  0  0  0
   21.3224   12.7945   38.5798 C   0  0  1  0  0  0  0  0  0  0  0  0
   19.7006    9.0372   42.5833 O   0  0  0  0  0  0  0  0  0  0  0  0
   22.2979   11.6468   38.9279 C   0  0  0  0  0  0  0  0  0  0  0  0
   22.0480    7.2889   44.7636 O   0  0  0  0  0  0  0  0  0  0  0  0
   22.3346   11.4950   40.4767 C   0  0  1  0  0  0  0  0  0  0  0  0
   21.3768    9.4613   46.3969 O   0  0  0  0  0  0  0  0  0  0  0  0
   20.9988   11.0543   40.9974 C   0  0  2  0  0  0  0  0  0  0  0  0
   19.9079   10.4740   43.0606 C   0  0  1  0  0  0  0  0  0  0  0  0
   20.8335    8.1300   42.9422 C   0  0  2  0  0  0  0  0  0  0  0  0
   20.5515    6.6922   42.4590 C   0  0  0  0  0  0  0  0  0  0  0  0
   20.9878    8.1202   44.4338 C   0  0  2  0  0  0  0  0  0  0  0  0
   21.2525    9.4980   44.9678 C   0  0  1  0  0  0  0  0  0  0  0  0
   20.1139   10.3857   44.5988 C   0  0  1  0  0  0  0  0  0  0  0  0
  5  4  1  6  0  0  0
  5  8  1  0  0  0  0
  5 16  1  0  0  0  0
  8  7  1  1  0  0  0
  8 10  1  0  0  0  0
 10  1  1  6  0  0  0
 10 12  1  0  0  0  0
 11 18  1  0  0  0  0
 12 14  1  0  0  0  0
 14  2  1  6  0  0  0
 14 16  1  0  0  0  0
 16  9  1  1  0  0  0
 17  9  1  6  0  0  0
 17 11  1  0  0  0  0
 17 22  1  0  0  0  0
 18 19  1  1  0  0  0
 18 20  1  0  0  0  0
 19  3  1  0  0  0  0
 20 13  1  6  0  0  0
 20 21  1  0  0  0  0
 21 15  1  1  0  0  0
 21 22  1  0  0  0  0
 22  6  1  6  0  0  0
M  END
>  <CHROM.1>
67.18675027,66.11710280,-58.92577320,20.74217200,10.37567020,41.99792916
-1.62371977,-1.25124164,2.17162747

>  <Name>
2et8_lig

>  <RI>
2.82936e+07

>  <Rbt.Current_Directory>
/home/itssahil/PROJECTS/Mol_Feturizer/New_Systems/rnas/2et8

>  <Rbt.Executable>
rbdock ($Id: //depot/dev/client3/rdock/2013.1/src/exe/rbdock.cxx#4 $)

>  <Rbt.Library>
libRbt.so (2013.1, Build901 2013/11/27)

>  <Rbt.Parameter_File>
/export/apps/rDock/src/rDock_2013.1_src/data/scripts/dock_solv.prm

>  <Rbt.Receptor>
prm/pocket_docking_8.prm

>  <SCORE>
-20.4901

>  <SCORE.INTER>
-18.8651

>  <SCORE.INTER.CONST>
1

>  <SCORE.INTER.POLAR>
-2.57136

>  <SCORE.INTER.ROT>
3

>  <SCORE.INTER.SOLV>
16.4614

>  <SCORE.INTER.VDW>
-15.0927

>  <SCORE.INTER.norm>
-0.857506

>  <SCORE.INTRA>
-1.62498

>  <SCORE.INTRA.DIHEDRAL>
-4.37345

>  <SCORE.INTRA.DIHEDRAL.0>
4.99603

>  <SCORE.INTRA.POLAR>
0

>  <SCORE.INTRA.POLAR.0>
0

>  <SCORE.INTRA.REPUL>
0

>  <SCORE.INTRA.REPUL.0>
0

>  <SCORE.INTRA.SOLV>
0.577326

>  <SCORE.INTRA.SOLV.lig_0>
-74.884

>  <SCORE.INTRA.VDW>
0.273079

>  <SCORE.INTRA.VDW.0>
-0.858933

>  <SCORE.INTRA.norm>
-0.0738628

>  <SCORE.RESTR>
0

>  <SCORE.RESTR.CAVITY>
0

>  <SCORE.RESTR.norm>
0

>  <SCORE.SYSTEM>
0

>  <SCORE.SYSTEM.CONST>
0

>  <SCORE.SYSTEM.DIHEDRAL>
0

>  <SCORE.SYSTEM.SOLV>
0

>  <SCORE.SYSTEM.norm>
0

>  <SCORE.heavy>
22

>  <SCORE.norm>
-0.931368

>  <RMSD>
7.122

$$$$
2et8_lig
 OpenBabel11021811433D
libRbt.so/2013.1/901 2013/11/27
 22 23  0  0  0  0  0  0  0  0999 V2000
   21.1730   13.0173   37.1689 N   0  0  0  0  0  0  0  0  0  0  0  0
   23.3635   10.3916   40.7626 N   0  0  0  0  0  0  0  0  0  0  0  0
   22.1763    5.8224   42.4105 N   0  0  0  0  0  0  0  0  0  0  0  0
   18.6796   11.7901   41.2436 O   0  0  0  0  0  0  0  0  0  0  0  0
   19.9923   12.1534   40.7495 C   0  0  2  0  0  0  0  0  0  0  0  0
   20.3478   11.5255   45.1965 N   0  0  0  0  0  0  0  0  0  0  0  0
   18.9902   13.4437   38.8693 O   0  0  0  0  0  0  0  0  0  0  0  0
   19.9160   12.3989   39.1942 C   0  0  1  0  0  0  0  0  0  0  0  0
   21.0626   10.8073   42.3906 O   0  0  0  0  0  0  0  0  0  0  0  0
   21.2677   12.7936   38.6521 C   0  0  1  0  0  0  0  0  0  0  0  0
   19.8734    8.8417   42.5486 O   0  0  0  0  0  0  0  0  0  0  0  0
   22.2885   11.6772   38.9710 C   0  0  0  0  0  0  0  0  0  0  0  0
   22.3507    7.1939   44.6625 O   0  0  0  0  0  0  0  0  0  0  0  0
   22.3367   11.4914   40.5158 C   0  0  1  0  0  0  0  0  0  0  0  0
   21.5306    9.2537   46.3718 O   0  0  0  0  0  0  0  0  0  0  0  0
   21.0209   10.9869   41.0297 C   0  0  2  0  0  0  0  0  0  0  0  0
   19.9779   10.2724   43.0755 C   0  0  1  0  0  0  0  0  0  0  0  0
   21.0706    8.0073   42.8736 C   0  0  2  0  0  0  0  0  0  0  0  0
   20.8916    6.5704   42.3410 C   0  0  0  0  0  0  0  0  0  0  0  0
   21.2315    7.9569   44.3637 C   0  0  2  0  0  0  0  0  0  0  0  0
   21.3979    9.3309   44.9451 C   0  0  1  0  0  0  0  0  0  0  0  0
   20.1964   10.1458   44.6094 C   0  0  1  0  0  0  0  0  0  0  0  0
  5  4  1  6  0  0  0
  5  8  1  0  0  0  0
  5 16  1  0  0  0  0
  8  7  1  1  0  0  0
  8 10  1  0  0  0  0
 10  1  1  6  0  0  0
 10 12  1  0  0  0  0
 11 18  1  0  0  0  0
 12 14  1  0  0  0  0
 14  2  1  6  0  0  0
 14 16  1  0  0  0  0
 16  9  1  1  0  0  0
 17  9  1  6  0  0  0
 17 11  1  0  0  0  0
 17 22  1  0  0  0  0
 18 19  1  1  0  0  0
 18 20  1  0  0  0  0
 19  3  1  0  0  0  0
 20 13  1  6  0  0  0
 20 21  1  0  0  0  0
 21 15  1  1  0  0  0
 21 22  1  0  0  0  0
 22  6  1  6  0  0  0
M  END
>  <CHROM.1>
69.51686151,65.34036740,168.34831394,20.94355861,10.25589767,41.97844211
-1.78358513,-1.03092031,2.07597172

>  <Name>
2et8_lig

>  <RI>
2.82936e+07

>  <Rbt.Current_Directory>
/home/itssahil/PROJECTS/Mol_Feturizer/New_Systems/rnas/2et8

>  <Rbt.Executable>
rbdock ($Id: //depot/dev/client3/rdock/2013.1/src/exe/rbdock.cxx#4 $)

>  <Rbt.Library>
libRbt.so (2013.1, Build901 2013/11/27)

>  <Rbt.Parameter_File>
/export/apps/rDock/src/rDock_2013.1_src/data/scripts/dock_solv.prm

>  <Rbt.Receptor>
prm/pocket_docking_8.prm

>  <SCORE>
-20.6989

>  <SCORE.INTER>
-19.2294

>  <SCORE.INTER.CONST>
1

>  <SCORE.INTER.POLAR>
-2.55922

>  <SCORE.INTER.ROT>
3

>  <SCORE.INTER.SOLV>
14.2945

>  <SCORE.INTER.VDW>
-14.6537

>  <SCORE.INTER.norm>
-0.874065

>  <SCORE.INTRA>
-1.46947

>  <SCORE.INTRA.DIHEDRAL>
-3.76591

>  <SCORE.INTRA.DIHEDRAL.0>
4.99603

>  <SCORE.INTRA.POLAR>
0

>  <SCORE.INTRA.POLAR.0>
0

>  <SCORE.INTRA.REPUL>
0

>  <SCORE.INTRA.REPUL.0>
0

>  <SCORE.INTRA.SOLV>
0.258797

>  <SCORE.INTRA.SOLV.lig_0>
-74.884

>  <SCORE.INTRA.VDW>
0.284091

>  <SCORE.INTRA.VDW.0>
-0.858933

>  <SCORE.INTRA.norm>
-0.066794

>  <SCORE.RESTR>
0

>  <SCORE.RESTR.CAVITY>
0

>  <SCORE.RESTR.norm>
0

>  <SCORE.SYSTEM>
0

>  <SCORE.SYSTEM.CONST>
0

>  <SCORE.SYSTEM.DIHEDRAL>
0

>  <SCORE.SYSTEM.SOLV>
0

>  <SCORE.SYSTEM.norm>
0

>  <SCORE.heavy>
22

>  <SCORE.norm>
-0.940859

>  <RMSD>
7.169

$$$$
2et8_lig
 OpenBabel11021811433D
libRbt.so/2013.1/901 2013/11/27
 22 23  0  0  0  0  0  0  0  0999 V2000
   18.8005   14.6004   38.2311 N   0  0  0  0  0  0  0  0  0  0  0  0
   19.1616   12.4680   42.6954 N   0  0  0  0  0  0  0  0  0  0  0  0
   17.2825    8.7709   43.6171 N   0  0  0  0  0  0  0  0  0  0  0  0
   22.0050   10.9302   38.9972 O   0  0  0  0  0  0  0  0  0  0  0  0
   20.6983   11.4298   39.3742 C   0  0  2  0  0  0  0  0  0  0  0  0
   23.6729    9.9952   42.5270 N   0  0  0  0  0  0  0  0  0  0  0  0
   20.4487   12.5932   37.1860 O   0  0  0  0  0  0  0  0  0  0  0  0
   20.4122   12.7769   38.6070 C   0  0  1  0  0  0  0  0  0  0  0  0
   20.8993   10.5165   41.5597 O   0  0  0  0  0  0  0  0  0  0  0  0
   19.0498   13.3150   38.9690 C   0  0  1  0  0  0  0  0  0  0  0  0
   20.0286    9.8949   43.5988 O   0  0  0  0  0  0  0  0  0  0  0  0
   18.9828   13.5415   40.4968 C   0  0  0  0  0  0  0  0  0  0  0  0
   20.6164    6.3316   43.0709 O   0  0  0  0  0  0  0  0  0  0  0  0
   19.2526   12.1796   41.2009 C   0  0  1  0  0  0  0  0  0  0  0  0
   23.2537    7.2698   43.1082 O   0  0  0  0  0  0  0  0  0  0  0  0
   20.6511   11.7107   40.9286 C   0  0  2  0  0  0  0  0  0  0  0  0
   21.2577   10.4772   42.9019 C   0  0  1  0  0  0  0  0  0  0  0  0
   19.7189    8.4960   43.1714 C   0  0  2  0  0  0  0  0  0  0  0  0
   18.4883    7.9566   43.9296 C   0  0  0  0  0  0  0  0  0  0  0  0
   20.9004    7.6259   43.4808 C   0  0  2  0  0  0  0  0  0  0  0  0
   22.1369    8.1086   42.7795 C   0  0  1  0  0  0  0  0  0  0  0  0
   22.4271    9.5029   43.2177 C   0  0  1  0  0  0  0  0  0  0  0  0
  5  4  1  6  0  0  0
  5  8  1  0  0  0  0
  5 16  1  0  0  0  0
  8  7  1  6  0  0  0
  8 10  1  0  0  0  0
 10  1  1  6  0  0  0
 10 12  1  0  0  0  0
 11 18  1  0  0  0  0
 12 14  1  0  0  0  0
 14  2  1  1  0  0  0
 14 16  1  0  0  0  0
 16  9  1  1  0  0  0
 17  9  1  6  0  0  0
 17 11  1  0  0  0  0
 17 22  1  0  0  0  0
 18 19  1  1  0  0  0
 18 20  1  0  0  0  0
 19  3  1  0  0  0  0
 20 13  1  6  0  0  0
 20 21  1  0  0  0  0
 21 15  1  1  0  0  0
 21 22  1  0  0  0  0
 22  6  1  6  0  0  0
M  END
>  <CHROM.1>
163.69148311,108.94943636,62.26006209,20.48370699,10.43999978,41.52106340
1.75692008,0.36842016,-0.78591290

>  <Name>
2et8_lig

>  <RI>
0

>  <Rbt.Current_Directory>
/home/itssahil/PROJECTS/Mol_Feturizer/New_Systems/rnas/2et8

>  <Rbt.Executable>
rbdock ($Id: //depot/dev/client3/rdock/2013.1/src/exe/rbdock.cxx#4 $)

>  <Rbt.Library>
libRbt.so (2013.1, Build901 2013/11/27)

>  <Rbt.Parameter_File>
/export/apps/rDock/src/rDock_2013.1_src/data/scripts/dock_solv.prm

>  <Rbt.Receptor>
prm/pocket_docking_7.prm

>  <SCORE>
-12.0904

>  <SCORE.INTER>
-13.1534

>  <SCORE.INTER.CONST>
1

>  <SCORE.INTER.POLAR>
-0.959166

>  <SCORE.INTER.ROT>
3

>  <SCORE.INTER.SOLV>
12.1605

>  <SCORE.INTER.VDW>
-15.2252

>  <SCORE.INTER.norm>
-0.597883

>  <SCORE.INTRA>
1.06306

>  <SCORE.INTRA.DIHEDRAL>
2.87394

>  <SCORE.INTRA.DIHEDRAL.0>
4.99603

>  <SCORE.INTRA.POLAR>
0

>  <SCORE.INTRA.POLAR.0>
0

>  <SCORE.INTRA.REPUL>
0

>  <SCORE.INTRA.REPUL.0>
0

>  <SCORE.INTRA.SOLV>
0.90615

>  <SCORE.INTRA.SOLV.lig_0>
-74.884

>  <SCORE.INTRA.VDW>
-0.826989

>  <SCORE.INTRA.VDW.0>
-0.858933

>  <SCORE.INTRA.norm>
0.0483208

>  <SCORE.RESTR>
0

>  <SCORE.RESTR.CAVITY>
0

>  <SCORE.RESTR.norm>
0

>  <SCORE.SYSTEM>
0

>  <SCORE.SYSTEM.CONST>
0

>  <SCORE.SYSTEM.DIHEDRAL>
0

>  <SCORE.SYSTEM.SOLV>
0

>  <SCORE.SYSTEM.norm>
0

>  <SCORE.heavy>
22

>  <SCORE.norm>
-0.549562

>  <RMSD>
7.289

$$$$
2et8_lig
 OpenBabel11021811433D
libRbt.so/2013.1/901 2013/11/27
 22 23  0  0  0  0  0  0  0  0999 V2000
   22.0064   12.2476   37.9195 N   0  0  0  0  0  0  0  0  0  0  0  0
   20.6995    9.4841   41.8263 N   0  0  0  0  0  0  0  0  0  0  0  0
   15.5343   12.5773   45.4085 N   0  0  0  0  0  0  0  0  0  0  0  0
   18.3419   13.6900   40.8889 O   0  0  0  0  0  0  0  0  0  0  0  0
   19.6168   13.0019   40.8660 C   0  0  2  0  0  0  0  0  0  0  0  0
   21.7869   11.7065   43.6292 N   0  0  0  0  0  0  0  0  0  0  0  0
   20.3414   14.2914   38.8619 O   0  0  0  0  0  0  0  0  0  0  0  0
   20.1673   12.9701   39.3892 C   0  0  1  0  0  0  0  0  0  0  0  0
   18.9674   11.5863   42.6618 O   0  0  0  0  0  0  0  0  0  0  0  0
   21.5034   12.2710   39.3356 C   0  0  1  0  0  0  0  0  0  0  0  0
   18.2533   12.8252   44.4667 O   0  0  0  0  0  0  0  0  0  0  0  0
   21.3466   10.8334   39.8823 C   0  0  0  0  0  0  0  0  0  0  0  0
   18.6114   10.0772   46.8419 O   0  0  0  0  0  0  0  0  0  0  0  0
   20.8207   10.9257   41.3446 C   0  0  1  0  0  0  0  0  0  0  0  0
   21.2853   10.4412   46.0967 O   0  0  0  0  0  0  0  0  0  0  0  0
   19.4421   11.5161   41.3751 C   0  0  2  0  0  0  0  0  0  0  0  0
   19.4425   12.5450   43.5488 C   0  0  1  0  0  0  0  0  0  0  0  0
   17.8365   11.6337   45.2680 C   0  0  2  0  0  0  0  0  0  0  0  0
   16.6535   11.9882   46.1927 C   0  0  0  0  0  0  0  0  0  0  0  0
   18.9959   11.1910   46.1099 C   0  0  2  0  0  0  0  0  0  0  0  0
   20.1870   10.8427   45.2652 C   0  0  1  0  0  0  0  0  0  0  0  0
   20.5851   12.0415   44.4746 C   0  0  1  0  0  0  0  0  0  0  0  0
  5  4  1  6  0  0  0
  5  8  1  0  0  0  0
  5 16  1  0  0  0  0
  8  7  1  1  0  0  0
  8 10  1  0  0  0  0
 10  1  1  6  0  0  0
 10 12  1  0  0  0  0
 11 18  1  0  0  0  0
 12 14  1  0  0  0  0
 14  2  1  6  0  0  0
 14 16  1  0  0  0  0
 16  9  1  1  0  0  0
 17  9  1  6  0  0  0
 17 11  1  0  0  0  0
 17 22  1  0  0  0  0
 18 19  1  1  0  0  0
 18 20  1  0  0  0  0
 19  3  1  0  0  0  0
 20 13  1  6  0  0  0
 20 21  1  0  0  0  0
 21 15  1  1  0  0  0
 21 22  1  0  0  0  0
 22  6  1  6  0  0  0
M  END
>  <CHROM.1>
-39.65916052,149.41529703,54.24302563,19.63539881,11.85960774,42.82508283
-1.14816874,-0.53493888,1.96614216

>  <Name>
2et8_lig

>  <RI>
2.82936e+07

>  <Rbt.Current_Directory>
/home/itssahil/PROJECTS/Mol_Feturizer/New_Systems/rnas/2et8

>  <Rbt.Executable>
rbdock ($Id: //depot/dev/client3/rdock/2013.1/src/exe/rbdock.cxx#4 $)

>  <Rbt.Library>
libRbt.so (2013.1, Build901 2013/11/27)

>  <Rbt.Parameter_File>
/export/apps/rDock/src/rDock_2013.1_src/data/scripts/dock_solv.prm

>  <Rbt.Receptor>
prm/pocket_docking_8.prm

>  <SCORE>
-12.4901

>  <SCORE.INTER>
-16.7618

>  <SCORE.INTER.CONST>
1

>  <SCORE.INTER.POLAR>
-2.06061

>  <SCORE.INTER.ROT>
3

>  <SCORE.INTER.SOLV>
21.8805

>  <SCORE.INTER.VDW>
-17.1994

>  <SCORE.INTER.norm>
-0.761902

>  <SCORE.INTRA>
4.27177

>  <SCORE.INTRA.DIHEDRAL>
0.739511

>  <SCORE.INTRA.DIHEDRAL.0>
4.99603

>  <SCORE.INTRA.POLAR>
0

>  <SCORE.INTRA.POLAR.0>
0

>  <SCORE.INTRA.REPUL>
0

>  <SCORE.INTRA.REPUL.0>
0

>  <SCORE.INTRA.SOLV>
4.1838

>  <SCORE.INTRA.SOLV.lig_0>
-74.884

>  <SCORE.INTRA.VDW>
1.81011

>  <SCORE.INTRA.VDW.0>
-0.858933

>  <SCORE.INTRA.norm>
0.194171

>  <SCORE.RESTR>
0

>  <SCORE.RESTR.CAVITY>
0

>  <SCORE.RESTR.norm>
0

>  <SCORE.SYSTEM>
0

>  <SCORE.SYSTEM.CONST>
0

>  <SCORE.SYSTEM.DIHEDRAL>
0

>  <SCORE.SYSTEM.SOLV>
0

>  <SCORE.SYSTEM.norm>
0

>  <SCORE.heavy>
22

>  <SCORE.norm>
-0.56773

>  <RMSD>
7.442

$$$$
2et8_lig
 OpenBabel11021811433D
libRbt.so/2013.1/901 2013/11/27
 22 23  0  0  0  0  0  0  0  0999 V2000
   20.9336   13.0949   37.4773 N   0  0  0  0  0  0  0  0  0  0  0  0
   23.3116    9.7720   40.2899 N   0  0  0  0  0  0  0  0  0  0  0  0
   25.0523   10.5180   44.7967 N   0  0  0  0  0  0  0  0  0  0  0  0
   18.9215   11.4804   41.6809 O   0  0  0  0  0  0  0  0  0  0  0  0
   20.1830   11.8000   41.0439 C   0  0  2  0  0  0  0  0  0  0  0  0
   19.4209    7.8697   42.7093 N   0  0  0  0  0  0  0  0  0  0  0  0
   19.0716   13.4439   39.5385 O   0  0  0  0  0  0  0  0  0  0  0  0
   19.9152   12.2857   39.5683 C   0  0  1  0  0  0  0  0  0  0  0  0
   21.3218   10.1317   42.2971 O   0  0  0  0  0  0  0  0  0  0  0  0
   21.2118   12.6401   38.8825 C   0  0  1  0  0  0  0  0  0  0  0  0
   22.9649    9.0155   43.4620 O   0  0  0  0  0  0  0  0  0  0  0  0
   22.1403   11.4041   38.8819 C   0  0  0  0  0  0  0  0  0  0  0  0
   21.4246    9.5875   46.7211 O   0  0  0  0  0  0  0  0  0  0  0  0
   22.3854   10.9812   40.3598 C   0  0  1  0  0  0  0  0  0  0  0  0
   19.4722    7.9768   45.5249 O   0  0  0  0  0  0  0  0  0  0  0  0
   21.1084   10.5199   40.9973 C   0  0  2  0  0  0  0  0  0  0  0  0
   21.7154    8.8339   42.6012 C   0  0  1  0  0  0  0  0  0  0  0  0
   22.6919    9.7201   44.7521 C   0  0  2  0  0  0  0  0  0  0  0  0
   23.9840    9.8465   45.5856 C   0  0  0  0  0  0  0  0  0  0  0  0
   21.6868    8.9251   45.5309 C   0  0  2  0  0  0  0  0  0  0  0  0
   20.4070    8.7560   44.7646 C   0  0  1  0  0  0  0  0  0  0  0  0
   20.7007    8.0538   43.4835 C   0  0  1  0  0  0  0  0  0  0  0  0
  5  4  1  6  0  0  0
  5  8  1  0  0  0  0
  5 16  1  0  0  0  0
  8  7  1  1  0  0  0
  8 10  1  0  0  0  0
 10  1  1  6  0  0  0
 10 12  1  0  0  0  0
 11 18  1  0  0  0  0
 12 14  1  0  0  0  0
 14  2  1  6  0  0  0
 14 16  1  0  0  0  0
 16  9  1  1  0  0  0
 17  9  1  1  0  0  0
 17 11  1  0  0  0  0
 17 22  1  0  0  0  0
 18 19  1  1  0  0  0
 18 20  1  0  0  0  0
 19  3  1  0  0  0  0
 20 13  1  1  0  0  0
 20 21  1  0  0  0  0
 21 15  1  1  0  0  0
 21 22  1  0  0  0  0
 22  6  1  6  0  0  0
M  END
>  <CHROM.1>
159.00529815,127.06584229,55.23461382,21.33801937,10.30307887,42.35383894
-1.74563345,0.09163295,2.08879308

>  <Name>
2et8_lig

>  <RI>
2.82936e+07

>  <Rbt.Current_Directory>
/home/itssahil/PROJECTS/Mol_Feturizer/New_Systems/rnas/2et8

>  <Rbt.Executable>
rbdock ($Id: //depot/dev/client3/rdock/2013.1/src/exe/rbdock.cxx#4 $)

>  <Rbt.Library>
libRbt.so (2013.1, Build901 2013/11/27)

>  <Rbt.Parameter_File>
/export/apps/rDock/src/rDock_2013.1_src/data/scripts/dock_solv.prm

>  <Rbt.Receptor>
prm/pocket_docking_8.prm

>  <SCORE>
-16.3188

>  <SCORE.INTER>
-17.8331

>  <SCORE.INTER.CONST>
1

>  <SCORE.INTER.POLAR>
-2.45613

>  <SCORE.INTER.ROT>
3

>  <SCORE.INTER.SOLV>
14.4638

>  <SCORE.INTER.VDW>
-14.1229

>  <SCORE.INTER.norm>
-0.810596

>  <SCORE.INTRA>
1.51437

>  <SCORE.INTRA.DIHEDRAL>
3.97802

>  <SCORE.INTRA.DIHEDRAL.0>
4.99603

>  <SCORE.INTRA.POLAR>
0

>  <SCORE.INTRA.POLAR.0>
0

>  <SCORE.INTRA.REPUL>
0

>  <SCORE.INTRA.REPUL.0>
0

>  <SCORE.INTRA.SOLV>
0.664104

>  <SCORE.INTRA.SOLV.lig_0>
-74.884

>  <SCORE.INTRA.VDW>
-0.806697

>  <SCORE.INTRA.VDW.0>
-0.858933

>  <SCORE.INTRA.norm>
0.0688349

>  <SCORE.RESTR>
0

>  <SCORE.RESTR.CAVITY>
0

>  <SCORE.RESTR.norm>
0

>  <SCORE.SYSTEM>
0

>  <SCORE.SYSTEM.CONST>
0

>  <SCORE.SYSTEM.DIHEDRAL>
0

>  <SCORE.SYSTEM.SOLV>
0

>  <SCORE.SYSTEM.norm>
0

>  <SCORE.heavy>
22

>  <SCORE.norm>
-0.741761

>  <RMSD>
7.485

$$$$
2et8_lig
 OpenBabel11021811433D
libRbt.so/2013.1/901 2013/11/27
 22 23  0  0  0  0  0  0  0  0999 V2000
   20.7900   13.0469   37.4652 N   0  0  0  0  0  0  0  0  0  0  0  0
   23.2928    9.7667   40.2191 N   0  0  0  0  0  0  0  0  0  0  0  0
   25.0870   10.4904   44.8282 N   0  0  0  0  0  0  0  0  0  0  0  0
   18.9456   11.4602   41.7556 O   0  0  0  0  0  0  0  0  0  0  0  0
   20.1805   11.7817   41.0692 C   0  0  2  0  0  0  0  0  0  0  0  0
   19.4525    7.8870   42.6888 N   0  0  0  0  0  0  0  0  0  0  0  0
   19.0030   13.4038   39.5905 O   0  0  0  0  0  0  0  0  0  0  0  0
   19.8550   12.2514   39.6000 C   0  0  1  0  0  0  0  0  0  0  0  0
   21.3761   10.1331   42.2952 O   0  0  0  0  0  0  0  0  0  0  0  0
   21.1229   12.6075   38.8634 C   0  0  1  0  0  0  0  0  0  0  0  0
   22.9999    9.0014   43.4721 O   0  0  0  0  0  0  0  0  0  0  0  0
   22.0592   11.3775   38.8400 C   0  0  0  0  0  0  0  0  0  0  0  0
   21.4377    9.5828   46.7191 O   0  0  0  0  0  0  0  0  0  0  0  0
   22.3616   10.9706   40.3118 C   0  0  1  0  0  0  0  0  0  0  0  0
   19.4815    7.9903   45.5048 O   0  0  0  0  0  0  0  0  0  0  0  0
   21.1122   10.5072   41.0005 C   0  0  2  0  0  0  0  0  0  0  0  0
   21.7560    8.8316   42.6008 C   0  0  1  0  0  0  0  0  0  0  0  0
   22.7223    9.7068   44.7608 C   0  0  2  0  0  0  0  0  0  0  0  0
   24.0086    9.8210   45.6051 C   0  0  0  0  0  0  0  0  0  0  0  0
   21.7040    8.9195   45.5303 C   0  0  2  0  0  0  0  0  0  0  0  0
   20.4293    8.7623   44.7533 C   0  0  1  0  0  0  0  0  0  0  0  0
   20.7274    8.0592   43.4738 C   0  0  1  0  0  0  0  0  0  0  0  0
  5  4  1  6  0  0  0
  5  8  1  0  0  0  0
  5 16  1  0  0  0  0
  8  7  1  1  0  0  0
  8 10  1  0  0  0  0
 10  1  1  6  0  0  0
 10 12  1  0  0  0  0
 11 18  1  0  0  0  0
 12 14  1  0  0  0  0
 14  2  1  6  0  0  0
 14 16  1  0  0  0  0
 16  9  1  1  0  0  0
 17  9  1  1  0  0  0
 17 11  1  0  0  0  0
 17 22  1  0  0  0  0
 18 19  1  1  0  0  0
 18 20  1  0  0  0  0
 19  3  1  0  0  0  0
 20 13  1  1  0  0  0
 20 21  1  0  0  0  0
 21 15  1  1  0  0  0
 21 22  1  0  0  0  0
 22  6  1  6  0  0  0
M  END
>  <CHROM.1>
157.32445575,130.33710740,55.51522071,21.33316027,10.28960386,42.35455269
-1.76333602,0.07611851,2.08074834

>  <Name>
2et8_lig

>  <RI>
2.82936e+07

>  <Rbt.Current_Directory>
/home/itssahil/PROJECTS/Mol_Feturizer/New_Systems/rnas/2et8

>  <Rbt.Executable>
rbdock ($Id: //depot/dev/client3/rdock/2013.1/src/exe/rbdock.cxx#4 $)

>  <Rbt.Library>
libRbt.so (2013.1, Build901 2013/11/27)

>  <Rbt.Parameter_File>
/export/apps/rDock/src/rDock_2013.1_src/data/scripts/dock_solv.prm

>  <Rbt.Receptor>
prm/pocket_docking_8.prm

>  <SCORE>
-16.2005

>  <SCORE.INTER>
-17.683

>  <SCORE.INTER.CONST>
1

>  <SCORE.INTER.POLAR>
-2.43653

>  <SCORE.INTER.ROT>
3

>  <SCORE.INTER.SOLV>
14.8844

>  <SCORE.INTER.VDW>
-14.2284

>  <SCORE.INTER.norm>
-0.803772

>  <SCORE.INTRA>
1.48245

>  <SCORE.INTRA.DIHEDRAL>
3.98357

>  <SCORE.INTRA.DIHEDRAL.0>
4.99603

>  <SCORE.INTRA.POLAR>
0

>  <SCORE.INTRA.POLAR.0>
0

>  <SCORE.INTRA.REPUL>
0

>  <SCORE.INTRA.REPUL.0>
0

>  <SCORE.INTRA.SOLV>
0.667496

>  <SCORE.INTRA.SOLV.lig_0>
-74.884

>  <SCORE.INTRA.VDW>
-0.843085

>  <SCORE.INTRA.VDW.0>
-0.858933

>  <SCORE.INTRA.norm>
0.067384

>  <SCORE.RESTR>
0

>  <SCORE.RESTR.CAVITY>
0

>  <SCORE.RESTR.norm>
0

>  <SCORE.SYSTEM>
0

>  <SCORE.SYSTEM.CONST>
0

>  <SCORE.SYSTEM.DIHEDRAL>
0

>  <SCORE.SYSTEM.SOLV>
0

>  <SCORE.SYSTEM.norm>
0

>  <SCORE.heavy>
22

>  <SCORE.norm>
-0.736388

>  <RMSD>
7.510

$$$$
2et8_lig
 OpenBabel11021811433D
libRbt.so/2013.1/901 2013/11/27
 22 23  0  0  0  0  0  0  0  0999 V2000
   20.6292   12.8355   36.9620 N   0  0  0  0  0  0  0  0  0  0  0  0
   21.6805   15.6281   32.9991 N   0  0  0  0  0  0  0  0  0  0  0  0
   19.2328   21.3673   33.1989 N   0  0  0  0  0  0  0  0  0  0  0  0
   21.8359   17.5874   37.5006 O   0  0  0  0  0  0  0  0  0  0  0  0
   21.1588   16.6522   36.6252 C   0  0  2  0  0  0  0  0  0  0  0  0
   24.7206   17.8335   34.4126 N   0  0  0  0  0  0  0  0  0  0  0  0
   20.6388   15.1475   38.5407 O   0  0  0  0  0  0  0  0  0  0  0  0
   21.2426   15.2040   37.2422 C   0  0  1  0  0  0  0  0  0  0  0  0
   21.7522   17.9132   34.6994 O   0  0  0  0  0  0  0  0  0  0  0  0
   20.5325   14.2085   36.3581 C   0  0  1  0  0  0  0  0  0  0  0  0
   21.5841   19.4090   32.9568 O   0  0  0  0  0  0  0  0  0  0  0  0
   21.1725   14.2316   34.9511 C   0  0  0  0  0  0  0  0  0  0  0  0
   22.8501   22.2298   34.8962 O   0  0  0  0  0  0  0  0  0  0  0  0
   21.0445   15.6757   34.3841 C   0  0  1  0  0  0  0  0  0  0  0  0
   25.1155   20.5852   34.8747 O   0  0  0  0  0  0  0  0  0  0  0  0
   21.8498   16.6397   35.2040 C   0  0  2  0  0  0  0  0  0  0  0  0
   22.4293   18.2783   33.5419 C   0  0  1  0  0  0  0  0  0  0  0  0
   21.5189   20.6121   33.8421 C   0  0  2  0  0  0  0  0  0  0  0  0
   20.6772   21.7252   33.1843 C   0  0  0  0  0  0  0  0  0  0  0  0
   22.9116   21.1222   34.0635 C   0  0  2  0  0  0  0  0  0  0  0  0
   23.7862   20.0766   34.6922 C   0  0  1  0  0  0  0  0  0  0  0  0
   23.8369   18.8871   33.7960 C   0  0  1  0  0  0  0  0  0  0  0  0
  5  4  1  1  0  0  0
  5  8  1  0  0  0  0
  5 16  1  0  0  0  0
  8  7  1  1  0  0  0
  8 10  1  0  0  0  0
 10  1  1  1  0  0  0
 10 12  1  0  0  0  0
 11 18  1  0  0  0  0
 12 14  1  0  0  0  0
 14  2  1  6  0  0  0
 14 16  1  0  0  0  0
 16  9  1  6  0  0  0
 17  9  1  1  0  0  0
 17 11  1  0  0  0  0
 17 22  1  0  0  0  0
 18 19  1  6  0  0  0
 18 20  1  0  0  0  0
 19  3  1  0  0  0  0
 20 13  1  1  0  0  0
 20 21  1  0  0  0  0
 21 15  1  6  0  0  0
 21 22  1  0  0  0  0
 22  6  1  1  0  0  0
M  END
>  <CHROM.1>
170.91047730,152.98186068,72.10502089,21.92904239,17.94263529,34.97446866
1.80696101,0.43348561,2.64606379

>  <Name>
2et8_lig

>  <RI>
2.82936e+07

>  <Rbt.Current_Directory>
/home/itssahil/PROJECTS/Mol_Feturizer/New_Systems/rnas/2et8

>  <Rbt.Executable>
rbdock ($Id: //depot/dev/client3/rdock/2013.1/src/exe/rbdock.cxx#4 $)

>  <Rbt.Library>
libRbt.so (2013.1, Build901 2013/11/27)

>  <Rbt.Parameter_File>
/export/apps/rDock/src/rDock_2013.1_src/data/scripts/dock_solv.prm

>  <Rbt.Receptor>
prm/pocket_docking_8.prm

>  <SCORE>
-9.5468

>  <SCORE.INTER>
-9.22044

>  <SCORE.INTER.CONST>
1

>  <SCORE.INTER.POLAR>
-1.97161

>  <SCORE.INTER.ROT>
3

>  <SCORE.INTER.SOLV>
14.6213

>  <SCORE.INTER.VDW>
-10.0487

>  <SCORE.INTER.norm>
-0.419111

>  <SCORE.INTRA>
-0.326361

>  <SCORE.INTRA.DIHEDRAL>
-0.929238

>  <SCORE.INTRA.DIHEDRAL.0>
4.99603

>  <SCORE.INTRA.POLAR>
0

>  <SCORE.INTRA.POLAR.0>
0

>  <SCORE.INTRA.REPUL>
0

>  <SCORE.INTRA.REPUL.0>
0

>  <SCORE.INTRA.SOLV>
1.11102

>  <SCORE.INTRA.SOLV.lig_0>
-74.884

>  <SCORE.INTRA.VDW>
-0.417254

>  <SCORE.INTRA.VDW.0>
-0.858933

>  <SCORE.INTRA.norm>
-0.0148346

>  <SCORE.RESTR>
0

>  <SCORE.RESTR.CAVITY>
0

>  <SCORE.RESTR.norm>
0

>  <SCORE.SYSTEM>
0

>  <SCORE.SYSTEM.CONST>
0

>  <SCORE.SYSTEM.DIHEDRAL>
0

>  <SCORE.SYSTEM.SOLV>
0

>  <SCORE.SYSTEM.norm>
0

>  <SCORE.heavy>
22

>  <SCORE.norm>
-0.433945

>  <RMSD>
7.576

$$$$
2et8_lig
 OpenBabel11021811433D
libRbt.so/2013.1/901 2013/11/27
 22 23  0  0  0  0  0  0  0  0999 V2000
   27.7619   14.0434   28.4137 N   0  0  0  0  0  0  0  0  0  0  0  0
   24.8684   16.3022   31.7504 N   0  0  0  0  0  0  0  0  0  0  0  0
   23.9977   15.9635   34.2136 N   0  0  0  0  0  0  0  0  0  0  0  0
   22.9343   14.5978   27.5694 O   0  0  0  0  0  0  0  0  0  0  0  0
   24.0855   15.2239   28.1876 C   0  0  2  0  0  0  0  0  0  0  0  0
   19.9838   17.0233   29.0266 N   0  0  0  0  0  0  0  0  0  0  0  0
   25.6295   14.0837   26.6002 O   0  0  0  0  0  0  0  0  0  0  0  0
   25.3504   14.3045   27.9885 C   0  0  1  0  0  0  0  0  0  0  0  0
   22.7317   16.2221   29.8674 O   0  0  0  0  0  0  0  0  0  0  0  0
   26.5704   14.9382   28.6105 C   0  0  1  0  0  0  0  0  0  0  0  0
   21.9543   15.5805   31.9378 O   0  0  0  0  0  0  0  0  0  0  0  0
   26.3085   15.1742   30.1157 C   0  0  0  0  0  0  0  0  0  0  0  0
   21.5028   19.0002   33.1308 O   0  0  0  0  0  0  0  0  0  0  0  0
   25.0649   16.1006   30.2519 C   0  0  1  0  0  0  0  0  0  0  0  0
   19.6252   18.9465   31.0550 O   0  0  0  0  0  0  0  0  0  0  0  0
   23.8347   15.4146   29.7362 C   0  0  2  0  0  0  0  0  0  0  0  0
   21.5696   15.7542   30.4691 C   0  0  1  0  0  0  0  0  0  0  0  0
   22.3231   16.8670   32.6043 C   0  0  2  0  0  0  0  0  0  0  0  0
   22.6725   16.6290   34.0880 C   0  0  0  0  0  0  0  0  0  0  0  0
   21.1538   17.8026   32.5242 C   0  0  2  0  0  0  0  0  0  0  0  0
   20.7563   18.0646   31.1005 C   0  0  1  0  0  0  0  0  0  0  0  0
   20.3942   16.7715   30.4547 C   0  0  1  0  0  0  0  0  0  0  0  0
  5  4  1  1  0  0  0
  5  8  1  0  0  0  0
  5 16  1  0  0  0  0
  8  7  1  6  0  0  0
  8 10  1  0  0  0  0
 10  1  1  1  0  0  0
 10 12  1  0  0  0  0
 11 18  1  0  0  0  0
 12 14  1  0  0  0  0
 14  2  1  1  0  0  0
 14 16  1  0  0  0  0
 16  9  1  6  0  0  0
 17  9  1  6  0  0  0
 17 11  1  0  0  0  0
 17 22  1  0  0  0  0
 18 19  1  1  0  0  0
 18 20  1  0  0  0  0
 19  3  1  0  0  0  0
 20 13  1  6  0  0  0
 20 21  1  0  0  0  0
 21 15  1  1  0  0  0
 21 22  1  0  0  0  0
 22  6  1  6  0  0  0
M  END
>  <CHROM.1>
116.50580193,68.64267518,73.33146924,23.20245256,16.13841875,30.43287995
-0.73623740,-0.38624174,1.28856818

>  <Name>
2et8_lig

>  <RI>
224

>  <Rbt.Current_Directory>
/home/itssahil/PROJECTS/Mol_Feturizer/New_Systems/rnas/2et8

>  <Rbt.Executable>
rbdock ($Id: //depot/dev/client3/rdock/2013.1/src/exe/rbdock.cxx#4 $)

>  <Rbt.Library>
libRbt.so (2013.1, Build901 2013/11/27)

>  <Rbt.Parameter_File>
/export/apps/rDock/src/rDock_2013.1_src/data/scripts/dock_solv.prm

>  <Rbt.Receptor>
prm/blind_docking_60.prm

>  <SCORE>
-6.11533

>  <SCORE.INTER>
-10.2217

>  <SCORE.INTER.CONST>
1

>  <SCORE.INTER.POLAR>
-0.597141

>  <SCORE.INTER.ROT>
3

>  <SCORE.INTER.SOLV>
20.5626

>  <SCORE.INTER.VDW>
-17.2782

>  <SCORE.INTER.norm>
-0.464624

>  <SCORE.INTRA>
2.96412

>  <SCORE.INTRA.DIHEDRAL>
3.09466

>  <SCORE.INTRA.DIHEDRAL.0>
4.99603

>  <SCORE.INTRA.POLAR>
0

>  <SCORE.INTRA.POLAR.0>
0

>  <SCORE.INTRA.REPUL>
0

>  <SCORE.INTRA.REPUL.0>
0

>  <SCORE.INTRA.SOLV>
4.32816

>  <SCORE.INTRA.SOLV.lig_0>
-74.884

>  <SCORE.INTRA.VDW>
-0.747289

>  <SCORE.INTRA.VDW.0>
-0.858933

>  <SCORE.INTRA.norm>
0.134733

>  <SCORE.RESTR>
1.14227

>  <SCORE.RESTR.CAVITY>
1.14227

>  <SCORE.RESTR.norm>
0.0519212

>  <SCORE.SYSTEM>
0

>  <SCORE.SYSTEM.CONST>
0

>  <SCORE.SYSTEM.DIHEDRAL>
0

>  <SCORE.SYSTEM.SOLV>
0

>  <SCORE.SYSTEM.norm>
0

>  <SCORE.heavy>
22

>  <SCORE.norm>
-0.27797

>  <RMSD>
7.785

$$$$
2et8_lig
 OpenBabel11021811433D
libRbt.so/2013.1/901 2013/11/27
 22 23  0  0  0  0  0  0  0  0999 V2000
   27.8242   14.1355   28.3502 N   0  0  0  0  0  0  0  0  0  0  0  0
   24.9009   16.2374   31.7625 N   0  0  0  0  0  0  0  0  0  0  0  0
   24.0089   15.9166   34.2073 N   0  0  0  0  0  0  0  0  0  0  0  0
   22.9958   14.6875   27.5087 O   0  0  0  0  0  0  0  0  0  0  0  0
   24.1398   15.2969   28.1562 C   0  0  2  0  0  0  0  0  0  0  0  0
   20.0007   16.9444   29.0382 N   0  0  0  0  0  0  0  0  0  0  0  0
   25.6985   14.2326   26.5309 O   0  0  0  0  0  0  0  0  0  0  0  0
   25.4124   14.3956   27.9257 C   0  0  1  0  0  0  0  0  0  0  0  0
   22.7722   16.2170   29.8690 O   0  0  0  0  0  0  0  0  0  0  0  0
   26.6252   15.0128   28.5777 C   0  0  1  0  0  0  0  0  0  0  0  0
   22.0236   15.5808   31.9516 O   0  0  0  0  0  0  0  0  0  0  0  0
   26.3558   15.1865   30.0900 C   0  0  0  0  0  0  0  0  0  0  0  0
   21.5002   19.0023   33.1097 O   0  0  0  0  0  0  0  0  0  0  0  0
   25.1047   16.0975   30.2579 C   0  0  1  0  0  0  0  0  0  0  0  0
   19.6107   18.8814   31.0475 O   0  0  0  0  0  0  0  0  0  0  0  0
   23.8817   15.4236   29.7101 C   0  0  2  0  0  0  0  0  0  0  0  0
   21.6252   15.7289   30.4838 C   0  0  1  0  0  0  0  0  0  0  0  0
   22.3666   16.8830   32.6013 C   0  0  2  0  0  0  0  0  0  0  0  0
   22.7313   16.6699   34.0851 C   0  0  0  0  0  0  0  0  0  0  0  0
   21.1753   17.7901   32.5188 C   0  0  2  0  0  0  0  0  0  0  0  0
   20.7624   18.0267   31.0951 C   0  0  1  0  0  0  0  0  0  0  0  0
   20.4263   16.7183   30.4661 C   0  0  1  0  0  0  0  0  0  0  0  0
  5  4  1  6  0  0  0
  5  8  1  0  0  0  0
  5 16  1  0  0  0  0
  8  7  1  6  0  0  0
  8 10  1  0  0  0  0
 10  1  1  1  0  0  0
 10 12  1  0  0  0  0
 11 18  1  0  0  0  0
 12 14  1  0  0  0  0
 14  2  1  1  0  0  0
 14 16  1  0  0  0  0
 16  9  1  6  0  0  0
 17  9  1  6  0  0  0
 17 11  1  0  0  0  0
 17 22  1  0  0  0  0
 18 19  1  1  0  0  0
 18 20  1  0  0  0  0
 19  3  1  0  0  0  0
 20 13  1  6  0  0  0
 20 21  1  0  0  0  0
 21 15  1  1  0  0  0
 21 22  1  0  0  0  0
 22  6  1  6  0  0  0
M  END
>  <CHROM.1>
118.50283114,70.23821503,67.72873139,23.24180154,16.15071150,30.41648033
-0.73331127,-0.37535001,1.30584392

>  <Name>
2et8_lig

>  <RI>
0

>  <Rbt.Current_Directory>
/home/itssahil/PROJECTS/Mol_Feturizer/New_Systems/rnas/2et8

>  <Rbt.Executable>
rbdock ($Id: //depot/dev/client3/rdock/2013.1/src/exe/rbdock.cxx#4 $)

>  <Rbt.Library>
libRbt.so (2013.1, Build901 2013/11/27)

>  <Rbt.Parameter_File>
/export/apps/rDock/src/rDock_2013.1_src/data/scripts/dock_solv.prm

>  <Rbt.Receptor>
prm/blind_docking_80.prm

>  <SCORE>
-6.42311

>  <SCORE.INTER>
-10.7246

>  <SCORE.INTER.CONST>
1

>  <SCORE.INTER.POLAR>
-0.570231

>  <SCORE.INTER.ROT>
3

>  <SCORE.INTER.SOLV>
20.4746

>  <SCORE.INTER.VDW>
-17.6738

>  <SCORE.INTER.norm>
-0.48748

>  <SCORE.INTRA>
2.90847

>  <SCORE.INTRA.DIHEDRAL>
2.87645

>  <SCORE.INTRA.DIHEDRAL.0>
4.99603

>  <SCORE.INTRA.POLAR>
0

>  <SCORE.INTRA.POLAR.0>
0

>  <SCORE.INTRA.REPUL>
0

>  <SCORE.INTRA.REPUL.0>
0

>  <SCORE.INTRA.SOLV>
4.41626

>  <SCORE.INTRA.SOLV.lig_0>
-74.884

>  <SCORE.INTRA.VDW>
-0.737882

>  <SCORE.INTRA.VDW.0>
-0.858933

>  <SCORE.INTRA.norm>
0.132203

>  <SCORE.RESTR>
1.39298

>  <SCORE.RESTR.CAVITY>
1.39298

>  <SCORE.RESTR.norm>
0.0633171

>  <SCORE.SYSTEM>
0

>  <SCORE.SYSTEM.CONST>
0

>  <SCORE.SYSTEM.DIHEDRAL>
0

>  <SCORE.SYSTEM.SOLV>
0

>  <SCORE.SYSTEM.norm>
0

>  <SCORE.heavy>
22

>  <SCORE.norm>
-0.291959

>  <RMSD>
7.794

$$$$
2et8_lig
 OpenBabel11021811433D
libRbt.so/2013.1/901 2013/11/27
 22 23  0  0  0  0  0  0  0  0999 V2000
   27.7579   14.0522   28.3891 N   0  0  0  0  0  0  0  0  0  0  0  0
   24.8618   16.3071   31.7262 N   0  0  0  0  0  0  0  0  0  0  0  0
   24.0028   15.9792   34.1873 N   0  0  0  0  0  0  0  0  0  0  0  0
   22.9284   14.5951   27.5479 O   0  0  0  0  0  0  0  0  0  0  0  0
   24.0786   15.2243   28.1648 C   0  0  2  0  0  0  0  0  0  0  0  0
   19.9709   17.0108   29.0100 N   0  0  0  0  0  0  0  0  0  0  0  0
   25.6240   14.0863   26.5771 O   0  0  0  0  0  0  0  0  0  0  0  0
   25.3455   14.3076   27.9655 C   0  0  1  0  0  0  0  0  0  0  0  0
   22.7239   16.2208   29.8448 O   0  0  0  0  0  0  0  0  0  0  0  0
   26.5645   14.9444   28.5861 C   0  0  1  0  0  0  0  0  0  0  0  0
   21.9554   15.5866   31.9208 O   0  0  0  0  0  0  0  0  0  0  0  0
   26.3032   15.1811   30.0913 C   0  0  0  0  0  0  0  0  0  0  0  0
   21.4991   19.0105   33.0998 O   0  0  0  0  0  0  0  0  0  0  0  0
   25.0576   16.1048   30.2276 C   0  0  1  0  0  0  0  0  0  0  0  0
   19.6143   18.9422   31.0309 O   0  0  0  0  0  0  0  0  0  0  0  0
   23.8286   15.4156   29.7134 C   0  0  2  0  0  0  0  0  0  0  0  0
   21.5651   15.7525   30.4527 C   0  0  1  0  0  0  0  0  0  0  0  0
   22.3231   16.8771   32.5801 C   0  0  2  0  0  0  0  0  0  0  0  0
   22.6785   16.6468   34.0637 C   0  0  0  0  0  0  0  0  0  0  0  0
   21.1511   17.8091   32.4999 C   0  0  2  0  0  0  0  0  0  0  0  0
   20.7479   18.0636   31.0765 C   0  0  1  0  0  0  0  0  0  0  0  0
   20.3870   16.7666   30.4378 C   0  0  1  0  0  0  0  0  0  0  0  0
  5  4  1  1  0  0  0
  5  8  1  0  0  0  0
  5 16  1  0  0  0  0
  8  7  1  6  0  0  0
  8 10  1  0  0  0  0
 10  1  1  1  0  0  0
 10 12  1  0  0  0  0
 11 18  1  0  0  0  0
 12 14  1  0  0  0  0
 14  2  1  1  0  0  0
 14 16  1  0  0  0  0
 16  9  1  6  0  0  0
 17  9  1  6  0  0  0
 17 11  1  0  0  0  0
 17 22  1  0  0  0  0
 18 19  1  1  0  0  0
 18 20  1  0  0  0  0
 19  3  1  0  0  0  0
 20 13  1  6  0  0  0
 20 21  1  0  0  0  0
 21 15  1  1  0  0  0
 21 22  1  0  0  0  0
 22  6  1  6  0  0  0
M  END
>  <CHROM.1>
116.77821112,68.63982067,73.04690165,23.19769548,16.14185588,30.40999715
-0.73757313,-0.38340609,1.28506561

>  <Name>
2et8_lig

>  <RI>
224

>  <Rbt.Current_Directory>
/home/itssahil/PROJECTS/Mol_Feturizer/New_Systems/rnas/2et8

>  <Rbt.Executable>
rbdock ($Id: //depot/dev/client3/rdock/2013.1/src/exe/rbdock.cxx#4 $)

>  <Rbt.Library>
libRbt.so (2013.1, Build901 2013/11/27)

>  <Rbt.Parameter_File>
/export/apps/rDock/src/rDock_2013.1_src/data/scripts/dock_solv.prm

>  <Rbt.Receptor>
prm/blind_docking_60.prm

>  <SCORE>
-6.19457

>  <SCORE.INTER>
-10.3443

>  <SCORE.INTER.CONST>
1

>  <SCORE.INTER.POLAR>
-0.596137

>  <SCORE.INTER.ROT>
3

>  <SCORE.INTER.SOLV>
20.566

>  <SCORE.INTER.VDW>
-17.3644

>  <SCORE.INTER.norm>
-0.470196

>  <SCORE.INTRA>
3.00076

>  <SCORE.INTRA.DIHEDRAL>
3.07805

>  <SCORE.INTRA.DIHEDRAL.0>
4.99603

>  <SCORE.INTRA.POLAR>
0

>  <SCORE.INTRA.POLAR.0>
0

>  <SCORE.INTRA.REPUL>
0

>  <SCORE.INTRA.REPUL.0>
0

>  <SCORE.INTRA.SOLV>
4.35394

>  <SCORE.INTRA.SOLV.lig_0>
-74.884

>  <SCORE.INTRA.VDW>
-0.715231

>  <SCORE.INTRA.VDW.0>
-0.858933

>  <SCORE.INTRA.norm>
0.136398

>  <SCORE.RESTR>
1.14897

>  <SCORE.RESTR.CAVITY>
1.14897

>  <SCORE.RESTR.norm>
0.0522261

>  <SCORE.SYSTEM>
0

>  <SCORE.SYSTEM.CONST>
0

>  <SCORE.SYSTEM.DIHEDRAL>
0

>  <SCORE.SYSTEM.SOLV>
0

>  <SCORE.SYSTEM.norm>
0

>  <SCORE.heavy>
22

>  <SCORE.norm>
-0.281571

>  <RMSD>
7.806

$$$$
2et8_lig
 OpenBabel11021811433D
libRbt.so/2013.1/901 2013/11/27
 22 23  0  0  0  0  0  0  0  0999 V2000
   27.7613   14.0584   28.3888 N   0  0  0  0  0  0  0  0  0  0  0  0
   24.8657   16.3222   31.7202 N   0  0  0  0  0  0  0  0  0  0  0  0
   24.0050   15.9790   34.1840 N   0  0  0  0  0  0  0  0  0  0  0  0
   22.9286   14.5830   27.5550 O   0  0  0  0  0  0  0  0  0  0  0  0
   24.0783   15.2187   28.1661 C   0  0  2  0  0  0  0  0  0  0  0  0
   19.9679   17.0021   29.0124 N   0  0  0  0  0  0  0  0  0  0  0  0
   25.6237   14.0770   26.5812 O   0  0  0  0  0  0  0  0  0  0  0  0
   25.3473   14.3046   27.9689 C   0  0  1  0  0  0  0  0  0  0  0  0
   22.7242   16.2200   29.8438 O   0  0  0  0  0  0  0  0  0  0  0  0
   26.5658   14.9482   28.5837 C   0  0  1  0  0  0  0  0  0  0  0  0
   21.9611   15.5901   31.9231 O   0  0  0  0  0  0  0  0  0  0  0  0
   26.3070   15.1919   30.0882 C   0  0  0  0  0  0  0  0  0  0  0  0
   21.5002   19.0163   33.0934 O   0  0  0  0  0  0  0  0  0  0  0  0
   25.0590   16.1127   30.2223 C   0  0  1  0  0  0  0  0  0  0  0  0
   19.6114   18.9385   31.0285 O   0  0  0  0  0  0  0  0  0  0  0  0
   23.8309   15.4174   29.7142 C   0  0  2  0  0  0  0  0  0  0  0  0
   21.5675   15.7511   30.4553 C   0  0  1  0  0  0  0  0  0  0  0  0
   22.3275   16.8832   32.5781 C   0  0  2  0  0  0  0  0  0  0  0  0
   22.6863   16.6578   34.0615 C   0  0  0  0  0  0  0  0  0  0  0  0
   21.1535   17.8126   32.4976 C   0  0  2  0  0  0  0  0  0  0  0  0
   20.7469   18.0623   31.0743 C   0  0  1  0  0  0  0  0  0  0  0  0
   20.3873   16.7627   30.4399 C   0  0  1  0  0  0  0  0  0  0  0  0
  5  4  1  1  0  0  0
  5  8  1  0  0  0  0
  5 16  1  0  0  0  0
  8  7  1  6  0  0  0
  8 10  1  0  0  0  0
 10  1  1  1  0  0  0
 10 12  1  0  0  0  0
 11 18  1  0  0  0  0
 12 14  1  0  0  0  0
 14  2  1  1  0  0  0
 14 16  1  0  0  0  0
 16  9  1  6  0  0  0
 17  9  1  6  0  0  0
 17 11  1  0  0  0  0
 17 22  1  0  0  0  0
 18 19  1  1  0  0  0
 18 20  1  0  0  0  0
 19  3  1  0  0  0  0
 20 13  1  6  0  0  0
 20 21  1  0  0  0  0
 21 15  1  1  0  0  0
 21 22  1  0  0  0  0
 22  6  1  6  0  0  0
M  END
>  <CHROM.1>
116.71231131,68.54008242,72.38950841,23.19936207,16.14288084,30.40946380
-0.73827844,-0.38102984,1.28163700

>  <Name>
2et8_lig

>  <RI>
224

>  <Rbt.Current_Directory>
/home/itssahil/PROJECTS/Mol_Feturizer/New_Systems/rnas/2et8

>  <Rbt.Executable>
rbdock ($Id: //depot/dev/client3/rdock/2013.1/src/exe/rbdock.cxx#4 $)

>  <Rbt.Library>
libRbt.so (2013.1, Build901 2013/11/27)

>  <Rbt.Parameter_File>
/export/apps/rDock/src/rDock_2013.1_src/data/scripts/dock_solv.prm

>  <Rbt.Receptor>
prm/blind_docking_60.prm

>  <SCORE>
-6.2069

>  <SCORE.INTER>
-10.3218

>  <SCORE.INTER.CONST>
1

>  <SCORE.INTER.POLAR>
-0.593485

>  <SCORE.INTER.ROT>
3

>  <SCORE.INTER.SOLV>
20.5836

>  <SCORE.INTER.VDW>
-17.3641

>  <SCORE.INTER.norm>
-0.469171

>  <SCORE.INTRA>
2.96148

>  <SCORE.INTRA.DIHEDRAL>
3.01181

>  <SCORE.INTRA.DIHEDRAL.0>
4.99603

>  <SCORE.INTRA.POLAR>
0

>  <SCORE.INTRA.POLAR.0>
0

>  <SCORE.INTRA.REPUL>
0

>  <SCORE.INTRA.REPUL.0>
0

>  <SCORE.INTRA.SOLV>
4.3516

>  <SCORE.INTRA.SOLV.lig_0>
-74.884

>  <SCORE.INTRA.VDW>
-0.720221

>  <SCORE.INTRA.VDW.0>
-0.858933

>  <SCORE.INTRA.norm>
0.134613

>  <SCORE.RESTR>
1.15338

>  <SCORE.RESTR.CAVITY>
1.15338

>  <SCORE.RESTR.norm>
0.0524264

>  <SCORE.SYSTEM>
0

>  <SCORE.SYSTEM.CONST>
0

>  <SCORE.SYSTEM.DIHEDRAL>
0

>  <SCORE.SYSTEM.SOLV>
0

>  <SCORE.SYSTEM.norm>
0

>  <SCORE.heavy>
22

>  <SCORE.norm>
-0.282132

>  <RMSD>
7.808

$$$$
2et8_lig
 OpenBabel11021811433D
libRbt.so/2013.1/901 2013/11/27
 22 23  0  0  0  0  0  0  0  0999 V2000
   27.7821   13.5965   27.9806 N   0  0  0  0  0  0  0  0  0  0  0  0
   25.3349   16.1377   31.4678 N   0  0  0  0  0  0  0  0  0  0  0  0
   24.5189   15.3336   33.8749 N   0  0  0  0  0  0  0  0  0  0  0  0
   23.0097   14.6924   27.3898 O   0  0  0  0  0  0  0  0  0  0  0  0
   24.2539   15.1813   27.9485 C   0  0  2  0  0  0  0  0  0  0  0  0
   20.4623   17.5835   29.1707 N   0  0  0  0  0  0  0  0  0  0  0  0
   25.5771   13.8885   26.2805 O   0  0  0  0  0  0  0  0  0  0  0  0
   25.3962   14.1282   27.6819 C   0  0  1  0  0  0  0  0  0  0  0  0
   23.1085   16.3111   29.6984 O   0  0  0  0  0  0  0  0  0  0  0  0
   26.7098   14.6170   28.2409 C   0  0  1  0  0  0  0  0  0  0  0  0
   22.4068   15.6222   31.7806 O   0  0  0  0  0  0  0  0  0  0  0  0
   26.5538   14.8690   29.7582 C   0  0  0  0  0  0  0  0  0  0  0  0
   22.5933   18.9585   33.2485 O   0  0  0  0  0  0  0  0  0  0  0  0
   25.4302   15.9272   29.9607 C   0  0  1  0  0  0  0  0  0  0  0  0
   20.5718   19.3617   31.3542 O   0  0  0  0  0  0  0  0  0  0  0  0
   24.1061   15.3867   29.5083 C   0  0  2  0  0  0  0  0  0  0  0  0
   21.9388   15.9742   30.3691 C   0  0  1  0  0  0  0  0  0  0  0  0
   23.0245   16.7782   32.4999 C   0  0  2  0  0  0  0  0  0  0  0  0
   23.4489   16.3668   33.9250 C   0  0  0  0  0  0  0  0  0  0  0  0
   22.0138   17.8821   32.5932 C   0  0  2  0  0  0  0  0  0  0  0  0
   21.5506   18.3193   31.2339 C   0  0  1  0  0  0  0  0  0  0  0  0
   20.9401   17.1540   30.5340 C   0  0  1  0  0  0  0  0  0  0  0  0
  5  4  1  1  0  0  0
  5  8  1  0  0  0  0
  5 16  1  0  0  0  0
  8  7  1  6  0  0  0
  8 10  1  0  0  0  0
 10  1  1  1  0  0  0
 10 12  1  0  0  0  0
 11 18  1  0  0  0  0
 12 14  1  0  0  0  0
 14  2  1  1  0  0  0
 14 16  1  0  0  0  0
 16  9  1  6  0  0  0
 17  9  1  6  0  0  0
 17 11  1  0  0  0  0
 17 22  1  0  0  0  0
 18 19  1  1  0  0  0
 18 20  1  0  0  0  0
 19  3  1  0  0  0  0
 20 13  1  6  0  0  0
 20 21  1  0  0  0  0
 21 15  1  1  0  0  0
 21 22  1  0  0  0  0
 22  6  1  6  0  0  0
M  END
>  <CHROM.1>
117.07728156,63.16325438,64.31756891,23.64354572,16.10730023,30.29024661
-0.83198230,-0.50155807,1.29476505

>  <Name>
2et8_lig

>  <RI>
224

>  <Rbt.Current_Directory>
/home/itssahil/PROJECTS/Mol_Feturizer/New_Systems/rnas/2et8

>  <Rbt.Executable>
rbdock ($Id: //depot/dev/client3/rdock/2013.1/src/exe/rbdock.cxx#4 $)

>  <Rbt.Library>
libRbt.so (2013.1, Build901 2013/11/27)

>  <Rbt.Parameter_File>
/export/apps/rDock/src/rDock_2013.1_src/data/scripts/dock_solv.prm

>  <Rbt.Receptor>
prm/blind_docking_60.prm

>  <SCORE>
-6.80644

>  <SCORE.INTER>
-11.4491

>  <SCORE.INTER.CONST>
1

>  <SCORE.INTER.POLAR>
-0.444436

>  <SCORE.INTER.ROT>
3

>  <SCORE.INTER.SOLV>
24.4285

>  <SCORE.INTER.VDW>
-19.8941

>  <SCORE.INTER.norm>
-0.520413

>  <SCORE.INTRA>
3.38675

>  <SCORE.INTRA.DIHEDRAL>
2.25468

>  <SCORE.INTRA.DIHEDRAL.0>
4.99603

>  <SCORE.INTRA.POLAR>
0

>  <SCORE.INTRA.POLAR.0>
0

>  <SCORE.INTRA.REPUL>
0

>  <SCORE.INTRA.REPUL.0>
0

>  <SCORE.INTRA.SOLV>
4.66006

>  <SCORE.INTRA.SOLV.lig_0>
-74.884

>  <SCORE.INTRA.VDW>
-0.0706253

>  <SCORE.INTRA.VDW.0>
-0.858933

>  <SCORE.INTRA.norm>
0.153943

>  <SCORE.RESTR>
1.2559

>  <SCORE.RESTR.CAVITY>
1.2559

>  <SCORE.RESTR.norm>
0.0570862

>  <SCORE.SYSTEM>
0

>  <SCORE.SYSTEM.CONST>
0

>  <SCORE.SYSTEM.DIHEDRAL>
0

>  <SCORE.SYSTEM.SOLV>
0

>  <SCORE.SYSTEM.norm>
0

>  <SCORE.heavy>
22

>  <SCORE.norm>
-0.309384

>  <RMSD>
8.024

$$$$
2et8_lig
 OpenBabel11021811433D
libRbt.so/2013.1/901 2013/11/27
 22 23  0  0  0  0  0  0  0  0999 V2000
   27.7678   13.3065   27.9544 N   0  0  0  0  0  0  0  0  0  0  0  0
   25.5122   16.0074   31.4508 N   0  0  0  0  0  0  0  0  0  0  0  0
   22.1054   15.2496   34.4046 N   0  0  0  0  0  0  0  0  0  0  0  0
   23.1072   14.7997   27.3419 O   0  0  0  0  0  0  0  0  0  0  0  0
   24.3833   15.1784   27.9143 C   0  0  2  0  0  0  0  0  0  0  0  0
   20.8834   18.0166   29.1363 N   0  0  0  0  0  0  0  0  0  0  0  0
   25.6078   13.7968   26.2422 O   0  0  0  0  0  0  0  0  0  0  0  0
   25.4365   14.0369   27.6448 C   0  0  1  0  0  0  0  0  0  0  0  0
   23.3217   16.3820   29.6678 O   0  0  0  0  0  0  0  0  0  0  0  0
   26.7817   14.4097   28.2179 C   0  0  1  0  0  0  0  0  0  0  0  0
   22.3875   15.5440   31.5985 O   0  0  0  0  0  0  0  0  0  0  0  0
   26.6352   14.6589   29.7366 C   0  0  0  0  0  0  0  0  0  0  0  0
   22.8311   18.6391   33.4813 O   0  0  0  0  0  0  0  0  0  0  0  0
   25.6015   15.8045   29.9423 C   0  0  1  0  0  0  0  0  0  0  0  0
   21.0208   19.5013   31.5276 O   0  0  0  0  0  0  0  0  0  0  0  0
   24.2408   15.3800   29.4751 C   0  0  2  0  0  0  0  0  0  0  0  0
   22.0731   16.1123   30.2153 C   0  0  1  0  0  0  0  0  0  0  0  0
   23.0727   16.5252   32.4947 C   0  0  2  0  0  0  0  0  0  0  0  0
   23.3363   15.9020   33.8812 C   0  0  0  0  0  0  0  0  0  0  0  0
   22.1876   17.7242   32.6609 C   0  0  2  0  0  0  0  0  0  0  0  0
   21.8833   18.3699   31.3403 C   0  0  1  0  0  0  0  0  0  0  0  0
   21.2027   17.3764   30.4627 C   0  0  1  0  0  0  0  0  0  0  0  0
  5  4  1  1  0  0  0
  5  8  1  0  0  0  0
  5 16  1  0  0  0  0
  8  7  1  6  0  0  0
  8 10  1  0  0  0  0
 10  1  1  1  0  0  0
 10 12  1  0  0  0  0
 11 18  1  0  0  0  0
 12 14  1  0  0  0  0
 14  2  1  1  0  0  0
 14 16  1  0  0  0  0
 16  9  1  6  0  0  0
 17  9  1  1  0  0  0
 17 11  1  0  0  0  0
 17 22  1  0  0  0  0
 18 19  1  1  0  0  0
 18 20  1  0  0  0  0
 19  3  1  0  0  0  0
 20 13  1  1  0  0  0
 20 21  1  0  0  0  0
 21 15  1  1  0  0  0
 21 22  1  0  0  0  0
 22  6  1  6  0  0  0
M  END
>  <CHROM.1>
111.08308980,60.63542756,-48.57100552,23.67448455,16.04664701,30.30474965
-0.79778588,-0.60915070,1.43871663

>  <Name>
2et8_lig

>  <RI>
224

>  <Rbt.Current_Directory>
/home/itssahil/PROJECTS/Mol_Feturizer/New_Systems/rnas/2et8

>  <Rbt.Executable>
rbdock ($Id: //depot/dev/client3/rdock/2013.1/src/exe/rbdock.cxx#4 $)

>  <Rbt.Library>
libRbt.so (2013.1, Build901 2013/11/27)

>  <Rbt.Parameter_File>
/export/apps/rDock/src/rDock_2013.1_src/data/scripts/dock_solv.prm

>  <Rbt.Receptor>
prm/blind_docking_60.prm

>  <SCORE>
-8.97549

>  <SCORE.INTER>
-12.372

>  <SCORE.INTER.CONST>
1

>  <SCORE.INTER.POLAR>
-0.424572

>  <SCORE.INTER.ROT>
3

>  <SCORE.INTER.SOLV>
24.0434

>  <SCORE.INTER.VDW>
-20.4472

>  <SCORE.INTER.norm>
-0.562365

>  <SCORE.INTRA>
2.16813

>  <SCORE.INTRA.DIHEDRAL>
2.2685

>  <SCORE.INTRA.DIHEDRAL.0>
4.99603

>  <SCORE.INTRA.POLAR>
0

>  <SCORE.INTRA.POLAR.0>
0

>  <SCORE.INTRA.REPUL>
0

>  <SCORE.INTRA.REPUL.0>
0

>  <SCORE.INTRA.SOLV>
3.23755

>  <SCORE.INTRA.SOLV.lig_0>
-74.884

>  <SCORE.INTRA.VDW>
-0.584896

>  <SCORE.INTRA.VDW.0>
-0.858933

>  <SCORE.INTRA.norm>
0.0985514

>  <SCORE.RESTR>
1.22842

>  <SCORE.RESTR.CAVITY>
1.22842

>  <SCORE.RESTR.norm>
0.0558372

>  <SCORE.SYSTEM>
0

>  <SCORE.SYSTEM.CONST>
0

>  <SCORE.SYSTEM.DIHEDRAL>
0

>  <SCORE.SYSTEM.SOLV>
0

>  <SCORE.SYSTEM.norm>
0

>  <SCORE.heavy>
22

>  <SCORE.norm>
-0.407977

>  <RMSD>
8.035

$$$$
2et8_lig
 OpenBabel11021811433D
libRbt.so/2013.1/901 2013/11/27
 22 23  0  0  0  0  0  0  0  0999 V2000
   27.7670   13.3028   27.9634 N   0  0  0  0  0  0  0  0  0  0  0  0
   25.5106   16.0125   31.4524 N   0  0  0  0  0  0  0  0  0  0  0  0
   22.0722   15.3040   34.4281 N   0  0  0  0  0  0  0  0  0  0  0  0
   23.1059   14.7928   27.3468 O   0  0  0  0  0  0  0  0  0  0  0  0
   24.3819   15.1735   27.9182 C   0  0  2  0  0  0  0  0  0  0  0  0
   20.8836   18.0161   29.1279 N   0  0  0  0  0  0  0  0  0  0  0  0
   25.6068   13.7877   26.2499 O   0  0  0  0  0  0  0  0  0  0  0  0
   25.4355   14.0316   27.6518 C   0  0  1  0  0  0  0  0  0  0  0  0
   23.3200   16.3816   29.6685 O   0  0  0  0  0  0  0  0  0  0  0  0
   26.7805   14.4064   28.2238 C   0  0  1  0  0  0  0  0  0  0  0  0
   22.3792   15.5443   31.5963 O   0  0  0  0  0  0  0  0  0  0  0  0
   26.6340   14.6597   29.7419 C   0  0  0  0  0  0  0  0  0  0  0  0
   22.8163   18.6401   33.4794 O   0  0  0  0  0  0  0  0  0  0  0  0
   25.6000   15.8055   29.9444 C   0  0  1  0  0  0  0  0  0  0  0  0
   21.0128   19.5016   31.5192 O   0  0  0  0  0  0  0  0  0  0  0  0
   24.2394   15.3793   29.4785 C   0  0  2  0  0  0  0  0  0  0  0  0
   22.0694   16.1121   30.2118 C   0  0  1  0  0  0  0  0  0  0  0  0
   23.0613   16.5258   32.4944 C   0  0  2  0  0  0  0  0  0  0  0  0
   23.3202   15.9031   33.8820 C   0  0  0  0  0  0  0  0  0  0  0  0
   22.1756   17.7249   32.6572 C   0  0  2  0  0  0  0  0  0  0  0  0
   21.8759   18.3701   31.3353 C   0  0  1  0  0  0  0  0  0  0  0  0
   21.1983   17.3763   30.4557 C   0  0  1  0  0  0  0  0  0  0  0  0
  5  4  1  1  0  0  0
  5  8  1  0  0  0  0
  5 16  1  0  0  0  0
  8  7  1  6  0  0  0
  8 10  1  0  0  0  0
 10  1  1  1  0  0  0
 10 12  1  0  0  0  0
 11 18  1  0  0  0  0
 12 14  1  0  0  0  0
 14  2  1  1  0  0  0
 14 16  1  0  0  0  0
 16  9  1  6  0  0  0
 17  9  1  1  0  0  0
 17 11  1  0  0  0  0
 17 22  1  0  0  0  0
 18 19  1  1  0  0  0
 18 20  1  0  0  0  0
 19  3  1  0  0  0  0
 20 13  1  1  0  0  0
 20 21  1  0  0  0  0
 21 15  1  1  0  0  0
 21 22  1  0  0  0  0
 22  6  1  6  0  0  0
M  END
>  <CHROM.1>
110.82381066,60.67822177,-51.09259087,23.66838266,16.04798353,30.30633645
-0.79724434,-0.60757841,1.43701862

>  <Name>
2et8_lig

>  <RI>
224

>  <Rbt.Current_Directory>
/home/itssahil/PROJECTS/Mol_Feturizer/New_Systems/rnas/2et8

>  <Rbt.Executable>
rbdock ($Id: //depot/dev/client3/rdock/2013.1/src/exe/rbdock.cxx#4 $)

>  <Rbt.Library>
libRbt.so (2013.1, Build901 2013/11/27)

>  <Rbt.Parameter_File>
/export/apps/rDock/src/rDock_2013.1_src/data/scripts/dock_solv.prm

>  <Rbt.Receptor>
prm/blind_docking_60.prm

>  <SCORE>
-9.06408

>  <SCORE.INTER>
-12.3672

>  <SCORE.INTER.CONST>
1

>  <SCORE.INTER.POLAR>
-0.427889

>  <SCORE.INTER.ROT>
3

>  <SCORE.INTER.SOLV>
23.8708

>  <SCORE.INTER.VDW>
-20.3754

>  <SCORE.INTER.norm>
-0.562146

>  <SCORE.INTRA>
2.05465

>  <SCORE.INTRA.DIHEDRAL>
2.06999

>  <SCORE.INTRA.DIHEDRAL.0>
4.99603

>  <SCORE.INTRA.POLAR>
0

>  <SCORE.INTRA.POLAR.0>
0

>  <SCORE.INTRA.REPUL>
0

>  <SCORE.INTRA.REPUL.0>
0

>  <SCORE.INTRA.SOLV>
3.25752

>  <SCORE.INTRA.SOLV.lig_0>
-74.884

>  <SCORE.INTRA.VDW>
-0.609099

>  <SCORE.INTRA.VDW.0>
-0.858933

>  <SCORE.INTRA.norm>
0.0933934

>  <SCORE.RESTR>
1.24848

>  <SCORE.RESTR.CAVITY>
1.24848

>  <SCORE.RESTR.norm>
0.0567491

>  <SCORE.SYSTEM>
0

>  <SCORE.SYSTEM.CONST>
0

>  <SCORE.SYSTEM.DIHEDRAL>
0

>  <SCORE.SYSTEM.SOLV>
0

>  <SCORE.SYSTEM.norm>
0

>  <SCORE.heavy>
22

>  <SCORE.norm>
-0.412004

>  <RMSD>
8.035

$$$$
2et8_lig
 OpenBabel11021811433D
libRbt.so/2013.1/901 2013/11/27
 22 23  0  0  0  0  0  0  0  0999 V2000
   27.7876   13.6524   27.9321 N   0  0  0  0  0  0  0  0  0  0  0  0
   25.3298   16.1651   31.4325 N   0  0  0  0  0  0  0  0  0  0  0  0
   24.5163   15.3725   33.8646 N   0  0  0  0  0  0  0  0  0  0  0  0
   22.9907   14.6601   27.3841 O   0  0  0  0  0  0  0  0  0  0  0  0
   24.2315   15.1738   27.9283 C   0  0  2  0  0  0  0  0  0  0  0  0
   20.4054   17.4953   29.1579 N   0  0  0  0  0  0  0  0  0  0  0  0
   25.5610   13.8973   26.2529 O   0  0  0  0  0  0  0  0  0  0  0  0
   25.3898   14.1400   27.6550 C   0  0  1  0  0  0  0  0  0  0  0  0
   23.0834   16.2908   29.6846 O   0  0  0  0  0  0  0  0  0  0  0  0
   26.6999   14.6547   28.1987 C   0  0  1  0  0  0  0  0  0  0  0  0
   22.4103   15.6122   31.7796 O   0  0  0  0  0  0  0  0  0  0  0  0
   26.5543   14.9107   29.7164 C   0  0  0  0  0  0  0  0  0  0  0  0
   22.5287   18.9703   33.2046 O   0  0  0  0  0  0  0  0  0  0  0  0
   25.4140   15.9496   29.9254 C   0  0  1  0  0  0  0  0  0  0  0  0
   20.4871   19.3030   31.3183 O   0  0  0  0  0  0  0  0  0  0  0  0
   24.0954   15.3835   29.4886 C   0  0  2  0  0  0  0  0  0  0  0  0
   21.9258   15.9356   30.3668 C   0  0  1  0  0  0  0  0  0  0  0  0
   23.0055   16.7911   32.4805 C   0  0  2  0  0  0  0  0  0  0  0  0
   23.4479   16.4076   33.9079 C   0  0  0  0  0  0  0  0  0  0  0  0
   21.9702   17.8726   32.5665 C   0  0  2  0  0  0  0  0  0  0  0  0
   21.4889   18.2819   31.2048 C   0  0  1  0  0  0  0  0  0  0  0  0
   20.9012   17.0941   30.5233 C   0  0  1  0  0  0  0  0  0  0  0  0
  5  4  1  1  0  0  0
  5  8  1  0  0  0  0
  5 16  1  0  0  0  0
  8  7  1  6  0  0  0
  8 10  1  0  0  0  0
 10  1  1  1  0  0  0
 10 12  1  0  0  0  0
 11 18  1  0  0  0  0
 12 14  1  0  0  0  0
 14  2  1  1  0  0  0
 14 16  1  0  0  0  0
 16  9  1  6  0  0  0
 17  9  1  6  0  0  0
 17 11  1  0  0  0  0
 17 22  1  0  0  0  0
 18 19  1  1  0  0  0
 18 20  1  0  0  0  0
 19  3  1  0  0  0  0
 20 13  1  6  0  0  0
 20 21  1  0  0  0  0
 21 15  1  1  0  0  0
 21 22  1  0  0  0  0
 22  6  1  6  0  0  0
M  END
>  <CHROM.1>
116.99161927,63.79327888,62.83476884,23.62007911,16.10436746,30.26641286
-0.83483421,-0.48125469,1.28673623

>  <Name>
2et8_lig

>  <RI>
224

>  <Rbt.Current_Directory>
/home/itssahil/PROJECTS/Mol_Feturizer/New_Systems/rnas/2et8

>  <Rbt.Executable>
rbdock ($Id: //depot/dev/client3/rdock/2013.1/src/exe/rbdock.cxx#4 $)

>  <Rbt.Library>
libRbt.so (2013.1, Build901 2013/11/27)

>  <Rbt.Parameter_File>
/export/apps/rDock/src/rDock_2013.1_src/data/scripts/dock_solv.prm

>  <Rbt.Receptor>
prm/blind_docking_60.prm

>  <SCORE>
-6.91374

>  <SCORE.INTER>
-11.3895

>  <SCORE.INTER.CONST>
1

>  <SCORE.INTER.POLAR>
-0.434407

>  <SCORE.INTER.ROT>
3

>  <SCORE.INTER.SOLV>
23.9976

>  <SCORE.INTER.VDW>
-19.7442

>  <SCORE.INTER.norm>
-0.517705

>  <SCORE.INTRA>
3.20068

>  <SCORE.INTRA.DIHEDRAL>
2.23485

>  <SCORE.INTRA.DIHEDRAL.0>
4.99603

>  <SCORE.INTRA.POLAR>
0

>  <SCORE.INTRA.POLAR.0>
0

>  <SCORE.INTRA.REPUL>
0

>  <SCORE.INTRA.REPUL.0>
0

>  <SCORE.INTRA.SOLV>
4.58826

>  <SCORE.INTRA.SOLV.lig_0>
-74.884

>  <SCORE.INTRA.VDW>
-0.210875

>  <SCORE.INTRA.VDW.0>
-0.858933

>  <SCORE.INTRA.norm>
0.145485

>  <SCORE.RESTR>
1.2751

>  <SCORE.RESTR.CAVITY>
1.2751

>  <SCORE.RESTR.norm>
0.0579589

>  <SCORE.SYSTEM>
0

>  <SCORE.SYSTEM.CONST>
0

>  <SCORE.SYSTEM.DIHEDRAL>
0

>  <SCORE.SYSTEM.SOLV>
0

>  <SCORE.SYSTEM.norm>
0

>  <SCORE.heavy>
22

>  <SCORE.norm>
-0.314261

>  <RMSD>
8.036

$$$$
2et8_lig
 OpenBabel11021811433D
libRbt.so/2013.1/901 2013/11/27
 22 23  0  0  0  0  0  0  0  0999 V2000
   27.7682   13.2837   27.9593 N   0  0  0  0  0  0  0  0  0  0  0  0
   25.5199   16.0091   31.4414 N   0  0  0  0  0  0  0  0  0  0  0  0
   22.1347   15.3229   34.4533 N   0  0  0  0  0  0  0  0  0  0  0  0
   23.1023   14.7622   27.3516 O   0  0  0  0  0  0  0  0  0  0  0  0
   24.3796   15.1483   27.9161 C   0  0  2  0  0  0  0  0  0  0  0  0
   20.8802   17.9999   29.1519 N   0  0  0  0  0  0  0  0  0  0  0  0
   25.6009   13.7553   26.2511 O   0  0  0  0  0  0  0  0  0  0  0  0
   25.4343   14.0067   27.6522 C   0  0  1  0  0  0  0  0  0  0  0  0
   23.3221   16.3643   29.6635 O   0  0  0  0  0  0  0  0  0  0  0  0
   26.7808   14.3871   28.2172 C   0  0  1  0  0  0  0  0  0  0  0  0
   22.4073   15.5341   31.6068 O   0  0  0  0  0  0  0  0  0  0  0  0
   26.6394   14.6486   29.7343 C   0  0  0  0  0  0  0  0  0  0  0  0
   22.8742   18.6352   33.4740 O   0  0  0  0  0  0  0  0  0  0  0  0
   25.6041   15.7938   29.9343 C   0  0  1  0  0  0  0  0  0  0  0  0
   21.0444   19.4927   31.5365 O   0  0  0  0  0  0  0  0  0  0  0  0
   24.2425   15.3626   29.4757 C   0  0  2  0  0  0  0  0  0  0  0  0
   22.0789   16.0980   30.2250 C   0  0  1  0  0  0  0  0  0  0  0  0
   23.1030   16.5176   32.4923 C   0  0  2  0  0  0  0  0  0  0  0  0
   23.3805   15.8989   33.8781 C   0  0  0  0  0  0  0  0  0  0  0  0
   22.2210   17.7182   32.6637 C   0  0  2  0  0  0  0  0  0  0  0  0
   21.9036   18.3596   31.3441 C   0  0  1  0  0  0  0  0  0  0  0  0
   21.2127   17.3639   30.4771 C   0  0  1  0  0  0  0  0  0  0  0  0
  5  4  1  1  0  0  0
  5  8  1  0  0  0  0
  5 16  1  0  0  0  0
  8  7  1  6  0  0  0
  8 10  1  0  0  0  0
 10  1  1  1  0  0  0
 10 12  1  0  0  0  0
 11 18  1  0  0  0  0
 12 14  1  0  0  0  0
 14  2  1  1  0  0  0
 14 16  1  0  0  0  0
 16  9  1  6  0  0  0
 17  9  1  1  0  0  0
 17 11  1  0  0  0  0
 17 22  1  0  0  0  0
 18 19  1  1  0  0  0
 18 20  1  0  0  0  0
 19  3  1  0  0  0  0
 20 13  1  1  0  0  0
 20 21  1  0  0  0  0
 21 15  1  1  0  0  0
 21 22  1  0  0  0  0
 22  6  1  6  0  0  0
M  END
>  <CHROM.1>
111.46241090,60.04099848,-52.03234440,23.68616378,16.03472398,30.30970607
-0.80829106,-0.60515314,1.42476239

>  <Name>
2et8_lig

>  <RI>
224

>  <Rbt.Current_Directory>
/home/itssahil/PROJECTS/Mol_Feturizer/New_Systems/rnas/2et8

>  <Rbt.Executable>
rbdock ($Id: //depot/dev/client3/rdock/2013.1/src/exe/rbdock.cxx#4 $)

>  <Rbt.Library>
libRbt.so (2013.1, Build901 2013/11/27)

>  <Rbt.Parameter_File>
/export/apps/rDock/src/rDock_2013.1_src/data/scripts/dock_solv.prm

>  <Rbt.Receptor>
prm/blind_docking_60.prm

>  <SCORE>
-8.98262

>  <SCORE.INTER>
-12.4404

>  <SCORE.INTER.CONST>
1

>  <SCORE.INTER.POLAR>
-0.417073

>  <SCORE.INTER.ROT>
3

>  <SCORE.INTER.SOLV>
23.8262

>  <SCORE.INTER.VDW>
-20.4454

>  <SCORE.INTER.norm>
-0.565474

>  <SCORE.INTRA>
2.22229

>  <SCORE.INTRA.DIHEDRAL>
2.0643

>  <SCORE.INTRA.DIHEDRAL.0>
4.99603

>  <SCORE.INTRA.POLAR>
0

>  <SCORE.INTRA.POLAR.0>
0

>  <SCORE.INTRA.REPUL>
0

>  <SCORE.INTRA.REPUL.0>
0

>  <SCORE.INTRA.SOLV>
3.34372

>  <SCORE.INTRA.SOLV.lig_0>
-74.884

>  <SCORE.INTRA.VDW>
-0.481717

>  <SCORE.INTRA.VDW.0>
-0.858933

>  <SCORE.INTRA.norm>
0.101013

>  <SCORE.RESTR>
1.23551

>  <SCORE.RESTR.CAVITY>
1.23551

>  <SCORE.RESTR.norm>
0.0561593

>  <SCORE.SYSTEM>
0

>  <SCORE.SYSTEM.CONST>
0

>  <SCORE.SYSTEM.DIHEDRAL>
0

>  <SCORE.SYSTEM.SOLV>
0

>  <SCORE.SYSTEM.norm>
0

>  <SCORE.heavy>
22

>  <SCORE.norm>
-0.408301

>  <RMSD>
8.037

$$$$
2et8_lig
 OpenBabel11021811433D
libRbt.so/2013.1/901 2013/11/27
 22 23  0  0  0  0  0  0  0  0999 V2000
   26.2365   14.9598   26.0997 N   0  0  0  0  0  0  0  0  0  0  0  0
   23.0420   17.2185   29.1495 N   0  0  0  0  0  0  0  0  0  0  0  0
   20.6384   17.8576   29.5792 N   0  0  0  0  0  0  0  0  0  0  0  0
   26.8201   14.6750   30.9889 O   0  0  0  0  0  0  0  0  0  0  0  0
   25.8235   14.7470   29.9396 C   0  0  2  0  0  0  0  0  0  0  0  0
   24.9131   16.0219   34.2706 N   0  0  0  0  0  0  0  0  0  0  0  0
   27.3773   13.6788   28.3121 O   0  0  0  0  0  0  0  0  0  0  0  0
   26.5434   14.8220   28.5392 C   0  0  1  0  0  0  0  0  0  0  0  0
   24.3212   15.9346   31.3479 O   0  0  0  0  0  0  0  0  0  0  0  0
   25.5291   14.8836   27.4236 C   0  0  1  0  0  0  0  0  0  0  0  0
   22.8869   17.7253   31.5444 O   0  0  0  0  0  0  0  0  0  0  0  0
   24.6224   16.1187   27.6292 C   0  0  0  0  0  0  0  0  0  0  0  0
   20.2483   15.7854   33.1554 O   0  0  0  0  0  0  0  0  0  0  0  0
   23.9246   15.9825   29.0141 C   0  0  1  0  0  0  0  0  0  0  0  0
   22.2522   15.6112   35.1026 O   0  0  0  0  0  0  0  0  0  0  0  0
   24.9331   16.0396   30.1230 C   0  0  2  0  0  0  0  0  0  0  0  0
   24.1209   17.0544   32.1463 C   0  0  1  0  0  0  0  0  0  0  0  0
   21.6569   16.8800   31.6329 C   0  0  2  0  0  0  0  0  0  0  0  0
   20.4436   17.6228   31.0358 C   0  0  0  0  0  0  0  0  0  0  0  0
   21.3817   16.5811   33.0765 C   0  0  2  0  0  0  0  0  0  0  0  0
   22.5352   15.8672   33.7193 C   0  0  1  0  0  0  0  0  0  0  0  0
   23.7498   16.7247   33.6195 C   0  0  1  0  0  0  0  0  0  0  0  0
  5  4  1  1  0  0  0
  5  8  1  0  0  0  0
  5 16  1  0  0  0  0
  8  7  1  6  0  0  0
  8 10  1  0  0  0  0
 10  1  1  6  0  0  0
 10 12  1  0  0  0  0
 11 18  1  0  0  0  0
 12 14  1  0  0  0  0
 14  2  1  1  0  0  0
 14 16  1  0  0  0  0
 16  9  1  1  0  0  0
 17  9  1  6  0  0  0
 17 11  1  0  0  0  0
 17 22  1  0  0  0  0
 18 19  1  1  0  0  0
 18 20  1  0  0  0  0
 19  3  1  0  0  0  0
 20 13  1  6  0  0  0
 20 21  1  0  0  0  0
 21 15  1  1  0  0  0
 21 22  1  0  0  0  0
 22  6  1  6  0  0  0
M  END
>  <CHROM.1>
143.20465845,79.55572439,64.39633650,23.81800113,16.02054507,30.82538154
0.79382437,0.45097139,-1.48616917

>  <Name>
2et8_lig

>  <RI>
0

>  <Rbt.Current_Directory>
/home/itssahil/PROJECTS/Mol_Feturizer/New_Systems/rnas/2et8

>  <Rbt.Executable>
rbdock ($Id: //depot/dev/client3/rdock/2013.1/src/exe/rbdock.cxx#4 $)

>  <Rbt.Library>
libRbt.so (2013.1, Build901 2013/11/27)

>  <Rbt.Parameter_File>
/export/apps/rDock/src/rDock_2013.1_src/data/scripts/dock_solv.prm

>  <Rbt.Receptor>
prm/blind_docking_80.prm

>  <SCORE>
-11.7423

>  <SCORE.INTER>
-17.4382

>  <SCORE.INTER.CONST>
1

>  <SCORE.INTER.POLAR>
-1.09545

>  <SCORE.INTER.ROT>
3

>  <SCORE.INTER.SOLV>
21.3226

>  <SCORE.INTER.VDW>
-20.6815

>  <SCORE.INTER.norm>
-0.792645

>  <SCORE.INTRA>
3.37235

>  <SCORE.INTRA.DIHEDRAL>
1.66294

>  <SCORE.INTRA.DIHEDRAL.0>
4.99603

>  <SCORE.INTRA.POLAR>
0

>  <SCORE.INTRA.POLAR.0>
0

>  <SCORE.INTRA.REPUL>
0

>  <SCORE.INTRA.REPUL.0>
0

>  <SCORE.INTRA.SOLV>
4.91931

>  <SCORE.INTRA.SOLV.lig_0>
-74.884

>  <SCORE.INTRA.VDW>
0.0812298

>  <SCORE.INTRA.VDW.0>
-0.858933

>  <SCORE.INTRA.norm>
0.153289

>  <SCORE.RESTR>
2.32357

>  <SCORE.RESTR.CAVITY>
2.32357

>  <SCORE.RESTR.norm>
0.105617

>  <SCORE.SYSTEM>
0

>  <SCORE.SYSTEM.CONST>
0

>  <SCORE.SYSTEM.DIHEDRAL>
0

>  <SCORE.SYSTEM.SOLV>
0

>  <SCORE.SYSTEM.norm>
0

>  <SCORE.heavy>
22

>  <SCORE.norm>
-0.533739

>  <RMSD>
8.056

$$$$
2et8_lig
 OpenBabel11021811433D
libRbt.so/2013.1/901 2013/11/27
 22 23  0  0  0  0  0  0  0  0999 V2000
   27.7516   13.4541   27.9154 N   0  0  0  0  0  0  0  0  0  0  0  0
   25.4369   16.0735   31.4352 N   0  0  0  0  0  0  0  0  0  0  0  0
   24.5804   15.2494   33.8604 N   0  0  0  0  0  0  0  0  0  0  0  0
   23.0100   14.7060   27.3896 O   0  0  0  0  0  0  0  0  0  0  0  0
   24.2771   15.1538   27.9311 C   0  0  2  0  0  0  0  0  0  0  0  0
   20.5966   17.6958   29.1827 N   0  0  0  0  0  0  0  0  0  0  0  0
   25.5343   13.8187   26.2456 O   0  0  0  0  0  0  0  0  0  0  0  0
   25.3805   14.0638   27.6493 C   0  0  1  0  0  0  0  0  0  0  0  0
   23.1934   16.3202   29.6963 O   0  0  0  0  0  0  0  0  0  0  0  0
   26.7170   14.5092   28.1901 C   0  0  1  0  0  0  0  0  0  0  0  0
   22.4601   15.6221   31.7645 O   0  0  0  0  0  0  0  0  0  0  0  0
   26.5900   14.7659   29.7094 C   0  0  0  0  0  0  0  0  0  0  0  0
   22.7615   18.9244   33.2892 O   0  0  0  0  0  0  0  0  0  0  0  0
   25.5046   15.8603   29.9269 C   0  0  1  0  0  0  0  0  0  0  0  0
   20.7624   19.4320   31.3962 O   0  0  0  0  0  0  0  0  0  0  0  0
   24.1575   15.3636   29.4928 C   0  0  2  0  0  0  0  0  0  0  0  0
   22.0100   16.0144   30.3578 C   0  0  1  0  0  0  0  0  0  0  0  0
   23.1165   16.7428   32.5050 C   0  0  2  0  0  0  0  0  0  0  0  0
   23.5209   16.2925   33.9242 C   0  0  0  0  0  0  0  0  0  0  0  0
   22.1459   17.8807   32.6141 C   0  0  2  0  0  0  0  0  0  0  0  0
   21.7034   18.3571   31.2611 C   0  0  1  0  0  0  0  0  0  0  0  0
   21.0539   17.2265   30.5398 C   0  0  1  0  0  0  0  0  0  0  0  0
  5  4  1  1  0  0  0
  5  8  1  0  0  0  0
  5 16  1  0  0  0  0
  8  7  1  6  0  0  0
  8 10  1  0  0  0  0
 10  1  1  1  0  0  0
 10 12  1  0  0  0  0
 11 18  1  0  0  0  0
 12 14  1  0  0  0  0
 14  2  1  1  0  0  0
 14 16  1  0  0  0  0
 16  9  1  6  0  0  0
 17  9  1  6  0  0  0
 17 11  1  0  0  0  0
 17 22  1  0  0  0  0
 18 19  1  1  0  0  0
 18 20  1  0  0  0  0
 19  3  1  0  0  0  0
 20 13  1  6  0  0  0
 20 21  1  0  0  0  0
 21 15  1  1  0  0  0
 21 22  1  0  0  0  0
 22  6  1  6  0  0  0
M  END
>  <CHROM.1>
115.67974794,63.19825834,65.89618077,23.71340580,16.08327554,30.28071572
-0.84862076,-0.53264330,1.29661824

>  <Name>
2et8_lig

>  <RI>
224

>  <Rbt.Current_Directory>
/home/itssahil/PROJECTS/Mol_Feturizer/New_Systems/rnas/2et8

>  <Rbt.Executable>
rbdock ($Id: //depot/dev/client3/rdock/2013.1/src/exe/rbdock.cxx#4 $)

>  <Rbt.Library>
libRbt.so (2013.1, Build901 2013/11/27)

>  <Rbt.Parameter_File>
/export/apps/rDock/src/rDock_2013.1_src/data/scripts/dock_solv.prm

>  <Rbt.Receptor>
prm/blind_docking_60.prm

>  <SCORE>
-6.97949

>  <SCORE.INTER>
-11.2976

>  <SCORE.INTER.CONST>
1

>  <SCORE.INTER.POLAR>
-0.439338

>  <SCORE.INTER.ROT>
3

>  <SCORE.INTER.SOLV>
25.428

>  <SCORE.INTER.VDW>
-20.1433

>  <SCORE.INTER.norm>
-0.513528

>  <SCORE.INTRA>
3.04237

>  <SCORE.INTRA.DIHEDRAL>
2.26554

>  <SCORE.INTRA.DIHEDRAL.0>
4.99603

>  <SCORE.INTRA.POLAR>
0

>  <SCORE.INTRA.POLAR.0>
0

>  <SCORE.INTRA.REPUL>
0

>  <SCORE.INTRA.REPUL.0>
0

>  <SCORE.INTRA.SOLV>
4.50258

>  <SCORE.INTRA.SOLV.lig_0>
-74.884

>  <SCORE.INTRA.VDW>
-0.34169

>  <SCORE.INTRA.VDW.0>
-0.858933

>  <SCORE.INTRA.norm>
0.13829

>  <SCORE.RESTR>
1.27575

>  <SCORE.RESTR.CAVITY>
1.27575

>  <SCORE.RESTR.norm>
0.0579885

>  <SCORE.SYSTEM>
0

>  <SCORE.SYSTEM.CONST>
0

>  <SCORE.SYSTEM.DIHEDRAL>
0

>  <SCORE.SYSTEM.SOLV>
0

>  <SCORE.SYSTEM.norm>
0

>  <SCORE.heavy>
22

>  <SCORE.norm>
-0.31725

>  <RMSD>
8.058

$$$$
2et8_lig
 OpenBabel11021811433D
libRbt.so/2013.1/901 2013/11/27
 22 23  0  0  0  0  0  0  0  0999 V2000
   26.1886   14.5687   26.1214 N   0  0  0  0  0  0  0  0  0  0  0  0
   23.0987   17.1301   29.0368 N   0  0  0  0  0  0  0  0  0  0  0  0
   20.4338   17.2482   29.5085 N   0  0  0  0  0  0  0  0  0  0  0  0
   26.8210   14.6069   31.0127 O   0  0  0  0  0  0  0  0  0  0  0  0
   25.8147   14.6361   29.9707 C   0  0  2  0  0  0  0  0  0  0  0  0
   25.0525   16.5466   34.1509 N   0  0  0  0  0  0  0  0  0  0  0  0
   27.3168   13.4105   28.4068 O   0  0  0  0  0  0  0  0  0  0  0  0
   26.5199   14.5916   28.5615 C   0  0  1  0  0  0  0  0  0  0  0  0
   24.3650   15.9638   31.3071 O   0  0  0  0  0  0  0  0  0  0  0  0
   25.4949   14.6063   27.4543 C   0  0  1  0  0  0  0  0  0  0  0  0
   22.7197   17.5746   31.3331 O   0  0  0  0  0  0  0  0  0  0  0  0
   24.6277   15.8797   27.5819 C   0  0  0  0  0  0  0  0  0  0  0  0
   20.4181   15.5806   33.3450 O   0  0  0  0  0  0  0  0  0  0  0  0
   23.9425   15.8614   28.9795 C   0  0  1  0  0  0  0  0  0  0  0  0
   22.5010   15.9381   35.1810 O   0  0  0  0  0  0  0  0  0  0  0  0
   24.9652   15.9647   30.0719 C   0  0  2  0  0  0  0  0  0  0  0  0
   24.0523   17.1546   31.9518 C   0  0  1  0  0  0  0  0  0  0  0  0
   21.6137   16.6068   31.6078 C   0  0  2  0  0  0  0  0  0  0  0  0
   20.2925   17.1006   30.9826 C   0  0  0  0  0  0  0  0  0  0  0  0
   21.4352   16.4893   33.0921 C   0  0  2  0  0  0  0  0  0  0  0  0
   22.6951   16.0232   33.7618 C   0  0  1  0  0  0  0  0  0  0  0  0
   23.7838   16.9994   33.4751 C   0  0  1  0  0  0  0  0  0  0  0  0
  5  4  1  1  0  0  0
  5  8  1  0  0  0  0
  5 16  1  0  0  0  0
  8  7  1  1  0  0  0
  8 10  1  0  0  0  0
 10  1  1  6  0  0  0
 10 12  1  0  0  0  0
 11 18  1  0  0  0  0
 12 14  1  0  0  0  0
 14  2  1  6  0  0  0
 14 16  1  0  0  0  0
 16  9  1  1  0  0  0
 17  9  1  6  0  0  0
 17 11  1  0  0  0  0
 17 22  1  0  0  0  0
 18 19  1  6  0  0  0
 18 20  1  0  0  0  0
 19  3  1  0  0  0  0
 20 13  1  6  0  0  0
 20 21  1  0  0  0  0
 21 15  1  1  0  0  0
 21 22  1  0  0  0  0
 22  6  1  1  0  0  0
M  END
>  <CHROM.1>
151.52975491,82.48154526,59.83407060,23.82602522,15.91613911,30.80216783
0.84393433,0.38758620,-1.60372545

>  <Name>
2et8_lig

>  <RI>
224

>  <Rbt.Current_Directory>
/home/itssahil/PROJECTS/Mol_Feturizer/New_Systems/rnas/2et8

>  <Rbt.Executable>
rbdock ($Id: //depot/dev/client3/rdock/2013.1/src/exe/rbdock.cxx#4 $)

>  <Rbt.Library>
libRbt.so (2013.1, Build901 2013/11/27)

>  <Rbt.Parameter_File>
/export/apps/rDock/src/rDock_2013.1_src/data/scripts/dock_solv.prm

>  <Rbt.Receptor>
prm/blind_docking_60.prm

>  <SCORE>
-11.5125

>  <SCORE.INTER>
-16.9422

>  <SCORE.INTER.CONST>
1

>  <SCORE.INTER.POLAR>
-1.09545

>  <SCORE.INTER.ROT>
3

>  <SCORE.INTER.SOLV>
18.7802

>  <SCORE.INTER.VDW>
-19.5034

>  <SCORE.INTER.norm>
-0.770098

>  <SCORE.INTRA>
2.78495

>  <SCORE.INTRA.DIHEDRAL>
0.577176

>  <SCORE.INTRA.DIHEDRAL.0>
4.99603

>  <SCORE.INTRA.POLAR>
0

>  <SCORE.INTRA.POLAR.0>
0

>  <SCORE.INTRA.REPUL>
0

>  <SCORE.INTRA.REPUL.0>
0

>  <SCORE.INTRA.SOLV>
4.61698

>  <SCORE.INTRA.SOLV.lig_0>
-74.884

>  <SCORE.INTRA.VDW>
0.187869

>  <SCORE.INTRA.VDW.0>
-0.858933

>  <SCORE.INTRA.norm>
0.126589

>  <SCORE.RESTR>
2.64467

>  <SCORE.RESTR.CAVITY>
2.64467

>  <SCORE.RESTR.norm>
0.120212

>  <SCORE.SYSTEM>
0

>  <SCORE.SYSTEM.CONST>
0

>  <SCORE.SYSTEM.DIHEDRAL>
0

>  <SCORE.SYSTEM.SOLV>
0

>  <SCORE.SYSTEM.norm>
0

>  <SCORE.heavy>
22

>  <SCORE.norm>
-0.523297

>  <RMSD>
8.064

$$$$
2et8_lig
 OpenBabel11021811433D
libRbt.so/2013.1/901 2013/11/27
 22 23  0  0  0  0  0  0  0  0999 V2000
   28.1916   13.9421   27.8057 N   0  0  0  0  0  0  0  0  0  0  0  0
   25.2605   15.2050   31.6033 N   0  0  0  0  0  0  0  0  0  0  0  0
   22.4818   15.8680   34.7305 N   0  0  0  0  0  0  0  0  0  0  0  0
   23.8546   16.1453   26.9918 O   0  0  0  0  0  0  0  0  0  0  0  0
   24.9710   16.0815   27.9131 C   0  0  2  0  0  0  0  0  0  0  0  0
   20.9554   17.9154   29.2319 N   0  0  0  0  0  0  0  0  0  0  0  0
   26.5117   15.3778   26.0869 O   0  0  0  0  0  0  0  0  0  0  0  0
   26.0225   15.0307   27.3885 C   0  0  1  0  0  0  0  0  0  0  0  0
   23.5641   16.5701   29.7658 O   0  0  0  0  0  0  0  0  0  0  0  0
   27.2057   14.9523   28.3217 C   0  0  1  0  0  0  0  0  0  0  0  0
   22.7628   15.7150   31.7480 O   0  0  0  0  0  0  0  0  0  0  0  0
   26.7135   14.5618   29.7342 C   0  0  0  0  0  0  0  0  0  0  0  0
   22.9109   18.9118   33.5031 O   0  0  0  0  0  0  0  0  0  0  0  0
   25.6962   15.6404   30.2085 C   0  0  1  0  0  0  0  0  0  0  0  0
   20.9809   19.4997   31.5623 O   0  0  0  0  0  0  0  0  0  0  0  0
   24.4714   15.6300   29.3427 C   0  0  2  0  0  0  0  0  0  0  0  0
   22.3623   16.1917   30.3525 C   0  0  1  0  0  0  0  0  0  0  0  0
   23.3570   16.7979   32.5904 C   0  0  2  0  0  0  0  0  0  0  0  0
   23.7128   16.2614   33.9925 C   0  0  0  0  0  0  0  0  0  0  0  0
   22.3525   17.9022   32.7329 C   0  0  2  0  0  0  0  0  0  0  0  0
   21.9552   18.4593   31.3968 C   0  0  1  0  0  0  0  0  0  0  0  0
   21.3672   17.3655   30.5732 C   0  0  1  0  0  0  0  0  0  0  0  0
  5  4  1  6  0  0  0
  5  8  1  0  0  0  0
  5 16  1  0  0  0  0
  8  7  1  6  0  0  0
  8 10  1  0  0  0  0
 10  1  1  6  0  0  0
 10 12  1  0  0  0  0
 11 18  1  0  0  0  0
 12 14  1  0  0  0  0
 14  2  1  1  0  0  0
 14 16  1  0  0  0  0
 16  9  1  1  0  0  0
 17  9  1  1  0  0  0
 17 11  1  0  0  0  0
 17 22  1  0  0  0  0
 18 19  1  1  0  0  0
 18 20  1  0  0  0  0
 19  3  1  0  0  0  0
 20 13  1  1  0  0  0
 20 21  1  0  0  0  0
 21 15  1  1  0  0  0
 21 22  1  0  0  0  0
 22  6  1  6  0  0  0
M  END
>  <CHROM.1>
135.29608411,73.87332834,-65.41061586,23.96369643,16.38925153,30.33745527
-0.72686294,-0.61022044,1.63535151

>  <Name>
2et8_lig

>  <RI>
0

>  <Rbt.Current_Directory>
/home/itssahil/PROJECTS/Mol_Feturizer/New_Systems/rnas/2et8

>  <Rbt.Executable>
rbdock ($Id: //depot/dev/client3/rdock/2013.1/src/exe/rbdock.cxx#4 $)

>  <Rbt.Library>
libRbt.so (2013.1, Build901 2013/11/27)

>  <Rbt.Parameter_File>
/export/apps/rDock/src/rDock_2013.1_src/data/scripts/dock_solv.prm

>  <Rbt.Receptor>
prm/blind_docking_80.prm

>  <SCORE>
-9.99128

>  <SCORE.INTER>
-14.1253

>  <SCORE.INTER.CONST>
1

>  <SCORE.INTER.POLAR>
-0.273752

>  <SCORE.INTER.ROT>
3

>  <SCORE.INTER.SOLV>
22.792

>  <SCORE.INTER.VDW>
-21.7017

>  <SCORE.INTER.norm>
-0.642061

>  <SCORE.INTRA>
3.27287

>  <SCORE.INTRA.DIHEDRAL>
2.11019

>  <SCORE.INTRA.DIHEDRAL.0>
4.99603

>  <SCORE.INTRA.POLAR>
0

>  <SCORE.INTRA.POLAR.0>
0

>  <SCORE.INTRA.REPUL>
0

>  <SCORE.INTRA.REPUL.0>
0

>  <SCORE.INTRA.SOLV>
4.21903

>  <SCORE.INTRA.SOLV.lig_0>
-74.884

>  <SCORE.INTRA.VDW>
0.108257

>  <SCORE.INTRA.VDW.0>
-0.858933

>  <SCORE.INTRA.norm>
0.148767

>  <SCORE.RESTR>
0.861203

>  <SCORE.RESTR.CAVITY>
0.861203

>  <SCORE.RESTR.norm>
0.0391456

>  <SCORE.SYSTEM>
0

>  <SCORE.SYSTEM.CONST>
0

>  <SCORE.SYSTEM.DIHEDRAL>
0

>  <SCORE.SYSTEM.SOLV>
0

>  <SCORE.SYSTEM.norm>
0

>  <SCORE.heavy>
22

>  <SCORE.norm>
-0.454149

>  <RMSD>
8.066

$$$$
2et8_lig
 OpenBabel11021811433D
libRbt.so/2013.1/901 2013/11/27
 22 23  0  0  0  0  0  0  0  0999 V2000
   28.1945   13.9474   27.8149 N   0  0  0  0  0  0  0  0  0  0  0  0
   25.2521   15.2113   31.6034 N   0  0  0  0  0  0  0  0  0  0  0  0
   22.4733   15.8830   34.7286 N   0  0  0  0  0  0  0  0  0  0  0  0
   23.8605   16.1517   26.9876 O   0  0  0  0  0  0  0  0  0  0  0  0
   24.9741   16.0877   27.9124 C   0  0  2  0  0  0  0  0  0  0  0  0
   20.9545   17.9244   29.2255 N   0  0  0  0  0  0  0  0  0  0  0  0
   26.5202   15.3834   26.0909 O   0  0  0  0  0  0  0  0  0  0  0  0
   26.0269   15.0365   27.3910 C   0  0  1  0  0  0  0  0  0  0  0  0
   23.5617   16.5767   29.7607 O   0  0  0  0  0  0  0  0  0  0  0  0
   27.2072   14.9579   28.3278 C   0  0  1  0  0  0  0  0  0  0  0  0
   22.7578   15.7205   31.7414 O   0  0  0  0  0  0  0  0  0  0  0  0
   26.7106   14.5675   29.7388 C   0  0  0  0  0  0  0  0  0  0  0  0
   22.9066   18.9156   33.4994 O   0  0  0  0  0  0  0  0  0  0  0  0
   25.6922   15.6465   30.2099 C   0  0  1  0  0  0  0  0  0  0  0  0
   20.9790   19.5067   31.5573 O   0  0  0  0  0  0  0  0  0  0  0  0
   24.4700   15.6364   29.3404 C   0  0  2  0  0  0  0  0  0  0  0  0
   22.3590   16.1988   30.3459 C   0  0  1  0  0  0  0  0  0  0  0  0
   23.3520   16.8022   32.5854 C   0  0  2  0  0  0  0  0  0  0  0  0
   23.7061   16.2642   33.9873 C   0  0  0  0  0  0  0  0  0  0  0  0
   22.3483   17.9071   32.7278 C   0  0  2  0  0  0  0  0  0  0  0  0
   21.9527   18.4657   31.3918 C   0  0  1  0  0  0  0  0  0  0  0  0
   21.3646   17.3731   30.5667 C   0  0  1  0  0  0  0  0  0  0  0  0
  5  4  1  6  0  0  0
  5  8  1  0  0  0  0
  5 16  1  0  0  0  0
  8  7  1  6  0  0  0
  8 10  1  0  0  0  0
 10  1  1  6  0  0  0
 10 12  1  0  0  0  0
 11 18  1  0  0  0  0
 12 14  1  0  0  0  0
 14  2  1  1  0  0  0
 14 16  1  0  0  0  0
 16  9  1  1  0  0  0
 17  9  1  1  0  0  0
 17 11  1  0  0  0  0
 17 22  1  0  0  0  0
 18 19  1  1  0  0  0
 18 20  1  0  0  0  0
 19  3  1  0  0  0  0
 20 13  1  1  0  0  0
 20 21  1  0  0  0  0
 21 15  1  1  0  0  0
 21 22  1  0  0  0  0
 22  6  1  6  0  0  0
M  END
>  <CHROM.1>
135.41101636,73.72372572,-65.94188250,23.96204351,16.39557389,30.33552603
-0.72476828,-0.61013988,1.63634410

>  <Name>
2et8_lig

>  <RI>
0

>  <Rbt.Current_Directory>
/home/itssahil/PROJECTS/Mol_Feturizer/New_Systems/rnas/2et8

>  <Rbt.Executable>
rbdock ($Id: //depot/dev/client3/rdock/2013.1/src/exe/rbdock.cxx#4 $)

>  <Rbt.Library>
libRbt.so (2013.1, Build901 2013/11/27)

>  <Rbt.Parameter_File>
/export/apps/rDock/src/rDock_2013.1_src/data/scripts/dock_solv.prm

>  <Rbt.Receptor>
prm/blind_docking_80.prm

>  <SCORE>
-9.95335

>  <SCORE.INTER>
-14.1371

>  <SCORE.INTER.CONST>
1

>  <SCORE.INTER.POLAR>
-0.275935

>  <SCORE.INTER.ROT>
3

>  <SCORE.INTER.SOLV>
22.8235

>  <SCORE.INTER.VDW>
-21.7128

>  <SCORE.INTER.norm>
-0.642594

>  <SCORE.INTRA>
3.3311

>  <SCORE.INTRA.DIHEDRAL>
2.09826

>  <SCORE.INTRA.DIHEDRAL.0>
4.99603

>  <SCORE.INTRA.POLAR>
0

>  <SCORE.INTRA.POLAR.0>
0

>  <SCORE.INTRA.REPUL>
0

>  <SCORE.INTRA.REPUL.0>
0

>  <SCORE.INTRA.SOLV>
4.23606

>  <SCORE.INTRA.SOLV.lig_0>
-74.884

>  <SCORE.INTRA.VDW>
0.163942

>  <SCORE.INTRA.VDW.0>
-0.858933

>  <SCORE.INTRA.norm>
0.151414

>  <SCORE.RESTR>
0.852623

>  <SCORE.RESTR.CAVITY>
0.852623

>  <SCORE.RESTR.norm>
0.0387556

>  <SCORE.SYSTEM>
0

>  <SCORE.SYSTEM.CONST>
0

>  <SCORE.SYSTEM.DIHEDRAL>
0

>  <SCORE.SYSTEM.SOLV>
0

>  <SCORE.SYSTEM.norm>
0

>  <SCORE.heavy>
22

>  <SCORE.norm>
-0.452425

>  <RMSD>
8.069

$$$$
2et8_lig
 OpenBabel11021811433D
libRbt.so/2013.1/901 2013/11/27
 22 23  0  0  0  0  0  0  0  0999 V2000
   27.7638   13.3028   27.9727 N   0  0  0  0  0  0  0  0  0  0  0  0
   25.4923   16.0188   31.4471 N   0  0  0  0  0  0  0  0  0  0  0  0
   24.3207   16.7531   34.6394 N   0  0  0  0  0  0  0  0  0  0  0  0
   23.0907   14.7535   27.3534 O   0  0  0  0  0  0  0  0  0  0  0  0
   24.3646   15.1476   27.9202 C   0  0  2  0  0  0  0  0  0  0  0  0
   20.8439   17.9778   29.1476 N   0  0  0  0  0  0  0  0  0  0  0  0
   25.5975   13.7600   26.2594 O   0  0  0  0  0  0  0  0  0  0  0  0
   25.4264   14.0119   27.6598 C   0  0  1  0  0  0  0  0  0  0  0  0
   23.2962   16.3593   29.6641 O   0  0  0  0  0  0  0  0  0  0  0  0
   26.7694   14.4007   28.2273 C   0  0  1  0  0  0  0  0  0  0  0  0
   22.3873   15.5300   31.6105 O   0  0  0  0  0  0  0  0  0  0  0  0
   26.6233   14.6630   29.7438 C   0  0  0  0  0  0  0  0  0  0  0  0
   22.8351   18.6403   33.4669 O   0  0  0  0  0  0  0  0  0  0  0  0
   25.5809   15.8023   29.9404 C   0  0  1  0  0  0  0  0  0  0  0  0
   20.9994   19.4797   31.5271 O   0  0  0  0  0  0  0  0  0  0  0  0
   24.2229   15.3628   29.4793 C   0  0  2  0  0  0  0  0  0  0  0  0
   22.0550   16.0871   30.2269 C   0  0  1  0  0  0  0  0  0  0  0  0
   23.0770   16.5209   32.4924 C   0  0  2  0  0  0  0  0  0  0  0  0
   23.3588   15.9087   33.8802 C   0  0  0  0  0  0  0  0  0  0  0  0
   22.1875   17.7165   32.6599 C   0  0  2  0  0  0  0  0  0  0  0  0
   21.8657   18.3514   31.3382 C   0  0  1  0  0  0  0  0  0  0  0  0
   21.1808   17.3484   30.4749 C   0  0  1  0  0  0  0  0  0  0  0  0
  5  4  1  1  0  0  0
  5  8  1  0  0  0  0
  5 16  1  0  0  0  0
  8  7  1  6  0  0  0
  8 10  1  0  0  0  0
 10  1  1  1  0  0  0
 10 12  1  0  0  0  0
 11 18  1  0  0  0  0
 12 14  1  0  0  0  0
 14  2  1  1  0  0  0
 14 16  1  0  0  0  0
 16  9  1  6  0  0  0
 17  9  1  1  0  0  0
 17 11  1  0  0  0  0
 17 22  1  0  0  0  0
 18 19  1  1  0  0  0
 18 20  1  0  0  0  0
 19  3  1  0  0  0  0
 20 13  1  1  0  0  0
 20 21  1  0  0  0  0
 21 15  1  1  0  0  0
 21 22  1  0  0  0  0
 22  6  1  6  0  0  0
M  END
>  <CHROM.1>
111.65587332,60.04645040,166.32276244,23.76291656,16.09936042,30.32008147
-0.89818006,-0.53556172,1.28895411

>  <Name>
2et8_lig

>  <RI>
224

>  <Rbt.Current_Directory>
/home/itssahil/PROJECTS/Mol_Feturizer/New_Systems/rnas/2et8

>  <Rbt.Executable>
rbdock ($Id: //depot/dev/client3/rdock/2013.1/src/exe/rbdock.cxx#4 $)

>  <Rbt.Library>
libRbt.so (2013.1, Build901 2013/11/27)

>  <Rbt.Parameter_File>
/export/apps/rDock/src/rDock_2013.1_src/data/scripts/dock_solv.prm

>  <Rbt.Receptor>
prm/blind_docking_60.prm

>  <SCORE>
-8.4687

>  <SCORE.INTER>
-13.179

>  <SCORE.INTER.CONST>
1

>  <SCORE.INTER.POLAR>
-0.425531

>  <SCORE.INTER.ROT>
3

>  <SCORE.INTER.SOLV>
22.2781

>  <SCORE.INTER.VDW>
-20.3936

>  <SCORE.INTER.norm>
-0.599046

>  <SCORE.INTRA>
2.92611

>  <SCORE.INTRA.DIHEDRAL>
2.4974

>  <SCORE.INTRA.DIHEDRAL.0>
4.99603

>  <SCORE.INTRA.POLAR>
0

>  <SCORE.INTRA.POLAR.0>
0

>  <SCORE.INTRA.REPUL>
0

>  <SCORE.INTRA.REPUL.0>
0

>  <SCORE.INTRA.SOLV>
4.05901

>  <SCORE.INTRA.SOLV.lig_0>
-74.884

>  <SCORE.INTRA.VDW>
-0.352094

>  <SCORE.INTRA.VDW.0>
-0.858933

>  <SCORE.INTRA.norm>
0.133005

>  <SCORE.RESTR>
1.7842

>  <SCORE.RESTR.CAVITY>
1.7842

>  <SCORE.RESTR.norm>
0.0811

>  <SCORE.SYSTEM>
0

>  <SCORE.SYSTEM.CONST>
0

>  <SCORE.SYSTEM.DIHEDRAL>
0

>  <SCORE.SYSTEM.SOLV>
0

>  <SCORE.SYSTEM.norm>
0

>  <SCORE.heavy>
22

>  <SCORE.norm>
-0.384941

>  <RMSD>
8.071

$$$$
2et8_lig
 OpenBabel11021811433D
libRbt.so/2013.1/901 2013/11/27
 22 23  0  0  0  0  0  0  0  0999 V2000
   27.8677   13.5383   27.8831 N   0  0  0  0  0  0  0  0  0  0  0  0
   25.4569   15.9928   31.4568 N   0  0  0  0  0  0  0  0  0  0  0  0
   22.4958   15.9987   34.7275 N   0  0  0  0  0  0  0  0  0  0  0  0
   23.1393   14.8103   27.2906 O   0  0  0  0  0  0  0  0  0  0  0  0
   24.3910   15.2336   27.8851 C   0  0  2  0  0  0  0  0  0  0  0  0
   20.6298   17.6445   29.1989 N   0  0  0  0  0  0  0  0  0  0  0  0
   25.6943   13.9775   26.1740 O   0  0  0  0  0  0  0  0  0  0  0  0
   25.5034   14.1582   27.5829 C   0  0  1  0  0  0  0  0  0  0  0  0
   23.2594   16.3175   29.6726 O   0  0  0  0  0  0  0  0  0  0  0  0
   26.8244   14.5791   28.1784 C   0  0  1  0  0  0  0  0  0  0  0  0
   22.5821   15.6327   31.7642 O   0  0  0  0  0  0  0  0  0  0  0  0
   26.6572   14.7660   29.7039 C   0  0  0  0  0  0  0  0  0  0  0  0
   22.8615   18.9578   33.2430 O   0  0  0  0  0  0  0  0  0  0  0  0
   25.5645   15.8488   29.9426 C   0  0  1  0  0  0  0  0  0  0  0  0
   20.8143   19.4098   31.3878 O   0  0  0  0  0  0  0  0  0  0  0  0
   24.2301   15.3717   29.4511 C   0  0  2  0  0  0  0  0  0  0  0  0
   22.0956   16.0006   30.3630 C   0  0  1  0  0  0  0  0  0  0  0  0
   23.2356   16.7729   32.4771 C   0  0  2  0  0  0  0  0  0  0  0  0
   23.6776   16.3464   33.8924 C   0  0  0  0  0  0  0  0  0  0  0  0
   22.2489   17.8961   32.5938 C   0  0  2  0  0  0  0  0  0  0  0  0
   21.7698   18.3489   31.2451 C   0  0  1  0  0  0  0  0  0  0  0  0
   21.1237   17.1992   30.5513 C   0  0  1  0  0  0  0  0  0  0  0  0
  5  4  1  6  0  0  0
  5  8  1  0  0  0  0
  5 16  1  0  0  0  0
  8  7  1  6  0  0  0
  8 10  1  0  0  0  0
 10  1  1  1  0  0  0
 10 12  1  0  0  0  0
 11 18  1  0  0  0  0
 12 14  1  0  0  0  0
 14  2  1  1  0  0  0
 14 16  1  0  0  0  0
 16  9  1  6  0  0  0
 17  9  1  6  0  0  0
 17 11  1  0  0  0  0
 17 22  1  0  0  0  0
 18 19  1  1  0  0  0
 18 20  1  0  0  0  0
 19  3  1  0  0  0  0
 20 13  1  6  0  0  0
 20 21  1  0  0  0  0
 21 15  1  1  0  0  0
 21 22  1  0  0  0  0
 22  6  1  6  0  0  0
M  END
>  <CHROM.1>
119.78695062,63.68475101,-64.18916103,23.70813358,16.14187765,30.29726252
-0.86045362,-0.51997485,1.34444221

>  <Name>
2et8_lig

>  <RI>
0

>  <Rbt.Current_Directory>
/home/itssahil/PROJECTS/Mol_Feturizer/New_Systems/rnas/2et8

>  <Rbt.Executable>
rbdock ($Id: //depot/dev/client3/rdock/2013.1/src/exe/rbdock.cxx#4 $)

>  <Rbt.Library>
libRbt.so (2013.1, Build901 2013/11/27)

>  <Rbt.Parameter_File>
/export/apps/rDock/src/rDock_2013.1_src/data/scripts/dock_solv.prm

>  <Rbt.Receptor>
prm/blind_docking_80.prm

>  <SCORE>
-9.05837

>  <SCORE.INTER>
-13.8384

>  <SCORE.INTER.CONST>
1

>  <SCORE.INTER.POLAR>
-0.344516

>  <SCORE.INTER.ROT>
3

>  <SCORE.INTER.SOLV>
20.643

>  <SCORE.INTER.VDW>
-20.5582

>  <SCORE.INTER.norm>
-0.629017

>  <SCORE.INTRA>
3.5601

>  <SCORE.INTRA.DIHEDRAL>
2.3068

>  <SCORE.INTRA.DIHEDRAL.0>
4.99603

>  <SCORE.INTRA.POLAR>
0

>  <SCORE.INTRA.POLAR.0>
0

>  <SCORE.INTRA.REPUL>
0

>  <SCORE.INTRA.REPUL.0>
0

>  <SCORE.INTRA.SOLV>
3.87445

>  <SCORE.INTRA.SOLV.lig_0>
-74.884

>  <SCORE.INTRA.VDW>
0.469481

>  <SCORE.INTRA.VDW.0>
-0.858933

>  <SCORE.INTRA.norm>
0.161823

>  <SCORE.RESTR>
1.21991

>  <SCORE.RESTR.CAVITY>
1.21991

>  <SCORE.RESTR.norm>
0.0554504

>  <SCORE.SYSTEM>
0

>  <SCORE.SYSTEM.CONST>
0

>  <SCORE.SYSTEM.DIHEDRAL>
0

>  <SCORE.SYSTEM.SOLV>
0

>  <SCORE.SYSTEM.norm>
0

>  <SCORE.heavy>
22

>  <SCORE.norm>
-0.411744

>  <RMSD>
8.077

$$$$
2et8_lig
 OpenBabel11021811433D
libRbt.so/2013.1/901 2013/11/27
 22 23  0  0  0  0  0  0  0  0999 V2000
   27.7818   13.3673   27.8904 N   0  0  0  0  0  0  0  0  0  0  0  0
   25.5156   16.0160   31.4198 N   0  0  0  0  0  0  0  0  0  0  0  0
   22.4910   15.9951   34.7391 N   0  0  0  0  0  0  0  0  0  0  0  0
   23.0698   14.7247   27.3606 O   0  0  0  0  0  0  0  0  0  0  0  0
   24.3450   15.1418   27.9078 C   0  0  2  0  0  0  0  0  0  0  0  0
   20.7152   17.7708   29.2207 N   0  0  0  0  0  0  0  0  0  0  0  0
   25.5771   13.7895   26.2175 O   0  0  0  0  0  0  0  0  0  0  0  0
   25.4252   14.0298   27.6222 C   0  0  1  0  0  0  0  0  0  0  0  0
   23.2824   16.3212   29.6771 O   0  0  0  0  0  0  0  0  0  0  0  0
   26.7696   14.4430   28.1688 C   0  0  1  0  0  0  0  0  0  0  0  0
   22.5696   15.6316   31.7553 O   0  0  0  0  0  0  0  0  0  0  0  0
   26.6445   14.6936   29.6892 C   0  0  0  0  0  0  0  0  0  0  0  0
   22.9912   18.9156   33.2913 O   0  0  0  0  0  0  0  0  0  0  0  0
   25.5825   15.8100   29.9105 C   0  0  1  0  0  0  0  0  0  0  0  0
   20.9712   19.4889   31.4398 O   0  0  0  0  0  0  0  0  0  0  0  0
   24.2260   15.3452   29.4704 C   0  0  2  0  0  0  0  0  0  0  0  0
   22.1038   16.0444   30.3596 C   0  0  1  0  0  0  0  0  0  0  0  0
   23.2708   16.7296   32.4890 C   0  0  2  0  0  0  0  0  0  0  0  0
   23.6895   16.2601   33.8977 C   0  0  0  0  0  0  0  0  0  0  0  0
   22.3342   17.8931   32.6227 C   0  0  2  0  0  0  0  0  0  0  0  0
   21.8794   18.3894   31.2809 C   0  0  1  0  0  0  0  0  0  0  0  0
   21.1852   17.2813   30.5663 C   0  0  1  0  0  0  0  0  0  0  0  0
  5  4  1  1  0  0  0
  5  8  1  0  0  0  0
  5 16  1  0  0  0  0
  8  7  1  6  0  0  0
  8 10  1  0  0  0  0
 10  1  1  1  0  0  0
 10 12  1  0  0  0  0
 11 18  1  0  0  0  0
 12 14  1  0  0  0  0
 14  2  1  1  0  0  0
 14 16  1  0  0  0  0
 16  9  1  6  0  0  0
 17  9  1  6  0  0  0
 17 11  1  0  0  0  0
 17 22  1  0  0  0  0
 18 19  1  1  0  0  0
 18 20  1  0  0  0  0
 19  3  1  0  0  0  0
 20 13  1  6  0  0  0
 20 21  1  0  0  0  0
 21 15  1  1  0  0  0
 21 22  1  0  0  0  0
 22  6  1  6  0  0  0
M  END
>  <CHROM.1>
117.09727554,62.05792892,-66.11371113,23.72187164,16.10883905,30.31316244
-0.87761561,-0.54731585,1.32790812

>  <Name>
2et8_lig

>  <RI>
224

>  <Rbt.Current_Directory>
/home/itssahil/PROJECTS/Mol_Feturizer/New_Systems/rnas/2et8

>  <Rbt.Executable>
rbdock ($Id: //depot/dev/client3/rdock/2013.1/src/exe/rbdock.cxx#4 $)

>  <Rbt.Library>
libRbt.so (2013.1, Build901 2013/11/27)

>  <Rbt.Parameter_File>
/export/apps/rDock/src/rDock_2013.1_src/data/scripts/dock_solv.prm

>  <Rbt.Receptor>
prm/blind_docking_60.prm

>  <SCORE>
-8.98062

>  <SCORE.INTER>
-13.4089

>  <SCORE.INTER.CONST>
1

>  <SCORE.INTER.POLAR>
-0.349661

>  <SCORE.INTER.ROT>
3

>  <SCORE.INTER.SOLV>
21.4904

>  <SCORE.INTER.VDW>
-20.5372

>  <SCORE.INTER.norm>
-0.609493

>  <SCORE.INTRA>
3.33144

>  <SCORE.INTRA.DIHEDRAL>
2.29242

>  <SCORE.INTRA.DIHEDRAL.0>
4.99603

>  <SCORE.INTRA.POLAR>
0

>  <SCORE.INTRA.POLAR.0>
0

>  <SCORE.INTRA.REPUL>
0

>  <SCORE.INTRA.REPUL.0>
0

>  <SCORE.INTRA.SOLV>
3.82393

>  <SCORE.INTRA.SOLV.lig_0>
-74.884

>  <SCORE.INTRA.VDW>
0.273267

>  <SCORE.INTRA.VDW.0>
-0.858933

>  <SCORE.INTRA.norm>
0.151429

>  <SCORE.RESTR>
1.0968

>  <SCORE.RESTR.CAVITY>
1.0968

>  <SCORE.RESTR.norm>
0.0498545

>  <SCORE.SYSTEM>
0

>  <SCORE.SYSTEM.CONST>
0

>  <SCORE.SYSTEM.DIHEDRAL>
0

>  <SCORE.SYSTEM.SOLV>
0

>  <SCORE.SYSTEM.norm>
0

>  <SCORE.heavy>
22

>  <SCORE.norm>
-0.40821

>  <RMSD>
8.084

$$$$
2et8_lig
 OpenBabel11021811433D
libRbt.so/2013.1/901 2013/11/27
 22 23  0  0  0  0  0  0  0  0999 V2000
   27.7857   13.3928   27.8632 N   0  0  0  0  0  0  0  0  0  0  0  0
   25.5085   16.0211   31.4008 N   0  0  0  0  0  0  0  0  0  0  0  0
   22.4977   16.0006   34.7329 N   0  0  0  0  0  0  0  0  0  0  0  0
   23.0608   14.7109   27.3488 O   0  0  0  0  0  0  0  0  0  0  0  0
   24.3342   15.1384   27.8921 C   0  0  2  0  0  0  0  0  0  0  0  0
   20.6832   17.7283   29.2118 N   0  0  0  0  0  0  0  0  0  0  0  0
   25.5722   13.7970   26.1974 O   0  0  0  0  0  0  0  0  0  0  0  0
   25.4228   14.0356   27.6027 C   0  0  1  0  0  0  0  0  0  0  0  0
   23.2673   16.3083   29.6652 O   0  0  0  0  0  0  0  0  0  0  0  0
   26.7654   14.4598   28.1452 C   0  0  1  0  0  0  0  0  0  0  0  0
   22.5695   15.6203   31.7490 O   0  0  0  0  0  0  0  0  0  0  0  0
   26.6430   14.7088   29.6660 C   0  0  0  0  0  0  0  0  0  0  0  0
   22.9614   18.9153   33.2690 O   0  0  0  0  0  0  0  0  0  0  0  0
   25.5723   15.8162   29.8912 C   0  0  1  0  0  0  0  0  0  0  0  0
   20.9287   19.4588   31.4224 O   0  0  0  0  0  0  0  0  0  0  0  0
   24.2184   15.3402   29.4551 C   0  0  2  0  0  0  0  0  0  0  0  0
   22.0942   16.0219   30.3532 C   0  0  1  0  0  0  0  0  0  0  0  0
   23.2615   16.7289   32.4753 C   0  0  2  0  0  0  0  0  0  0  0  0
   23.6903   16.2701   33.8845 C   0  0  0  0  0  0  0  0  0  0  0  0
   22.3130   17.8829   32.6073 C   0  0  2  0  0  0  0  0  0  0  0  0
   21.8481   18.3684   31.2650 C   0  0  1  0  0  0  0  0  0  0  0  0
   21.1632   17.2498   30.5579 C   0  0  1  0  0  0  0  0  0  0  0  0
  5  4  1  1  0  0  0
  5  8  1  0  0  0  0
  5 16  1  0  0  0  0
  8  7  1  6  0  0  0
  8 10  1  0  0  0  0
 10  1  1  1  0  0  0
 10 12  1  0  0  0  0
 11 18  1  0  0  0  0
 12 14  1  0  0  0  0
 14  2  1  1  0  0  0
 14 16  1  0  0  0  0
 16  9  1  6  0  0  0
 17  9  1  6  0  0  0
 17 11  1  0  0  0  0
 17 22  1  0  0  0  0
 18 19  1  1  0  0  0
 18 20  1  0  0  0  0
 19  3  1  0  0  0  0
 20 13  1  6  0  0  0
 20 21  1  0  0  0  0
 21 15  1  1  0  0  0
 21 22  1  0  0  0  0
 22  6  1  6  0  0  0
M  END
>  <CHROM.1>
117.20396780,62.29443102,-66.30844636,23.70992266,16.10379456,30.29768165
-0.87947054,-0.53728074,1.32466685

>  <Name>
2et8_lig

>  <RI>
224

>  <Rbt.Current_Directory>
/home/itssahil/PROJECTS/Mol_Feturizer/New_Systems/rnas/2et8

>  <Rbt.Executable>
rbdock ($Id: //depot/dev/client3/rdock/2013.1/src/exe/rbdock.cxx#4 $)

>  <Rbt.Library>
libRbt.so (2013.1, Build901 2013/11/27)

>  <Rbt.Parameter_File>
/export/apps/rDock/src/rDock_2013.1_src/data/scripts/dock_solv.prm

>  <Rbt.Receptor>
prm/blind_docking_60.prm

>  <SCORE>
-9.08551

>  <SCORE.INTER>
-13.5156

>  <SCORE.INTER.CONST>
1

>  <SCORE.INTER.POLAR>
-0.349906

>  <SCORE.INTER.ROT>
3

>  <SCORE.INTER.SOLV>
21.299

>  <SCORE.INTER.VDW>
-20.5437

>  <SCORE.INTER.norm>
-0.614346

>  <SCORE.INTRA>
3.31742

>  <SCORE.INTRA.DIHEDRAL>
2.30883

>  <SCORE.INTRA.DIHEDRAL.0>
4.99603

>  <SCORE.INTRA.POLAR>
0

>  <SCORE.INTRA.POLAR.0>
0

>  <SCORE.INTRA.REPUL>
0

>  <SCORE.INTRA.REPUL.0>
0

>  <SCORE.INTRA.SOLV>
3.82

>  <SCORE.INTRA.SOLV.lig_0>
-74.884

>  <SCORE.INTRA.VDW>
0.253007

>  <SCORE.INTRA.VDW.0>
-0.858933

>  <SCORE.INTRA.norm>
0.150792

>  <SCORE.RESTR>
1.11268

>  <SCORE.RESTR.CAVITY>
1.11268

>  <SCORE.RESTR.norm>
0.0505764

>  <SCORE.SYSTEM>
0

>  <SCORE.SYSTEM.CONST>
0

>  <SCORE.SYSTEM.DIHEDRAL>
0

>  <SCORE.SYSTEM.SOLV>
0

>  <SCORE.SYSTEM.norm>
0

>  <SCORE.heavy>
22

>  <SCORE.norm>
-0.412978

>  <RMSD>
8.091

$$$$
2et8_lig
 OpenBabel11021811433D
libRbt.so/2013.1/901 2013/11/27
 22 23  0  0  0  0  0  0  0  0999 V2000
   27.7865   13.3906   27.8563 N   0  0  0  0  0  0  0  0  0  0  0  0
   25.5114   16.0221   31.3927 N   0  0  0  0  0  0  0  0  0  0  0  0
   22.4960   15.9960   34.7217 N   0  0  0  0  0  0  0  0  0  0  0  0
   23.0627   14.7121   27.3413 O   0  0  0  0  0  0  0  0  0  0  0  0
   24.3364   15.1389   27.8844 C   0  0  2  0  0  0  0  0  0  0  0  0
   20.6877   17.7323   29.2013 N   0  0  0  0  0  0  0  0  0  0  0  0
   25.5734   13.7958   26.1903 O   0  0  0  0  0  0  0  0  0  0  0  0
   25.4242   14.0351   27.5955 C   0  0  1  0  0  0  0  0  0  0  0  0
   23.2704   16.3103   29.6570 O   0  0  0  0  0  0  0  0  0  0  0  0
   26.7671   14.4585   28.1378 C   0  0  1  0  0  0  0  0  0  0  0  0
   22.5702   15.6228   31.7401 O   0  0  0  0  0  0  0  0  0  0  0  0
   26.6448   14.7082   29.6586 C   0  0  0  0  0  0  0  0  0  0  0  0
   22.9632   18.9175   33.2606 O   0  0  0  0  0  0  0  0  0  0  0  0
   25.5751   15.8166   29.8832 C   0  0  1  0  0  0  0  0  0  0  0  0
   20.9326   19.4626   31.4122 O   0  0  0  0  0  0  0  0  0  0  0  0
   24.2208   15.3414   29.4473 C   0  0  2  0  0  0  0  0  0  0  0  0
   22.0965   16.0247   30.3440 C   0  0  1  0  0  0  0  0  0  0  0  0
   23.2623   16.7309   32.4671 C   0  0  2  0  0  0  0  0  0  0  0  0
   23.6896   16.2718   33.8767 C   0  0  0  0  0  0  0  0  0  0  0  0
   22.3146   17.8856   32.5983 C   0  0  2  0  0  0  0  0  0  0  0  0
   21.8513   18.3714   31.2556 C   0  0  1  0  0  0  0  0  0  0  0  0
   21.1662   17.2533   30.5478 C   0  0  1  0  0  0  0  0  0  0  0  0
  5  4  1  1  0  0  0
  5  8  1  0  0  0  0
  5 16  1  0  0  0  0
  8  7  1  6  0  0  0
  8 10  1  0  0  0  0
 10  1  1  1  0  0  0
 10 12  1  0  0  0  0
 11 18  1  0  0  0  0
 12 14  1  0  0  0  0
 14  2  1  1  0  0  0
 14 16  1  0  0  0  0
 16  9  1  6  0  0  0
 17  9  1  6  0  0  0
 17 11  1  0  0  0  0
 17 22  1  0  0  0  0
 18 19  1  1  0  0  0
 18 20  1  0  0  0  0
 19  3  1  0  0  0  0
 20 13  1  6  0  0  0
 20 21  1  0  0  0  0
 21 15  1  1  0  0  0
 21 22  1  0  0  0  0
 22  6  1  6  0  0  0
M  END
>  <CHROM.1>
117.13875513,62.31817620,-66.00431328,23.71181307,16.10491029,30.28922606
-0.87888949,-0.53834123,1.32504834

>  <Name>
2et8_lig

>  <RI>
224

>  <Rbt.Current_Directory>
/home/itssahil/PROJECTS/Mol_Feturizer/New_Systems/rnas/2et8

>  <Rbt.Executable>
rbdock ($Id: //depot/dev/client3/rdock/2013.1/src/exe/rbdock.cxx#4 $)

>  <Rbt.Library>
libRbt.so (2013.1, Build901 2013/11/27)

>  <Rbt.Parameter_File>
/export/apps/rDock/src/rDock_2013.1_src/data/scripts/dock_solv.prm

>  <Rbt.Receptor>
prm/blind_docking_60.prm

>  <SCORE>
-9.05895

>  <SCORE.INTER>
-13.4522

>  <SCORE.INTER.CONST>
1

>  <SCORE.INTER.POLAR>
-0.349664

>  <SCORE.INTER.ROT>
3

>  <SCORE.INTER.SOLV>
21.3762

>  <SCORE.INTER.VDW>
-20.528

>  <SCORE.INTER.norm>
-0.611464

>  <SCORE.INTRA>
3.28359

>  <SCORE.INTRA.DIHEDRAL>
2.29434

>  <SCORE.INTRA.DIHEDRAL.0>
4.99603

>  <SCORE.INTRA.POLAR>
0

>  <SCORE.INTRA.POLAR.0>
0

>  <SCORE.INTRA.REPUL>
0

>  <SCORE.INTRA.REPUL.0>
0

>  <SCORE.INTRA.SOLV>
3.81065

>  <SCORE.INTRA.SOLV.lig_0>
-74.884

>  <SCORE.INTRA.VDW>
0.231096

>  <SCORE.INTRA.VDW.0>
-0.858933

>  <SCORE.INTRA.norm>
0.149254

>  <SCORE.RESTR>
1.10967

>  <SCORE.RESTR.CAVITY>
1.10967

>  <SCORE.RESTR.norm>
0.0504393

>  <SCORE.SYSTEM>
0

>  <SCORE.SYSTEM.CONST>
0

>  <SCORE.SYSTEM.DIHEDRAL>
0

>  <SCORE.SYSTEM.SOLV>
0

>  <SCORE.SYSTEM.norm>
0

>  <SCORE.heavy>
22

>  <SCORE.norm>
-0.411771

>  <RMSD>
8.099

$$$$
2et8_lig
 OpenBabel11021811433D
libRbt.so/2013.1/901 2013/11/27
 22 23  0  0  0  0  0  0  0  0999 V2000
   26.2495   14.5641   26.1129 N   0  0  0  0  0  0  0  0  0  0  0  0
   23.1164   17.0993   29.0050 N   0  0  0  0  0  0  0  0  0  0  0  0
   20.2330   18.8977   31.3940 N   0  0  0  0  0  0  0  0  0  0  0  0
   26.8230   14.5773   31.0116 O   0  0  0  0  0  0  0  0  0  0  0  0
   25.8292   14.6089   29.9577 C   0  0  2  0  0  0  0  0  0  0  0  0
   24.9153   16.2528   34.1964 N   0  0  0  0  0  0  0  0  0  0  0  0
   27.3540   13.3969   28.4053 O   0  0  0  0  0  0  0  0  0  0  0  0
   26.5514   14.5746   28.5569 C   0  0  1  0  0  0  0  0  0  0  0  0
   24.3591   15.9245   31.2838 O   0  0  0  0  0  0  0  0  0  0  0  0
   25.5398   14.5921   27.4375 C   0  0  1  0  0  0  0  0  0  0  0  0
   22.9142   17.7172   31.3171 O   0  0  0  0  0  0  0  0  0  0  0  0
   24.6669   15.8620   27.5617 C   0  0  0  0  0  0  0  0  0  0  0  0
   20.2654   15.8999   33.0499 O   0  0  0  0  0  0  0  0  0  0  0  0
   23.9650   15.8337   28.9509 C   0  0  1  0  0  0  0  0  0  0  0  0
   22.2465   15.8962   35.0280 O   0  0  0  0  0  0  0  0  0  0  0  0
   24.9742   15.9343   30.0561 C   0  0  2  0  0  0  0  0  0  0  0  0
   24.1440   17.1045   31.9860 C   0  0  1  0  0  0  0  0  0  0  0  0
   21.6872   16.8750   31.4598 C   0  0  2  0  0  0  0  0  0  0  0  0
   20.4777   17.5598   30.7901 C   0  0  0  0  0  0  0  0  0  0  0  0
   21.3960   16.6930   32.9196 C   0  0  2  0  0  0  0  0  0  0  0  0
   22.5449   16.0403   33.6319 C   0  0  1  0  0  0  0  0  0  0  0  0
   23.7566   16.8937   33.4767 C   0  0  1  0  0  0  0  0  0  0  0  0
  5  4  1  1  0  0  0
  5  8  1  0  0  0  0
  5 16  1  0  0  0  0
  8  7  1  1  0  0  0
  8 10  1  0  0  0  0
 10  1  1  6  0  0  0
 10 12  1  0  0  0  0
 11 18  1  0  0  0  0
 12 14  1  0  0  0  0
 14  2  1  6  0  0  0
 14 16  1  0  0  0  0
 16  9  1  1  0  0  0
 17  9  1  6  0  0  0
 17 11  1  0  0  0  0
 17 22  1  0  0  0  0
 18 19  1  6  0  0  0
 18 20  1  0  0  0  0
 19  3  1  0  0  0  0
 20 13  1  6  0  0  0
 20 21  1  0  0  0  0
 21 15  1  1  0  0  0
 21 22  1  0  0  0  0
 22  6  1  1  0  0  0
M  END
>  <CHROM.1>
145.64753874,78.94826818,-58.60101886,23.81817923,16.02219307,30.83192553
0.74286468,0.50642353,-1.53096866

>  <Name>
2et8_lig

>  <RI>
224

>  <Rbt.Current_Directory>
/home/itssahil/PROJECTS/Mol_Feturizer/New_Systems/rnas/2et8

>  <Rbt.Executable>
rbdock ($Id: //depot/dev/client3/rdock/2013.1/src/exe/rbdock.cxx#4 $)

>  <Rbt.Library>
libRbt.so (2013.1, Build901 2013/11/27)

>  <Rbt.Parameter_File>
/export/apps/rDock/src/rDock_2013.1_src/data/scripts/dock_solv.prm

>  <Rbt.Receptor>
prm/blind_docking_60.prm

>  <SCORE>
-11.5918

>  <SCORE.INTER>
-16.8277

>  <SCORE.INTER.CONST>
1

>  <SCORE.INTER.POLAR>
-1.09545

>  <SCORE.INTER.ROT>
3

>  <SCORE.INTER.SOLV>
18.5318

>  <SCORE.INTER.VDW>
-19.3442

>  <SCORE.INTER.norm>
-0.764894

>  <SCORE.INTRA>
2.74997

>  <SCORE.INTRA.DIHEDRAL>
1.07801

>  <SCORE.INTRA.DIHEDRAL.0>
4.99603

>  <SCORE.INTRA.POLAR>
0

>  <SCORE.INTRA.POLAR.0>
0

>  <SCORE.INTRA.REPUL>
0

>  <SCORE.INTRA.REPUL.0>
0

>  <SCORE.INTRA.SOLV>
4.11683

>  <SCORE.INTRA.SOLV.lig_0>
-74.884

>  <SCORE.INTRA.VDW>
0.15255

>  <SCORE.INTRA.VDW.0>
-0.858933

>  <SCORE.INTRA.norm>
0.124999

>  <SCORE.RESTR>
2.48586

>  <SCORE.RESTR.CAVITY>
2.48586

>  <SCORE.RESTR.norm>
0.112994

>  <SCORE.SYSTEM>
0

>  <SCORE.SYSTEM.CONST>
0

>  <SCORE.SYSTEM.DIHEDRAL>
0

>  <SCORE.SYSTEM.SOLV>
0

>  <SCORE.SYSTEM.norm>
0

>  <SCORE.heavy>
22

>  <SCORE.norm>
-0.526901

>  <RMSD>
8.109

$$$$
2et8_lig
 OpenBabel11021811433D
libRbt.so/2013.1/901 2013/11/27
 22 23  0  0  0  0  0  0  0  0999 V2000
   28.1704   13.9375   27.7652 N   0  0  0  0  0  0  0  0  0  0  0  0
   25.2103   15.1883   31.5443 N   0  0  0  0  0  0  0  0  0  0  0  0
   24.3938   16.8580   34.7020 N   0  0  0  0  0  0  0  0  0  0  0  0
   23.8356   16.1352   26.9248 O   0  0  0  0  0  0  0  0  0  0  0  0
   24.9456   16.0715   27.8539 C   0  0  2  0  0  0  0  0  0  0  0  0
   20.9734   18.0010   29.1524 N   0  0  0  0  0  0  0  0  0  0  0  0
   26.5003   15.3738   26.0373 O   0  0  0  0  0  0  0  0  0  0  0  0
   26.0024   15.0234   27.3348 C   0  0  1  0  0  0  0  0  0  0  0  0
   23.5247   16.5541   29.6975 O   0  0  0  0  0  0  0  0  0  0  0  0
   27.1791   14.9452   28.2762 C   0  0  1  0  0  0  0  0  0  0  0  0
   22.6255   15.5999   31.5905 O   0  0  0  0  0  0  0  0  0  0  0  0
   26.6776   14.5510   29.6844 C   0  0  0  0  0  0  0  0  0  0  0  0
   22.7848   18.6761   33.5481 O   0  0  0  0  0  0  0  0  0  0  0  0
   25.6552   15.6271   30.1535 C   0  0  1  0  0  0  0  0  0  0  0  0
   20.9474   19.4362   31.5775 O   0  0  0  0  0  0  0  0  0  0  0  0
   24.4365   15.6164   29.2790 C   0  0  2  0  0  0  0  0  0  0  0  0
   22.2918   16.1732   30.2138 C   0  0  1  0  0  0  0  0  0  0  0  0
   23.2132   16.6116   32.5212 C   0  0  2  0  0  0  0  0  0  0  0  0
   23.5005   15.9795   33.8989 C   0  0  0  0  0  0  0  0  0  0  0  0
   22.2319   17.7321   32.6954 C   0  0  2  0  0  0  0  0  0  0  0  0
   21.9012   18.3818   31.3832 C   0  0  1  0  0  0  0  0  0  0  0  0
   21.3186   17.3578   30.4708 C   0  0  1  0  0  0  0  0  0  0  0  0
  5  4  1  6  0  0  0
  5  8  1  0  0  0  0
  5 16  1  0  0  0  0
  8  7  1  6  0  0  0
  8 10  1  0  0  0  0
 10  1  1  6  0  0  0
 10 12  1  0  0  0  0
 11 18  1  0  0  0  0
 12 14  1  0  0  0  0
 14  2  1  1  0  0  0
 14 16  1  0  0  0  0
 16  9  1  1  0  0  0
 17  9  1  1  0  0  0
 17 11  1  0  0  0  0
 17 22  1  0  0  0  0
 18 19  1  1  0  0  0
 18 20  1  0  0  0  0
 19  3  1  0  0  0  0
 20 13  1  1  0  0  0
 20 21  1  0  0  0  0
 21 15  1  1  0  0  0
 21 22  1  0  0  0  0
 22  6  1  6  0  0  0
M  END
>  <CHROM.1>
132.06943713,72.34014879,165.31496313,23.99291716,16.37923730,30.28026994
-0.78320116,-0.56348375,1.54321949

>  <Name>
2et8_lig

>  <RI>
0

>  <Rbt.Current_Directory>
/home/itssahil/PROJECTS/Mol_Feturizer/New_Systems/rnas/2et8

>  <Rbt.Executable>
rbdock ($Id: //depot/dev/client3/rdock/2013.1/src/exe/rbdock.cxx#4 $)

>  <Rbt.Library>
libRbt.so (2013.1, Build901 2013/11/27)

>  <Rbt.Parameter_File>
/export/apps/rDock/src/rDock_2013.1_src/data/scripts/dock_solv.prm

>  <Rbt.Receptor>
prm/blind_docking_80.prm

>  <SCORE>
-8.90285

>  <SCORE.INTER>
-14.2823

>  <SCORE.INTER.CONST>
1

>  <SCORE.INTER.POLAR>
-0.327478

>  <SCORE.INTER.ROT>
3

>  <SCORE.INTER.SOLV>
22.515

>  <SCORE.INTER.VDW>
-21.5349

>  <SCORE.INTER.norm>
-0.649195

>  <SCORE.INTRA>
3.75048

>  <SCORE.INTRA.DIHEDRAL>
2.95387

>  <SCORE.INTRA.DIHEDRAL.0>
4.99603

>  <SCORE.INTRA.POLAR>
0

>  <SCORE.INTRA.POLAR.0>
0

>  <SCORE.INTRA.REPUL>
0

>  <SCORE.INTRA.REPUL.0>
0

>  <SCORE.INTRA.SOLV>
4.29275

>  <SCORE.INTRA.SOLV.lig_0>
-74.884

>  <SCORE.INTRA.VDW>
0.127169

>  <SCORE.INTRA.VDW.0>
-0.858933

>  <SCORE.INTRA.norm>
0.170476

>  <SCORE.RESTR>
1.62897

>  <SCORE.RESTR.CAVITY>
1.62897

>  <SCORE.RESTR.norm>
0.074044

>  <SCORE.SYSTEM>
0

>  <SCORE.SYSTEM.CONST>
0

>  <SCORE.SYSTEM.DIHEDRAL>
0

>  <SCORE.SYSTEM.SOLV>
0

>  <SCORE.SYSTEM.norm>
0

>  <SCORE.heavy>
22

>  <SCORE.norm>
-0.404675

>  <RMSD>
8.110

$$$$
2et8_lig
 OpenBabel11021811433D
libRbt.so/2013.1/901 2013/11/27
 22 23  0  0  0  0  0  0  0  0999 V2000
   26.2295   14.5560   26.1168 N   0  0  0  0  0  0  0  0  0  0  0  0
   23.1308   17.1344   29.0077 N   0  0  0  0  0  0  0  0  0  0  0  0
   20.5672   17.5154   29.4281 N   0  0  0  0  0  0  0  0  0  0  0  0
   26.8162   14.5810   31.0139 O   0  0  0  0  0  0  0  0  0  0  0  0
   25.8200   14.6192   29.9625 C   0  0  2  0  0  0  0  0  0  0  0  0
   25.0108   16.4295   34.1617 N   0  0  0  0  0  0  0  0  0  0  0  0
   27.3279   13.3856   28.4106 O   0  0  0  0  0  0  0  0  0  0  0  0
   26.5381   14.5722   28.5599 C   0  0  1  0  0  0  0  0  0  0  0  0
   24.3673   15.9550   31.2876 O   0  0  0  0  0  0  0  0  0  0  0  0
   25.5237   14.5962   27.4431 C   0  0  1  0  0  0  0  0  0  0  0  0
   22.8129   17.6537   31.3140 O   0  0  0  0  0  0  0  0  0  0  0  0
   24.6644   15.8756   27.5649 C   0  0  0  0  0  0  0  0  0  0  0  0
   20.3532   15.7425   33.2162 O   0  0  0  0  0  0  0  0  0  0  0  0
   23.9661   15.8598   28.9560 C   0  0  1  0  0  0  0  0  0  0  0  0
   22.4036   15.9389   35.1121 O   0  0  0  0  0  0  0  0  0  0  0  0
   24.9792   15.9538   30.0582 C   0  0  2  0  0  0  0  0  0  0  0  0
   24.1037   17.1454   31.9548 C   0  0  1  0  0  0  0  0  0  0  0  0
   21.6486   16.7425   31.5362 C   0  0  2  0  0  0  0  0  0  0  0  0
   20.3734   17.3240   30.8912 C   0  0  0  0  0  0  0  0  0  0  0  0
   21.4249   16.5991   33.0121 C   0  0  2  0  0  0  0  0  0  0  0  0
   22.6393   16.0475   33.7008 C   0  0  1  0  0  0  0  0  0  0  0  0
   23.7872   16.9684   33.4664 C   0  0  1  0  0  0  0  0  0  0  0  0
  5  4  1  1  0  0  0
  5  8  1  0  0  0  0
  5 16  1  0  0  0  0
  8  7  1  1  0  0  0
  8 10  1  0  0  0  0
 10  1  1  6  0  0  0
 10 12  1  0  0  0  0
 11 18  1  0  0  0  0
 12 14  1  0  0  0  0
 14  2  1  6  0  0  0
 14 16  1  0  0  0  0
 16  9  1  1  0  0  0
 17  9  1  6  0  0  0
 17 11  1  0  0  0  0
 17 22  1  0  0  0  0
 18 19  1  6  0  0  0
 18 20  1  0  0  0  0
 19  3  1  0  0  0  0
 20 13  1  6  0  0  0
 20 21  1  0  0  0  0
 21 15  1  1  0  0  0
 21 22  1  0  0  0  0
 22  6  1  1  0  0  0
M  END
>  <CHROM.1>
149.02620932,81.39850767,59.11868959,23.84041486,15.94900431,30.76906427
0.81942878,0.42727524,-1.58189466

>  <Name>
2et8_lig

>  <RI>
224

>  <Rbt.Current_Directory>
/home/itssahil/PROJECTS/Mol_Feturizer/New_Systems/rnas/2et8

>  <Rbt.Executable>
rbdock ($Id: //depot/dev/client3/rdock/2013.1/src/exe/rbdock.cxx#4 $)

>  <Rbt.Library>
libRbt.so (2013.1, Build901 2013/11/27)

>  <Rbt.Parameter_File>
/export/apps/rDock/src/rDock_2013.1_src/data/scripts/dock_solv.prm

>  <Rbt.Receptor>
prm/blind_docking_60.prm

>  <SCORE>
-10.9472

>  <SCORE.INTER>
-16.4584

>  <SCORE.INTER.CONST>
1

>  <SCORE.INTER.POLAR>
-1.09545

>  <SCORE.INTER.ROT>
3

>  <SCORE.INTER.SOLV>
19.8604

>  <SCORE.INTER.VDW>
-19.5409

>  <SCORE.INTER.norm>
-0.74811

>  <SCORE.INTRA>
3.00797

>  <SCORE.INTRA.DIHEDRAL>
0.855025

>  <SCORE.INTRA.DIHEDRAL.0>
4.99603

>  <SCORE.INTRA.POLAR>
0

>  <SCORE.INTRA.POLAR.0>
0

>  <SCORE.INTRA.REPUL>
0

>  <SCORE.INTRA.REPUL.0>
0

>  <SCORE.INTRA.SOLV>
4.77963

>  <SCORE.INTRA.SOLV.lig_0>
-74.884

>  <SCORE.INTRA.VDW>
0.190645

>  <SCORE.INTRA.VDW.0>
-0.858933

>  <SCORE.INTRA.norm>
0.136726

>  <SCORE.RESTR>
2.50323

>  <SCORE.RESTR.CAVITY>
2.50323

>  <SCORE.RESTR.norm>
0.113783

>  <SCORE.SYSTEM>
0

>  <SCORE.SYSTEM.CONST>
0

>  <SCORE.SYSTEM.DIHEDRAL>
0

>  <SCORE.SYSTEM.SOLV>
0

>  <SCORE.SYSTEM.norm>
0

>  <SCORE.heavy>
22

>  <SCORE.norm>
-0.497601

>  <RMSD>
8.116

$$$$
2et8_lig
 OpenBabel11021811433D
libRbt.so/2013.1/901 2013/11/27
 22 23  0  0  0  0  0  0  0  0999 V2000
   28.1762   13.9592   27.7453 N   0  0  0  0  0  0  0  0  0  0  0  0
   25.2084   15.1818   31.5275 N   0  0  0  0  0  0  0  0  0  0  0  0
   24.4036   16.8586   34.6869 N   0  0  0  0  0  0  0  0  0  0  0  0
   23.8345   16.1455   26.9112 O   0  0  0  0  0  0  0  0  0  0  0  0
   24.9439   16.0814   27.8410 C   0  0  2  0  0  0  0  0  0  0  0  0
   20.9585   17.9828   29.1486 N   0  0  0  0  0  0  0  0  0  0  0  0
   26.5027   15.3977   26.0226 O   0  0  0  0  0  0  0  0  0  0  0  0
   26.0049   15.0394   27.3179 C   0  0  1  0  0  0  0  0  0  0  0  0
   23.5196   16.5503   29.6855 O   0  0  0  0  0  0  0  0  0  0  0  0
   27.1810   14.9609   28.2600 C   0  0  1  0  0  0  0  0  0  0  0  0
   22.6318   15.5910   31.5813 O   0  0  0  0  0  0  0  0  0  0  0  0
   26.6795   14.5584   29.6659 C   0  0  0  0  0  0  0  0  0  0  0  0
   22.7800   18.6680   33.5386 O   0  0  0  0  0  0  0  0  0  0  0  0
   25.6530   15.6287   30.1391 C   0  0  1  0  0  0  0  0  0  0  0  0
   20.9321   19.4178   31.5738 O   0  0  0  0  0  0  0  0  0  0  0  0
   24.4351   15.6178   29.2635 C   0  0  2  0  0  0  0  0  0  0  0  0
   22.2906   16.1624   30.2057 C   0  0  1  0  0  0  0  0  0  0  0  0
   23.2168   16.6060   32.5102 C   0  0  2  0  0  0  0  0  0  0  0  0
   23.5120   15.9755   33.8870 C   0  0  0  0  0  0  0  0  0  0  0  0
   22.2297   17.7209   32.6876 C   0  0  2  0  0  0  0  0  0  0  0  0
   21.8912   18.3688   31.3764 C   0  0  1  0  0  0  0  0  0  0  0  0
   21.3115   17.3415   30.4659 C   0  0  1  0  0  0  0  0  0  0  0  0
  5  4  1  6  0  0  0
  5  8  1  0  0  0  0
  5 16  1  0  0  0  0
  8  7  1  6  0  0  0
  8 10  1  0  0  0  0
 10  1  1  6  0  0  0
 10 12  1  0  0  0  0
 11 18  1  0  0  0  0
 12 14  1  0  0  0  0
 14  2  1  1  0  0  0
 14 16  1  0  0  0  0
 16  9  1  1  0  0  0
 17  9  1  1  0  0  0
 17 11  1  0  0  0  0
 17 22  1  0  0  0  0
 18 19  1  1  0  0  0
 18 20  1  0  0  0  0
 19  3  1  0  0  0  0
 20 13  1  1  0  0  0
 20 21  1  0  0  0  0
 21 15  1  1  0  0  0
 21 22  1  0  0  0  0
 22  6  1  6  0  0  0
M  END
>  <CHROM.1>
132.42584941,72.37228085,165.27998783,23.99180838,16.37851973,30.26834043
-0.78441815,-0.55880512,1.54389046

>  <Name>
2et8_lig

>  <RI>
0

>  <Rbt.Current_Directory>
/home/itssahil/PROJECTS/Mol_Feturizer/New_Systems/rnas/2et8

>  <Rbt.Executable>
rbdock ($Id: //depot/dev/client3/rdock/2013.1/src/exe/rbdock.cxx#4 $)

>  <Rbt.Library>
libRbt.so (2013.1, Build901 2013/11/27)

>  <Rbt.Parameter_File>
/export/apps/rDock/src/rDock_2013.1_src/data/scripts/dock_solv.prm

>  <Rbt.Receptor>
prm/blind_docking_80.prm

>  <SCORE>
-8.7518

>  <SCORE.INTER>
-14.1115

>  <SCORE.INTER.CONST>
1

>  <SCORE.INTER.POLAR>
-0.324809

>  <SCORE.INTER.ROT>
3

>  <SCORE.INTER.SOLV>
22.528

>  <SCORE.INTER.VDW>
-21.4343

>  <SCORE.INTER.norm>
-0.641431

>  <SCORE.INTRA>
3.76704

>  <SCORE.INTRA.DIHEDRAL>
2.92183

>  <SCORE.INTRA.DIHEDRAL.0>
4.99603

>  <SCORE.INTRA.POLAR>
0

>  <SCORE.INTRA.POLAR.0>
0

>  <SCORE.INTRA.REPUL>
0

>  <SCORE.INTRA.REPUL.0>
0

>  <SCORE.INTRA.SOLV>
4.29895

>  <SCORE.INTRA.SOLV.lig_0>
-74.884

>  <SCORE.INTRA.VDW>
0.156652

>  <SCORE.INTRA.VDW.0>
-0.858933

>  <SCORE.INTRA.norm>
0.171229

>  <SCORE.RESTR>
1.59264

>  <SCORE.RESTR.CAVITY>
1.59264

>  <SCORE.RESTR.norm>
0.0723928

>  <SCORE.SYSTEM>
0

>  <SCORE.SYSTEM.CONST>
0

>  <SCORE.SYSTEM.DIHEDRAL>
0

>  <SCORE.SYSTEM.SOLV>
0

>  <SCORE.SYSTEM.norm>
0

>  <SCORE.heavy>
22

>  <SCORE.norm>
-0.397809

>  <RMSD>
8.117

$$$$
2et8_lig
 OpenBabel11021811433D
libRbt.so/2013.1/901 2013/11/27
 22 23  0  0  0  0  0  0  0  0999 V2000
   26.2402   14.5416   26.1065 N   0  0  0  0  0  0  0  0  0  0  0  0
   23.1110   17.0831   28.9971 N   0  0  0  0  0  0  0  0  0  0  0  0
   20.2399   18.9130   31.3746 N   0  0  0  0  0  0  0  0  0  0  0  0
   26.8280   14.5762   31.0034 O   0  0  0  0  0  0  0  0  0  0  0  0
   25.8311   14.6016   29.9522 C   0  0  2  0  0  0  0  0  0  0  0  0
   24.8984   16.2455   34.1938 N   0  0  0  0  0  0  0  0  0  0  0  0
   27.3536   13.3859   28.4005 O   0  0  0  0  0  0  0  0  0  0  0  0
   26.5493   14.5627   28.5495 C   0  0  1  0  0  0  0  0  0  0  0  0
   24.3625   15.9201   31.2772 O   0  0  0  0  0  0  0  0  0  0  0  0
   25.5343   14.5738   27.4330 C   0  0  1  0  0  0  0  0  0  0  0  0
   22.9318   17.7243   31.2982 O   0  0  0  0  0  0  0  0  0  0  0  0
   24.6595   15.8426   27.5544 C   0  0  0  0  0  0  0  0  0  0  0  0
   20.2550   15.9293   33.0110 O   0  0  0  0  0  0  0  0  0  0  0  0
   23.9618   15.8189   28.9458 C   0  0  1  0  0  0  0  0  0  0  0  0
   22.2203   15.9107   35.0046 O   0  0  0  0  0  0  0  0  0  0  0  0
   24.9740   15.9258   30.0476 C   0  0  2  0  0  0  0  0  0  0  0  0
   24.1513   17.1021   31.9771 C   0  0  1  0  0  0  0  0  0  0  0  0
   21.6970   16.8921   31.4317 C   0  0  2  0  0  0  0  0  0  0  0  0
   20.4984   17.5862   30.7521 C   0  0  0  0  0  0  0  0  0  0  0  0
   21.3929   16.7133   32.8892 C   0  0  2  0  0  0  0  0  0  0  0  0
   22.5309   16.0517   33.6108 C   0  0  1  0  0  0  0  0  0  0  0  0
   23.7506   16.8953   33.4647 C   0  0  1  0  0  0  0  0  0  0  0  0
  5  4  1  1  0  0  0
  5  8  1  0  0  0  0
  5 16  1  0  0  0  0
  8  7  1  1  0  0  0
  8 10  1  0  0  0  0
 10  1  1  6  0  0  0
 10 12  1  0  0  0  0
 11 18  1  0  0  0  0
 12 14  1  0  0  0  0
 14  2  1  6  0  0  0
 14 16  1  0  0  0  0
 16  9  1  1  0  0  0
 17  9  1  6  0  0  0
 17 11  1  0  0  0  0
 17 22  1  0  0  0  0
 18 19  1  6  0  0  0
 18 20  1  0  0  0  0
 19  3  1  0  0  0  0
 20 13  1  6  0  0  0
 20 21  1  0  0  0  0
 21 15  1  1  0  0  0
 21 22  1  0  0  0  0
 22  6  1  1  0  0  0
M  END
>  <CHROM.1>
145.42868882,78.21902615,-59.91221932,23.81646076,16.02236316,30.81751231
0.74058423,0.50898042,-1.53432801

>  <Name>
2et8_lig

>  <RI>
224

>  <Rbt.Current_Directory>
/home/itssahil/PROJECTS/Mol_Feturizer/New_Systems/rnas/2et8

>  <Rbt.Executable>
rbdock ($Id: //depot/dev/client3/rdock/2013.1/src/exe/rbdock.cxx#4 $)

>  <Rbt.Library>
libRbt.so (2013.1, Build901 2013/11/27)

>  <Rbt.Parameter_File>
/export/apps/rDock/src/rDock_2013.1_src/data/scripts/dock_solv.prm

>  <Rbt.Receptor>
prm/blind_docking_60.prm

>  <SCORE>
-11.4132

>  <SCORE.INTER>
-16.7184

>  <SCORE.INTER.CONST>
1

>  <SCORE.INTER.POLAR>
-1.09545

>  <SCORE.INTER.ROT>
3

>  <SCORE.INTER.SOLV>
18.5362

>  <SCORE.INTER.VDW>
-19.2728

>  <SCORE.INTER.norm>
-0.759925

>  <SCORE.INTRA>
2.86614

>  <SCORE.INTRA.DIHEDRAL>
0.998656

>  <SCORE.INTRA.DIHEDRAL.0>
4.99603

>  <SCORE.INTRA.POLAR>
0

>  <SCORE.INTRA.POLAR.0>
0

>  <SCORE.INTRA.REPUL>
0

>  <SCORE.INTRA.REPUL.0>
0

>  <SCORE.INTRA.SOLV>
4.17679

>  <SCORE.INTRA.SOLV.lig_0>
-74.884

>  <SCORE.INTRA.VDW>
0.278415

>  <SCORE.INTRA.VDW.0>
-0.858933

>  <SCORE.INTRA.norm>
0.130279

>  <SCORE.RESTR>
2.43898

>  <SCORE.RESTR.CAVITY>
2.43898

>  <SCORE.RESTR.norm>
0.110863

>  <SCORE.SYSTEM>
0

>  <SCORE.SYSTEM.CONST>
0

>  <SCORE.SYSTEM.DIHEDRAL>
0

>  <SCORE.SYSTEM.SOLV>
0

>  <SCORE.SYSTEM.norm>
0

>  <SCORE.heavy>
22

>  <SCORE.norm>
-0.518784

>  <RMSD>
8.124

$$$$
2et8_lig
 OpenBabel11021811433D
libRbt.so/2013.1/901 2013/11/27
 22 23  0  0  0  0  0  0  0  0999 V2000
   26.2312   14.5358   26.1078 N   0  0  0  0  0  0  0  0  0  0  0  0
   23.1294   17.1228   28.9878 N   0  0  0  0  0  0  0  0  0  0  0  0
   20.5597   17.4765   29.4135 N   0  0  0  0  0  0  0  0  0  0  0  0
   26.8367   14.6077   31.0021 O   0  0  0  0  0  0  0  0  0  0  0  0
   25.8362   14.6311   29.9543 C   0  0  2  0  0  0  0  0  0  0  0  0
   25.0312   16.4858   34.1389 N   0  0  0  0  0  0  0  0  0  0  0  0
   27.3449   13.3920   28.4076 O   0  0  0  0  0  0  0  0  0  0  0  0
   26.5491   14.5755   28.5495 C   0  0  1  0  0  0  0  0  0  0  0  0
   24.3812   15.9706   31.2732 O   0  0  0  0  0  0  0  0  0  0  0  0
   25.5303   14.5840   27.4365 C   0  0  1  0  0  0  0  0  0  0  0  0
   22.8081   17.6521   31.2864 O   0  0  0  0  0  0  0  0  0  0  0  0
   24.6644   15.8597   27.5502 C   0  0  0  0  0  0  0  0  0  0  0  0
   20.3777   15.7361   33.2211 O   0  0  0  0  0  0  0  0  0  0  0  0
   23.9715   15.8524   28.9442 C   0  0  1  0  0  0  0  0  0  0  0  0
   22.4335   15.9774   35.1059 O   0  0  0  0  0  0  0  0  0  0  0  0
   24.9883   15.9618   30.0415 C   0  0  2  0  0  0  0  0  0  0  0  0
   24.1071   17.1657   31.9276 C   0  0  1  0  0  0  0  0  0  0  0  0
   21.6549   16.7307   31.5241 C   0  0  2  0  0  0  0  0  0  0  0  0
   20.3707   17.2904   30.8778 C   0  0  0  0  0  0  0  0  0  0  0  0
   21.4389   16.6021   33.0025 C   0  0  2  0  0  0  0  0  0  0  0  0
   22.6623   16.0721   33.6924 C   0  0  1  0  0  0  0  0  0  0  0  0
   23.7988   17.0029   33.4425 C   0  0  1  0  0  0  0  0  0  0  0  0
  5  4  1  1  0  0  0
  5  8  1  0  0  0  0
  5 16  1  0  0  0  0
  8  7  1  1  0  0  0
  8 10  1  0  0  0  0
 10  1  1  6  0  0  0
 10 12  1  0  0  0  0
 11 18  1  0  0  0  0
 12 14  1  0  0  0  0
 14  2  1  6  0  0  0
 14 16  1  0  0  0  0
 16  9  1  1  0  0  0
 17  9  1  6  0  0  0
 17 11  1  0  0  0  0
 17 22  1  0  0  0  0
 18 19  1  6  0  0  0
 18 20  1  0  0  0  0
 19  3  1  0  0  0  0
 20 13  1  6  0  0  0
 20 21  1  0  0  0  0
 21 15  1  1  0  0  0
 21 22  1  0  0  0  0
 22  6  1  1  0  0  0
M  END
>  <CHROM.1>
149.37481965,81.41642969,58.69332282,23.85057102,15.95329976,30.75614441
0.82441821,0.41862568,-1.59370106

>  <Name>
2et8_lig

>  <RI>
224

>  <Rbt.Current_Directory>
/home/itssahil/PROJECTS/Mol_Feturizer/New_Systems/rnas/2et8

>  <Rbt.Executable>
rbdock ($Id: //depot/dev/client3/rdock/2013.1/src/exe/rbdock.cxx#4 $)

>  <Rbt.Library>
libRbt.so (2013.1, Build901 2013/11/27)

>  <Rbt.Parameter_File>
/export/apps/rDock/src/rDock_2013.1_src/data/scripts/dock_solv.prm

>  <Rbt.Receptor>
prm/blind_docking_60.prm

>  <SCORE>
-10.6723

>  <SCORE.INTER>
-16.1282

>  <SCORE.INTER.CONST>
1

>  <SCORE.INTER.POLAR>
-1.09545

>  <SCORE.INTER.ROT>
3

>  <SCORE.INTER.SOLV>
19.7488

>  <SCORE.INTER.VDW>
-19.2836

>  <SCORE.INTER.norm>
-0.733099

>  <SCORE.INTRA>
3.01609

>  <SCORE.INTRA.DIHEDRAL>
0.797629

>  <SCORE.INTRA.DIHEDRAL.0>
4.99603

>  <SCORE.INTRA.POLAR>
0

>  <SCORE.INTRA.POLAR.0>
0

>  <SCORE.INTRA.REPUL>
0

>  <SCORE.INTRA.REPUL.0>
0

>  <SCORE.INTRA.SOLV>
4.78001

>  <SCORE.INTRA.SOLV.lig_0>
-74.884

>  <SCORE.INTRA.VDW>
0.227269

>  <SCORE.INTRA.VDW.0>
-0.858933

>  <SCORE.INTRA.norm>
0.137095

>  <SCORE.RESTR>
2.43983

>  <SCORE.RESTR.CAVITY>
2.43983

>  <SCORE.RESTR.norm>
0.110901

>  <SCORE.SYSTEM>
0

>  <SCORE.SYSTEM.CONST>
0

>  <SCORE.SYSTEM.DIHEDRAL>
0

>  <SCORE.SYSTEM.SOLV>
0

>  <SCORE.SYSTEM.norm>
0

>  <SCORE.heavy>
22

>  <SCORE.norm>
-0.485102

>  <RMSD>
8.129

$$$$
2et8_lig
 OpenBabel11021811433D
libRbt.so/2013.1/901 2013/11/27
 22 23  0  0  0  0  0  0  0  0999 V2000
   26.2239   14.5272   26.1109 N   0  0  0  0  0  0  0  0  0  0  0  0
   23.1231   17.1316   28.9761 N   0  0  0  0  0  0  0  0  0  0  0  0
   20.5648   17.5689   29.4067 N   0  0  0  0  0  0  0  0  0  0  0  0
   26.7937   14.5787   31.0097 O   0  0  0  0  0  0  0  0  0  0  0  0
   25.8012   14.6138   29.9547 C   0  0  2  0  0  0  0  0  0  0  0  0
   25.0031   16.4032   34.1438 N   0  0  0  0  0  0  0  0  0  0  0  0
   27.3107   13.3667   28.4152 O   0  0  0  0  0  0  0  0  0  0  0  0
   26.5240   14.5565   28.5549 C   0  0  1  0  0  0  0  0  0  0  0  0
   24.3480   15.9616   31.2670 O   0  0  0  0  0  0  0  0  0  0  0  0
   25.5136   14.5772   27.4345 C   0  0  1  0  0  0  0  0  0  0  0  0
   22.8373   17.6991   31.3031 O   0  0  0  0  0  0  0  0  0  0  0  0
   24.6578   15.8599   27.5459 C   0  0  0  0  0  0  0  0  0  0  0  0
   20.3295   15.8403   33.1944 O   0  0  0  0  0  0  0  0  0  0  0  0
   23.9546   15.8542   28.9347 C   0  0  1  0  0  0  0  0  0  0  0  0
   22.3841   15.9737   35.0914 O   0  0  0  0  0  0  0  0  0  0  0  0
   24.9641   15.9515   30.0398 C   0  0  2  0  0  0  0  0  0  0  0  0
   24.1147   17.1545   31.9410 C   0  0  1  0  0  0  0  0  0  0  0  0
   21.6501   16.8166   31.5201 C   0  0  2  0  0  0  0  0  0  0  0  0
   20.3902   17.4340   30.8785 C   0  0  0  0  0  0  0  0  0  0  0  0
   21.4227   16.6706   32.9952 C   0  0  2  0  0  0  0  0  0  0  0  0
   22.6227   16.0843   33.6807 C   0  0  1  0  0  0  0  0  0  0  0  0
   23.7936   16.9770   33.4516 C   0  0  1  0  0  0  0  0  0  0  0  0
  5  4  1  1  0  0  0
  5  8  1  0  0  0  0
  5 16  1  0  0  0  0
  8  7  1  1  0  0  0
  8 10  1  0  0  0  0
 10  1  1  6  0  0  0
 10 12  1  0  0  0  0
 11 18  1  0  0  0  0
 12 14  1  0  0  0  0
 14  2  1  6  0  0  0
 14 16  1  0  0  0  0
 16  9  1  1  0  0  0
 17  9  1  6  0  0  0
 17 11  1  0  0  0  0
 17 22  1  0  0  0  0
 18 19  1  6  0  0  0
 18 20  1  0  0  0  0
 19  3  1  0  0  0  0
 20 13  1  6  0  0  0
 20 21  1  0  0  0  0
 21 15  1  1  0  0  0
 21 22  1  0  0  0  0
 22  6  1  1  0  0  0
M  END
>  <CHROM.1>
147.46406184,81.63561522,61.80487556,23.83288720,15.96787296,30.75437452
0.81442821,0.44126980,-1.58261232

>  <Name>
2et8_lig

>  <RI>
224

>  <Rbt.Current_Directory>
/home/itssahil/PROJECTS/Mol_Feturizer/New_Systems/rnas/2et8

>  <Rbt.Executable>
rbdock ($Id: //depot/dev/client3/rdock/2013.1/src/exe/rbdock.cxx#4 $)

>  <Rbt.Library>
libRbt.so (2013.1, Build901 2013/11/27)

>  <Rbt.Parameter_File>
/export/apps/rDock/src/rDock_2013.1_src/data/scripts/dock_solv.prm

>  <Rbt.Receptor>
prm/blind_docking_60.prm

>  <SCORE>
-10.5634

>  <SCORE.INTER>
-15.8806

>  <SCORE.INTER.CONST>
1

>  <SCORE.INTER.POLAR>
-1.09545

>  <SCORE.INTER.ROT>
3

>  <SCORE.INTER.SOLV>
20.1871

>  <SCORE.INTER.VDW>
-19.2646

>  <SCORE.INTER.norm>
-0.721846

>  <SCORE.INTRA>
2.90785

>  <SCORE.INTRA.DIHEDRAL>
1.18811

>  <SCORE.INTRA.DIHEDRAL.0>
4.99603

>  <SCORE.INTRA.POLAR>
0

>  <SCORE.INTRA.POLAR.0>
0

>  <SCORE.INTRA.REPUL>
0

>  <SCORE.INTRA.REPUL.0>
0

>  <SCORE.INTRA.SOLV>
4.72776

>  <SCORE.INTRA.SOLV.lig_0>
-74.884

>  <SCORE.INTRA.VDW>
-0.0500913

>  <SCORE.INTRA.VDW.0>
-0.858933

>  <SCORE.INTRA.norm>
0.132175

>  <SCORE.RESTR>
2.4094

>  <SCORE.RESTR.CAVITY>
2.4094

>  <SCORE.RESTR.norm>
0.109518

>  <SCORE.SYSTEM>
0

>  <SCORE.SYSTEM.CONST>
0

>  <SCORE.SYSTEM.DIHEDRAL>
0

>  <SCORE.SYSTEM.SOLV>
0

>  <SCORE.SYSTEM.norm>
0

>  <SCORE.heavy>
22

>  <SCORE.norm>
-0.480152

>  <RMSD>
8.140

$$$$
2et8_lig
 OpenBabel11021811433D
libRbt.so/2013.1/901 2013/11/27
 22 23  0  0  0  0  0  0  0  0999 V2000
   26.4124   14.7071   26.1017 N   0  0  0  0  0  0  0  0  0  0  0  0
   23.2028   17.1868   28.9577 N   0  0  0  0  0  0  0  0  0  0  0  0
   20.6408   17.6732   29.3887 N   0  0  0  0  0  0  0  0  0  0  0  0
   26.8366   14.6000   31.0144 O   0  0  0  0  0  0  0  0  0  0  0  0
   25.8755   14.6616   29.9319 C   0  0  2  0  0  0  0  0  0  0  0  0
   24.9662   16.3117   34.1452 N   0  0  0  0  0  0  0  0  0  0  0  0
   27.4421   13.4800   28.3977 O   0  0  0  0  0  0  0  0  0  0  0  0
   26.6399   14.6574   28.5532 C   0  0  1  0  0  0  0  0  0  0  0  0
   24.3710   15.9519   31.2441 O   0  0  0  0  0  0  0  0  0  0  0  0
   25.6628   14.7066   27.4044 C   0  0  1  0  0  0  0  0  0  0  0  0
   22.8340   17.6654   31.3062 O   0  0  0  0  0  0  0  0  0  0  0  0
   24.7916   15.9772   27.5326 C   0  0  0  0  0  0  0  0  0  0  0  0
   20.3199   15.7117   33.0905 O   0  0  0  0  0  0  0  0  0  0  0  0
   24.0477   15.9189   28.8988 C   0  0  1  0  0  0  0  0  0  0  0  0
   22.3369   15.8147   35.0292 O   0  0  0  0  0  0  0  0  0  0  0  0
   25.0232   15.9882   30.0362 C   0  0  2  0  0  0  0  0  0  0  0  0
   24.1074   17.1193   31.9507 C   0  0  1  0  0  0  0  0  0  0  0  0
   21.6564   16.7594   31.4729 C   0  0  2  0  0  0  0  0  0  0  0  0
   20.3994   17.3785   30.8273 C   0  0  0  0  0  0  0  0  0  0  0  0
   21.4040   16.5635   32.9381 C   0  0  2  0  0  0  0  0  0  0  0  0
   22.5998   15.9733   33.6275 C   0  0  1  0  0  0  0  0  0  0  0  0
   23.7612   16.8896   33.4486 C   0  0  1  0  0  0  0  0  0  0  0  0
  5  4  1  1  0  0  0
  5  8  1  0  0  0  0
  5 16  1  0  0  0  0
  8  7  1  6  0  0  0
  8 10  1  0  0  0  0
 10  1  1  6  0  0  0
 10 12  1  0  0  0  0
 11 18  1  0  0  0  0
 12 14  1  0  0  0  0
 14  2  1  1  0  0  0
 14 16  1  0  0  0  0
 16  9  1  1  0  0  0
 17  9  1  6  0  0  0
 17 11  1  0  0  0  0
 17 22  1  0  0  0  0
 18 19  1  1  0  0  0
 18 20  1  0  0  0  0
 19  3  1  0  0  0  0
 20 13  1  6  0  0  0
 20 21  1  0  0  0  0
 21 15  1  1  0  0  0
 21 22  1  0  0  0  0
 22  6  1  1  0  0  0
M  END
>  <CHROM.1>
147.39434651,82.37979684,56.83092229,23.87778214,15.97095646,30.72893228
0.78387660,0.43504376,-1.53250065

>  <Name>
2et8_lig

>  <RI>
0

>  <Rbt.Current_Directory>
/home/itssahil/PROJECTS/Mol_Feturizer/New_Systems/rnas/2et8

>  <Rbt.Executable>
rbdock ($Id: //depot/dev/client3/rdock/2013.1/src/exe/rbdock.cxx#4 $)

>  <Rbt.Library>
libRbt.so (2013.1, Build901 2013/11/27)

>  <Rbt.Parameter_File>
/export/apps/rDock/src/rDock_2013.1_src/data/scripts/dock_solv.prm

>  <Rbt.Receptor>
prm/blind_docking_80.prm

>  <SCORE>
-11.412

>  <SCORE.INTER>
-16.4882

>  <SCORE.INTER.CONST>
1

>  <SCORE.INTER.POLAR>
-1.09545

>  <SCORE.INTER.ROT>
3

>  <SCORE.INTER.SOLV>
21.2187

>  <SCORE.INTER.VDW>
-20.0136

>  <SCORE.INTER.norm>
-0.749465

>  <SCORE.INTRA>
2.84105

>  <SCORE.INTRA.DIHEDRAL>
1.3494

>  <SCORE.INTRA.DIHEDRAL.0>
4.99603

>  <SCORE.INTRA.POLAR>
0

>  <SCORE.INTRA.POLAR.0>
0

>  <SCORE.INTRA.REPUL>
0

>  <SCORE.INTRA.REPUL.0>
0

>  <SCORE.INTRA.SOLV>
4.68462

>  <SCORE.INTRA.SOLV.lig_0>
-74.884

>  <SCORE.INTRA.VDW>
-0.175957

>  <SCORE.INTRA.VDW.0>
-0.858933

>  <SCORE.INTRA.norm>
0.129139

>  <SCORE.RESTR>
2.23519

>  <SCORE.RESTR.CAVITY>
2.23519

>  <SCORE.RESTR.norm>
0.1016

>  <SCORE.SYSTEM>
0

>  <SCORE.SYSTEM.CONST>
0

>  <SCORE.SYSTEM.DIHEDRAL>
0

>  <SCORE.SYSTEM.SOLV>
0

>  <SCORE.SYSTEM.norm>
0

>  <SCORE.heavy>
22

>  <SCORE.norm>
-0.518727

>  <RMSD>
8.148

$$$$
2et8_lig
 OpenBabel11021811433D
libRbt.so/2013.1/901 2013/11/27
 22 23  0  0  0  0  0  0  0  0999 V2000
   28.2237   14.0535   27.8973 N   0  0  0  0  0  0  0  0  0  0  0  0
   25.2268   15.2837   31.6540 N   0  0  0  0  0  0  0  0  0  0  0  0
   25.0047   16.4918   33.9012 N   0  0  0  0  0  0  0  0  0  0  0  0
   23.5669   15.4297   27.0334 O   0  0  0  0  0  0  0  0  0  0  0  0
   24.7026   15.6543   27.9047 C   0  0  2  0  0  0  0  0  0  0  0  0
   20.3671   16.5185   29.2573 N   0  0  0  0  0  0  0  0  0  0  0  0
   26.2887   14.9888   26.1033 O   0  0  0  0  0  0  0  0  0  0  0  0
   25.8965   14.7275   27.4567 C   0  0  1  0  0  0  0  0  0  0  0  0
   23.2839   16.1330   29.7510 O   0  0  0  0  0  0  0  0  0  0  0  0
   27.1007   14.9497   28.3384 C   0  0  1  0  0  0  0  0  0  0  0  0
   22.9068   15.8620   32.0064 O   0  0  0  0  0  0  0  0  0  0  0  0
   26.7155   14.6586   29.8071 C   0  0  0  0  0  0  0  0  0  0  0  0
   22.2536   19.4034   32.6007 O   0  0  0  0  0  0  0  0  0  0  0  0
   25.5494   15.6119   30.2004 C   0  0  1  0  0  0  0  0  0  0  0  0
   20.1022   18.7763   30.9228 O   0  0  0  0  0  0  0  0  0  0  0  0
   24.3203   15.3043   29.3976 C   0  0  2  0  0  0  0  0  0  0  0  0
   22.2872   15.7025   30.6187 C   0  0  1  0  0  0  0  0  0  0  0  0
   23.2229   17.2827   32.3487 C   0  0  2  0  0  0  0  0  0  0  0  0
   23.8176   17.3795   33.7690 C   0  0  0  0  0  0  0  0  0  0  0  0
   21.9559   18.0832   32.2965 C   0  0  2  0  0  0  0  0  0  0  0  0
   21.3204   18.0180   30.9381 C   0  0  1  0  0  0  0  0  0  0  0  0
   21.0148   16.5956   30.6159 C   0  0  1  0  0  0  0  0  0  0  0  0
  5  4  1  6  0  0  0
  5  8  1  0  0  0  0
  5 16  1  0  0  0  0
  8  7  1  6  0  0  0
  8 10  1  0  0  0  0
 10  1  1  6  0  0  0
 10 12  1  0  0  0  0
 11 18  1  0  0  0  0
 12 14  1  0  0  0  0
 14  2  1  1  0  0  0
 14 16  1  0  0  0  0
 16  9  1  1  0  0  0
 17  9  1  6  0  0  0
 17 11  1  0  0  0  0
 17 22  1  0  0  0  0
 18 19  1  1  0  0  0
 18 20  1  0  0  0  0
 19  3  1  0  0  0  0
 20 13  1  6  0  0  0
 20 21  1  0  0  0  0
 21 15  1  1  0  0  0
 21 22  1  0  0  0  0
 22  6  1  6  0  0  0
M  END
>  <CHROM.1>
146.22570965,80.65757372,55.07538980,23.84292684,16.24494560,30.20724867
-0.77019147,-0.38812824,1.30772144

>  <Name>
2et8_lig

>  <RI>
0

>  <Rbt.Current_Directory>
/home/itssahil/PROJECTS/Mol_Feturizer/New_Systems/rnas/2et8

>  <Rbt.Executable>
rbdock ($Id: //depot/dev/client3/rdock/2013.1/src/exe/rbdock.cxx#4 $)

>  <Rbt.Library>
libRbt.so (2013.1, Build901 2013/11/27)

>  <Rbt.Parameter_File>
/export/apps/rDock/src/rDock_2013.1_src/data/scripts/dock_solv.prm

>  <Rbt.Receptor>
prm/blind_docking_80.prm

>  <SCORE>
-6.55063

>  <SCORE.INTER>
-10.9055

>  <SCORE.INTER.CONST>
1

>  <SCORE.INTER.POLAR>
-0.167867

>  <SCORE.INTER.ROT>
3

>  <SCORE.INTER.SOLV>
20.2064

>  <SCORE.INTER.VDW>
-19.0463

>  <SCORE.INTER.norm>
-0.495706

>  <SCORE.INTRA>
3.24856

>  <SCORE.INTRA.DIHEDRAL>
1.32444

>  <SCORE.INTRA.DIHEDRAL.0>
4.99603

>  <SCORE.INTRA.POLAR>
0

>  <SCORE.INTRA.POLAR.0>
0

>  <SCORE.INTRA.REPUL>
0

>  <SCORE.INTRA.REPUL.0>
0

>  <SCORE.INTRA.SOLV>
4.89356

>  <SCORE.INTRA.SOLV.lig_0>
-74.884

>  <SCORE.INTRA.VDW>
0.139558

>  <SCORE.INTRA.VDW.0>
-0.858933

>  <SCORE.INTRA.norm>
0.147662

>  <SCORE.RESTR>
1.10635

>  <SCORE.RESTR.CAVITY>
1.10635

>  <SCORE.RESTR.norm>
0.0502889

>  <SCORE.SYSTEM>
0

>  <SCORE.SYSTEM.CONST>
0

>  <SCORE.SYSTEM.DIHEDRAL>
0

>  <SCORE.SYSTEM.SOLV>
0

>  <SCORE.SYSTEM.norm>
0

>  <SCORE.heavy>
22

>  <SCORE.norm>
-0.297756

>  <RMSD>
8.159

$$$$
2et8_lig
 OpenBabel11021811433D
libRbt.so/2013.1/901 2013/11/27
 22 23  0  0  0  0  0  0  0  0999 V2000
   28.2160   14.0882   27.7216 N   0  0  0  0  0  0  0  0  0  0  0  0
   25.3273   15.4120   31.5309 N   0  0  0  0  0  0  0  0  0  0  0  0
   23.1228   16.4474   34.7218 N   0  0  0  0  0  0  0  0  0  0  0  0
   23.5266   15.4136   26.9610 O   0  0  0  0  0  0  0  0  0  0  0  0
   24.6868   15.6697   27.7902 C   0  0  2  0  0  0  0  0  0  0  0  0
   20.4265   16.8136   29.3001 N   0  0  0  0  0  0  0  0  0  0  0  0
   26.2215   14.9602   25.9611 O   0  0  0  0  0  0  0  0  0  0  0  0
   25.8723   14.7366   27.3330 C   0  0  1  0  0  0  0  0  0  0  0  0
   23.3221   16.1947   29.6643 O   0  0  0  0  0  0  0  0  0  0  0  0
   27.1014   14.9910   28.1706 C   0  0  1  0  0  0  0  0  0  0  0  0
   22.9907   15.7704   31.9032 O   0  0  0  0  0  0  0  0  0  0  0  0
   26.7630   14.7410   29.6582 C   0  0  0  0  0  0  0  0  0  0  0  0
   22.6026   19.2888   32.7927 O   0  0  0  0  0  0  0  0  0  0  0  0
   25.6035   15.6992   30.0591 C   0  0  1  0  0  0  0  0  0  0  0  0
   20.3664   18.9437   31.1441 O   0  0  0  0  0  0  0  0  0  0  0  0
   24.3524   15.3616   29.3036 C   0  0  2  0  0  0  0  0  0  0  0  0
   22.3226   15.7643   30.5288 C   0  0  1  0  0  0  0  0  0  0  0  0
   23.4144   17.1347   32.3442 C   0  0  2  0  0  0  0  0  0  0  0  0
   24.0541   17.0775   33.7469 C   0  0  0  0  0  0  0  0  0  0  0  0
   22.2052   18.0201   32.3969 C   0  0  2  0  0  0  0  0  0  0  0  0
   21.5288   18.1065   31.0596 C   0  0  1  0  0  0  0  0  0  0  0  0
   21.1159   16.7382   30.6381 C   0  0  1  0  0  0  0  0  0  0  0  0
  5  4  1  6  0  0  0
  5  8  1  0  0  0  0
  5 16  1  0  0  0  0
  8  7  1  6  0  0  0
  8 10  1  0  0  0  0
 10  1  1  6  0  0  0
 10 12  1  0  0  0  0
 11 18  1  0  0  0  0
 12 14  1  0  0  0  0
 14  2  1  1  0  0  0
 14 16  1  0  0  0  0
 16  9  1  1  0  0  0
 17  9  1  6  0  0  0
 17 11  1  0  0  0  0
 17 22  1  0  0  0  0
 18 19  1  1  0  0  0
 18 20  1  0  0  0  0
 19  3  1  0  0  0  0
 20 13  1  6  0  0  0
 20 21  1  0  0  0  0
 21 15  1  1  0  0  0
 21 22  1  0  0  0  0
 22  6  1  6  0  0  0
M  END
>  <CHROM.1>
143.36774734,75.01706563,-55.65484480,23.84499624,16.26483609,30.20485285
-0.82915779,-0.41898584,1.36979086

>  <Name>
2et8_lig

>  <RI>
0

>  <Rbt.Current_Directory>
/home/itssahil/PROJECTS/Mol_Feturizer/New_Systems/rnas/2et8

>  <Rbt.Executable>
rbdock ($Id: //depot/dev/client3/rdock/2013.1/src/exe/rbdock.cxx#4 $)

>  <Rbt.Library>
libRbt.so (2013.1, Build901 2013/11/27)

>  <Rbt.Parameter_File>
/export/apps/rDock/src/rDock_2013.1_src/data/scripts/dock_solv.prm

>  <Rbt.Receptor>
prm/blind_docking_80.prm

>  <SCORE>
-8.37217

>  <SCORE.INTER>
-12.9843

>  <SCORE.INTER.CONST>
1

>  <SCORE.INTER.POLAR>
-0.173597

>  <SCORE.INTER.ROT>
3

>  <SCORE.INTER.SOLV>
17.9304

>  <SCORE.INTER.VDW>
-19.6544

>  <SCORE.INTER.norm>
-0.590197

>  <SCORE.INTRA>
3.41056

>  <SCORE.INTRA.DIHEDRAL>
0.977809

>  <SCORE.INTRA.DIHEDRAL.0>
4.99603

>  <SCORE.INTRA.POLAR>
0

>  <SCORE.INTRA.POLAR.0>
0

>  <SCORE.INTRA.REPUL>
0

>  <SCORE.INTRA.REPUL.0>
0

>  <SCORE.INTRA.SOLV>
4.42387

>  <SCORE.INTRA.SOLV.lig_0>
-74.884

>  <SCORE.INTRA.VDW>
0.709719

>  <SCORE.INTRA.VDW.0>
-0.858933

>  <SCORE.INTRA.norm>
0.155025

>  <SCORE.RESTR>
1.20162

>  <SCORE.RESTR.CAVITY>
1.20162

>  <SCORE.RESTR.norm>
0.054619

>  <SCORE.SYSTEM>
0

>  <SCORE.SYSTEM.CONST>
0

>  <SCORE.SYSTEM.DIHEDRAL>
0

>  <SCORE.SYSTEM.SOLV>
0

>  <SCORE.SYSTEM.norm>
0

>  <SCORE.heavy>
22

>  <SCORE.norm>
-0.380553

>  <RMSD>
8.166

$$$$
2et8_lig
 OpenBabel11021811433D
libRbt.so/2013.1/901 2013/11/27
 22 23  0  0  0  0  0  0  0  0999 V2000
   28.2291   14.0447   27.9003 N   0  0  0  0  0  0  0  0  0  0  0  0
   25.2366   15.2933   31.6544 N   0  0  0  0  0  0  0  0  0  0  0  0
   25.0098   16.4901   33.9117 N   0  0  0  0  0  0  0  0  0  0  0  0
   23.5911   15.4794   27.0302 O   0  0  0  0  0  0  0  0  0  0  0  0
   24.7270   15.6867   27.9055 C   0  0  2  0  0  0  0  0  0  0  0  0
   20.3947   16.5839   29.2618 N   0  0  0  0  0  0  0  0  0  0  0  0
   26.3101   15.0107   26.1053 O   0  0  0  0  0  0  0  0  0  0  0  0
   25.9111   14.7480   27.4565 C   0  0  1  0  0  0  0  0  0  0  0  0
   23.3090   16.1739   29.7501 O   0  0  0  0  0  0  0  0  0  0  0  0
   27.1155   14.9521   28.3424 C   0  0  1  0  0  0  0  0  0  0  0  0
   22.9347   15.9125   32.0071 O   0  0  0  0  0  0  0  0  0  0  0  0
   26.7229   14.6590   29.8087 C   0  0  0  0  0  0  0  0  0  0  0  0
   22.3143   19.4611   32.5930 O   0  0  0  0  0  0  0  0  0  0  0  0
   25.5671   15.6242   30.2032 C   0  0  1  0  0  0  0  0  0  0  0  0
   20.1536   18.8486   30.9216 O   0  0  0  0  0  0  0  0  0  0  0  0
   24.3366   15.3346   29.3957 C   0  0  2  0  0  0  0  0  0  0  0  0
   22.3105   15.7547   30.6212 C   0  0  1  0  0  0  0  0  0  0  0  0
   23.2641   17.3312   32.3447 C   0  0  2  0  0  0  0  0  0  0  0  0
   23.8628   17.4267   33.7634 C   0  0  0  0  0  0  0  0  0  0  0  0
   22.0041   18.1428   32.2931 C   0  0  2  0  0  0  0  0  0  0  0  0
   21.3650   18.0795   30.9363 C   0  0  1  0  0  0  0  0  0  0  0  0
   21.0461   16.6590   30.6187 C   0  0  1  0  0  0  0  0  0  0  0  0
  5  4  1  6  0  0  0
  5  8  1  0  0  0  0
  5 16  1  0  0  0  0
  8  7  1  6  0  0  0
  8 10  1  0  0  0  0
 10  1  1  6  0  0  0
 10 12  1  0  0  0  0
 11 18  1  0  0  0  0
 12 14  1  0  0  0  0
 14  2  1  1  0  0  0
 14 16  1  0  0  0  0
 16  9  1  1  0  0  0
 17  9  1  6  0  0  0
 17 11  1  0  0  0  0
 17 22  1  0  0  0  0
 18 19  1  1  0  0  0
 18 20  1  0  0  0  0
 19  3  1  0  0  0  0
 20 13  1  6  0  0  0
 20 21  1  0  0  0  0
 21 15  1  1  0  0  0
 21 22  1  0  0  0  0
 22  6  1  6  0  0  0
M  END
>  <CHROM.1>
146.72061862,80.71750809,52.88741536,23.86992434,16.28120000,30.20743994
-0.77135019,-0.39998249,1.30937907

>  <Name>
2et8_lig

>  <RI>
0

>  <Rbt.Current_Directory>
/home/itssahil/PROJECTS/Mol_Feturizer/New_Systems/rnas/2et8

>  <Rbt.Executable>
rbdock ($Id: //depot/dev/client3/rdock/2013.1/src/exe/rbdock.cxx#4 $)

>  <Rbt.Library>
libRbt.so (2013.1, Build901 2013/11/27)

>  <Rbt.Parameter_File>
/export/apps/rDock/src/rDock_2013.1_src/data/scripts/dock_solv.prm

>  <Rbt.Receptor>
prm/blind_docking_80.prm

>  <SCORE>
-6.56083

>  <SCORE.INTER>
-10.9491

>  <SCORE.INTER.CONST>
1

>  <SCORE.INTER.POLAR>
-0.130302

>  <SCORE.INTER.ROT>
3

>  <SCORE.INTER.SOLV>
20.3865

>  <SCORE.INTER.VDW>
-19.2605

>  <SCORE.INTER.norm>
-0.497684

>  <SCORE.INTRA>
3.30264

>  <SCORE.INTRA.DIHEDRAL>
1.33854

>  <SCORE.INTRA.DIHEDRAL.0>
4.99603

>  <SCORE.INTRA.POLAR>
0

>  <SCORE.INTRA.POLAR.0>
0

>  <SCORE.INTRA.REPUL>
0

>  <SCORE.INTRA.REPUL.0>
0

>  <SCORE.INTRA.SOLV>
4.9011

>  <SCORE.INTRA.SOLV.lig_0>
-74.884

>  <SCORE.INTRA.VDW>
0.182817

>  <SCORE.INTRA.VDW.0>
-0.858933

>  <SCORE.INTRA.norm>
0.15012

>  <SCORE.RESTR>
1.08559

>  <SCORE.RESTR.CAVITY>
1.08559

>  <SCORE.RESTR.norm>
0.0493448

>  <SCORE.SYSTEM>
0

>  <SCORE.SYSTEM.CONST>
0

>  <SCORE.SYSTEM.DIHEDRAL>
0

>  <SCORE.SYSTEM.SOLV>
0

>  <SCORE.SYSTEM.norm>
0

>  <SCORE.heavy>
22

>  <SCORE.norm>
-0.298219

>  <RMSD>
8.177

$$$$
2et8_lig
 OpenBabel11021811433D
libRbt.so/2013.1/901 2013/11/27
 22 23  0  0  0  0  0  0  0  0999 V2000
   26.6494   14.6745   26.1368 N   0  0  0  0  0  0  0  0  0  0  0  0
   23.2942   17.1169   28.8544 N   0  0  0  0  0  0  0  0  0  0  0  0
   20.3683   18.9261   30.8464 N   0  0  0  0  0  0  0  0  0  0  0  0
   26.8122   14.4954   31.0630 O   0  0  0  0  0  0  0  0  0  0  0  0
   25.9099   14.5740   29.9321 C   0  0  2  0  0  0  0  0  0  0  0  0
   24.5835   16.0621   34.1468 N   0  0  0  0  0  0  0  0  0  0  0  0
   27.5550   13.4128   28.4661 O   0  0  0  0  0  0  0  0  0  0  0  0
   26.7464   14.5889   28.5960 C   0  0  1  0  0  0  0  0  0  0  0  0
   24.3386   15.8472   31.1814 O   0  0  0  0  0  0  0  0  0  0  0  0
   25.8317   14.6561   27.3978 C   0  0  1  0  0  0  0  0  0  0  0  0
   22.9087   17.6514   31.1288 O   0  0  0  0  0  0  0  0  0  0  0  0
   24.9556   15.9259   27.4981 C   0  0  0  0  0  0  0  0  0  0  0  0
   20.0801   15.7971   32.5007 O   0  0  0  0  0  0  0  0  0  0  0  0
   24.1402   15.8488   28.8219 C   0  0  1  0  0  0  0  0  0  0  0  0
   21.8393   15.7009   34.6764 O   0  0  0  0  0  0  0  0  0  0  0  0
   25.0540   15.9001   30.0104 C   0  0  2  0  0  0  0  0  0  0  0  0
   24.0567   17.0024   31.9008 C   0  0  1  0  0  0  0  0  0  0  0  0
   21.6686   16.8164   31.1086 C   0  0  2  0  0  0  0  0  0  0  0  0
   20.5413   17.5373   30.3406 C   0  0  0  0  0  0  0  0  0  0  0  0
   21.2227   16.5835   32.5212 C   0  0  2  0  0  0  0  0  0  0  0  0
   22.2855   15.8937   33.3263 C   0  0  1  0  0  0  0  0  0  0  0  0
   23.5117   16.7404   33.3329 C   0  0  1  0  0  0  0  0  0  0  0  0
  5  4  1  1  0  0  0
  5  8  1  0  0  0  0
  5 16  1  0  0  0  0
  8  7  1  6  0  0  0
  8 10  1  0  0  0  0
 10  1  1  6  0  0  0
 10 12  1  0  0  0  0
 11 18  1  0  0  0  0
 12 14  1  0  0  0  0
 14  2  1  1  0  0  0
 14 16  1  0  0  0  0
 16  9  1  1  0  0  0
 17  9  1  6  0  0  0
 17 11  1  0  0  0  0
 17 22  1  0  0  0  0
 18 19  1  6  0  0  0
 18 20  1  0  0  0  0
 19  3  1  0  0  0  0
 20 13  1  6  0  0  0
 20 21  1  0  0  0  0
 21 15  1  1  0  0  0
 21 22  1  0  0  0  0
 22  6  1  1  0  0  0
M  END
>  <CHROM.1>
146.36876383,77.39563466,-50.85370793,23.83086078,15.97345606,30.65807777
0.63589089,0.51003107,-1.43746327

>  <Name>
2et8_lig

>  <RI>
0

>  <Rbt.Current_Directory>
/home/itssahil/PROJECTS/Mol_Feturizer/New_Systems/rnas/2et8

>  <Rbt.Executable>
rbdock ($Id: //depot/dev/client3/rdock/2013.1/src/exe/rbdock.cxx#4 $)

>  <Rbt.Library>
libRbt.so (2013.1, Build901 2013/11/27)

>  <Rbt.Parameter_File>
/export/apps/rDock/src/rDock_2013.1_src/data/scripts/dock_solv.prm

>  <Rbt.Receptor>
prm/blind_docking_100.prm

>  <SCORE>
-11.4869

>  <SCORE.INTER>
-17.3528

>  <SCORE.INTER.CONST>
1

>  <SCORE.INTER.POLAR>
-1.09545

>  <SCORE.INTER.ROT>
3

>  <SCORE.INTER.SOLV>
20.5239

>  <SCORE.INTER.VDW>
-20.3583

>  <SCORE.INTER.norm>
-0.788762

>  <SCORE.INTRA>
3.18787

>  <SCORE.INTRA.DIHEDRAL>
1.0077

>  <SCORE.INTRA.DIHEDRAL.0>
4.99603

>  <SCORE.INTRA.POLAR>
0

>  <SCORE.INTRA.POLAR.0>
0

>  <SCORE.INTRA.REPUL>
0

>  <SCORE.INTRA.REPUL.0>
0

>  <SCORE.INTRA.SOLV>
4.29058

>  <SCORE.INTRA.SOLV.lig_0>
-74.884

>  <SCORE.INTRA.VDW>
0.538733

>  <SCORE.INTRA.VDW.0>
-0.858933

>  <SCORE.INTRA.norm>
0.144903

>  <SCORE.RESTR>
2.67801

>  <SCORE.RESTR.CAVITY>
2.67801

>  <SCORE.RESTR.norm>
0.121728

>  <SCORE.SYSTEM>
0

>  <SCORE.SYSTEM.CONST>
0

>  <SCORE.SYSTEM.DIHEDRAL>
0

>  <SCORE.SYSTEM.SOLV>
0

>  <SCORE.SYSTEM.norm>
0

>  <SCORE.heavy>
22

>  <SCORE.norm>
-0.522131

>  <RMSD>
8.218

$$$$
2et8_lig
 OpenBabel11021811433D
libRbt.so/2013.1/901 2013/11/27
 22 23  0  0  0  0  0  0  0  0999 V2000
   27.7422   13.6018   27.4485 N   0  0  0  0  0  0  0  0  0  0  0  0
   25.4391   16.0457   31.0996 N   0  0  0  0  0  0  0  0  0  0  0  0
   24.5540   17.0070   34.2897 N   0  0  0  0  0  0  0  0  0  0  0  0
   22.9107   14.5510   27.1627 O   0  0  0  0  0  0  0  0  0  0  0  0
   24.1715   15.0756   27.6469 C   0  0  2  0  0  0  0  0  0  0  0  0
   20.4213   17.4258   29.1485 N   0  0  0  0  0  0  0  0  0  0  0  0
   25.4278   13.8341   25.8906 O   0  0  0  0  0  0  0  0  0  0  0  0
   25.3271   14.0602   27.3022 C   0  0  1  0  0  0  0  0  0  0  0  0
   23.1028   16.1592   29.4729 O   0  0  0  0  0  0  0  0  0  0  0  0
   26.6571   14.5868   27.7824 C   0  0  1  0  0  0  0  0  0  0  0  0
   22.5142   15.3509   31.5472 O   0  0  0  0  0  0  0  0  0  0  0  0
   26.5880   14.8253   29.3083 C   0  0  0  0  0  0  0  0  0  0  0  0
   22.7435   18.6057   33.1827 O   0  0  0  0  0  0  0  0  0  0  0  0
   25.4470   15.8467   29.5879 C   0  0  1  0  0  0  0  0  0  0  0  0
   20.6247   19.0854   31.4169 O   0  0  0  0  0  0  0  0  0  0  0  0
   24.1147   15.2675   29.2144 C   0  0  2  0  0  0  0  0  0  0  0  0
   21.9719   15.7726   30.1821 C   0  0  1  0  0  0  0  0  0  0  0  0
   23.1567   16.4741   32.2962 C   0  0  2  0  0  0  0  0  0  0  0  0
   23.6567   15.9920   33.6738 C   0  0  0  0  0  0  0  0  0  0  0  0
   22.1416   17.5590   32.4999 C   0  0  2  0  0  0  0  0  0  0  0  0
   21.6059   18.0629   31.1913 C   0  0  1  0  0  0  0  0  0  0  0  0
   20.9717   16.9296   30.4607 C   0  0  1  0  0  0  0  0  0  0  0  0
  5  4  1  1  0  0  0
  5  8  1  0  0  0  0
  5 16  1  0  0  0  0
  8  7  1  6  0  0  0
  8 10  1  0  0  0  0
 10  1  1  1  0  0  0
 10 12  1  0  0  0  0
 11 18  1  0  0  0  0
 12 14  1  0  0  0  0
 14  2  1  1  0  0  0
 14 16  1  0  0  0  0
 16  9  1  6  0  0  0
 17  9  1  6  0  0  0
 17 11  1  0  0  0  0
 17 22  1  0  0  0  0
 18 19  1  1  0  0  0
 18 20  1  0  0  0  0
 19  3  1  0  0  0  0
 20 13  1  6  0  0  0
 20 21  1  0  0  0  0
 21 15  1  1  0  0  0
 21 22  1  0  0  0  0
 22  6  1  6  0  0  0
M  END
>  <CHROM.1>
115.37263984,61.38448319,167.37429353,23.66846656,16.01664977,30.07902249
-0.95862869,-0.39579196,1.22860927

>  <Name>
2et8_lig

>  <RI>
0

>  <Rbt.Current_Directory>
/home/itssahil/PROJECTS/Mol_Feturizer/New_Systems/rnas/2et8

>  <Rbt.Executable>
rbdock ($Id: //depot/dev/client3/rdock/2013.1/src/exe/rbdock.cxx#4 $)

>  <Rbt.Library>
libRbt.so (2013.1, Build901 2013/11/27)

>  <Rbt.Parameter_File>
/export/apps/rDock/src/rDock_2013.1_src/data/scripts/dock_solv.prm

>  <Rbt.Receptor>
prm/blind_docking_100.prm

>  <SCORE>
-7.72219

>  <SCORE.INTER>
-12.7192

>  <SCORE.INTER.CONST>
1

>  <SCORE.INTER.POLAR>
-0.373446

>  <SCORE.INTER.ROT>
3

>  <SCORE.INTER.SOLV>
19.713

>  <SCORE.INTER.VDW>
-19.4057

>  <SCORE.INTER.norm>
-0.578146

>  <SCORE.INTRA>
3.53705

>  <SCORE.INTRA.DIHEDRAL>
2.64035

>  <SCORE.INTRA.DIHEDRAL.0>
4.99603

>  <SCORE.INTRA.POLAR>
0

>  <SCORE.INTRA.POLAR.0>
0

>  <SCORE.INTRA.REPUL>
0

>  <SCORE.INTRA.REPUL.0>
0

>  <SCORE.INTRA.SOLV>
4.30295

>  <SCORE.INTRA.SOLV.lig_0>
-74.884

>  <SCORE.INTRA.VDW>
0.0653964

>  <SCORE.INTRA.VDW.0>
-0.858933

>  <SCORE.INTRA.norm>
0.160775

>  <SCORE.RESTR>
1.45998

>  <SCORE.RESTR.CAVITY>
1.45998

>  <SCORE.RESTR.norm>
0.0663628

>  <SCORE.SYSTEM>
0

>  <SCORE.SYSTEM.CONST>
0

>  <SCORE.SYSTEM.DIHEDRAL>
0

>  <SCORE.SYSTEM.SOLV>
0

>  <SCORE.SYSTEM.norm>
0

>  <SCORE.heavy>
22

>  <SCORE.norm>
-0.351008

>  <RMSD>
8.222

$$$$
2et8_lig
 OpenBabel11021811433D
libRbt.so/2013.1/901 2013/11/27
 22 23  0  0  0  0  0  0  0  0999 V2000
   27.0040   14.3048   26.1330 N   0  0  0  0  0  0  0  0  0  0  0  0
   23.5476   17.0047   28.4506 N   0  0  0  0  0  0  0  0  0  0  0  0
   20.2207   15.5336   29.0494 N   0  0  0  0  0  0  0  0  0  0  0  0
   26.7879   14.3932   31.0597 O   0  0  0  0  0  0  0  0  0  0  0  0
   25.9771   14.4393   29.8597 C   0  0  2  0  0  0  0  0  0  0  0  0
   24.8504   16.9927   33.6198 N   0  0  0  0  0  0  0  0  0  0  0  0
   27.6832   13.1443   28.5885 O   0  0  0  0  0  0  0  0  0  0  0  0
   26.9119   14.3522   28.5935 C   0  0  1  0  0  0  0  0  0  0  0  0
   24.3650   15.8315   30.9150 O   0  0  0  0  0  0  0  0  0  0  0  0
   26.0934   14.3836   27.3262 C   0  0  1  0  0  0  0  0  0  0  0  0
   22.4353   17.0671   30.6871 O   0  0  0  0  0  0  0  0  0  0  0  0
   25.2607   15.6856   27.2915 C   0  0  0  0  0  0  0  0  0  0  0  0
   20.5186   15.0105   33.0147 O   0  0  0  0  0  0  0  0  0  0  0  0
   24.3454   15.7092   28.5505 C   0  0  1  0  0  0  0  0  0  0  0  0
   22.4422   16.0665   34.7530 O   0  0  0  0  0  0  0  0  0  0  0  0
   25.1682   15.7956   29.8017 C   0  0  2  0  0  0  0  0  0  0  0  0
   23.8079   17.0254   31.3575 C   0  0  1  0  0  0  0  0  0  0  0  0
   21.5341   15.9572   31.1245 C   0  0  2  0  0  0  0  0  0  0  0  0
   20.1584   16.0714   30.4357 C   0  0  0  0  0  0  0  0  0  0  0  0
   21.3436   16.0492   32.6091 C   0  0  2  0  0  0  0  0  0  0  0  0
   22.6527   15.9568   33.3379 C   0  0  1  0  0  0  0  0  0  0  0  0
   23.5356   17.0695   32.8873 C   0  0  1  0  0  0  0  0  0  0  0  0
  5  4  1  1  0  0  0
  5  8  1  0  0  0  0
  5 16  1  0  0  0  0
  8  7  1  1  0  0  0
  8 10  1  0  0  0  0
 10  1  1  6  0  0  0
 10 12  1  0  0  0  0
 11 18  1  0  0  0  0
 12 14  1  0  0  0  0
 14  2  1  6  0  0  0
 14 16  1  0  0  0  0
 16  9  1  1  0  0  0
 17  9  1  1  0  0  0
 17 11  1  0  0  0  0
 17 22  1  0  0  0  0
 18 19  1  6  0  0  0
 18 20  1  0  0  0  0
 19  3  1  0  0  0  0
 20 13  1  1  0  0  0
 20 21  1  0  0  0  0
 21 15  1  1  0  0  0
 21 22  1  0  0  0  0
 22  6  1  1  0  0  0
M  END
>  <CHROM.1>
162.15654630,93.09161024,79.92260458,23.93573715,15.61334572,30.46686815
0.77051474,0.23683066,-1.68525834

>  <Name>
2et8_lig

>  <RI>
0

>  <Rbt.Current_Directory>
/home/itssahil/PROJECTS/Mol_Feturizer/New_Systems/rnas/2et8

>  <Rbt.Executable>
rbdock ($Id: //depot/dev/client3/rdock/2013.1/src/exe/rbdock.cxx#4 $)

>  <Rbt.Library>
libRbt.so (2013.1, Build901 2013/11/27)

>  <Rbt.Parameter_File>
/export/apps/rDock/src/rDock_2013.1_src/data/scripts/dock_solv.prm

>  <Rbt.Receptor>
prm/blind_docking_100.prm

>  <SCORE>
-9.79976

>  <SCORE.INTER>
-14.4065

>  <SCORE.INTER.CONST>
1

>  <SCORE.INTER.POLAR>
-1.09545

>  <SCORE.INTER.ROT>
3

>  <SCORE.INTER.SOLV>
20.0187

>  <SCORE.INTER.VDW>
-18.2258

>  <SCORE.INTER.norm>
-0.654842

>  <SCORE.INTRA>
1.76273

>  <SCORE.INTRA.DIHEDRAL>
2.0105

>  <SCORE.INTRA.DIHEDRAL.0>
4.99603

>  <SCORE.INTRA.POLAR>
0

>  <SCORE.INTRA.POLAR.0>
0

>  <SCORE.INTRA.REPUL>
0

>  <SCORE.INTRA.REPUL.0>
0

>  <SCORE.INTRA.SOLV>
2.49867

>  <SCORE.INTRA.SOLV.lig_0>
-74.884

>  <SCORE.INTRA.VDW>
-0.491855

>  <SCORE.INTRA.VDW.0>
-0.858933

>  <SCORE.INTRA.norm>
0.0801241

>  <SCORE.RESTR>
2.84403

>  <SCORE.RESTR.CAVITY>
2.84403

>  <SCORE.RESTR.norm>
0.129274

>  <SCORE.SYSTEM>
0

>  <SCORE.SYSTEM.CONST>
0

>  <SCORE.SYSTEM.DIHEDRAL>
0

>  <SCORE.SYSTEM.SOLV>
0

>  <SCORE.SYSTEM.norm>
0

>  <SCORE.heavy>
22

>  <SCORE.norm>
-0.445443

>  <RMSD>
8.249

$$$$
2et8_lig
 OpenBabel11021811433D
libRbt.so/2013.1/901 2013/11/27
 22 23  0  0  0  0  0  0  0  0999 V2000
   27.6316   13.3555   27.4897 N   0  0  0  0  0  0  0  0  0  0  0  0
   25.4974   16.0408   31.0733 N   0  0  0  0  0  0  0  0  0  0  0  0
   24.7573   16.9266   34.2339 N   0  0  0  0  0  0  0  0  0  0  0  0
   22.8520   14.5416   27.2158 O   0  0  0  0  0  0  0  0  0  0  0  0
   24.1434   15.0172   27.6692 C   0  0  2  0  0  0  0  0  0  0  0  0
   20.5616   17.6661   29.1626 N   0  0  0  0  0  0  0  0  0  0  0  0
   25.3148   13.6521   25.9463 O   0  0  0  0  0  0  0  0  0  0  0  0
   25.2416   13.9322   27.3499 C   0  0  1  0  0  0  0  0  0  0  0  0
   23.1519   16.2175   29.4655 O   0  0  0  0  0  0  0  0  0  0  0  0
   26.6021   14.4060   27.7986 C   0  0  1  0  0  0  0  0  0  0  0  0
   22.5269   15.4532   31.5458 O   0  0  0  0  0  0  0  0  0  0  0  0
   26.5623   14.7010   29.3157 C   0  0  0  0  0  0  0  0  0  0  0  0
   22.9946   18.6854   33.1752 O   0  0  0  0  0  0  0  0  0  0  0  0
   25.4782   15.7889   29.5696 C   0  0  1  0  0  0  0  0  0  0  0  0
   20.8988   19.3092   31.4271 O   0  0  0  0  0  0  0  0  0  0  0  0
   24.1140   15.2664   29.2294 C   0  0  2  0  0  0  0  0  0  0  0  0
   22.0032   15.9104   30.1850 C   0  0  1  0  0  0  0  0  0  0  0  0
   23.2519   16.5298   32.2879 C   0  0  2  0  0  0  0  0  0  0  0  0
   23.7294   16.0152   33.6617 C   0  0  0  0  0  0  0  0  0  0  0  0
   22.3160   17.6823   32.4990 C   0  0  2  0  0  0  0  0  0  0  0  0
   21.8051   18.2212   31.1943 C   0  0  1  0  0  0  0  0  0  0  0  0
   21.0878   17.1339   30.4707 C   0  0  1  0  0  0  0  0  0  0  0  0
  5  4  1  1  0  0  0
  5  8  1  0  0  0  0
  5 16  1  0  0  0  0
  8  7  1  6  0  0  0
  8 10  1  0  0  0  0
 10  1  1  1  0  0  0
 10 12  1  0  0  0  0
 11 18  1  0  0  0  0
 12 14  1  0  0  0  0
 14  2  1  1  0  0  0
 14 16  1  0  0  0  0
 16  9  1  6  0  0  0
 17  9  1  6  0  0  0
 17 11  1  0  0  0  0
 17 22  1  0  0  0  0
 18 19  1  1  0  0  0
 18 20  1  0  0  0  0
 19  3  1  0  0  0  0
 20 13  1  6  0  0  0
 20 21  1  0  0  0  0
 21 15  1  1  0  0  0
 21 22  1  0  0  0  0
 22  6  1  6  0  0  0
M  END
>  <CHROM.1>
114.59533497,59.67308394,164.16818628,23.72522760,16.03263993,30.08664574
-0.98572251,-0.44898642,1.20074521

>  <Name>
2et8_lig

>  <RI>
224

>  <Rbt.Current_Directory>
/home/itssahil/PROJECTS/Mol_Feturizer/New_Systems/rnas/2et8

>  <Rbt.Executable>
rbdock ($Id: //depot/dev/client3/rdock/2013.1/src/exe/rbdock.cxx#4 $)

>  <Rbt.Library>
libRbt.so (2013.1, Build901 2013/11/27)

>  <Rbt.Parameter_File>
/export/apps/rDock/src/rDock_2013.1_src/data/scripts/dock_solv.prm

>  <Rbt.Receptor>
prm/blind_docking_60.prm

>  <SCORE>
-7.71725

>  <SCORE.INTER>
-13.0527

>  <SCORE.INTER.CONST>
1

>  <SCORE.INTER.POLAR>
-0.367261

>  <SCORE.INTER.ROT>
3

>  <SCORE.INTER.SOLV>
21.7112

>  <SCORE.INTER.VDW>
-20.3146

>  <SCORE.INTER.norm>
-0.593303

>  <SCORE.INTRA>
3.72307

>  <SCORE.INTRA.DIHEDRAL>
2.89431

>  <SCORE.INTRA.DIHEDRAL.0>
4.99603

>  <SCORE.INTRA.POLAR>
0

>  <SCORE.INTRA.POLAR.0>
0

>  <SCORE.INTRA.REPUL>
0

>  <SCORE.INTRA.REPUL.0>
0

>  <SCORE.INTRA.SOLV>
4.36225

>  <SCORE.INTRA.SOLV.lig_0>
-74.884

>  <SCORE.INTRA.VDW>
0.0947919

>  <SCORE.INTRA.VDW.0>
-0.858933

>  <SCORE.INTRA.norm>
0.16923

>  <SCORE.RESTR>
1.61235

>  <SCORE.RESTR.CAVITY>
1.61235

>  <SCORE.RESTR.norm>
0.0732885

>  <SCORE.SYSTEM>
0

>  <SCORE.SYSTEM.CONST>
0

>  <SCORE.SYSTEM.DIHEDRAL>
0

>  <SCORE.SYSTEM.SOLV>
0

>  <SCORE.SYSTEM.norm>
0

>  <SCORE.heavy>
22

>  <SCORE.norm>
-0.350784

>  <RMSD>
8.270

$$$$
2et8_lig
 OpenBabel11021811433D
libRbt.so/2013.1/901 2013/11/27
 22 23  0  0  0  0  0  0  0  0999 V2000
   27.6348   13.3465   27.4858 N   0  0  0  0  0  0  0  0  0  0  0  0
   25.5087   16.0502   31.0603 N   0  0  0  0  0  0  0  0  0  0  0  0
   24.7792   16.8943   34.2174 N   0  0  0  0  0  0  0  0  0  0  0  0
   22.8529   14.5250   27.2202 O   0  0  0  0  0  0  0  0  0  0  0  0
   24.1451   15.0048   27.6667 C   0  0  2  0  0  0  0  0  0  0  0  0
   20.5704   17.6679   29.1551 N   0  0  0  0  0  0  0  0  0  0  0  0
   25.3127   13.6311   25.9481 O   0  0  0  0  0  0  0  0  0  0  0  0
   25.2436   13.9194   27.3503 C   0  0  1  0  0  0  0  0  0  0  0  0
   23.1579   16.2145   29.4591 O   0  0  0  0  0  0  0  0  0  0  0  0
   26.6050   14.3976   27.7918 C   0  0  1  0  0  0  0  0  0  0  0  0
   22.5283   15.4469   31.5368 O   0  0  0  0  0  0  0  0  0  0  0  0
   26.5697   14.7014   29.3072 C   0  0  0  0  0  0  0  0  0  0  0  0
   22.9988   18.6750   33.1737 O   0  0  0  0  0  0  0  0  0  0  0  0
   25.4850   15.7894   29.5582 C   0  0  1  0  0  0  0  0  0  0  0  0
   20.9067   19.3057   31.4236 O   0  0  0  0  0  0  0  0  0  0  0  0
   24.1204   15.2632   29.2255 C   0  0  2  0  0  0  0  0  0  0  0  0
   22.0075   15.9077   30.1761 C   0  0  1  0  0  0  0  0  0  0  0  0
   23.2539   16.5208   32.2823 C   0  0  2  0  0  0  0  0  0  0  0  0
   23.7284   16.0025   33.6558 C   0  0  0  0  0  0  0  0  0  0  0  0
   22.3196   17.6744   32.4943 C   0  0  2  0  0  0  0  0  0  0  0  0
   21.8116   18.2168   31.1900 C   0  0  1  0  0  0  0  0  0  0  0  0
   21.0937   17.1321   30.4629 C   0  0  1  0  0  0  0  0  0  0  0  0
  5  4  1  1  0  0  0
  5  8  1  0  0  0  0
  5 16  1  0  0  0  0
  8  7  1  6  0  0  0
  8 10  1  0  0  0  0
 10  1  1  1  0  0  0
 10 12  1  0  0  0  0
 11 18  1  0  0  0  0
 12 14  1  0  0  0  0
 14  2  1  1  0  0  0
 14 16  1  0  0  0  0
 16  9  1  6  0  0  0
 17  9  1  6  0  0  0
 17 11  1  0  0  0  0
 17 22  1  0  0  0  0
 18 19  1  1  0  0  0
 18 20  1  0  0  0  0
 19  3  1  0  0  0  0
 20 13  1  6  0  0  0
 20 21  1  0  0  0  0
 21 15  1  1  0  0  0
 21 22  1  0  0  0  0
 22  6  1  6  0  0  0
M  END
>  <CHROM.1>
114.14658268,59.50204915,162.88645275,23.73025521,16.02498499,30.08110028
-0.98526234,-0.44917043,1.19981551

>  <Name>
2et8_lig

>  <RI>
224

>  <Rbt.Current_Directory>
/home/itssahil/PROJECTS/Mol_Feturizer/New_Systems/rnas/2et8

>  <Rbt.Executable>
rbdock ($Id: //depot/dev/client3/rdock/2013.1/src/exe/rbdock.cxx#4 $)

>  <Rbt.Library>
libRbt.so (2013.1, Build901 2013/11/27)

>  <Rbt.Parameter_File>
/export/apps/rDock/src/rDock_2013.1_src/data/scripts/dock_solv.prm

>  <Rbt.Receptor>
prm/blind_docking_60.prm

>  <SCORE>
-7.60763

>  <SCORE.INTER>
-12.8675

>  <SCORE.INTER.CONST>
1

>  <SCORE.INTER.POLAR>
-0.366418

>  <SCORE.INTER.ROT>
3

>  <SCORE.INTER.SOLV>
21.8877

>  <SCORE.INTER.VDW>
-20.2529

>  <SCORE.INTER.norm>
-0.584887

>  <SCORE.INTRA>
3.67348

>  <SCORE.INTRA.DIHEDRAL>
3.0055

>  <SCORE.INTRA.DIHEDRAL.0>
4.99603

>  <SCORE.INTRA.POLAR>
0

>  <SCORE.INTRA.POLAR.0>
0

>  <SCORE.INTRA.REPUL>
0

>  <SCORE.INTRA.REPUL.0>
0

>  <SCORE.INTRA.SOLV>
4.33027

>  <SCORE.INTRA.SOLV.lig_0>
-74.884

>  <SCORE.INTRA.VDW>
0.00559239

>  <SCORE.INTRA.VDW.0>
-0.858933

>  <SCORE.INTRA.norm>
0.166976

>  <SCORE.RESTR>
1.58641

>  <SCORE.RESTR.CAVITY>
1.58641

>  <SCORE.RESTR.norm>
0.0721094

>  <SCORE.SYSTEM>
0

>  <SCORE.SYSTEM.CONST>
0

>  <SCORE.SYSTEM.DIHEDRAL>
0

>  <SCORE.SYSTEM.SOLV>
0

>  <SCORE.SYSTEM.norm>
0

>  <SCORE.heavy>
22

>  <SCORE.norm>
-0.345801

>  <RMSD>
8.274

$$$$
2et8_lig
 OpenBabel11021811433D
libRbt.so/2013.1/901 2013/11/27
 22 23  0  0  0  0  0  0  0  0999 V2000
   28.3363   14.2085   27.7450 N   0  0  0  0  0  0  0  0  0  0  0  0
   25.2513   15.1729   31.5079 N   0  0  0  0  0  0  0  0  0  0  0  0
   23.0014   17.0232   34.5509 N   0  0  0  0  0  0  0  0  0  0  0  0
   23.6363   15.4255   26.8761 O   0  0  0  0  0  0  0  0  0  0  0  0
   24.7524   15.6631   27.7690 C   0  0  2  0  0  0  0  0  0  0  0  0
   20.3426   16.0117   29.1895 N   0  0  0  0  0  0  0  0  0  0  0  0
   26.3838   15.1313   25.9635 O   0  0  0  0  0  0  0  0  0  0  0  0
   25.9882   14.8033   27.3014 C   0  0  1  0  0  0  0  0  0  0  0  0
   23.2955   16.0136   29.6143 O   0  0  0  0  0  0  0  0  0  0  0  0
   27.1727   15.0409   28.2054 C   0  0  1  0  0  0  0  0  0  0  0  0
   23.0073   15.9233   31.8971 O   0  0  0  0  0  0  0  0  0  0  0  0
   26.7841   14.6791   29.6574 C   0  0  0  0  0  0  0  0  0  0  0  0
   21.9566   19.4074   32.1769 O   0  0  0  0  0  0  0  0  0  0  0  0
   25.5757   15.5687   30.0716 C   0  0  1  0  0  0  0  0  0  0  0  0
   19.8542   18.3763   30.6426 O   0  0  0  0  0  0  0  0  0  0  0  0
   24.3689   15.2417   29.2429 C   0  0  2  0  0  0  0  0  0  0  0  0
   22.3775   15.5587   30.5534 C   0  0  1  0  0  0  0  0  0  0  0  0
   23.1622   17.3975   32.0923 C   0  0  2  0  0  0  0  0  0  0  0  0
   23.7754   17.7005   33.4752 C   0  0  0  0  0  0  0  0  0  0  0  0
   21.8090   18.0383   32.0095 C   0  0  2  0  0  0  0  0  0  0  0  0
   21.1531   17.7680   30.6865 C   0  0  1  0  0  0  0  0  0  0  0  0
   21.0092   16.2953   30.5111 C   0  0  1  0  0  0  0  0  0  0  0  0
  5  4  1  6  0  0  0
  5  8  1  0  0  0  0
  5 16  1  0  0  0  0
  8  7  1  6  0  0  0
  8 10  1  0  0  0  0
 10  1  1  6  0  0  0
 10 12  1  0  0  0  0
 11 18  1  0  0  0  0
 12 14  1  0  0  0  0
 14  2  1  1  0  0  0
 14 16  1  0  0  0  0
 16  9  1  1  0  0  0
 17  9  1  6  0  0  0
 17 11  1  0  0  0  0
 17 22  1  0  0  0  0
 18 19  1  1  0  0  0
 18 20  1  0  0  0  0
 19  3  1  0  0  0  0
 20 13  1  6  0  0  0
 20 21  1  0  0  0  0
 21 15  1  1  0  0  0
 21 22  1  0  0  0  0
 22  6  1  6  0  0  0
M  END
>  <CHROM.1>
152.53409474,84.76718678,-52.61189891,23.74485760,16.22395324,30.06551435
-0.76979043,-0.33603051,1.31605192

>  <Name>
2et8_lig

>  <RI>
0

>  <Rbt.Current_Directory>
/home/itssahil/PROJECTS/Mol_Feturizer/New_Systems/rnas/2et8

>  <Rbt.Executable>
rbdock ($Id: //depot/dev/client3/rdock/2013.1/src/exe/rbdock.cxx#4 $)

>  <Rbt.Library>
libRbt.so (2013.1, Build901 2013/11/27)

>  <Rbt.Parameter_File>
/export/apps/rDock/src/rDock_2013.1_src/data/scripts/dock_solv.prm

>  <Rbt.Receptor>
prm/blind_docking_80.prm

>  <SCORE>
-8.13333

>  <SCORE.INTER>
-11.9373

>  <SCORE.INTER.CONST>
1

>  <SCORE.INTER.POLAR>
-0.095478

>  <SCORE.INTER.ROT>
3

>  <SCORE.INTER.SOLV>
16.9514

>  <SCORE.INTER.VDW>
-18.8904

>  <SCORE.INTER.norm>
-0.542605

>  <SCORE.INTRA>
2.29375

>  <SCORE.INTRA.DIHEDRAL>
0.988328

>  <SCORE.INTRA.DIHEDRAL.0>
4.99603

>  <SCORE.INTRA.POLAR>
0

>  <SCORE.INTRA.POLAR.0>
0

>  <SCORE.INTRA.REPUL>
0

>  <SCORE.INTRA.REPUL.0>
0

>  <SCORE.INTRA.SOLV>
3.62519

>  <SCORE.INTRA.SOLV.lig_0>
-74.884

>  <SCORE.INTRA.VDW>
-0.0130128

>  <SCORE.INTRA.VDW.0>
-0.858933

>  <SCORE.INTRA.norm>
0.104261

>  <SCORE.RESTR>
1.51022

>  <SCORE.RESTR.CAVITY>
1.51022

>  <SCORE.RESTR.norm>
0.0686466

>  <SCORE.SYSTEM>
0

>  <SCORE.SYSTEM.CONST>
0

>  <SCORE.SYSTEM.DIHEDRAL>
0

>  <SCORE.SYSTEM.SOLV>
0

>  <SCORE.SYSTEM.norm>
0

>  <SCORE.heavy>
22

>  <SCORE.norm>
-0.369697

>  <RMSD>
8.282

$$$$
2et8_lig
 OpenBabel11021811433D
libRbt.so/2013.1/901 2013/11/27
 22 23  0  0  0  0  0  0  0  0999 V2000
   27.6227   14.9886   30.1274 N   0  0  0  0  0  0  0  0  0  0  0  0
   23.3590   15.9908   32.4564 N   0  0  0  0  0  0  0  0  0  0  0  0
   18.9784   18.5505   32.9848 N   0  0  0  0  0  0  0  0  0  0  0  0
   23.3418   14.8335   27.6828 O   0  0  0  0  0  0  0  0  0  0  0  0
   24.0491   15.5188   28.7456 C   0  0  2  0  0  0  0  0  0  0  0  0
   19.8433   14.1927   28.8523 N   0  0  0  0  0  0  0  0  0  0  0  0
   26.2465   15.0085   27.6895 O   0  0  0  0  0  0  0  0  0  0  0  0
   25.4891   14.8966   28.9011 C   0  0  1  0  0  0  0  0  0  0  0  0
   22.0297   15.9077   29.9377 O   0  0  0  0  0  0  0  0  0  0  0  0
   26.2566   15.6006   29.9930 C   0  0  1  0  0  0  0  0  0  0  0  0
   20.6689   16.6279   31.6500 O   0  0  0  0  0  0  0  0  0  0  0  0
   25.4735   15.4833   31.3208 C   0  0  0  0  0  0  0  0  0  0  0  0
   18.6650   18.8013   29.5095 O   0  0  0  0  0  0  0  0  0  0  0  0
   24.0718   16.1285   31.1155 C   0  0  1  0  0  0  0  0  0  0  0  0
   18.0282   16.3039   28.4166 O   0  0  0  0  0  0  0  0  0  0  0  0
   23.2730   15.3511   30.1118 C   0  0  2  0  0  0  0  0  0  0  0  0
   20.9406   15.4748   30.6848 C   0  0  1  0  0  0  0  0  0  0  0  0
   20.2697   17.8915   30.9578 C   0  0  2  0  0  0  0  0  0  0  0  0
   19.9825   19.0060   31.9853 C   0  0  0  0  0  0  0  0  0  0  0  0
   19.0256   17.6316   30.1619 C   0  0  2  0  0  0  0  0  0  0  0  0
   19.2383   16.5439   29.1494 C   0  0  1  0  0  0  0  0  0  0  0  0
   19.6361   15.2952   29.8586 C   0  0  1  0  0  0  0  0  0  0  0  0
  5  4  1  6  0  0  0
  5  8  1  0  0  0  0
  5 16  1  0  0  0  0
  8  7  1  6  0  0  0
  8 10  1  0  0  0  0
 10  1  1  1  0  0  0
 10 12  1  0  0  0  0
 11 18  1  0  0  0  0
 12 14  1  0  0  0  0
 14  2  1  1  0  0  0
 14 16  1  0  0  0  0
 16  9  1  6  0  0  0
 17  9  1  6  0  0  0
 17 11  1  0  0  0  0
 17 22  1  0  0  0  0
 18 19  1  1  0  0  0
 18 20  1  0  0  0  0
 19  3  1  0  0  0  0
 20 13  1  6  0  0  0
 20 21  1  0  0  0  0
 21 15  1  1  0  0  0
 21 22  1  0  0  0  0
 22  6  1  6  0  0  0
M  END
>  <CHROM.1>
153.27824880,108.31145461,-54.13625666,22.08590955,16.19044267,30.07188865
-0.27841316,-0.21724990,1.04123503

>  <Name>
2et8_lig

>  <RI>
2.82936e+07

>  <Rbt.Current_Directory>
/home/itssahil/PROJECTS/Mol_Feturizer/New_Systems/rnas/2et8

>  <Rbt.Executable>
rbdock ($Id: //depot/dev/client3/rdock/2013.1/src/exe/rbdock.cxx#4 $)

>  <Rbt.Library>
libRbt.so (2013.1, Build901 2013/11/27)

>  <Rbt.Parameter_File>
/export/apps/rDock/src/rDock_2013.1_src/data/scripts/dock_solv.prm

>  <Rbt.Receptor>
prm/pocket_docking_8.prm

>  <SCORE>
-11.059

>  <SCORE.INTER>
-13.6934

>  <SCORE.INTER.CONST>
1

>  <SCORE.INTER.POLAR>
-1.10317

>  <SCORE.INTER.ROT>
3

>  <SCORE.INTER.SOLV>
21.2797

>  <SCORE.INTER.VDW>
-18.1449

>  <SCORE.INTER.norm>
-0.622427

>  <SCORE.INTRA>
2.53245

>  <SCORE.INTRA.DIHEDRAL>
4.61074

>  <SCORE.INTRA.DIHEDRAL.0>
4.99603

>  <SCORE.INTRA.POLAR>
0

>  <SCORE.INTRA.POLAR.0>
0

>  <SCORE.INTRA.REPUL>
0

>  <SCORE.INTRA.REPUL.0>
0

>  <SCORE.INTRA.SOLV>
2.47926

>  <SCORE.INTRA.SOLV.lig_0>
-74.884

>  <SCORE.INTRA.VDW>
-1.01254

>  <SCORE.INTRA.VDW.0>
-0.858933

>  <SCORE.INTRA.norm>
0.115112

>  <SCORE.RESTR>
0.101911

>  <SCORE.RESTR.CAVITY>
0.101911

>  <SCORE.RESTR.norm>
0.00463232

>  <SCORE.SYSTEM>
0

>  <SCORE.SYSTEM.CONST>
0

>  <SCORE.SYSTEM.DIHEDRAL>
0

>  <SCORE.SYSTEM.SOLV>
0

>  <SCORE.SYSTEM.norm>
0

>  <SCORE.heavy>
22

>  <SCORE.norm>
-0.502683

>  <RMSD>
8.293

$$$$
2et8_lig
 OpenBabel11021811433D
libRbt.so/2013.1/901 2013/11/27
 22 23  0  0  0  0  0  0  0  0999 V2000
   27.7083   12.9728   27.5181 N   0  0  0  0  0  0  0  0  0  0  0  0
   23.9152   16.0914   26.8150 N   0  0  0  0  0  0  0  0  0  0  0  0
   23.4086   15.4512   34.5715 N   0  0  0  0  0  0  0  0  0  0  0  0
   26.2609   16.0040   31.1297 O   0  0  0  0  0  0  0  0  0  0  0  0
   25.7823   15.2166   30.0115 C   0  0  2  0  0  0  0  0  0  0  0  0
   21.1305   17.4194   29.2986 N   0  0  0  0  0  0  0  0  0  0  0  0
   27.6885   13.6297   30.2395 O   0  0  0  0  0  0  0  0  0  0  0  0
   27.0009   14.4911   29.3234 C   0  0  1  0  0  0  0  0  0  0  0  0
   24.0262   16.7601   29.5824 O   0  0  0  0  0  0  0  0  0  0  0  0
   26.5311   13.6503   28.1618 C   0  0  1  0  0  0  0  0  0  0  0  0
   23.5949   15.4934   31.4564 O   0  0  0  0  0  0  0  0  0  0  0  0
   25.7987   14.5544   27.1439 C   0  0  0  0  0  0  0  0  0  0  0  0
   23.0136   18.3823   33.6099 O   0  0  0  0  0  0  0  0  0  0  0  0
   24.5977   15.2278   27.8701 C   0  0  1  0  0  0  0  0  0  0  0  0
   20.8840   18.6645   31.8147 O   0  0  0  0  0  0  0  0  0  0  0  0
   25.0815   16.1520   28.9480 C   0  0  2  0  0  0  0  0  0  0  0  0
   23.0013   16.0096   30.1464 C   0  0  1  0  0  0  0  0  0  0  0  0
   23.9373   16.5867   32.4171 C   0  0  2  0  0  0  0  0  0  0  0  0
   24.5039   16.0006   33.7270 C   0  0  0  0  0  0  0  0  0  0  0  0
   22.6911   17.3601   32.7294 C   0  0  2  0  0  0  0  0  0  0  0  0
   22.0832   17.9470   31.4887 C   0  0  1  0  0  0  0  0  0  0  0  0
   21.7508   16.8426   30.5451 C   0  0  1  0  0  0  0  0  0  0  0  0
  5  4  1  1  0  0  0
  5  8  1  0  0  0  0
  5 16  1  0  0  0  0
  8  7  1  1  0  0  0
  8 10  1  0  0  0  0
 10  1  1  6  0  0  0
 10 12  1  0  0  0  0
 11 18  1  0  0  0  0
 12 14  1  0  0  0  0
 14  2  1  6  0  0  0
 14 16  1  0  0  0  0
 16  9  1  1  0  0  0
 17  9  1  1  0  0  0
 17 11  1  0  0  0  0
 17 22  1  0  0  0  0
 18 19  1  1  0  0  0
 18 20  1  0  0  0  0
 19  3  1  0  0  0  0
 20 13  1  1  0  0  0
 20 21  1  0  0  0  0
 21 15  1  1  0  0  0
 21 22  1  0  0  0  0
 22  6  1  6  0  0  0
M  END
>  <CHROM.1>
-59.49893069,77.65768607,-76.95968349,24.29025409,15.97107525,30.43104487
-0.72020030,-0.59068344,1.46808026

>  <Name>
2et8_lig

>  <RI>
0

>  <Rbt.Current_Directory>
/home/itssahil/PROJECTS/Mol_Feturizer/New_Systems/rnas/2et8

>  <Rbt.Executable>
rbdock ($Id: //depot/dev/client3/rdock/2013.1/src/exe/rbdock.cxx#4 $)

>  <Rbt.Library>
libRbt.so (2013.1, Build901 2013/11/27)

>  <Rbt.Parameter_File>
/export/apps/rDock/src/rDock_2013.1_src/data/scripts/dock_solv.prm

>  <Rbt.Receptor>
prm/blind_docking_100.prm

>  <SCORE>
-9.66934

>  <SCORE.INTER>
-13.3526

>  <SCORE.INTER.CONST>
1

>  <SCORE.INTER.POLAR>
-0.681102

>  <SCORE.INTER.ROT>
3

>  <SCORE.INTER.SOLV>
25.9589

>  <SCORE.INTER.VDW>
-20.8844

>  <SCORE.INTER.norm>
-0.606937

>  <SCORE.INTRA>
1.85002

>  <SCORE.INTRA.DIHEDRAL>
-2.43005

>  <SCORE.INTRA.DIHEDRAL.0>
4.99603

>  <SCORE.INTRA.POLAR>
0

>  <SCORE.INTRA.POLAR.0>
0

>  <SCORE.INTRA.REPUL>
0

>  <SCORE.INTRA.REPUL.0>
0

>  <SCORE.INTRA.SOLV>
2.24506

>  <SCORE.INTRA.SOLV.lig_0>
-74.884

>  <SCORE.INTRA.VDW>
1.94251

>  <SCORE.INTRA.VDW.0>
-0.858933

>  <SCORE.INTRA.norm>
0.0840916

>  <SCORE.RESTR>
1.83326

>  <SCORE.RESTR.CAVITY>
1.83326

>  <SCORE.RESTR.norm>
0.0833298

>  <SCORE.SYSTEM>
0

>  <SCORE.SYSTEM.CONST>
0

>  <SCORE.SYSTEM.DIHEDRAL>
0

>  <SCORE.SYSTEM.SOLV>
0

>  <SCORE.SYSTEM.norm>
0

>  <SCORE.heavy>
22

>  <SCORE.norm>
-0.439515

>  <RMSD>
8.325

$$$$
2et8_lig
 OpenBabel11021811433D
libRbt.so/2013.1/901 2013/11/27
 22 23  0  0  0  0  0  0  0  0999 V2000
   28.0653   13.0779   27.4600 N   0  0  0  0  0  0  0  0  0  0  0  0
   23.8475   15.6276   26.8969 N   0  0  0  0  0  0  0  0  0  0  0  0
   24.1650   15.9851   34.6882 N   0  0  0  0  0  0  0  0  0  0  0  0
   26.3914   15.9741   31.0844 O   0  0  0  0  0  0  0  0  0  0  0  0
   25.9721   15.0999   30.0077 C   0  0  2  0  0  0  0  0  0  0  0  0
   21.0394   16.0467   29.4891 N   0  0  0  0  0  0  0  0  0  0  0  0
   28.0883   13.7959   30.1658 O   0  0  0  0  0  0  0  0  0  0  0  0
   27.2442   14.5309   29.2707 C   0  0  1  0  0  0  0  0  0  0  0  0
   24.0005   16.3763   29.6417 O   0  0  0  0  0  0  0  0  0  0  0  0
   26.8388   13.6039   28.1512 C   0  0  1  0  0  0  0  0  0  0  0  0
   24.0120   15.6240   31.8180 O   0  0  0  0  0  0  0  0  0  0  0  0
   25.9393   14.3724   27.1560 C   0  0  0  0  0  0  0  0  0  0  0  0
   22.5941   18.7003   33.1771 O   0  0  0  0  0  0  0  0  0  0  0  0
   24.6938   14.8933   27.9311 C   0  0  1  0  0  0  0  0  0  0  0  0
   20.4558   17.8234   31.5972 O   0  0  0  0  0  0  0  0  0  0  0  0
   25.0973   15.9026   28.9647 C   0  0  2  0  0  0  0  0  0  0  0  0
   23.2679   15.5497   30.4853 C   0  0  1  0  0  0  0  0  0  0  0  0
   24.0121   16.9947   32.4149 C   0  0  2  0  0  0  0  0  0  0  0  0
   24.7521   16.9973   33.7687 C   0  0  0  0  0  0  0  0  0  0  0  0
   22.5921   17.4229   32.6362 C   0  0  2  0  0  0  0  0  0  0  0  0
   21.8135   17.4286   31.3528 C   0  0  1  0  0  0  0  0  0  0  0  0
   21.8267   16.0555   30.7741 C   0  0  1  0  0  0  0  0  0  0  0  0
  5  4  1  1  0  0  0
  5  8  1  0  0  0  0
  5 16  1  0  0  0  0
  8  7  1  1  0  0  0
  8 10  1  0  0  0  0
 10  1  1  6  0  0  0
 10 12  1  0  0  0  0
 11 18  1  0  0  0  0
 12 14  1  0  0  0  0
 14  2  1  6  0  0  0
 14 16  1  0  0  0  0
 16  9  1  1  0  0  0
 17  9  1  6  0  0  0
 17 11  1  0  0  0  0
 17 22  1  0  0  0  0
 18 19  1  1  0  0  0
 18 20  1  0  0  0  0
 19  3  1  0  0  0  0
 20 13  1  6  0  0  0
 20 21  1  0  0  0  0
 21 15  1  1  0  0  0
 21 22  1  0  0  0  0
 22  6  1  6  0  0  0
M  END
>  <CHROM.1>
-46.78195583,85.31709432,-55.14818303,24.39256164,15.83685357,30.44502322
-0.79050968,-0.39080937,1.27482728

>  <Name>
2et8_lig

>  <RI>
0

>  <Rbt.Current_Directory>
/home/itssahil/PROJECTS/Mol_Feturizer/New_Systems/rnas/2et8

>  <Rbt.Executable>
rbdock ($Id: //depot/dev/client3/rdock/2013.1/src/exe/rbdock.cxx#4 $)

>  <Rbt.Library>
libRbt.so (2013.1, Build901 2013/11/27)

>  <Rbt.Parameter_File>
/export/apps/rDock/src/rDock_2013.1_src/data/scripts/dock_solv.prm

>  <Rbt.Receptor>
prm/blind_docking_100.prm

>  <SCORE>
-13.4699

>  <SCORE.INTER>
-17.1393

>  <SCORE.INTER.CONST>
1

>  <SCORE.INTER.POLAR>
-1.07023

>  <SCORE.INTER.ROT>
3

>  <SCORE.INTER.SOLV>
20.4553

>  <SCORE.INTER.VDW>
-20.2772

>  <SCORE.INTER.norm>
-0.779057

>  <SCORE.INTRA>
1.96268

>  <SCORE.INTRA.DIHEDRAL>
-1.24996

>  <SCORE.INTRA.DIHEDRAL.0>
4.99603

>  <SCORE.INTRA.POLAR>
0

>  <SCORE.INTRA.POLAR.0>
0

>  <SCORE.INTRA.REPUL>
0

>  <SCORE.INTRA.REPUL.0>
0

>  <SCORE.INTRA.SOLV>
2.13534

>  <SCORE.INTRA.SOLV.lig_0>
-74.884

>  <SCORE.INTRA.VDW>
1.51999

>  <SCORE.INTRA.VDW.0>
-0.858933

>  <SCORE.INTRA.norm>
0.0892128

>  <SCORE.RESTR>
1.70669

>  <SCORE.RESTR.CAVITY>
1.70669

>  <SCORE.RESTR.norm>
0.0775769

>  <SCORE.SYSTEM>
0

>  <SCORE.SYSTEM.CONST>
0

>  <SCORE.SYSTEM.DIHEDRAL>
0

>  <SCORE.SYSTEM.SOLV>
0

>  <SCORE.SYSTEM.norm>
0

>  <SCORE.heavy>
22

>  <SCORE.norm>
-0.612268

>  <RMSD>
8.351

$$$$
2et8_lig
 OpenBabel11021811433D
libRbt.so/2013.1/901 2013/11/27
 22 23  0  0  0  0  0  0  0  0999 V2000
   26.9250   14.6169   26.1682 N   0  0  0  0  0  0  0  0  0  0  0  0
   23.3978   17.0444   28.6729 N   0  0  0  0  0  0  0  0  0  0  0  0
   19.6210   17.3349   29.6432 N   0  0  0  0  0  0  0  0  0  0  0  0
   26.7742   14.4247   31.0944 O   0  0  0  0  0  0  0  0  0  0  0  0
   25.9455   14.5044   29.9084 C   0  0  2  0  0  0  0  0  0  0  0  0
   24.2542   15.7136   34.0409 N   0  0  0  0  0  0  0  0  0  0  0  0
   27.6834   13.3508   28.5472 O   0  0  0  0  0  0  0  0  0  0  0  0
   26.8654   14.5248   28.6284 C   0  0  1  0  0  0  0  0  0  0  0  0
   24.2949   15.7707   31.0584 O   0  0  0  0  0  0  0  0  0  0  0  0
   26.0287   14.5932   27.3745 C   0  0  1  0  0  0  0  0  0  0  0  0
   23.1342   17.7594   31.0410 O   0  0  0  0  0  0  0  0  0  0  0  0
   25.1450   15.8608   27.4222 C   0  0  0  0  0  0  0  0  0  0  0  0
   19.9538   16.2267   31.9665 O   0  0  0  0  0  0  0  0  0  0  0  0
   24.2472   15.7783   28.6911 C   0  0  1  0  0  0  0  0  0  0  0  0
   21.4461   15.7082   34.2777 O   0  0  0  0  0  0  0  0  0  0  0  0
   25.0833   15.8284   29.9355 C   0  0  2  0  0  0  0  0  0  0  0  0
   24.0971   16.8939   31.8527 C   0  0  1  0  0  0  0  0  0  0  0  0
   21.8021   17.1148   30.8284 C   0  0  2  0  0  0  0  0  0  0  0  0
   20.8688   18.0479   30.0293 C   0  0  0  0  0  0  0  0  0  0  0  0
   21.1832   16.8373   32.1658 C   0  0  2  0  0  0  0  0  0  0  0  0
   22.0533   15.9411   32.9985 C   0  0  1  0  0  0  0  0  0  0  0  0
   23.3747   16.6004   33.1975 C   0  0  1  0  0  0  0  0  0  0  0  0
  5  4  1  1  0  0  0
  5  8  1  0  0  0  0
  5 16  1  0  0  0  0
  8  7  1  6  0  0  0
  8 10  1  0  0  0  0
 10  1  1  6  0  0  0
 10 12  1  0  0  0  0
 11 18  1  0  0  0  0
 12 14  1  0  0  0  0
 14  2  1  1  0  0  0
 14 16  1  0  0  0  0
 16  9  1  1  0  0  0
 17  9  1  6  0  0  0
 17 11  1  0  0  0  0
 17 22  1  0  0  0  0
 18 19  1  6  0  0  0
 18 20  1  0  0  0  0
 19  3  1  0  0  0  0
 20 13  1  6  0  0  0
 20 21  1  0  0  0  0
 21 15  1  1  0  0  0
 21 22  1  0  0  0  0
 22  6  1  1  0  0  0
M  END
>  <CHROM.1>
138.51194932,74.51360826,171.59743989,23.82061427,15.91797862,30.46414895
0.57115232,0.46249182,-1.45720181

>  <Name>
2et8_lig

>  <RI>
0

>  <Rbt.Current_Directory>
/home/itssahil/PROJECTS/Mol_Feturizer/New_Systems/rnas/2et8

>  <Rbt.Executable>
rbdock ($Id: //depot/dev/client3/rdock/2013.1/src/exe/rbdock.cxx#4 $)

>  <Rbt.Library>
libRbt.so (2013.1, Build901 2013/11/27)

>  <Rbt.Parameter_File>
/export/apps/rDock/src/rDock_2013.1_src/data/scripts/dock_solv.prm

>  <Rbt.Receptor>
prm/blind_docking_100.prm

>  <SCORE>
-10.5358

>  <SCORE.INTER>
-16.766

>  <SCORE.INTER.CONST>
1

>  <SCORE.INTER.POLAR>
-1.07284

>  <SCORE.INTER.ROT>
3

>  <SCORE.INTER.SOLV>
20.64

>  <SCORE.INTER.VDW>
-20.0812

>  <SCORE.INTER.norm>
-0.76209

>  <SCORE.INTRA>
3.55635

>  <SCORE.INTRA.DIHEDRAL>
1.88121

>  <SCORE.INTRA.DIHEDRAL.0>
4.99603

>  <SCORE.INTRA.POLAR>
0

>  <SCORE.INTRA.POLAR.0>
0

>  <SCORE.INTRA.REPUL>
0

>  <SCORE.INTRA.REPUL.0>
0

>  <SCORE.INTRA.SOLV>
4.23663

>  <SCORE.INTRA.SOLV.lig_0>
-74.884

>  <SCORE.INTRA.VDW>
0.497432

>  <SCORE.INTRA.VDW.0>
-0.858933

>  <SCORE.INTRA.norm>
0.161652

>  <SCORE.RESTR>
2.67379

>  <SCORE.RESTR.CAVITY>
2.67379

>  <SCORE.RESTR.norm>
0.121536

>  <SCORE.SYSTEM>
0

>  <SCORE.SYSTEM.CONST>
0

>  <SCORE.SYSTEM.DIHEDRAL>
0

>  <SCORE.SYSTEM.SOLV>
0

>  <SCORE.SYSTEM.norm>
0

>  <SCORE.heavy>
22

>  <SCORE.norm>
-0.478902

>  <RMSD>
8.370

$$$$
2et8_lig
 OpenBabel11021811433D
libRbt.so/2013.1/901 2013/11/27
 22 23  0  0  0  0  0  0  0  0999 V2000
   24.7405   13.9876   25.5468 N   0  0  0  0  0  0  0  0  0  0  0  0
   21.2384   14.9944   28.9127 N   0  0  0  0  0  0  0  0  0  0  0  0
   20.2767   18.9693   30.1881 N   0  0  0  0  0  0  0  0  0  0  0  0
   25.9406   16.0479   29.8643 O   0  0  0  0  0  0  0  0  0  0  0  0
   25.0266   15.1161   29.2354 C   0  0  2  0  0  0  0  0  0  0  0  0
   24.7700   15.3382   33.3377 N   0  0  0  0  0  0  0  0  0  0  0  0
   26.6930   14.5913   27.4601 O   0  0  0  0  0  0  0  0  0  0  0  0
   25.3482   15.0277   27.6946 C   0  0  1  0  0  0  0  0  0  0  0  0
   23.2943   15.6694   30.7662 O   0  0  0  0  0  0  0  0  0  0  0  0
   24.4199   14.0521   27.0138 C   0  0  1  0  0  0  0  0  0  0  0  0
   22.7242   17.8292   31.3256 O   0  0  0  0  0  0  0  0  0  0  0  0
   22.9580   14.5045   27.2331 C   0  0  0  0  0  0  0  0  0  0  0  0
   20.2252   16.8222   33.7877 O   0  0  0  0  0  0  0  0  0  0  0  0
   22.6912   14.5553   28.7659 C   0  0  1  0  0  0  0  0  0  0  0  0
   22.5442   15.8232   34.9966 O   0  0  0  0  0  0  0  0  0  0  0  0
   23.5365   15.6103   29.4158 C   0  0  2  0  0  0  0  0  0  0  0  0
   23.7649   16.7294   31.5321 C   0  0  1  0  0  0  0  0  0  0  0  0
   21.3707   17.4617   31.8437 C   0  0  2  0  0  0  0  0  0  0  0  0
   20.3751   18.6211   31.6317 C   0  0  0  0  0  0  0  0  0  0  0  0
   21.4791   17.1764   33.3119 C   0  0  2  0  0  0  0  0  0  0  0  0
   22.4466   16.0616   33.5850 C   0  0  1  0  0  0  0  0  0  0  0  0
   23.7872   16.4466   33.0605 C   0  0  1  0  0  0  0  0  0  0  0  0
  5  4  1  1  0  0  0
  5  8  1  0  0  0  0
  5 16  1  0  0  0  0
  8  7  1  1  0  0  0
  8 10  1  0  0  0  0
 10  1  1  6  0  0  0
 10 12  1  0  0  0  0
 11 18  1  0  0  0  0
 12 14  1  0  0  0  0
 14  2  1  6  0  0  0
 14 16  1  0  0  0  0
 16  9  1  1  0  0  0
 17  9  1  6  0  0  0
 17 11  1  0  0  0  0
 17 22  1  0  0  0  0
 18 19  1  1  0  0  0
 18 20  1  0  0  0  0
 19  3  1  0  0  0  0
 20 13  1  6  0  0  0
 20 21  1  0  0  0  0
 21 15  1  1  0  0  0
 21 22  1  0  0  0  0
 22  6  1  6  0  0  0
M  END
>  <CHROM.1>
78.15820645,82.57771525,58.51695055,23.17429860,15.98523012,30.50965026,1.04246415
0.44070019,-1.73803753

>  <Name>
2et8_lig

>  <RI>
224

>  <Rbt.Current_Directory>
/home/itssahil/PROJECTS/Mol_Feturizer/New_Systems/rnas/2et8

>  <Rbt.Executable>
rbdock ($Id: //depot/dev/client3/rdock/2013.1/src/exe/rbdock.cxx#4 $)

>  <Rbt.Library>
libRbt.so (2013.1, Build901 2013/11/27)

>  <Rbt.Parameter_File>
/export/apps/rDock/src/rDock_2013.1_src/data/scripts/dock_solv.prm

>  <Rbt.Receptor>
prm/blind_docking_60.prm

>  <SCORE>
10.7452

>  <SCORE.INTER>
9.50023

>  <SCORE.INTER.CONST>
1

>  <SCORE.INTER.POLAR>
0

>  <SCORE.INTER.ROT>
3

>  <SCORE.INTER.SOLV>
24.2645

>  <SCORE.INTER.VDW>
-7.35469

>  <SCORE.INTER.norm>
0.431829

>  <SCORE.INTRA>
-1.10436

>  <SCORE.INTRA.DIHEDRAL>
-1.14758

>  <SCORE.INTRA.DIHEDRAL.0>
4.99603

>  <SCORE.INTRA.POLAR>
0

>  <SCORE.INTRA.POLAR.0>
0

>  <SCORE.INTRA.REPUL>
0

>  <SCORE.INTRA.REPUL.0>
0

>  <SCORE.INTRA.SOLV>
0.131269

>  <SCORE.INTRA.SOLV.lig_0>
-74.884

>  <SCORE.INTRA.VDW>
-0.596207

>  <SCORE.INTRA.VDW.0>
-0.858933

>  <SCORE.INTRA.norm>
-0.0501983

>  <SCORE.RESTR>
2.34937

>  <SCORE.RESTR.CAVITY>
2.34937

>  <SCORE.RESTR.norm>
0.10679

>  <SCORE.SYSTEM>
0

>  <SCORE.SYSTEM.CONST>
0

>  <SCORE.SYSTEM.DIHEDRAL>
0

>  <SCORE.SYSTEM.SOLV>
0

>  <SCORE.SYSTEM.norm>
0

>  <SCORE.heavy>
22

>  <SCORE.norm>
0.48842

>  <RMSD>
8.371

$$$$
2et8_lig
 OpenBabel11021811433D
libRbt.so/2013.1/901 2013/11/27
 22 23  0  0  0  0  0  0  0  0999 V2000
   27.9825   13.0099   27.4328 N   0  0  0  0  0  0  0  0  0  0  0  0
   23.8123   15.6259   26.8213 N   0  0  0  0  0  0  0  0  0  0  0  0
   24.0395   15.8983   34.6668 N   0  0  0  0  0  0  0  0  0  0  0  0
   26.3439   15.9770   31.0158 O   0  0  0  0  0  0  0  0  0  0  0  0
   25.9139   15.0976   29.9475 C   0  0  2  0  0  0  0  0  0  0  0  0
   20.9866   16.3174   29.4453 N   0  0  0  0  0  0  0  0  0  0  0  0
   28.0064   13.7589   30.1302 O   0  0  0  0  0  0  0  0  0  0  0  0
   27.1790   14.4980   29.2229 C   0  0  1  0  0  0  0  0  0  0  0  0
   23.9665   16.4039   29.5578 O   0  0  0  0  0  0  0  0  0  0  0  0
   26.7623   13.5652   28.1124 C   0  0  1  0  0  0  0  0  0  0  0  0
   23.9516   15.5200   31.6841 O   0  0  0  0  0  0  0  0  0  0  0  0
   25.8807   14.3376   27.1043 C   0  0  0  0  0  0  0  0  0  0  0  0
   22.8037   18.6081   33.2547 O   0  0  0  0  0  0  0  0  0  0  0  0
   24.6412   14.8891   27.8677 C   0  0  1  0  0  0  0  0  0  0  0  0
   20.5785   18.0009   31.6681 O   0  0  0  0  0  0  0  0  0  0  0  0
   25.0579   15.9032   28.8913 C   0  0  2  0  0  0  0  0  0  0  0  0
   23.1836   15.5867   30.3646 C   0  0  1  0  0  0  0  0  0  0  0  0
   24.0698   16.8470   32.3625 C   0  0  2  0  0  0  0  0  0  0  0  0
   24.8283   16.7079   33.6988 C   0  0  0  0  0  0  0  0  0  0  0  0
   22.6918   17.3707   32.6379 C   0  0  2  0  0  0  0  0  0  0  0  0
   21.8966   17.5167   31.3730 C   0  0  1  0  0  0  0  0  0  0  0  0
   21.7917   16.1851   30.7124 C   0  0  1  0  0  0  0  0  0  0  0  0
  5  4  1  1  0  0  0
  5  8  1  0  0  0  0
  5 16  1  0  0  0  0
  8  7  1  1  0  0  0
  8 10  1  0  0  0  0
 10  1  1  6  0  0  0
 10 12  1  0  0  0  0
 11 18  1  0  0  0  0
 12 14  1  0  0  0  0
 14  2  1  6  0  0  0
 14 16  1  0  0  0  0
 16  9  1  1  0  0  0
 17  9  1  6  0  0  0
 17 11  1  0  0  0  0
 17 22  1  0  0  0  0
 18 19  1  1  0  0  0
 18 20  1  0  0  0  0
 19  3  1  0  0  0  0
 20 13  1  6  0  0  0
 20 21  1  0  0  0  0
 21 15  1  1  0  0  0
 21 22  1  0  0  0  0
 22  6  1  6  0  0  0
M  END
>  <CHROM.1>
-49.45384801,81.57127543,-66.21196124,24.37839946,15.82510618,30.40215731
-0.79843466,-0.42472475,1.29809999

>  <Name>
2et8_lig

>  <RI>
0

>  <Rbt.Current_Directory>
/home/itssahil/PROJECTS/Mol_Feturizer/New_Systems/rnas/2et8

>  <Rbt.Executable>
rbdock ($Id: //depot/dev/client3/rdock/2013.1/src/exe/rbdock.cxx#4 $)

>  <Rbt.Library>
libRbt.so (2013.1, Build901 2013/11/27)

>  <Rbt.Parameter_File>
/export/apps/rDock/src/rDock_2013.1_src/data/scripts/dock_solv.prm

>  <Rbt.Receptor>
prm/blind_docking_80.prm

>  <SCORE>
-13.0328

>  <SCORE.INTER>
-16.1896

>  <SCORE.INTER.CONST>
1

>  <SCORE.INTER.POLAR>
-1.0447

>  <SCORE.INTER.ROT>
3

>  <SCORE.INTER.SOLV>
21.0104

>  <SCORE.INTER.VDW>
-19.9142

>  <SCORE.INTER.norm>
-0.73589

>  <SCORE.INTRA>
1.99162

>  <SCORE.INTRA.DIHEDRAL>
-2.13099

>  <SCORE.INTRA.DIHEDRAL.0>
4.99603

>  <SCORE.INTRA.POLAR>
0

>  <SCORE.INTRA.POLAR.0>
0

>  <SCORE.INTRA.REPUL>
0

>  <SCORE.INTRA.REPUL.0>
0

>  <SCORE.INTRA.SOLV>
2.13767

>  <SCORE.INTRA.SOLV.lig_0>
-74.884

>  <SCORE.INTRA.VDW>
1.98828

>  <SCORE.INTRA.VDW.0>
-0.858933

>  <SCORE.INTRA.norm>
0.0905283

>  <SCORE.RESTR>
1.16511

>  <SCORE.RESTR.CAVITY>
1.16511

>  <SCORE.RESTR.norm>
0.0529597

>  <SCORE.SYSTEM>
0

>  <SCORE.SYSTEM.CONST>
0

>  <SCORE.SYSTEM.DIHEDRAL>
0

>  <SCORE.SYSTEM.SOLV>
0

>  <SCORE.SYSTEM.norm>
0

>  <SCORE.heavy>
22

>  <SCORE.norm>
-0.592402

>  <RMSD>
8.376

$$$$
2et8_lig
 OpenBabel11021811433D
libRbt.so/2013.1/901 2013/11/27
 22 23  0  0  0  0  0  0  0  0999 V2000
   27.9786   14.0787   28.3967 N   0  0  0  0  0  0  0  0  0  0  0  0
   24.8298   16.0766   31.6680 N   0  0  0  0  0  0  0  0  0  0  0  0
   24.3359   17.8993   33.4865 N   0  0  0  0  0  0  0  0  0  0  0  0
   23.2077   14.6167   27.2676 O   0  0  0  0  0  0  0  0  0  0  0  0
   24.3037   15.2183   27.9998 C   0  0  2  0  0  0  0  0  0  0  0  0
   19.9087   15.9486   29.0260 N   0  0  0  0  0  0  0  0  0  0  0  0
   25.9701   14.2048   26.4506 O   0  0  0  0  0  0  0  0  0  0  0  0
   25.5959   14.3319   27.8283 C   0  0  1  0  0  0  0  0  0  0  0  0
   22.8238   16.0870   29.6448 O   0  0  0  0  0  0  0  0  0  0  0  0
   26.7603   14.9418   28.5694 C   0  0  1  0  0  0  0  0  0  0  0  0
   22.3743   16.4328   31.8766 O   0  0  0  0  0  0  0  0  0  0  0  0
   26.3953   15.0768   30.0656 C   0  0  0  0  0  0  0  0  0  0  0  0
   21.2894   19.8855   31.4039 O   0  0  0  0  0  0  0  0  0  0  0  0
   25.1284   15.9746   30.1763 C   0  0  1  0  0  0  0  0  0  0  0  0
   19.3066   18.5394   29.9570 O   0  0  0  0  0  0  0  0  0  0  0  0
   23.9479   15.3055   29.5370 C   0  0  2  0  0  0  0  0  0  0  0  0
   21.8435   15.8046   30.5886 C   0  0  1  0  0  0  0  0  0  0  0  0
   22.5078   17.9196   31.7930 C   0  0  2  0  0  0  0  0  0  0  0  0
   23.0194   18.4947   33.1301 C   0  0  0  0  0  0  0  0  0  0  0  0
   21.1608   18.5073   31.4947 C   0  0  2  0  0  0  0  0  0  0  0  0
   20.6020   17.9751   30.2071 C   0  0  1  0  0  0  0  0  0  0  0  0
   20.4781   16.4937   30.3105 C   0  0  1  0  0  0  0  0  0  0  0  0
  5  4  1  6  0  0  0
  5  8  1  0  0  0  0
  5 16  1  0  0  0  0
  8  7  1  6  0  0  0
  8 10  1  0  0  0  0
 10  1  1  1  0  0  0
 10 12  1  0  0  0  0
 11 18  1  0  0  0  0
 12 14  1  0  0  0  0
 14  2  1  1  0  0  0
 14 16  1  0  0  0  0
 16  9  1  6  0  0  0
 17  9  1  6  0  0  0
 17 11  1  0  0  0  0
 17 22  1  0  0  0  0
 18 19  1  1  0  0  0
 18 20  1  0  0  0  0
 19  3  1  0  0  0  0
 20 13  1  6  0  0  0
 20 21  1  0  0  0  0
 21 15  1  1  0  0  0
 21 22  1  0  0  0  0
 22  6  1  6  0  0  0
M  END
>  <CHROM.1>
143.36014821,82.41094115,58.63215249,23.32403819,16.36914175,30.02277748
-0.71882854,-0.28673721,1.02325157

>  <Name>
2et8_lig

>  <RI>
224

>  <Rbt.Current_Directory>
/home/itssahil/PROJECTS/Mol_Feturizer/New_Systems/rnas/2et8

>  <Rbt.Executable>
rbdock ($Id: //depot/dev/client3/rdock/2013.1/src/exe/rbdock.cxx#4 $)

>  <Rbt.Library>
libRbt.so (2013.1, Build901 2013/11/27)

>  <Rbt.Parameter_File>
/export/apps/rDock/src/rDock_2013.1_src/data/scripts/dock_solv.prm

>  <Rbt.Receptor>
prm/blind_docking_60.prm

>  <SCORE>
-6.83572

>  <SCORE.INTER>
-12.1295

>  <SCORE.INTER.CONST>
1

>  <SCORE.INTER.POLAR>
0

>  <SCORE.INTER.ROT>
3

>  <SCORE.INTER.SOLV>
20.5158

>  <SCORE.INTER.VDW>
-20.5249

>  <SCORE.INTER.norm>
-0.551339

>  <SCORE.INTRA>
2.84175

>  <SCORE.INTRA.DIHEDRAL>
2.03994

>  <SCORE.INTRA.DIHEDRAL.0>
4.99603

>  <SCORE.INTRA.POLAR>
0

>  <SCORE.INTRA.POLAR.0>
0

>  <SCORE.INTRA.REPUL>
0

>  <SCORE.INTRA.REPUL.0>
0

>  <SCORE.INTRA.SOLV>
4.66361

>  <SCORE.INTRA.SOLV.lig_0>
-74.884

>  <SCORE.INTRA.VDW>
-0.510027

>  <SCORE.INTRA.VDW.0>
-0.858933

>  <SCORE.INTRA.norm>
0.12917

>  <SCORE.RESTR>
2.452

>  <SCORE.RESTR.CAVITY>
2.452

>  <SCORE.RESTR.norm>
0.111454

>  <SCORE.SYSTEM>
0

>  <SCORE.SYSTEM.CONST>
0

>  <SCORE.SYSTEM.DIHEDRAL>
0

>  <SCORE.SYSTEM.SOLV>
0

>  <SCORE.SYSTEM.norm>
0

>  <SCORE.heavy>
22

>  <SCORE.norm>
-0.310715

>  <RMSD>
8.381

$$$$
2et8_lig
 OpenBabel11021811433D
libRbt.so/2013.1/901 2013/11/27
 22 23  0  0  0  0  0  0  0  0999 V2000
   28.0648   14.1183   28.3785 N   0  0  0  0  0  0  0  0  0  0  0  0
   24.8856   16.0299   31.6718 N   0  0  0  0  0  0  0  0  0  0  0  0
   24.3262   17.9086   33.4857 N   0  0  0  0  0  0  0  0  0  0  0  0
   23.2883   14.6066   27.2504 O   0  0  0  0  0  0  0  0  0  0  0  0
   24.3753   15.2132   27.9919 C   0  0  2  0  0  0  0  0  0  0  0  0
   19.9706   15.8090   29.0373 N   0  0  0  0  0  0  0  0  0  0  0  0
   26.0569   14.2429   26.4316 O   0  0  0  0  0  0  0  0  0  0  0  0
   25.6796   14.3467   27.8103 C   0  0  1  0  0  0  0  0  0  0  0  0
   22.8819   16.0399   29.6463 O   0  0  0  0  0  0  0  0  0  0  0  0
   26.8347   14.9624   28.5610 C   0  0  1  0  0  0  0  0  0  0  0  0
   22.4277   16.4023   31.8745 O   0  0  0  0  0  0  0  0  0  0  0  0
   26.4663   15.0727   30.0583 C   0  0  0  0  0  0  0  0  0  0  0  0
   21.2422   19.8155   31.3592 O   0  0  0  0  0  0  0  0  0  0  0  0
   25.1873   15.9517   30.1793 C   0  0  1  0  0  0  0  0  0  0  0  0
   19.2958   18.3935   29.9356 O   0  0  0  0  0  0  0  0  0  0  0  0
   24.0166   15.2752   29.5297 C   0  0  2  0  0  0  0  0  0  0  0  0
   21.9124   15.7418   30.5965 C   0  0  1  0  0  0  0  0  0  0  0  0
   22.5179   17.8911   31.7710 C   0  0  2  0  0  0  0  0  0  0  0  0
   23.0158   18.4984   33.0989 C   0  0  0  0  0  0  0  0  0  0  0  0
   21.1537   18.4355   31.4686 C   0  0  2  0  0  0  0  0  0  0  0  0
   20.6076   17.8703   30.1897 C   0  0  1  0  0  0  0  0  0  0  0  0
   20.5270   16.3874   30.3129 C   0  0  1  0  0  0  0  0  0  0  0  0
  5  4  1  6  0  0  0
  5  8  1  0  0  0  0
  5 16  1  0  0  0  0
  8  7  1  6  0  0  0
  8 10  1  0  0  0  0
 10  1  1  1  0  0  0
 10 12  1  0  0  0  0
 11 18  1  0  0  0  0
 12 14  1  0  0  0  0
 14  2  1  1  0  0  0
 14 16  1  0  0  0  0
 16  9  1  6  0  0  0
 17  9  1  6  0  0  0
 17 11  1  0  0  0  0
 17 22  1  0  0  0  0
 18 19  1  1  0  0  0
 18 20  1  0  0  0  0
 19  3  1  0  0  0  0
 20 13  1  6  0  0  0
 20 21  1  0  0  0  0
 21 15  1  1  0  0  0
 21 22  1  0  0  0  0
 22  6  1  6  0  0  0
M  END
>  <CHROM.1>
144.18221538,83.60950914,56.51665916,23.36755614,16.33257293,30.01162015
-0.70721631,-0.27096348,1.02645863

>  <Name>
2et8_lig

>  <RI>
224

>  <Rbt.Current_Directory>
/home/itssahil/PROJECTS/Mol_Feturizer/New_Systems/rnas/2et8

>  <Rbt.Executable>
rbdock ($Id: //depot/dev/client3/rdock/2013.1/src/exe/rbdock.cxx#4 $)

>  <Rbt.Library>
libRbt.so (2013.1, Build901 2013/11/27)

>  <Rbt.Parameter_File>
/export/apps/rDock/src/rDock_2013.1_src/data/scripts/dock_solv.prm

>  <Rbt.Receptor>
prm/blind_docking_60.prm

>  <SCORE>
-6.79929

>  <SCORE.INTER>
-11.9624

>  <SCORE.INTER.CONST>
1

>  <SCORE.INTER.POLAR>
0

>  <SCORE.INTER.ROT>
3

>  <SCORE.INTER.SOLV>
20.4086

>  <SCORE.INTER.VDW>
-20.3778

>  <SCORE.INTER.norm>
-0.543744

>  <SCORE.INTRA>
2.72459

>  <SCORE.INTRA.DIHEDRAL>
2.14022

>  <SCORE.INTRA.DIHEDRAL.0>
4.99603

>  <SCORE.INTRA.POLAR>
0

>  <SCORE.INTRA.POLAR.0>
0

>  <SCORE.INTRA.REPUL>
0

>  <SCORE.INTRA.REPUL.0>
0

>  <SCORE.INTRA.SOLV>
4.55222

>  <SCORE.INTRA.SOLV.lig_0>
-74.884

>  <SCORE.INTRA.VDW>
-0.621627

>  <SCORE.INTRA.VDW.0>
-0.858933

>  <SCORE.INTRA.norm>
0.123845

>  <SCORE.RESTR>
2.4385

>  <SCORE.RESTR.CAVITY>
2.4385

>  <SCORE.RESTR.norm>
0.110841

>  <SCORE.SYSTEM>
0

>  <SCORE.SYSTEM.CONST>
0

>  <SCORE.SYSTEM.DIHEDRAL>
0

>  <SCORE.SYSTEM.SOLV>
0

>  <SCORE.SYSTEM.norm>
0

>  <SCORE.heavy>
22

>  <SCORE.norm>
-0.309058

>  <RMSD>
8.384

$$$$
2et8_lig
 OpenBabel11021811433D
libRbt.so/2013.1/901 2013/11/27
 22 23  0  0  0  0  0  0  0  0999 V2000
   27.9676   12.9729   27.5958 N   0  0  0  0  0  0  0  0  0  0  0  0
   23.7508   15.4543   26.7779 N   0  0  0  0  0  0  0  0  0  0  0  0
   23.9942   15.9945   34.5537 N   0  0  0  0  0  0  0  0  0  0  0  0
   26.1841   16.0634   31.0009 O   0  0  0  0  0  0  0  0  0  0  0  0
   25.7977   15.1247   29.9670 C   0  0  2  0  0  0  0  0  0  0  0  0
   20.8513   16.2090   29.3727 N   0  0  0  0  0  0  0  0  0  0  0  0
   27.9168   13.8478   30.2547 O   0  0  0  0  0  0  0  0  0  0  0  0
   27.0916   14.5231   29.2971 C   0  0  1  0  0  0  0  0  0  0  0  0
   23.8287   16.3631   29.4771 O   0  0  0  0  0  0  0  0  0  0  0  0
   26.7206   13.5294   28.2239 C   0  0  1  0  0  0  0  0  0  0  0  0
   23.8324   15.5911   31.6465 O   0  0  0  0  0  0  0  0  0  0  0  0
   25.8425   14.2319   27.1629 C   0  0  0  0  0  0  0  0  0  0  0  0
   22.6205   18.7323   33.0555 O   0  0  0  0  0  0  0  0  0  0  0  0
   24.5745   14.7879   27.8744 C   0  0  1  0  0  0  0  0  0  0  0  0
   20.4083   17.9971   31.5053 O   0  0  0  0  0  0  0  0  0  0  0  0
   24.9454   15.8587   28.8570 C   0  0  2  0  0  0  0  0  0  0  0  0
   23.0631   15.5730   30.3263 C   0  0  1  0  0  0  0  0  0  0  0  0
   23.9229   16.9538   32.2548 C   0  0  2  0  0  0  0  0  0  0  0  0
   24.6842   16.9003   33.5956 C   0  0  0  0  0  0  0  0  0  0  0  0
   22.5344   17.4624   32.5041 C   0  0  2  0  0  0  0  0  0  0  0  0
   21.7362   17.5257   31.2343 C   0  0  1  0  0  0  0  0  0  0  0  0
   21.6590   16.1597   30.6440 C   0  0  1  0  0  0  0  0  0  0  0  0
  5  4  1  1  0  0  0
  5  8  1  0  0  0  0
  5 16  1  0  0  0  0
  8  7  1  1  0  0  0
  8 10  1  0  0  0  0
 10  1  1  6  0  0  0
 10 12  1  0  0  0  0
 11 18  1  0  0  0  0
 12 14  1  0  0  0  0
 14  2  1  6  0  0  0
 14 16  1  0  0  0  0
 16  9  1  1  0  0  0
 17  9  1  6  0  0  0
 17 11  1  0  0  0  0
 17 22  1  0  0  0  0
 18 19  1  1  0  0  0
 18 20  1  0  0  0  0
 19  3  1  0  0  0  0
 20 13  1  6  0  0  0
 20 21  1  0  0  0  0
 21 15  1  1  0  0  0
 21 22  1  0  0  0  0
 22  6  1  6  0  0  0
M  END
>  <CHROM.1>
-48.19417325,80.26984159,-59.49629348,24.26629527,15.83750396,30.36506688
-0.77645564,-0.40958576,1.25704017

>  <Name>
2et8_lig

>  <RI>
224

>  <Rbt.Current_Directory>
/home/itssahil/PROJECTS/Mol_Feturizer/New_Systems/rnas/2et8

>  <Rbt.Executable>
rbdock ($Id: //depot/dev/client3/rdock/2013.1/src/exe/rbdock.cxx#4 $)

>  <Rbt.Library>
libRbt.so (2013.1, Build901 2013/11/27)

>  <Rbt.Parameter_File>
/export/apps/rDock/src/rDock_2013.1_src/data/scripts/dock_solv.prm

>  <Rbt.Receptor>
prm/blind_docking_60.prm

>  <SCORE>
-11.9717

>  <SCORE.INTER>
-15.5769

>  <SCORE.INTER.CONST>
1

>  <SCORE.INTER.POLAR>
-1.09545

>  <SCORE.INTER.ROT>
3

>  <SCORE.INTER.SOLV>
20.7777

>  <SCORE.INTER.VDW>
-19.259

>  <SCORE.INTER.norm>
-0.708042

>  <SCORE.INTRA>
2.28413

>  <SCORE.INTRA.DIHEDRAL>
-2.35299

>  <SCORE.INTRA.DIHEDRAL.0>
4.99603

>  <SCORE.INTRA.POLAR>
0

>  <SCORE.INTRA.POLAR.0>
0

>  <SCORE.INTRA.REPUL>
0

>  <SCORE.INTRA.REPUL.0>
0

>  <SCORE.INTRA.SOLV>
2.07312

>  <SCORE.INTRA.SOLV.lig_0>
-74.884

>  <SCORE.INTRA.VDW>
2.42406

>  <SCORE.INTRA.VDW.0>
-0.858933

>  <SCORE.INTRA.norm>
0.103824

>  <SCORE.RESTR>
1.32113

>  <SCORE.RESTR.CAVITY>
1.32113

>  <SCORE.RESTR.norm>
0.0600512

>  <SCORE.SYSTEM>
0

>  <SCORE.SYSTEM.CONST>
0

>  <SCORE.SYSTEM.DIHEDRAL>
0

>  <SCORE.SYSTEM.SOLV>
0

>  <SCORE.SYSTEM.norm>
0

>  <SCORE.heavy>
22

>  <SCORE.norm>
-0.544167

>  <RMSD>
8.391

$$$$
2et8_lig
 OpenBabel11021811433D
libRbt.so/2013.1/901 2013/11/27
 22 23  0  0  0  0  0  0  0  0999 V2000
   28.0026   13.0087   27.4641 N   0  0  0  0  0  0  0  0  0  0  0  0
   23.8024   15.5640   26.8034 N   0  0  0  0  0  0  0  0  0  0  0  0
   24.0409   15.9450   34.6243 N   0  0  0  0  0  0  0  0  0  0  0  0
   26.3098   15.9960   31.0048 O   0  0  0  0  0  0  0  0  0  0  0  0
   25.8961   15.0989   29.9449 C   0  0  2  0  0  0  0  0  0  0  0  0
   20.9576   16.2120   29.4110 N   0  0  0  0  0  0  0  0  0  0  0  0
   28.0045   13.7892   30.1526 O   0  0  0  0  0  0  0  0  0  0  0  0
   27.1720   14.5071   29.2330 C   0  0  1  0  0  0  0  0  0  0  0  0
   23.9340   16.3756   29.5313 O   0  0  0  0  0  0  0  0  0  0  0  0
   26.7724   13.5563   28.1317 C   0  0  1  0  0  0  0  0  0  0  0  0
   23.9321   15.5519   31.6816 O   0  0  0  0  0  0  0  0  0  0  0  0
   25.8857   14.3056   27.1107 C   0  0  0  0  0  0  0  0  0  0  0  0
   22.7017   18.6536   33.1603 O   0  0  0  0  0  0  0  0  0  0  0  0
   24.6357   14.8500   27.8620 C   0  0  1  0  0  0  0  0  0  0  0  0
   20.4988   17.9468   31.5839 O   0  0  0  0  0  0  0  0  0  0  0  0
   25.0347   15.8812   28.8756 C   0  0  2  0  0  0  0  0  0  0  0  0
   23.1682   15.5623   30.3582 C   0  0  1  0  0  0  0  0  0  0  0  0
   24.0146   16.9001   32.3227 C   0  0  2  0  0  0  0  0  0  0  0  0
   24.7708   16.8176   33.6649 C   0  0  0  0  0  0  0  0  0  0  0  0
   22.6230   17.3969   32.5783 C   0  0  2  0  0  0  0  0  0  0  0  0
   21.8297   17.4874   31.3071 C   0  0  1  0  0  0  0  0  0  0  0  0
   21.7605   16.1355   30.6841 C   0  0  1  0  0  0  0  0  0  0  0  0
  5  4  1  1  0  0  0
  5  8  1  0  0  0  0
  5 16  1  0  0  0  0
  8  7  1  1  0  0  0
  8 10  1  0  0  0  0
 10  1  1  6  0  0  0
 10 12  1  0  0  0  0
 11 18  1  0  0  0  0
 12 14  1  0  0  0  0
 14  2  1  6  0  0  0
 14 16  1  0  0  0  0
 16  9  1  1  0  0  0
 17  9  1  6  0  0  0
 17 11  1  0  0  0  0
 17 22  1  0  0  0  0
 18 19  1  1  0  0  0
 18 20  1  0  0  0  0
 19  3  1  0  0  0  0
 20 13  1  6  0  0  0
 20 21  1  0  0  0  0
 21 15  1  1  0  0  0
 21 22  1  0  0  0  0
 22  6  1  6  0  0  0
M  END
>  <CHROM.1>
-48.58345335,82.03400052,-62.60331103,24.34956312,15.82189308,30.37977766
-0.79038699,-0.41085132,1.28109389

>  <Name>
2et8_lig

>  <RI>
0

>  <Rbt.Current_Directory>
/home/itssahil/PROJECTS/Mol_Feturizer/New_Systems/rnas/2et8

>  <Rbt.Executable>
rbdock ($Id: //depot/dev/client3/rdock/2013.1/src/exe/rbdock.cxx#4 $)

>  <Rbt.Library>
libRbt.so (2013.1, Build901 2013/11/27)

>  <Rbt.Parameter_File>
/export/apps/rDock/src/rDock_2013.1_src/data/scripts/dock_solv.prm

>  <Rbt.Receptor>
prm/blind_docking_80.prm

>  <SCORE>
-12.8955

>  <SCORE.INTER>
-15.9891

>  <SCORE.INTER.CONST>
1

>  <SCORE.INTER.POLAR>
-1.07544

>  <SCORE.INTER.ROT>
3

>  <SCORE.INTER.SOLV>
20.7341

>  <SCORE.INTER.VDW>
-19.586

>  <SCORE.INTER.norm>
-0.726779

>  <SCORE.INTRA>
1.96818

>  <SCORE.INTRA.DIHEDRAL>
-2.08026

>  <SCORE.INTRA.DIHEDRAL.0>
4.99603

>  <SCORE.INTRA.POLAR>
0

>  <SCORE.INTRA.POLAR.0>
0

>  <SCORE.INTRA.REPUL>
0

>  <SCORE.INTRA.REPUL.0>
0

>  <SCORE.INTRA.SOLV>
2.12382

>  <SCORE.INTRA.SOLV.lig_0>
-74.884

>  <SCORE.INTRA.VDW>
1.9464

>  <SCORE.INTRA.VDW.0>
-0.858933

>  <SCORE.INTRA.norm>
0.0894626

>  <SCORE.RESTR>
1.12541

>  <SCORE.RESTR.CAVITY>
1.12541

>  <SCORE.RESTR.norm>
0.0511552

>  <SCORE.SYSTEM>
0

>  <SCORE.SYSTEM.CONST>
0

>  <SCORE.SYSTEM.DIHEDRAL>
0

>  <SCORE.SYSTEM.SOLV>
0

>  <SCORE.SYSTEM.norm>
0

>  <SCORE.heavy>
22

>  <SCORE.norm>
-0.586161

>  <RMSD>
8.391

$$$$
2et8_lig
 OpenBabel11021811433D
libRbt.so/2013.1/901 2013/11/27
 22 23  0  0  0  0  0  0  0  0999 V2000
   27.6938   14.0135   27.4022 N   0  0  0  0  0  0  0  0  0  0  0  0
   24.9943   16.2669   30.9012 N   0  0  0  0  0  0  0  0  0  0  0  0
   24.3081   16.1658   33.4979 N   0  0  0  0  0  0  0  0  0  0  0  0
   22.7694   14.0453   27.1275 O   0  0  0  0  0  0  0  0  0  0  0  0
   23.9149   14.8251   27.5507 C   0  0  2  0  0  0  0  0  0  0  0  0
   19.7377   16.1032   28.8434 N   0  0  0  0  0  0  0  0  0  0  0  0
   25.3714   13.7035   25.8700 O   0  0  0  0  0  0  0  0  0  0  0  0
   25.2352   14.0134   27.2627 C   0  0  1  0  0  0  0  0  0  0  0  0
   22.6718   15.8312   29.3094 O   0  0  0  0  0  0  0  0  0  0  0  0
   26.4484   14.8073   27.6806 C   0  0  1  0  0  0  0  0  0  0  0  0
   22.3288   15.5721   31.5716 O   0  0  0  0  0  0  0  0  0  0  0  0
   26.3413   15.1438   29.1858 C   0  0  0  0  0  0  0  0  0  0  0  0
   21.5511   19.0935   32.1342 O   0  0  0  0  0  0  0  0  0  0  0  0
   25.0340   15.9591   29.4083 C   0  0  1  0  0  0  0  0  0  0  0  0
   19.4069   18.3684   30.4869 O   0  0  0  0  0  0  0  0  0  0  0  0
   23.8286   15.1212   29.1006 C   0  0  2  0  0  0  0  0  0  0  0  0
   21.7009   15.3742   30.1926 C   0  0  1  0  0  0  0  0  0  0  0  0
   22.5956   17.0073   31.8949 C   0  0  2  0  0  0  0  0  0  0  0  0
   23.2012   17.1421   33.3074 C   0  0  0  0  0  0  0  0  0  0  0  0
   21.2994   17.7598   31.8478 C   0  0  2  0  0  0  0  0  0  0  0  0
   20.6524   17.6558   30.4972 C   0  0  1  0  0  0  0  0  0  0  0  0
   20.3964   16.2195   30.1939 C   0  0  1  0  0  0  0  0  0  0  0  0
  5  4  1  1  0  0  0
  5  8  1  0  0  0  0
  5 16  1  0  0  0  0
  8  7  1  6  0  0  0
  8 10  1  0  0  0  0
 10  1  1  1  0  0  0
 10 12  1  0  0  0  0
 11 18  1  0  0  0  0
 12 14  1  0  0  0  0
 14  2  1  1  0  0  0
 14 16  1  0  0  0  0
 16  9  1  6  0  0  0
 17  9  1  6  0  0  0
 17 11  1  0  0  0  0
 17 22  1  0  0  0  0
 18 19  1  1  0  0  0
 18 20  1  0  0  0  0
 19  3  1  0  0  0  0
 20 13  1  6  0  0  0
 20 21  1  0  0  0  0
 21 15  1  1  0  0  0
 21 22  1  0  0  0  0
 22  6  1  6  0  0  0
M  END
>  <CHROM.1>
123.24122343,71.22969423,47.39153718,23.21912479,15.92634853,29.77792034
-0.82950170,-0.24414166,1.12759851

>  <Name>
2et8_lig

>  <RI>
0

>  <Rbt.Current_Directory>
/home/itssahil/PROJECTS/Mol_Feturizer/New_Systems/rnas/2et8

>  <Rbt.Executable>
rbdock ($Id: //depot/dev/client3/rdock/2013.1/src/exe/rbdock.cxx#4 $)

>  <Rbt.Library>
libRbt.so (2013.1, Build901 2013/11/27)

>  <Rbt.Parameter_File>
/export/apps/rDock/src/rDock_2013.1_src/data/scripts/dock_solv.prm

>  <Rbt.Receptor>
prm/blind_docking_100.prm

>  <SCORE>
-7.52845

>  <SCORE.INTER>
-11.311

>  <SCORE.INTER.CONST>
1

>  <SCORE.INTER.POLAR>
-0.446156

>  <SCORE.INTER.ROT>
3

>  <SCORE.INTER.SOLV>
19.8658

>  <SCORE.INTER.VDW>
-18.2755

>  <SCORE.INTER.norm>
-0.514139

>  <SCORE.INTRA>
3.38531

>  <SCORE.INTRA.DIHEDRAL>
3.27186

>  <SCORE.INTRA.DIHEDRAL.0>
4.99603

>  <SCORE.INTRA.POLAR>
0

>  <SCORE.INTRA.POLAR.0>
0

>  <SCORE.INTRA.REPUL>
0

>  <SCORE.INTRA.REPUL.0>
0

>  <SCORE.INTRA.SOLV>
4.58867

>  <SCORE.INTRA.SOLV.lig_0>
-74.884

>  <SCORE.INTRA.VDW>
-0.544951

>  <SCORE.INTRA.VDW.0>
-0.858933

>  <SCORE.INTRA.norm>
0.153878

>  <SCORE.RESTR>
0.397282

>  <SCORE.RESTR.CAVITY>
0.397282

>  <SCORE.RESTR.norm>
0.0180583

>  <SCORE.SYSTEM>
0

>  <SCORE.SYSTEM.CONST>
0

>  <SCORE.SYSTEM.DIHEDRAL>
0

>  <SCORE.SYSTEM.SOLV>
0

>  <SCORE.SYSTEM.norm>
0

>  <SCORE.heavy>
22

>  <SCORE.norm>
-0.342202

>  <RMSD>
8.392

$$$$
2et8_lig
 OpenBabel11021811433D
libRbt.so/2013.1/901 2013/11/27
 22 23  0  0  0  0  0  0  0  0999 V2000
   27.7769   13.9878   27.3975 N   0  0  0  0  0  0  0  0  0  0  0  0
   25.0936   16.2056   30.9315 N   0  0  0  0  0  0  0  0  0  0  0  0
   24.4569   16.1013   33.4975 N   0  0  0  0  0  0  0  0  0  0  0  0
   22.8546   14.0919   27.1046 O   0  0  0  0  0  0  0  0  0  0  0  0
   24.0087   14.8473   27.5482 C   0  0  2  0  0  0  0  0  0  0  0  0
   19.8362   16.1575   28.9021 N   0  0  0  0  0  0  0  0  0  0  0  0
   25.4568   13.7406   25.8504 O   0  0  0  0  0  0  0  0  0  0  0  0
   25.3191   14.0238   27.2486 C   0  0  1  0  0  0  0  0  0  0  0  0
   22.7720   15.8340   29.3223 O   0  0  0  0  0  0  0  0  0  0  0  0
   26.5411   14.7926   27.6874 C   0  0  1  0  0  0  0  0  0  0  0  0
   22.4589   15.5699   31.5883 O   0  0  0  0  0  0  0  0  0  0  0  0
   26.4324   15.0996   29.1986 C   0  0  0  0  0  0  0  0  0  0  0  0
   21.7494   19.1011   32.1786 O   0  0  0  0  0  0  0  0  0  0  0  0
   25.1353   15.9279   29.4328 C   0  0  1  0  0  0  0  0  0  0  0  0
   19.5686   18.4200   30.5607 O   0  0  0  0  0  0  0  0  0  0  0  0
   23.9200   15.1128   29.1034 C   0  0  2  0  0  0  0  0  0  0  0  0
   21.8070   15.3891   30.2180 C   0  0  1  0  0  0  0  0  0  0  0  0
   22.7548   16.9988   31.9139 C   0  0  2  0  0  0  0  0  0  0  0  0
   23.3838   17.1166   33.3177 C   0  0  0  0  0  0  0  0  0  0  0  0
   21.4708   17.7732   31.8899 C   0  0  2  0  0  0  0  0  0  0  0  0
   20.8019   17.6866   30.5489 C   0  0  1  0  0  0  0  0  0  0  0  0
   20.5171   16.2563   30.2430 C   0  0  1  0  0  0  0  0  0  0  0  0
  5  4  1  1  0  0  0
  5  8  1  0  0  0  0
  5 16  1  0  0  0  0
  8  7  1  6  0  0  0
  8 10  1  0  0  0  0
 10  1  1  1  0  0  0
 10 12  1  0  0  0  0
 11 18  1  0  0  0  0
 12 14  1  0  0  0  0
 14  2  1  1  0  0  0
 14 16  1  0  0  0  0
 16  9  1  6  0  0  0
 17  9  1  6  0  0  0
 17 11  1  0  0  0  0
 17 22  1  0  0  0  0
 18 19  1  1  0  0  0
 18 20  1  0  0  0  0
 19  3  1  0  0  0  0
 20 13  1  6  0  0  0
 20 21  1  0  0  0  0
 21 15  1  1  0  0  0
 21 22  1  0  0  0  0
 22  6  1  6  0  0  0
M  END
>  <CHROM.1>
124.90399898,70.52416297,46.16409256,23.33922538,15.92894692,29.79678084
-0.83912813,-0.25513336,1.13547988

>  <Name>
2et8_lig

>  <RI>
0

>  <Rbt.Current_Directory>
/home/itssahil/PROJECTS/Mol_Feturizer/New_Systems/rnas/2et8

>  <Rbt.Executable>
rbdock ($Id: //depot/dev/client3/rdock/2013.1/src/exe/rbdock.cxx#4 $)

>  <Rbt.Library>
libRbt.so (2013.1, Build901 2013/11/27)

>  <Rbt.Parameter_File>
/export/apps/rDock/src/rDock_2013.1_src/data/scripts/dock_solv.prm

>  <Rbt.Receptor>
prm/blind_docking_100.prm

>  <SCORE>
-7.21594

>  <SCORE.INTER>
-11.2893

>  <SCORE.INTER.CONST>
1

>  <SCORE.INTER.POLAR>
-0.394656

>  <SCORE.INTER.ROT>
3

>  <SCORE.INTER.SOLV>
20.022

>  <SCORE.INTER.VDW>
-18.4847

>  <SCORE.INTER.norm>
-0.513151

>  <SCORE.INTRA>
3.76283

>  <SCORE.INTRA.DIHEDRAL>
3.24562

>  <SCORE.INTRA.DIHEDRAL.0>
4.99603

>  <SCORE.INTRA.POLAR>
0

>  <SCORE.INTRA.POLAR.0>
0

>  <SCORE.INTRA.REPUL>
0

>  <SCORE.INTRA.REPUL.0>
0

>  <SCORE.INTRA.SOLV>
4.74831

>  <SCORE.INTRA.SOLV.lig_0>
-74.884

>  <SCORE.INTRA.VDW>
-0.234136

>  <SCORE.INTRA.VDW.0>
-0.858933

>  <SCORE.INTRA.norm>
0.171038

>  <SCORE.RESTR>
0.310549

>  <SCORE.RESTR.CAVITY>
0.310549

>  <SCORE.RESTR.norm>
0.0141159

>  <SCORE.SYSTEM>
0

>  <SCORE.SYSTEM.CONST>
0

>  <SCORE.SYSTEM.DIHEDRAL>
0

>  <SCORE.SYSTEM.SOLV>
0

>  <SCORE.SYSTEM.norm>
0

>  <SCORE.heavy>
22

>  <SCORE.norm>
-0.327997

>  <RMSD>
8.393

$$$$
2et8_lig
 OpenBabel11021811433D
libRbt.so/2013.1/901 2013/11/27
 22 23  0  0  0  0  0  0  0  0999 V2000
   27.9799   12.9741   27.5969 N   0  0  0  0  0  0  0  0  0  0  0  0
   23.7641   15.4515   26.7620 N   0  0  0  0  0  0  0  0  0  0  0  0
   23.9944   15.9838   34.5449 N   0  0  0  0  0  0  0  0  0  0  0  0
   26.1765   16.0580   30.9975 O   0  0  0  0  0  0  0  0  0  0  0  0
   25.7962   15.1202   29.9605 C   0  0  2  0  0  0  0  0  0  0  0  0
   20.8497   16.2143   29.3661 N   0  0  0  0  0  0  0  0  0  0  0  0
   27.9154   13.8455   30.2566 O   0  0  0  0  0  0  0  0  0  0  0  0
   27.0940   14.5210   29.2959 C   0  0  1  0  0  0  0  0  0  0  0  0
   23.8280   16.3569   29.4628 O   0  0  0  0  0  0  0  0  0  0  0  0
   26.7293   13.5283   28.2197 C   0  0  1  0  0  0  0  0  0  0  0  0
   23.8349   15.5758   31.6289 O   0  0  0  0  0  0  0  0  0  0  0  0
   25.8555   14.2311   27.1555 C   0  0  0  0  0  0  0  0  0  0  0  0
   22.6386   18.7155   33.0544 O   0  0  0  0  0  0  0  0  0  0  0  0
   24.5833   14.7847   27.8616 C   0  0  1  0  0  0  0  0  0  0  0  0
   20.4194   17.9950   31.5074 O   0  0  0  0  0  0  0  0  0  0  0  0
   24.9483   15.8546   28.8474 C   0  0  2  0  0  0  0  0  0  0  0  0
   23.0618   15.5661   30.3108 C   0  0  1  0  0  0  0  0  0  0  0  0
   23.9322   16.9356   32.2426 C   0  0  2  0  0  0  0  0  0  0  0  0
   24.6971   16.8737   33.5811 C   0  0  0  0  0  0  0  0  0  0  0  0
   22.5463   17.4483   32.4979 C   0  0  2  0  0  0  0  0  0  0  0  0
   21.7448   17.5199   31.2307 C   0  0  1  0  0  0  0  0  0  0  0  0
   21.6608   16.1566   30.6349 C   0  0  1  0  0  0  0  0  0  0  0  0
  5  4  1  1  0  0  0
  5  8  1  0  0  0  0
  5 16  1  0  0  0  0
  8  7  1  1  0  0  0
  8 10  1  0  0  0  0
 10  1  1  6  0  0  0
 10 12  1  0  0  0  0
 11 18  1  0  0  0  0
 12 14  1  0  0  0  0
 14  2  1  6  0  0  0
 14 16  1  0  0  0  0
 16  9  1  1  0  0  0
 17  9  1  6  0  0  0
 17 11  1  0  0  0  0
 17 22  1  0  0  0  0
 18 19  1  1  0  0  0
 18 20  1  0  0  0  0
 19  3  1  0  0  0  0
 20 13  1  6  0  0  0
 20 21  1  0  0  0  0
 21 15  1  1  0  0  0
 21 22  1  0  0  0  0
 22  6  1  6  0  0  0
M  END
>  <CHROM.1>
-47.97471694,79.64659103,-60.41800628,24.27184296,15.83081893,30.35764595
-0.77526947,-0.41049665,1.25982338

>  <Name>
2et8_lig

>  <RI>
224

>  <Rbt.Current_Directory>
/home/itssahil/PROJECTS/Mol_Feturizer/New_Systems/rnas/2et8

>  <Rbt.Executable>
rbdock ($Id: //depot/dev/client3/rdock/2013.1/src/exe/rbdock.cxx#4 $)

>  <Rbt.Library>
libRbt.so (2013.1, Build901 2013/11/27)

>  <Rbt.Parameter_File>
/export/apps/rDock/src/rDock_2013.1_src/data/scripts/dock_solv.prm

>  <Rbt.Receptor>
prm/blind_docking_60.prm

>  <SCORE>
-11.8277

>  <SCORE.INTER>
-15.6094

>  <SCORE.INTER.CONST>
1

>  <SCORE.INTER.POLAR>
-1.09545

>  <SCORE.INTER.ROT>
3

>  <SCORE.INTER.SOLV>
20.8

>  <SCORE.INTER.VDW>
-19.2881

>  <SCORE.INTER.norm>
-0.709516

>  <SCORE.INTRA>
2.48737

>  <SCORE.INTRA.DIHEDRAL>
-2.42925

>  <SCORE.INTRA.DIHEDRAL.0>
4.99603

>  <SCORE.INTRA.POLAR>
0

>  <SCORE.INTRA.POLAR.0>
0

>  <SCORE.INTRA.REPUL>
0

>  <SCORE.INTRA.REPUL.0>
0

>  <SCORE.INTRA.SOLV>
2.063

>  <SCORE.INTRA.SOLV.lig_0>
-74.884

>  <SCORE.INTRA.VDW>
2.67049

>  <SCORE.INTRA.VDW.0>
-0.858933

>  <SCORE.INTRA.norm>
0.113062

>  <SCORE.RESTR>
1.29424

>  <SCORE.RESTR.CAVITY>
1.29424

>  <SCORE.RESTR.norm>
0.0588292

>  <SCORE.SYSTEM>
0

>  <SCORE.SYSTEM.CONST>
0

>  <SCORE.SYSTEM.DIHEDRAL>
0

>  <SCORE.SYSTEM.SOLV>
0

>  <SCORE.SYSTEM.norm>
0

>  <SCORE.heavy>
22

>  <SCORE.norm>
-0.537625

>  <RMSD>
8.396

$$$$
2et8_lig
 OpenBabel11021811433D
libRbt.so/2013.1/901 2013/11/27
 22 23  0  0  0  0  0  0  0  0999 V2000
   27.9771   12.9759   27.5380 N   0  0  0  0  0  0  0  0  0  0  0  0
   23.7648   15.4805   26.7691 N   0  0  0  0  0  0  0  0  0  0  0  0
   23.9987   15.9387   34.5556 N   0  0  0  0  0  0  0  0  0  0  0  0
   26.2202   16.0323   30.9873 O   0  0  0  0  0  0  0  0  0  0  0  0
   25.8257   15.1070   29.9444 C   0  0  2  0  0  0  0  0  0  0  0  0
   20.8814   16.2066   29.3619 N   0  0  0  0  0  0  0  0  0  0  0  0
   27.9419   13.8198   30.2071 O   0  0  0  0  0  0  0  0  0  0  0  0
   27.1144   14.5089   29.2613 C   0  0  1  0  0  0  0  0  0  0  0  0
   23.8586   16.3575   29.4783 O   0  0  0  0  0  0  0  0  0  0  0  0
   26.7350   13.5291   28.1784 C   0  0  1  0  0  0  0  0  0  0  0  0
   23.8543   15.5593   31.6383 O   0  0  0  0  0  0  0  0  0  0  0  0
   25.8543   14.2468   27.1299 C   0  0  0  0  0  0  0  0  0  0  0  0
   22.6396   18.6842   33.0808 O   0  0  0  0  0  0  0  0  0  0  0  0
   24.5915   14.7986   27.8538 C   0  0  1  0  0  0  0  0  0  0  0  0
   20.4322   17.9692   31.5144 O   0  0  0  0  0  0  0  0  0  0  0  0
   24.9706   15.8567   28.8471 C   0  0  2  0  0  0  0  0  0  0  0  0
   23.0895   15.5577   30.3153 C   0  0  1  0  0  0  0  0  0  0  0  0
   23.9436   16.9146   32.2633 C   0  0  2  0  0  0  0  0  0  0  0  0
   24.7003   16.8445   33.6059 C   0  0  0  0  0  0  0  0  0  0  0  0
   22.5546   17.4211   32.5139 C   0  0  2  0  0  0  0  0  0  0  0  0
   21.7608   17.5002   31.2422 C   0  0  1  0  0  0  0  0  0  0  0  0
   21.6848   16.1414   30.6353 C   0  0  1  0  0  0  0  0  0  0  0  0
  5  4  1  1  0  0  0
  5  8  1  0  0  0  0
  5 16  1  0  0  0  0
  8  7  1  1  0  0  0
  8 10  1  0  0  0  0
 10  1  1  6  0  0  0
 10 12  1  0  0  0  0
 11 18  1  0  0  0  0
 12 14  1  0  0  0  0
 14  2  1  6  0  0  0
 14 16  1  0  0  0  0
 16  9  1  1  0  0  0
 17  9  1  6  0  0  0
 17 11  1  0  0  0  0
 17 22  1  0  0  0  0
 18 19  1  1  0  0  0
 18 20  1  0  0  0  0
 19  3  1  0  0  0  0
 20 13  1  6  0  0  0
 20 21  1  0  0  0  0
 21 15  1  1  0  0  0
 21 22  1  0  0  0  0
 22  6  1  6  0  0  0
M  END
>  <CHROM.1>
-48.60059732,80.82730507,-60.08792737,24.28767015,15.81859701,30.35354199
-0.77856324,-0.41094020,1.26851700

>  <Name>
2et8_lig

>  <RI>
0

>  <Rbt.Current_Directory>
/home/itssahil/PROJECTS/Mol_Feturizer/New_Systems/rnas/2et8

>  <Rbt.Executable>
rbdock ($Id: //depot/dev/client3/rdock/2013.1/src/exe/rbdock.cxx#4 $)

>  <Rbt.Library>
libRbt.so (2013.1, Build901 2013/11/27)

>  <Rbt.Parameter_File>
/export/apps/rDock/src/rDock_2013.1_src/data/scripts/dock_solv.prm

>  <Rbt.Receptor>
prm/blind_docking_80.prm

>  <SCORE>
-12.5623

>  <SCORE.INTER>
-15.6426

>  <SCORE.INTER.CONST>
1

>  <SCORE.INTER.POLAR>
-1.08705

>  <SCORE.INTER.ROT>
3

>  <SCORE.INTER.SOLV>
20.8452

>  <SCORE.INTER.VDW>
-19.3533

>  <SCORE.INTER.norm>
-0.711025

>  <SCORE.INTRA>
2.11315

>  <SCORE.INTRA.DIHEDRAL>
-2.30609

>  <SCORE.INTRA.DIHEDRAL.0>
4.99603

>  <SCORE.INTRA.POLAR>
0

>  <SCORE.INTRA.POLAR.0>
0

>  <SCORE.INTRA.REPUL>
0

>  <SCORE.INTRA.REPUL.0>
0

>  <SCORE.INTRA.SOLV>
2.09027

>  <SCORE.INTRA.SOLV.lig_0>
-74.884

>  <SCORE.INTRA.VDW>
2.22106

>  <SCORE.INTRA.VDW.0>
-0.858933

>  <SCORE.INTRA.norm>
0.0960525

>  <SCORE.RESTR>
0.967092

>  <SCORE.RESTR.CAVITY>
0.967092

>  <SCORE.RESTR.norm>
0.0439587

>  <SCORE.SYSTEM>
0

>  <SCORE.SYSTEM.CONST>
0

>  <SCORE.SYSTEM.DIHEDRAL>
0

>  <SCORE.SYSTEM.SOLV>
0

>  <SCORE.SYSTEM.norm>
0

>  <SCORE.heavy>
22

>  <SCORE.norm>
-0.571014

>  <RMSD>
8.399

$$$$
2et8_lig
 OpenBabel11021811433D
libRbt.so/2013.1/901 2013/11/27
 22 23  0  0  0  0  0  0  0  0999 V2000
   27.7957   13.9566   27.3967 N   0  0  0  0  0  0  0  0  0  0  0  0
   25.1300   16.1797   30.9406 N   0  0  0  0  0  0  0  0  0  0  0  0
   24.4927   16.0940   33.5072 N   0  0  0  0  0  0  0  0  0  0  0  0
   22.8748   14.1069   27.1008 O   0  0  0  0  0  0  0  0  0  0  0  0
   24.0354   14.8494   27.5492 C   0  0  2  0  0  0  0  0  0  0  0  0
   19.8678   16.1785   28.9416 N   0  0  0  0  0  0  0  0  0  0  0  0
   25.4747   13.7388   25.8467 O   0  0  0  0  0  0  0  0  0  0  0  0
   25.3385   14.0157   27.2462 C   0  0  1  0  0  0  0  0  0  0  0  0
   22.8063   15.8378   29.3277 O   0  0  0  0  0  0  0  0  0  0  0  0
   26.5671   14.7710   27.6900 C   0  0  1  0  0  0  0  0  0  0  0  0
   22.5207   15.6035   31.6006 O   0  0  0  0  0  0  0  0  0  0  0  0
   26.4600   15.0710   29.2028 C   0  0  0  0  0  0  0  0  0  0  0  0
   21.8452   19.1468   32.1570 O   0  0  0  0  0  0  0  0  0  0  0  0
   25.1703   15.9097   29.4405 C   0  0  1  0  0  0  0  0  0  0  0  0
   19.6385   18.4628   30.5758 O   0  0  0  0  0  0  0  0  0  0  0  0
   23.9478   15.1074   29.1058 C   0  0  2  0  0  0  0  0  0  0  0  0
   21.8497   15.4111   30.2412 C   0  0  1  0  0  0  0  0  0  0  0  0
   22.8314   17.0339   31.9050 C   0  0  2  0  0  0  0  0  0  0  0  0
   23.4795   17.1640   33.2990 C   0  0  0  0  0  0  0  0  0  0  0  0
   21.5530   17.8177   31.8881 C   0  0  2  0  0  0  0  0  0  0  0  0
   20.8661   17.7200   30.5570 C   0  0  1  0  0  0  0  0  0  0  0  0
   20.5667   16.2883   30.2722 C   0  0  1  0  0  0  0  0  0  0  0  0
  5  4  1  1  0  0  0
  5  8  1  0  0  0  0
  5 16  1  0  0  0  0
  8  7  1  6  0  0  0
  8 10  1  0  0  0  0
 10  1  1  1  0  0  0
 10 12  1  0  0  0  0
 11 18  1  0  0  0  0
 12 14  1  0  0  0  0
 14  2  1  1  0  0  0
 14 16  1  0  0  0  0
 16  9  1  6  0  0  0
 17  9  1  6  0  0  0
 17 11  1  0  0  0  0
 17 22  1  0  0  0  0
 18 19  1  1  0  0  0
 18 20  1  0  0  0  0
 19  3  1  0  0  0  0
 20 13  1  6  0  0  0
 20 21  1  0  0  0  0
 21 15  1  1  0  0  0
 21 22  1  0  0  0  0
 22  6  1  6  0  0  0
M  END
>  <CHROM.1>
126.27134494,70.32490207,42.91212299,23.38467919,15.93988975,29.80146347
-0.84696743,-0.26168461,1.13042944

>  <Name>
2et8_lig

>  <RI>
0

>  <Rbt.Current_Directory>
/home/itssahil/PROJECTS/Mol_Feturizer/New_Systems/rnas/2et8

>  <Rbt.Executable>
rbdock ($Id: //depot/dev/client3/rdock/2013.1/src/exe/rbdock.cxx#4 $)

>  <Rbt.Library>
libRbt.so (2013.1, Build901 2013/11/27)

>  <Rbt.Parameter_File>
/export/apps/rDock/src/rDock_2013.1_src/data/scripts/dock_solv.prm

>  <Rbt.Receptor>
prm/blind_docking_100.prm

>  <SCORE>
-7.14342

>  <SCORE.INTER>
-11.5816

>  <SCORE.INTER.CONST>
1

>  <SCORE.INTER.POLAR>
-0.369453

>  <SCORE.INTER.ROT>
3

>  <SCORE.INTER.SOLV>
19.9857

>  <SCORE.INTER.VDW>
-18.7514

>  <SCORE.INTER.norm>
-0.526435

>  <SCORE.INTRA>
4.11524

>  <SCORE.INTRA.DIHEDRAL>
3.47904

>  <SCORE.INTRA.DIHEDRAL.0>
4.99603

>  <SCORE.INTRA.POLAR>
0

>  <SCORE.INTRA.POLAR.0>
0

>  <SCORE.INTRA.REPUL>
0

>  <SCORE.INTRA.REPUL.0>
0

>  <SCORE.INTRA.SOLV>
4.81929

>  <SCORE.INTRA.SOLV.lig_0>
-74.884

>  <SCORE.INTRA.VDW>
-0.0339263

>  <SCORE.INTRA.VDW.0>
-0.858933

>  <SCORE.INTRA.norm>
0.187056

>  <SCORE.RESTR>
0.322905

>  <SCORE.RESTR.CAVITY>
0.322905

>  <SCORE.RESTR.norm>
0.0146775

>  <SCORE.SYSTEM>
0

>  <SCORE.SYSTEM.CONST>
0

>  <SCORE.SYSTEM.DIHEDRAL>
0

>  <SCORE.SYSTEM.SOLV>
0

>  <SCORE.SYSTEM.norm>
0

>  <SCORE.heavy>
22

>  <SCORE.norm>
-0.324701

>  <RMSD>
8.406

$$$$
2et8_lig
 OpenBabel11021811433D
libRbt.so/2013.1/901 2013/11/27
 22 23  0  0  0  0  0  0  0  0999 V2000
   27.9981   12.9777   27.6004 N   0  0  0  0  0  0  0  0  0  0  0  0
   23.7340   15.3629   26.7426 N   0  0  0  0  0  0  0  0  0  0  0  0
   23.9818   16.0062   34.4686 N   0  0  0  0  0  0  0  0  0  0  0  0
   26.1144   16.0285   30.9873 O   0  0  0  0  0  0  0  0  0  0  0  0
   25.7587   15.0809   29.9504 C   0  0  2  0  0  0  0  0  0  0  0  0
   20.8060   15.9395   29.2950 N   0  0  0  0  0  0  0  0  0  0  0  0
   27.9034   13.8523   30.2582 O   0  0  0  0  0  0  0  0  0  0  0  0
   27.0719   14.5084   29.2927 C   0  0  1  0  0  0  0  0  0  0  0  0
   23.7668   16.2743   29.4419 O   0  0  0  0  0  0  0  0  0  0  0  0
   26.7332   13.5061   28.2167 C   0  0  1  0  0  0  0  0  0  0  0  0
   23.7734   15.6027   31.6444 O   0  0  0  0  0  0  0  0  0  0  0  0
   25.8492   14.1882   27.1474 C   0  0  0  0  0  0  0  0  0  0  0  0
   22.3530   18.7271   32.8861 O   0  0  0  0  0  0  0  0  0  0  0  0
   24.5625   14.7157   27.8469 C   0  0  1  0  0  0  0  0  0  0  0  0
   20.2181   17.7928   31.3349 O   0  0  0  0  0  0  0  0  0  0  0  0
   24.9002   15.7950   28.8323 C   0  0  2  0  0  0  0  0  0  0  0  0
   23.0323   15.4794   30.3138 C   0  0  1  0  0  0  0  0  0  0  0  0
   23.7724   16.9945   32.1905 C   0  0  2  0  0  0  0  0  0  0  0  0
   24.5094   17.0468   33.5448 C   0  0  0  0  0  0  0  0  0  0  0  0
   22.3520   17.4307   32.3927 C   0  0  2  0  0  0  0  0  0  0  0  0
   21.5763   17.3891   31.1082 C   0  0  1  0  0  0  0  0  0  0  0  0
   21.5904   15.9956   30.5806 C   0  0  1  0  0  0  0  0  0  0  0  0
  5  4  1  1  0  0  0
  5  8  1  0  0  0  0
  5 16  1  0  0  0  0
  8  7  1  1  0  0  0
  8 10  1  0  0  0  0
 10  1  1  6  0  0  0
 10 12  1  0  0  0  0
 11 18  1  0  0  0  0
 12 14  1  0  0  0  0
 14  2  1  6  0  0  0
 14 16  1  0  0  0  0
 16  9  1  1  0  0  0
 17  9  1  6  0  0  0
 17 11  1  0  0  0  0
 17 22  1  0  0  0  0
 18 19  1  1  0  0  0
 18 20  1  0  0  0  0
 19  3  1  0  0  0  0
 20 13  1  6  0  0  0
 20 21  1  0  0  0  0
 21 15  1  1  0  0  0
 21 22  1  0  0  0  0
 22  6  1  6  0  0  0
M  END
>  <CHROM.1>
-46.37382733,82.31223914,-51.30010091,24.19340336,15.78495486,30.31414637
-0.75596196,-0.38225514,1.23981375

>  <Name>
2et8_lig

>  <RI>
224

>  <Rbt.Current_Directory>
/home/itssahil/PROJECTS/Mol_Feturizer/New_Systems/rnas/2et8

>  <Rbt.Executable>
rbdock ($Id: //depot/dev/client3/rdock/2013.1/src/exe/rbdock.cxx#4 $)

>  <Rbt.Library>
libRbt.so (2013.1, Build901 2013/11/27)

>  <Rbt.Parameter_File>
/export/apps/rDock/src/rDock_2013.1_src/data/scripts/dock_solv.prm

>  <Rbt.Receptor>
prm/blind_docking_60.prm

>  <SCORE>
-11.1672

>  <SCORE.INTER>
-14.8559

>  <SCORE.INTER.CONST>
1

>  <SCORE.INTER.POLAR>
-1.09545

>  <SCORE.INTER.ROT>
3

>  <SCORE.INTER.SOLV>
20.4146

>  <SCORE.INTER.VDW>
-18.6573

>  <SCORE.INTER.norm>
-0.675267

>  <SCORE.INTRA>
2.41058

>  <SCORE.INTRA.DIHEDRAL>
-1.54047

>  <SCORE.INTRA.DIHEDRAL.0>
4.99603

>  <SCORE.INTRA.POLAR>
0

>  <SCORE.INTRA.POLAR.0>
0

>  <SCORE.INTRA.REPUL>
0

>  <SCORE.INTRA.REPUL.0>
0

>  <SCORE.INTRA.SOLV>
2.05709

>  <SCORE.INTRA.SOLV.lig_0>
-74.884

>  <SCORE.INTRA.VDW>
2.15227

>  <SCORE.INTRA.VDW.0>
-0.858933

>  <SCORE.INTRA.norm>
0.109572

>  <SCORE.RESTR>
1.27811

>  <SCORE.RESTR.CAVITY>
1.27811

>  <SCORE.RESTR.norm>
0.0580959

>  <SCORE.SYSTEM>
0

>  <SCORE.SYSTEM.CONST>
0

>  <SCORE.SYSTEM.DIHEDRAL>
0

>  <SCORE.SYSTEM.SOLV>
0

>  <SCORE.SYSTEM.norm>
0

>  <SCORE.heavy>
22

>  <SCORE.norm>
-0.507599

>  <RMSD>
8.410

$$$$
2et8_lig
 OpenBabel11021811433D
libRbt.so/2013.1/901 2013/11/27
 22 23  0  0  0  0  0  0  0  0999 V2000
   27.9755   12.9803   27.5206 N   0  0  0  0  0  0  0  0  0  0  0  0
   23.7672   15.4961   26.7664 N   0  0  0  0  0  0  0  0  0  0  0  0
   24.0464   15.9508   34.5385 N   0  0  0  0  0  0  0  0  0  0  0  0
   26.2306   16.0297   30.9822 O   0  0  0  0  0  0  0  0  0  0  0  0
   25.8325   15.1085   29.9371 C   0  0  2  0  0  0  0  0  0  0  0  0
   20.8913   16.1896   29.3647 N   0  0  0  0  0  0  0  0  0  0  0  0
   27.9464   13.8161   30.1924 O   0  0  0  0  0  0  0  0  0  0  0  0
   27.1188   14.5098   29.2501 C   0  0  1  0  0  0  0  0  0  0  0  0
   23.8673   16.3645   29.4781 O   0  0  0  0  0  0  0  0  0  0  0  0
   26.7356   13.5341   28.1647 C   0  0  1  0  0  0  0  0  0  0  0  0
   23.8701   15.5876   31.6458 O   0  0  0  0  0  0  0  0  0  0  0  0
   25.8547   14.2569   27.1199 C   0  0  0  0  0  0  0  0  0  0  0  0
   22.6320   18.7170   33.0583 O   0  0  0  0  0  0  0  0  0  0  0  0
   24.5942   14.8092   27.8476 C   0  0  1  0  0  0  0  0  0  0  0  0
   20.4295   17.9697   31.5001 O   0  0  0  0  0  0  0  0  0  0  0  0
   24.9772   15.8633   28.8435 C   0  0  2  0  0  0  0  0  0  0  0  0
   23.1048   15.5671   30.3233 C   0  0  1  0  0  0  0  0  0  0  0  0
   23.9493   16.9496   32.2574 C   0  0  2  0  0  0  0  0  0  0  0  0
   24.7071   16.8984   33.6003 C   0  0  0  0  0  0  0  0  0  0  0  0
   22.5565   17.4477   32.5038 C   0  0  2  0  0  0  0  0  0  0  0  0
   21.7615   17.5083   31.2318 C   0  0  1  0  0  0  0  0  0  0  0  0
   21.6957   16.1431   30.6383 C   0  0  1  0  0  0  0  0  0  0  0  0
  5  4  1  1  0  0  0
  5  8  1  0  0  0  0
  5 16  1  0  0  0  0
  8  7  1  1  0  0  0
  8 10  1  0  0  0  0
 10  1  1  6  0  0  0
 10 12  1  0  0  0  0
 11 18  1  0  0  0  0
 12 14  1  0  0  0  0
 14  2  1  6  0  0  0
 14 16  1  0  0  0  0
 16  9  1  1  0  0  0
 17  9  1  6  0  0  0
 17 11  1  0  0  0  0
 17 22  1  0  0  0  0
 18 19  1  1  0  0  0
 18 20  1  0  0  0  0
 19  3  1  0  0  0  0
 20 13  1  6  0  0  0
 20 21  1  0  0  0  0
 21 15  1  1  0  0  0
 21 22  1  0  0  0  0
 22  6  1  6  0  0  0
M  END
>  <CHROM.1>
-48.01715538,81.31136082,-57.60397929,24.29445980,15.82981191,30.34631115
-0.78067576,-0.41006268,1.26384247

>  <Name>
2et8_lig

>  <RI>
0

>  <Rbt.Current_Directory>
/home/itssahil/PROJECTS/Mol_Feturizer/New_Systems/rnas/2et8

>  <Rbt.Executable>
rbdock ($Id: //depot/dev/client3/rdock/2013.1/src/exe/rbdock.cxx#4 $)

>  <Rbt.Library>
libRbt.so (2013.1, Build901 2013/11/27)

>  <Rbt.Parameter_File>
/export/apps/rDock/src/rDock_2013.1_src/data/scripts/dock_solv.prm

>  <Rbt.Receptor>
prm/blind_docking_80.prm

>  <SCORE>
-12.5869

>  <SCORE.INTER>
-15.6779

>  <SCORE.INTER.CONST>
1

>  <SCORE.INTER.POLAR>
-1.08512

>  <SCORE.INTER.ROT>
3

>  <SCORE.INTER.SOLV>
20.8821

>  <SCORE.INTER.VDW>
-19.3956

>  <SCORE.INTER.norm>
-0.71263

>  <SCORE.INTRA>
2.10817

>  <SCORE.INTRA.DIHEDRAL>
-2.14409

>  <SCORE.INTRA.DIHEDRAL.0>
4.99603

>  <SCORE.INTRA.POLAR>
0

>  <SCORE.INTRA.POLAR.0>
0

>  <SCORE.INTRA.REPUL>
0

>  <SCORE.INTRA.REPUL.0>
0

>  <SCORE.INTRA.SOLV>
2.08349

>  <SCORE.INTRA.SOLV.lig_0>
-74.884

>  <SCORE.INTRA.VDW>
2.13846

>  <SCORE.INTRA.VDW.0>
-0.858933

>  <SCORE.INTRA.norm>
0.0958257

>  <SCORE.RESTR>
0.982766

>  <SCORE.RESTR.CAVITY>
0.982766

>  <SCORE.RESTR.norm>
0.0446712

>  <SCORE.SYSTEM>
0

>  <SCORE.SYSTEM.CONST>
0

>  <SCORE.SYSTEM.DIHEDRAL>
0

>  <SCORE.SYSTEM.SOLV>
0

>  <SCORE.SYSTEM.norm>
0

>  <SCORE.heavy>
22

>  <SCORE.norm>
-0.572133

>  <RMSD>
8.411

$$$$
2et8_lig
 OpenBabel11021811433D
libRbt.so/2013.1/901 2013/11/27
 22 23  0  0  0  0  0  0  0  0999 V2000
   16.6985   12.0870   29.9036 N   0  0  0  0  0  0  0  0  0  0  0  0
   20.7005   12.6894   32.7722 N   0  0  0  0  0  0  0  0  0  0  0  0
   20.7225   16.8551   34.8198 N   0  0  0  0  0  0  0  0  0  0  0  0
   19.8782   15.7528   29.0218 O   0  0  0  0  0  0  0  0  0  0  0  0
   19.7816   14.3865   29.4943 C   0  0  2  0  0  0  0  0  0  0  0  0
   23.8823   15.4873   29.1845 N   0  0  0  0  0  0  0  0  0  0  0  0
   17.7263   14.0033   28.1404 O   0  0  0  0  0  0  0  0  0  0  0  0
   18.2738   13.9278   29.4628 C   0  0  1  0  0  0  0  0  0  0  0  0
   21.6254   14.6877   30.9641 O   0  0  0  0  0  0  0  0  0  0  0  0
   18.1429   12.5012   29.9368 C   0  0  1  0  0  0  0  0  0  0  0  0
   21.6485   16.7507   31.9868 O   0  0  0  0  0  0  0  0  0  0  0  0
   18.7096   12.3885   31.3707 C   0  0  0  0  0  0  0  0  0  0  0  0
   24.6967   16.0822   33.8795 O   0  0  0  0  0  0  0  0  0  0  0  0
   20.2009   12.8338   31.3388 C   0  0  1  0  0  0  0  0  0  0  0  0
   25.7060   16.0060   31.2694 O   0  0  0  0  0  0  0  0  0  0  0  0
   20.3123   14.2858   30.9793 C   0  0  2  0  0  0  0  0  0  0  0  0
   21.9671   16.0068   30.6906 C   0  0  1  0  0  0  0  0  0  0  0  0
   22.4804   16.2977   33.1436 C   0  0  2  0  0  0  0  0  0  0  0  0
   22.1318   17.1043   34.4117 C   0  0  0  0  0  0  0  0  0  0  0  0
   23.9262   16.5159   32.8108 C   0  0  2  0  0  0  0  0  0  0  0  0
   24.3248   15.7641   31.5741 C   0  0  1  0  0  0  0  0  0  0  0  0
   23.4843   16.2288   30.4347 C   0  0  1  0  0  0  0  0  0  0  0  0
  5  4  1  1  0  0  0
  5  8  1  0  0  0  0
  5 16  1  0  0  0  0
  8  7  1  6  0  0  0
  8 10  1  0  0  0  0
 10  1  1  1  0  0  0
 10 12  1  0  0  0  0
 11 18  1  0  0  0  0
 12 14  1  0  0  0  0
 14  2  1  1  0  0  0
 14 16  1  0  0  0  0
 16  9  1  6  0  0  0
 17  9  1  1  0  0  0
 17 11  1  0  0  0  0
 17 22  1  0  0  0  0
 18 19  1  1  0  0  0
 18 20  1  0  0  0  0
 19  3  1  0  0  0  0
 20 13  1  1  0  0  0
 20 21  1  0  0  0  0
 21 15  1  6  0  0  0
 21 22  1  0  0  0  0
 22  6  1  6  0  0  0
M  END
>  <CHROM.1>
67.53802700,76.64958568,63.72605948,21.25128583,14.96376385,31.24830499,2.66813295
-0.46142366,-1.69644296

>  <Name>
2et8_lig

>  <RI>
2.82936e+07

>  <Rbt.Current_Directory>
/home/itssahil/PROJECTS/Mol_Feturizer/New_Systems/rnas/2et8

>  <Rbt.Executable>
rbdock ($Id: //depot/dev/client3/rdock/2013.1/src/exe/rbdock.cxx#4 $)

>  <Rbt.Library>
libRbt.so (2013.1, Build901 2013/11/27)

>  <Rbt.Parameter_File>
/export/apps/rDock/src/rDock_2013.1_src/data/scripts/dock_solv.prm

>  <Rbt.Receptor>
prm/pocket_docking_8.prm

>  <SCORE>
-14.4346

>  <SCORE.INTER>
-12.7939

>  <SCORE.INTER.CONST>
1

>  <SCORE.INTER.POLAR>
-1.55505

>  <SCORE.INTER.ROT>
3

>  <SCORE.INTER.SOLV>
13.6581

>  <SCORE.INTER.VDW>
-13.4985

>  <SCORE.INTER.norm>
-0.581541

>  <SCORE.INTRA>
-1.81439

>  <SCORE.INTRA.DIHEDRAL>
-3.22829

>  <SCORE.INTRA.DIHEDRAL.0>
4.99603

>  <SCORE.INTRA.POLAR>
0

>  <SCORE.INTRA.POLAR.0>
0

>  <SCORE.INTRA.REPUL>
0

>  <SCORE.INTRA.REPUL.0>
0

>  <SCORE.INTRA.SOLV>
-0.671658

>  <SCORE.INTRA.SOLV.lig_0>
-74.884

>  <SCORE.INTRA.VDW>
0.135585

>  <SCORE.INTRA.VDW.0>
-0.858933

>  <SCORE.INTRA.norm>
-0.0824723

>  <SCORE.RESTR>
0.173652

>  <SCORE.RESTR.CAVITY>
0.173652

>  <SCORE.RESTR.norm>
0.00789327

>  <SCORE.SYSTEM>
0

>  <SCORE.SYSTEM.CONST>
0

>  <SCORE.SYSTEM.DIHEDRAL>
0

>  <SCORE.SYSTEM.SOLV>
0

>  <SCORE.SYSTEM.norm>
0

>  <SCORE.heavy>
22

>  <SCORE.norm>
-0.65612

>  <RMSD>
8.414

$$$$
2et8_lig
 OpenBabel11021811433D
libRbt.so/2013.1/901 2013/11/27
 22 23  0  0  0  0  0  0  0  0999 V2000
   27.2134   13.5023   26.9195 N   0  0  0  0  0  0  0  0  0  0  0  0
   25.2812   16.2855   30.5428 N   0  0  0  0  0  0  0  0  0  0  0  0
   24.8284   15.3589   33.2202 N   0  0  0  0  0  0  0  0  0  0  0  0
   22.3347   14.1491   27.2442 O   0  0  0  0  0  0  0  0  0  0  0  0
   23.6105   14.7991   27.4656 C   0  0  2  0  0  0  0  0  0  0  0  0
   19.9596   17.1393   29.1327 N   0  0  0  0  0  0  0  0  0  0  0  0
   24.6912   13.4030   25.7087 O   0  0  0  0  0  0  0  0  0  0  0  0
   24.7754   13.8092   27.0805 C   0  0  1  0  0  0  0  0  0  0  0  0
   22.7361   16.0582   29.2824 O   0  0  0  0  0  0  0  0  0  0  0  0
   26.1189   14.4643   27.2873 C   0  0  1  0  0  0  0  0  0  0  0  0
   22.4170   15.4330   31.4755 O   0  0  0  0  0  0  0  0  0  0  0  0
   26.2494   14.8998   28.7649 C   0  0  0  0  0  0  0  0  0  0  0  0
   22.6036   18.8438   32.7610 O   0  0  0  0  0  0  0  0  0  0  0  0
   25.0893   15.8878   29.0834 C   0  0  1  0  0  0  0  0  0  0  0  0
   20.2881   19.0280   31.1983 O   0  0  0  0  0  0  0  0  0  0  0  0
   23.7625   15.1947   28.9880 C   0  0  2  0  0  0  0  0  0  0  0  0
   21.7113   15.6848   30.1437 C   0  0  1  0  0  0  0  0  0  0  0  0
   23.0596   16.6590   32.0406 C   0  0  2  0  0  0  0  0  0  0  0  0
   23.7286   16.3460   33.3952 C   0  0  0  0  0  0  0  0  0  0  0  0
   22.0032   17.7026   32.2497 C   0  0  2  0  0  0  0  0  0  0  0  0
   21.3046   18.0423   30.9652 C   0  0  1  0  0  0  0  0  0  0  0  0
   20.6728   16.8085   30.4185 C   0  0  1  0  0  0  0  0  0  0  0  0
  5  4  1  1  0  0  0
  5  8  1  0  0  0  0
  5 16  1  0  0  0  0
  8  7  1  6  0  0  0
  8 10  1  0  0  0  0
 10  1  1  1  0  0  0
 10 12  1  0  0  0  0
 11 18  1  0  0  0  0
 12 14  1  0  0  0  0
 14  2  1  1  0  0  0
 14 16  1  0  0  0  0
 16  9  1  6  0  0  0
 17  9  1  6  0  0  0
 17 11  1  0  0  0  0
 17 22  1  0  0  0  0
 18 19  1  1  0  0  0
 18 20  1  0  0  0  0
 19  3  1  0  0  0  0
 20 13  1  6  0  0  0
 20 21  1  0  0  0  0
 21 15  1  1  0  0  0
 21 22  1  0  0  0  0
 22  6  1  6  0  0  0
M  END
>  <CHROM.1>
112.10342831,62.21009070,63.23801265,23.35572493,15.89595062,29.78968834
-0.98867409,-0.37129398,1.15566185

>  <Name>
2et8_lig

>  <RI>
0

>  <Rbt.Current_Directory>
/home/itssahil/PROJECTS/Mol_Feturizer/New_Systems/rnas/2et8

>  <Rbt.Executable>
rbdock ($Id: //depot/dev/client3/rdock/2013.1/src/exe/rbdock.cxx#4 $)

>  <Rbt.Library>
libRbt.so (2013.1, Build901 2013/11/27)

>  <Rbt.Parameter_File>
/export/apps/rDock/src/rDock_2013.1_src/data/scripts/dock_solv.prm

>  <Rbt.Receptor>
prm/blind_docking_100.prm

>  <SCORE>
-6.03238

>  <SCORE.INTER>
-9.08143

>  <SCORE.INTER.CONST>
1

>  <SCORE.INTER.POLAR>
-0.410909

>  <SCORE.INTER.ROT>
3

>  <SCORE.INTER.SOLV>
24.8833

>  <SCORE.INTER.VDW>
-18.579

>  <SCORE.INTER.norm>
-0.412792

>  <SCORE.INTRA>
2.22416

>  <SCORE.INTRA.DIHEDRAL>
1.94726

>  <SCORE.INTRA.DIHEDRAL.0>
4.99603

>  <SCORE.INTRA.POLAR>
0

>  <SCORE.INTRA.POLAR.0>
0

>  <SCORE.INTRA.REPUL>
0

>  <SCORE.INTRA.REPUL.0>
0

>  <SCORE.INTRA.SOLV>
4.06208

>  <SCORE.INTRA.SOLV.lig_0>
-74.884

>  <SCORE.INTRA.VDW>
-0.780505

>  <SCORE.INTRA.VDW.0>
-0.858933

>  <SCORE.INTRA.norm>
0.101098

>  <SCORE.RESTR>
0.824882

>  <SCORE.RESTR.CAVITY>
0.824882

>  <SCORE.RESTR.norm>
0.0374946

>  <SCORE.SYSTEM>
0

>  <SCORE.SYSTEM.CONST>
0

>  <SCORE.SYSTEM.DIHEDRAL>
0

>  <SCORE.SYSTEM.SOLV>
0

>  <SCORE.SYSTEM.norm>
0

>  <SCORE.heavy>
22

>  <SCORE.norm>
-0.274199

>  <RMSD>
8.424

$$$$
2et8_lig
 OpenBabel11021811433D
libRbt.so/2013.1/901 2013/11/27
 22 23  0  0  0  0  0  0  0  0999 V2000
   27.1929   13.4968   26.8840 N   0  0  0  0  0  0  0  0  0  0  0  0
   25.2539   16.3328   30.4624 N   0  0  0  0  0  0  0  0  0  0  0  0
   24.8117   15.3295   33.1522 N   0  0  0  0  0  0  0  0  0  0  0  0
   22.3099   14.1014   27.2252 O   0  0  0  0  0  0  0  0  0  0  0  0
   23.5804   14.7684   27.4258 C   0  0  2  0  0  0  0  0  0  0  0  0
   19.9374   17.1614   29.0738 N   0  0  0  0  0  0  0  0  0  0  0  0
   24.6648   13.3481   25.6907 O   0  0  0  0  0  0  0  0  0  0  0  0
   24.7529   13.7826   27.0536 C   0  0  1  0  0  0  0  0  0  0  0  0
   22.7040   16.0550   29.2223 O   0  0  0  0  0  0  0  0  0  0  0  0
   26.0909   14.4551   27.2391 C   0  0  1  0  0  0  0  0  0  0  0  0
   22.3671   15.3984   31.4035 O   0  0  0  0  0  0  0  0  0  0  0  0
   26.2257   14.9215   28.7069 C   0  0  0  0  0  0  0  0  0  0  0  0
   22.5743   18.7872   32.7431 O   0  0  0  0  0  0  0  0  0  0  0  0
   25.0576   15.9040   29.0125 C   0  0  1  0  0  0  0  0  0  0  0  0
   20.2695   19.0149   31.1704 O   0  0  0  0  0  0  0  0  0  0  0  0
   23.7373   15.1960   28.9390 C   0  0  2  0  0  0  0  0  0  0  0  0
   21.6711   15.6768   30.0719 C   0  0  1  0  0  0  0  0  0  0  0  0
   23.0164   16.6101   31.9913 C   0  0  2  0  0  0  0  0  0  0  0  0
   23.6750   16.2705   33.3446 C   0  0  0  0  0  0  0  0  0  0  0  0
   21.9675   17.6591   32.2107 C   0  0  2  0  0  0  0  0  0  0  0  0
   21.2791   18.0246   30.9277 C   0  0  1  0  0  0  0  0  0  0  0  0
   20.6404   16.8047   30.3582 C   0  0  1  0  0  0  0  0  0  0  0  0
  5  4  1  1  0  0  0
  5  8  1  0  0  0  0
  5 16  1  0  0  0  0
  8  7  1  6  0  0  0
  8 10  1  0  0  0  0
 10  1  1  1  0  0  0
 10 12  1  0  0  0  0
 11 18  1  0  0  0  0
 12 14  1  0  0  0  0
 14  2  1  1  0  0  0
 14 16  1  0  0  0  0
 16  9  1  6  0  0  0
 17  9  1  6  0  0  0
 17 11  1  0  0  0  0
 17 22  1  0  0  0  0
 18 19  1  1  0  0  0
 18 20  1  0  0  0  0
 19  3  1  0  0  0  0
 20 13  1  6  0  0  0
 20 21  1  0  0  0  0
 21 15  1  1  0  0  0
 21 22  1  0  0  0  0
 22  6  1  6  0  0  0
M  END
>  <CHROM.1>
110.53432429,61.04209603,66.07331537,23.32576768,15.87707271,29.74206333
-0.98561436,-0.36920138,1.15532249

>  <Name>
2et8_lig

>  <RI>
0

>  <Rbt.Current_Directory>
/home/itssahil/PROJECTS/Mol_Feturizer/New_Systems/rnas/2et8

>  <Rbt.Executable>
rbdock ($Id: //depot/dev/client3/rdock/2013.1/src/exe/rbdock.cxx#4 $)

>  <Rbt.Library>
libRbt.so (2013.1, Build901 2013/11/27)

>  <Rbt.Parameter_File>
/export/apps/rDock/src/rDock_2013.1_src/data/scripts/dock_solv.prm

>  <Rbt.Receptor>
prm/blind_docking_100.prm

>  <SCORE>
-5.60941

>  <SCORE.INTER>
-8.41465

>  <SCORE.INTER.CONST>
1

>  <SCORE.INTER.POLAR>
-0.428169

>  <SCORE.INTER.ROT>
3

>  <SCORE.INTER.SOLV>
25.4402

>  <SCORE.INTER.VDW>
-18.2626

>  <SCORE.INTER.norm>
-0.382484

>  <SCORE.INTRA>
2.08061

>  <SCORE.INTRA.DIHEDRAL>
1.89814

>  <SCORE.INTRA.DIHEDRAL.0>
4.99603

>  <SCORE.INTRA.POLAR>
0

>  <SCORE.INTRA.POLAR.0>
0

>  <SCORE.INTRA.REPUL>
0

>  <SCORE.INTRA.REPUL.0>
0

>  <SCORE.INTRA.SOLV>
3.96522

>  <SCORE.INTRA.SOLV.lig_0>
-74.884

>  <SCORE.INTRA.VDW>
-0.851075

>  <SCORE.INTRA.VDW.0>
-0.858933

>  <SCORE.INTRA.norm>
0.094573

>  <SCORE.RESTR>
0.724628

>  <SCORE.RESTR.CAVITY>
0.724628

>  <SCORE.RESTR.norm>
0.0329376

>  <SCORE.SYSTEM>
0

>  <SCORE.SYSTEM.CONST>
0

>  <SCORE.SYSTEM.DIHEDRAL>
0

>  <SCORE.SYSTEM.SOLV>
0

>  <SCORE.SYSTEM.norm>
0

>  <SCORE.heavy>
22

>  <SCORE.norm>
-0.254973

>  <RMSD>
8.457

$$$$
2et8_lig
 OpenBabel11021811433D
libRbt.so/2013.1/901 2013/11/27
 22 23  0  0  0  0  0  0  0  0999 V2000
   28.0109   13.9592   26.7349 N   0  0  0  0  0  0  0  0  0  0  0  0
   24.0173   16.6615   27.8995 N   0  0  0  0  0  0  0  0  0  0  0  0
   19.4802   16.9050   29.4912 N   0  0  0  0  0  0  0  0  0  0  0  0
   26.6602   14.5234   31.4449 O   0  0  0  0  0  0  0  0  0  0  0  0
   26.1472   14.4008   30.0954 C   0  0  2  0  0  0  0  0  0  0  0  0
   24.3215   17.3902   33.1170 N   0  0  0  0  0  0  0  0  0  0  0  0
   28.1465   13.0917   29.3932 O   0  0  0  0  0  0  0  0  0  0  0  0
   27.3517   14.2452   29.0904 C   0  0  1  0  0  0  0  0  0  0  0  0
   24.2857   15.7906   30.5990 O   0  0  0  0  0  0  0  0  0  0  0  0
   26.8472   14.1008   27.6756 C   0  0  1  0  0  0  0  0  0  0  0  0
   22.3289   16.8065   29.9345 O   0  0  0  0  0  0  0  0  0  0  0  0
   25.9984   15.3401   27.3101 C   0  0  0  0  0  0  0  0  0  0  0  0
   20.2505   14.9743   32.3103 O   0  0  0  0  0  0  0  0  0  0  0  0
   24.8169   15.4331   28.3195 C   0  0  1  0  0  0  0  0  0  0  0  0
   21.8466   16.4455   34.0782 O   0  0  0  0  0  0  0  0  0  0  0  0
   25.3250   15.6931   29.7067 C   0  0  2  0  0  0  0  0  0  0  0  0
   23.5971   16.9860   30.7680 C   0  0  1  0  0  0  0  0  0  0  0  0
   21.4506   15.7036   30.4319 C   0  0  2  0  0  0  0  0  0  0  0  0
   20.1771   15.5923   29.5681 C   0  0  0  0  0  0  0  0  0  0  0  0
   21.0539   16.0055   31.8462 C   0  0  2  0  0  0  0  0  0  0  0  0
   22.2547   16.1386   32.7372 C   0  0  1  0  0  0  0  0  0  0  0  0
   23.1165   17.2407   32.2242 C   0  0  1  0  0  0  0  0  0  0  0  0
  5  4  1  1  0  0  0
  5  8  1  0  0  0  0
  5 16  1  0  0  0  0
  8  7  1  1  0  0  0
  8 10  1  0  0  0  0
 10  1  1  6  0  0  0
 10 12  1  0  0  0  0
 11 18  1  0  0  0  0
 12 14  1  0  0  0  0
 14  2  1  6  0  0  0
 14 16  1  0  0  0  0
 16  9  1  1  0  0  0
 17  9  1  1  0  0  0
 17 11  1  0  0  0  0
 17 22  1  0  0  0  0
 18 19  1  6  0  0  0
 18 20  1  0  0  0  0
 19  3  1  0  0  0  0
 20 13  1  1  0  0  0
 20 21  1  0  0  0  0
 21 15  1  1  0  0  0
 21 22  1  0  0  0  0
 22  6  1  1  0  0  0
M  END
>  <CHROM.1>
162.26467648,99.67589619,-53.87546241,23.96727544,15.59779013,30.25603428
0.51150822,0.27959436,-1.66379010

>  <Name>
2et8_lig

>  <RI>
0

>  <Rbt.Current_Directory>
/home/itssahil/PROJECTS/Mol_Feturizer/New_Systems/rnas/2et8

>  <Rbt.Executable>
rbdock ($Id: //depot/dev/client3/rdock/2013.1/src/exe/rbdock.cxx#4 $)

>  <Rbt.Library>
libRbt.so (2013.1, Build901 2013/11/27)

>  <Rbt.Parameter_File>
/export/apps/rDock/src/rDock_2013.1_src/data/scripts/dock_solv.prm

>  <Rbt.Receptor>
prm/blind_docking_80.prm

>  <SCORE>
-11.4394

>  <SCORE.INTER>
-15.1123

>  <SCORE.INTER.CONST>
1

>  <SCORE.INTER.POLAR>
-0.785658

>  <SCORE.INTER.ROT>
3

>  <SCORE.INTER.SOLV>
20.2772

>  <SCORE.INTER.VDW>
-19.8151

>  <SCORE.INTER.norm>
-0.686925

>  <SCORE.INTRA>
1.57574

>  <SCORE.INTRA.DIHEDRAL>
1.95608

>  <SCORE.INTRA.DIHEDRAL.0>
4.99603

>  <SCORE.INTRA.POLAR>
0

>  <SCORE.INTRA.POLAR.0>
0

>  <SCORE.INTRA.REPUL>
0

>  <SCORE.INTRA.REPUL.0>
0

>  <SCORE.INTRA.SOLV>
2.59861

>  <SCORE.INTRA.SOLV.lig_0>
-74.884

>  <SCORE.INTRA.VDW>
-0.701605

>  <SCORE.INTRA.VDW.0>
-0.858933

>  <SCORE.INTRA.norm>
0.0716245

>  <SCORE.RESTR>
2.09716

>  <SCORE.RESTR.CAVITY>
2.09716

>  <SCORE.RESTR.norm>
0.0953255

>  <SCORE.SYSTEM>
0

>  <SCORE.SYSTEM.CONST>
0

>  <SCORE.SYSTEM.DIHEDRAL>
0

>  <SCORE.SYSTEM.SOLV>
0

>  <SCORE.SYSTEM.norm>
0

>  <SCORE.heavy>
22

>  <SCORE.norm>
-0.519975

>  <RMSD>
8.468

$$$$
2et8_lig
 OpenBabel11021811433D
libRbt.so/2013.1/901 2013/11/27
 22 23  0  0  0  0  0  0  0  0999 V2000
   28.1363   13.6875   26.8399 N   0  0  0  0  0  0  0  0  0  0  0  0
   24.0631   16.4081   27.6237 N   0  0  0  0  0  0  0  0  0  0  0  0
   19.8551   15.9945   28.9971 N   0  0  0  0  0  0  0  0  0  0  0  0
   26.5377   14.5311   31.4289 O   0  0  0  0  0  0  0  0  0  0  0  0
   26.0967   14.3172   30.0654 C   0  0  2  0  0  0  0  0  0  0  0  0
   25.1161   16.6710   33.0555 N   0  0  0  0  0  0  0  0  0  0  0  0
   28.1416   12.9913   29.5515 O   0  0  0  0  0  0  0  0  0  0  0  0
   27.3531   14.1134   29.1354 C   0  0  1  0  0  0  0  0  0  0  0  0
   24.1989   15.7129   30.3834 O   0  0  0  0  0  0  0  0  0  0  0  0
   26.9241   13.8737   27.7087 C   0  0  1  0  0  0  0  0  0  0  0  0
   22.4501   17.2109   30.4022 O   0  0  0  0  0  0  0  0  0  0  0  0
   26.0841   15.0768   27.2220 C   0  0  0  0  0  0  0  0  0  0  0  0
   20.5088   15.3322   32.8564 O   0  0  0  0  0  0  0  0  0  0  0  0
   24.8510   15.2186   28.1615 C   0  0  1  0  0  0  0  0  0  0  0  0
   22.7291   16.0332   34.4108 O   0  0  0  0  0  0  0  0  0  0  0  0
   25.2839   15.5720   29.5535 C   0  0  2  0  0  0  0  0  0  0  0  0
   23.8640   16.9504   30.9201 C   0  0  1  0  0  0  0  0  0  0  0  0
   21.4503   16.2163   30.8988 C   0  0  2  0  0  0  0  0  0  0  0  0
   20.0417   16.5498   30.3652 C   0  0  0  0  0  0  0  0  0  0  0  0
   21.4267   16.2653   32.3974 C   0  0  2  0  0  0  0  0  0  0  0  0
   22.7769   15.9607   32.9785 C   0  0  1  0  0  0  0  0  0  0  0  0
   23.7577   16.9612   32.4709 C   0  0  1  0  0  0  0  0  0  0  0  0
  5  4  1  1  0  0  0
  5  8  1  0  0  0  0
  5 16  1  0  0  0  0
  8  7  1  1  0  0  0
  8 10  1  0  0  0  0
 10  1  1  6  0  0  0
 10 12  1  0  0  0  0
 11 18  1  0  0  0  0
 12 14  1  0  0  0  0
 14  2  1  6  0  0  0
 14 16  1  0  0  0  0
 16  9  1  1  0  0  0
 17  9  1  6  0  0  0
 17 11  1  0  0  0  0
 17 22  1  0  0  0  0
 18 19  1  6  0  0  0
 18 20  1  0  0  0  0
 19  3  1  0  0  0  0
 20 13  1  1  0  0  0
 20 21  1  0  0  0  0
 21 15  1  1  0  0  0
 21 22  1  0  0  0  0
 22  6  1  1  0  0  0
M  END
>  <CHROM.1>
132.65124288,120.20195041,83.63982001,24.15610865,15.52022963,30.37947000
0.56698096,0.32708572,-1.64047868

>  <Name>
2et8_lig

>  <RI>
0

>  <Rbt.Current_Directory>
/home/itssahil/PROJECTS/Mol_Feturizer/New_Systems/rnas/2et8

>  <Rbt.Executable>
rbdock ($Id: //depot/dev/client3/rdock/2013.1/src/exe/rbdock.cxx#4 $)

>  <Rbt.Library>
libRbt.so (2013.1, Build901 2013/11/27)

>  <Rbt.Parameter_File>
/export/apps/rDock/src/rDock_2013.1_src/data/scripts/dock_solv.prm

>  <Rbt.Receptor>
prm/blind_docking_100.prm

>  <SCORE>
-4.94205

>  <SCORE.INTER>
-10.7777

>  <SCORE.INTER.CONST>
1

>  <SCORE.INTER.POLAR>
-0.774559

>  <SCORE.INTER.ROT>
3

>  <SCORE.INTER.SOLV>
22.5415

>  <SCORE.INTER.VDW>
-17.7171

>  <SCORE.INTER.norm>
-0.489895

>  <SCORE.INTRA>
4.45463

>  <SCORE.INTRA.DIHEDRAL>
10.2521

>  <SCORE.INTRA.DIHEDRAL.0>
4.99603

>  <SCORE.INTRA.POLAR>
0

>  <SCORE.INTRA.POLAR.0>
0

>  <SCORE.INTRA.REPUL>
0

>  <SCORE.INTRA.REPUL.0>
0

>  <SCORE.INTRA.SOLV>
1.12999

>  <SCORE.INTRA.SOLV.lig_0>
-74.884

>  <SCORE.INTRA.VDW>
-1.23643

>  <SCORE.INTRA.VDW.0>
-0.858933

>  <SCORE.INTRA.norm>
0.202483

>  <SCORE.RESTR>
1.381

>  <SCORE.RESTR.CAVITY>
1.381

>  <SCORE.RESTR.norm>
0.0627728

>  <SCORE.SYSTEM>
0

>  <SCORE.SYSTEM.CONST>
0

>  <SCORE.SYSTEM.DIHEDRAL>
0

>  <SCORE.SYSTEM.SOLV>
0

>  <SCORE.SYSTEM.norm>
0

>  <SCORE.heavy>
22

>  <SCORE.norm>
-0.224639

>  <RMSD>
8.469

$$$$
2et8_lig
 OpenBabel11021811433D
libRbt.so/2013.1/901 2013/11/27
 22 23  0  0  0  0  0  0  0  0999 V2000
   28.1201   13.7418   28.3949 N   0  0  0  0  0  0  0  0  0  0  0  0
   23.6541   14.8838   26.5624 N   0  0  0  0  0  0  0  0  0  0  0  0
   24.1538   17.1738   33.2810 N   0  0  0  0  0  0  0  0  0  0  0  0
   25.0223   16.5995   30.9568 O   0  0  0  0  0  0  0  0  0  0  0  0
   25.0807   15.4810   30.0376 C   0  0  2  0  0  0  0  0  0  0  0  0
   20.2841   14.9686   28.5037 N   0  0  0  0  0  0  0  0  0  0  0  0
   27.3557   14.8645   30.8430 O   0  0  0  0  0  0  0  0  0  0  0  0
   26.5852   15.1794   29.6762 C   0  0  1  0  0  0  0  0  0  0  0  0
   22.9961   16.0783   29.0640 O   0  0  0  0  0  0  0  0  0  0  0  0
   26.6793   14.0080   28.7297 C   0  0  1  0  0  0  0  0  0  0  0  0
   22.7296   15.6975   31.3193 O   0  0  0  0  0  0  0  0  0  0  0  0
   25.8713   14.3231   27.4499 C   0  0  0  0  0  0  0  0  0  0  0  0
   20.4009   18.4682   31.7899 O   0  0  0  0  0  0  0  0  0  0  0  0
   24.3949   14.5926   27.8629 C   0  0  1  0  0  0  0  0  0  0  0  0
   18.8905   16.8329   30.0923 O   0  0  0  0  0  0  0  0  0  0  0  0
   24.2987   15.8275   28.7089 C   0  0  2  0  0  0  0  0  0  0  0  0
   22.3129   15.2286   29.9259 C   0  0  1  0  0  0  0  0  0  0  0  0
   22.2951   17.0956   31.6227 C   0  0  2  0  0  0  0  0  0  0  0  0
   22.7199   17.4983   33.0502 C   0  0  0  0  0  0  0  0  0  0  0  0
   20.8007   17.1673   31.5217 C   0  0  2  0  0  0  0  0  0  0  0  0
   20.3229   16.7731   30.1543 C   0  0  1  0  0  0  0  0  0  0  0  0
   20.7666   15.3791   29.8712 C   0  0  1  0  0  0  0  0  0  0  0  0
  5  4  1  1  0  0  0
  5  8  1  0  0  0  0
  5 16  1  0  0  0  0
  8  7  1  1  0  0  0
  8 10  1  0  0  0  0
 10  1  1  6  0  0  0
 10 12  1  0  0  0  0
 11 18  1  0  0  0  0
 12 14  1  0  0  0  0
 14  2  1  6  0  0  0
 14 16  1  0  0  0  0
 16  9  1  1  0  0  0
 17  9  1  6  0  0  0
 17 11  1  0  0  0  0
 17 22  1  0  0  0  0
 18 19  1  1  0  0  0
 18 20  1  0  0  0  0
 19  3  1  0  0  0  0
 20 13  1  6  0  0  0
 20 21  1  0  0  0  0
 21 15  1  1  0  0  0
 21 22  1  0  0  0  0
 22  6  1  6  0  0  0
M  END
>  <CHROM.1>
-46.65857049,83.61649414,48.88002538,23.42451456,15.83993053,30.00590725
-0.47104032,-0.19822010,1.10032652

>  <Name>
2et8_lig

>  <RI>
224

>  <Rbt.Current_Directory>
/home/itssahil/PROJECTS/Mol_Feturizer/New_Systems/rnas/2et8

>  <Rbt.Executable>
rbdock ($Id: //depot/dev/client3/rdock/2013.1/src/exe/rbdock.cxx#4 $)

>  <Rbt.Library>
libRbt.so (2013.1, Build901 2013/11/27)

>  <Rbt.Parameter_File>
/export/apps/rDock/src/rDock_2013.1_src/data/scripts/dock_solv.prm

>  <Rbt.Receptor>
prm/blind_docking_60.prm

>  <SCORE>
-8.08186

>  <SCORE.INTER>
-12.0788

>  <SCORE.INTER.CONST>
1

>  <SCORE.INTER.POLAR>
-1.02875

>  <SCORE.INTER.ROT>
3

>  <SCORE.INTER.SOLV>
21.8286

>  <SCORE.INTER.VDW>
-17.4996

>  <SCORE.INTER.norm>
-0.549037

>  <SCORE.INTRA>
2.77651

>  <SCORE.INTRA.DIHEDRAL>
-1.18827

>  <SCORE.INTRA.DIHEDRAL.0>
4.99603

>  <SCORE.INTRA.POLAR>
0

>  <SCORE.INTRA.POLAR.0>
0

>  <SCORE.INTRA.REPUL>
0

>  <SCORE.INTRA.REPUL.0>
0

>  <SCORE.INTRA.SOLV>
2.532

>  <SCORE.INTRA.SOLV.lig_0>
-74.884

>  <SCORE.INTRA.VDW>
2.10465

>  <SCORE.INTRA.VDW.0>
-0.858933

>  <SCORE.INTRA.norm>
0.126205

>  <SCORE.RESTR>
1.22044

>  <SCORE.RESTR.CAVITY>
1.22044

>  <SCORE.RESTR.norm>
0.0554744

>  <SCORE.SYSTEM>
0

>  <SCORE.SYSTEM.CONST>
0

>  <SCORE.SYSTEM.DIHEDRAL>
0

>  <SCORE.SYSTEM.SOLV>
0

>  <SCORE.SYSTEM.norm>
0

>  <SCORE.heavy>
22

>  <SCORE.norm>
-0.367357

>  <RMSD>
8.472

$$$$
2et8_lig
 OpenBabel11021811433D
libRbt.so/2013.1/901 2013/11/27
 22 23  0  0  0  0  0  0  0  0999 V2000
   28.0333   13.9203   26.7064 N   0  0  0  0  0  0  0  0  0  0  0  0
   24.0547   16.6479   27.8631 N   0  0  0  0  0  0  0  0  0  0  0  0
   19.4745   16.8994   29.5266 N   0  0  0  0  0  0  0  0  0  0  0  0
   26.6495   14.4545   31.4102 O   0  0  0  0  0  0  0  0  0  0  0  0
   26.1464   14.3486   30.0556 C   0  0  2  0  0  0  0  0  0  0  0  0
   24.3770   17.3522   33.0722 N   0  0  0  0  0  0  0  0  0  0  0  0
   28.1396   13.0279   29.3578 O   0  0  0  0  0  0  0  0  0  0  0  0
   27.3575   14.1911   29.0589 C   0  0  1  0  0  0  0  0  0  0  0  0
   24.2933   15.7506   30.5567 O   0  0  0  0  0  0  0  0  0  0  0  0
   26.8634   14.0639   27.6389 C   0  0  1  0  0  0  0  0  0  0  0  0
   22.3357   16.7816   29.9184 O   0  0  0  0  0  0  0  0  0  0  0  0
   26.0286   15.3140   27.2777 C   0  0  0  0  0  0  0  0  0  0  0  0
   20.2759   14.9686   32.3248 O   0  0  0  0  0  0  0  0  0  0  0  0
   24.8399   15.4086   28.2784 C   0  0  1  0  0  0  0  0  0  0  0  0
   21.9082   16.4285   34.0688 O   0  0  0  0  0  0  0  0  0  0  0  0
   25.3389   15.6517   29.6719 C   0  0  2  0  0  0  0  0  0  0  0  0
   23.6168   16.9517   30.7339 C   0  0  1  0  0  0  0  0  0  0  0  0
   21.4555   15.6863   30.4291 C   0  0  2  0  0  0  0  0  0  0  0  0
   20.1693   15.5845   29.5833 C   0  0  0  0  0  0  0  0  0  0  0  0
   21.0810   15.9928   31.8485 C   0  0  2  0  0  0  0  0  0  0  0  0
   22.2951   16.1170   32.7225 C   0  0  1  0  0  0  0  0  0  0  0  0
   23.1586   17.2116   32.1965 C   0  0  1  0  0  0  0  0  0  0  0  0
  5  4  1  1  0  0  0
  5  8  1  0  0  0  0
  5 16  1  0  0  0  0
  8  7  1  1  0  0  0
  8 10  1  0  0  0  0
 10  1  1  6  0  0  0
 10 12  1  0  0  0  0
 11 18  1  0  0  0  0
 12 14  1  0  0  0  0
 14  2  1  6  0  0  0
 14 16  1  0  0  0  0
 16  9  1  1  0  0  0
 17  9  1  1  0  0  0
 17 11  1  0  0  0  0
 17 22  1  0  0  0  0
 18 19  1  6  0  0  0
 18 20  1  0  0  0  0
 19  3  1  0  0  0  0
 20 13  1  1  0  0  0
 20 21  1  0  0  0  0
 21 15  1  1  0  0  0
 21 22  1  0  0  0  0
 22  6  1  1  0  0  0
M  END
>  <CHROM.1>
162.05881791,101.15663262,-54.47079256,23.98561606,15.56696944,30.23458704
0.51393570,0.28695312,-1.65763202

>  <Name>
2et8_lig

>  <RI>
0

>  <Rbt.Current_Directory>
/home/itssahil/PROJECTS/Mol_Feturizer/New_Systems/rnas/2et8

>  <Rbt.Executable>
rbdock ($Id: //depot/dev/client3/rdock/2013.1/src/exe/rbdock.cxx#4 $)

>  <Rbt.Library>
libRbt.so (2013.1, Build901 2013/11/27)

>  <Rbt.Parameter_File>
/export/apps/rDock/src/rDock_2013.1_src/data/scripts/dock_solv.prm

>  <Rbt.Receptor>
prm/blind_docking_80.prm

>  <SCORE>
-11.5382

>  <SCORE.INTER>
-15.3014

>  <SCORE.INTER.CONST>
1

>  <SCORE.INTER.POLAR>
-0.812793

>  <SCORE.INTER.ROT>
3

>  <SCORE.INTER.SOLV>
20.2684

>  <SCORE.INTER.VDW>
-19.8477

>  <SCORE.INTER.norm>
-0.695518

>  <SCORE.INTRA>
1.64197

>  <SCORE.INTRA.DIHEDRAL>
2.19447

>  <SCORE.INTRA.DIHEDRAL.0>
4.99603

>  <SCORE.INTRA.POLAR>
0

>  <SCORE.INTRA.POLAR.0>
0

>  <SCORE.INTRA.REPUL>
0

>  <SCORE.INTRA.REPUL.0>
0

>  <SCORE.INTRA.SOLV>
2.54335

>  <SCORE.INTRA.SOLV.lig_0>
-74.884

>  <SCORE.INTRA.VDW>
-0.726933

>  <SCORE.INTRA.VDW.0>
-0.858933

>  <SCORE.INTRA.norm>
0.0746352

>  <SCORE.RESTR>
2.12121

>  <SCORE.RESTR.CAVITY>
2.12121

>  <SCORE.RESTR.norm>
0.0964188

>  <SCORE.SYSTEM>
0

>  <SCORE.SYSTEM.CONST>
0

>  <SCORE.SYSTEM.DIHEDRAL>
0

>  <SCORE.SYSTEM.SOLV>
0

>  <SCORE.SYSTEM.norm>
0

>  <SCORE.heavy>
22

>  <SCORE.norm>
-0.524464

>  <RMSD>
8.492

$$$$
2et8_lig
 OpenBabel11021811433D
libRbt.so/2013.1/901 2013/11/27
 22 23  0  0  0  0  0  0  0  0999 V2000
   16.7925   16.6307   30.9146 N   0  0  0  0  0  0  0  0  0  0  0  0
   20.8629   13.8233   31.3124 N   0  0  0  0  0  0  0  0  0  0  0  0
   21.8046   17.9880   33.8542 N   0  0  0  0  0  0  0  0  0  0  0  0
   21.1914   18.3973   29.5527 O   0  0  0  0  0  0  0  0  0  0  0  0
   20.3900   17.1915   29.6092 C   0  0  2  0  0  0  0  0  0  0  0  0
   25.0016   15.3929   28.6918 N   0  0  0  0  0  0  0  0  0  0  0  0
   18.2847   18.5163   29.4810 O   0  0  0  0  0  0  0  0  0  0  0  0
   18.9862   17.5260   30.2435 C   0  0  1  0  0  0  0  0  0  0  0  0
   22.3189   15.8371   29.9188 O   0  0  0  0  0  0  0  0  0  0  0  0
   18.1223   16.2902   30.3026 C   0  0  1  0  0  0  0  0  0  0  0  0
   23.1581   17.5276   31.2380 O   0  0  0  0  0  0  0  0  0  0  0  0
   18.8439   15.2055   31.1349 C   0  0  0  0  0  0  0  0  0  0  0  0
   24.9236   15.2636   33.4915 O   0  0  0  0  0  0  0  0  0  0  0  0
   20.2106   14.9018   30.4544 C   0  0  1  0  0  0  0  0  0  0  0  0
   26.3111   14.7753   31.1095 O   0  0  0  0  0  0  0  0  0  0  0  0
   21.1060   16.1041   30.5049 C   0  0  2  0  0  0  0  0  0  0  0  0
   23.3360   16.7842   29.9148 C   0  0  1  0  0  0  0  0  0  0  0  0
   23.3580   16.6533   32.4342 C   0  0  2  0  0  0  0  0  0  0  0  0
   23.1934   17.4668   33.7348 C   0  0  0  0  0  0  0  0  0  0  0  0
   24.7450   16.0853   32.3883 C   0  0  2  0  0  0  0  0  0  0  0  0
   24.9720   15.2902   31.1353 C   0  0  1  0  0  0  0  0  0  0  0  0
   24.7669   16.1783   29.9564 C   0  0  1  0  0  0  0  0  0  0  0  0
  5  4  1  1  0  0  0
  5  8  1  0  0  0  0
  5 16  1  0  0  0  0
  8  7  1  6  0  0  0
  8 10  1  0  0  0  0
 10  1  1  1  0  0  0
 10 12  1  0  0  0  0
 11 18  1  0  0  0  0
 12 14  1  0  0  0  0
 14  2  1  1  0  0  0
 14 16  1  0  0  0  0
 16  9  1  6  0  0  0
 17  9  1  1  0  0  0
 17 11  1  0  0  0  0
 17 22  1  0  0  0  0
 18 19  1  1  0  0  0
 18 20  1  0  0  0  0
 19  3  1  0  0  0  0
 20 13  1  1  0  0  0
 20 21  1  0  0  0  0
 21 15  1  1  0  0  0
 21 22  1  0  0  0  0
 22  6  1  6  0  0  0
M  END
>  <CHROM.1>
69.33097652,33.57608882,63.63138622,21.96719646,16.37165703,30.97406322,2.99844641
0.21432379,-1.77661165

>  <Name>
2et8_lig

>  <RI>
0

>  <Rbt.Current_Directory>
/home/itssahil/PROJECTS/Mol_Feturizer/New_Systems/rnas/2et8

>  <Rbt.Executable>
rbdock ($Id: //depot/dev/client3/rdock/2013.1/src/exe/rbdock.cxx#4 $)

>  <Rbt.Library>
libRbt.so (2013.1, Build901 2013/11/27)

>  <Rbt.Parameter_File>
/export/apps/rDock/src/rDock_2013.1_src/data/scripts/dock_solv.prm

>  <Rbt.Receptor>
prm/pocket_docking_7.prm

>  <SCORE>
-16.549

>  <SCORE.INTER>
-16.7683

>  <SCORE.INTER.CONST>
1

>  <SCORE.INTER.POLAR>
-1.59733

>  <SCORE.INTER.ROT>
3

>  <SCORE.INTER.SOLV>
16.2996

>  <SCORE.INTER.VDW>
-16.8876

>  <SCORE.INTER.norm>
-0.762194

>  <SCORE.INTRA>
0.0777974

>  <SCORE.INTRA.DIHEDRAL>
-1.48308

>  <SCORE.INTRA.DIHEDRAL.0>
4.99603

>  <SCORE.INTRA.POLAR>
0

>  <SCORE.INTRA.POLAR.0>
0

>  <SCORE.INTRA.REPUL>
0

>  <SCORE.INTRA.REPUL.0>
0

>  <SCORE.INTRA.SOLV>
-0.131473

>  <SCORE.INTRA.SOLV.lig_0>
-74.884

>  <SCORE.INTRA.VDW>
0.885075

>  <SCORE.INTRA.VDW.0>
-0.858933

>  <SCORE.INTRA.norm>
0.00353625

>  <SCORE.RESTR>
0.141417

>  <SCORE.RESTR.CAVITY>
0.141417

>  <SCORE.RESTR.norm>
0.00642805

>  <SCORE.SYSTEM>
0

>  <SCORE.SYSTEM.CONST>
0

>  <SCORE.SYSTEM.DIHEDRAL>
0

>  <SCORE.SYSTEM.SOLV>
0

>  <SCORE.SYSTEM.norm>
0

>  <SCORE.heavy>
22

>  <SCORE.norm>
-0.75223

>  <RMSD>
8.578

$$$$
2et8_lig
 OpenBabel11021811433D
libRbt.so/2013.1/901 2013/11/27
 22 23  0  0  0  0  0  0  0  0999 V2000
   28.1812   13.7005   26.7924 N   0  0  0  0  0  0  0  0  0  0  0  0
   24.1283   16.4297   27.6480 N   0  0  0  0  0  0  0  0  0  0  0  0
   19.6092   17.3726   29.5101 N   0  0  0  0  0  0  0  0  0  0  0  0
   26.6064   14.4607   31.4041 O   0  0  0  0  0  0  0  0  0  0  0  0
   26.1585   14.2772   30.0384 C   0  0  2  0  0  0  0  0  0  0  0  0
   24.5709   17.0995   32.9980 N   0  0  0  0  0  0  0  0  0  0  0  0
   28.1931   12.9494   29.4893 O   0  0  0  0  0  0  0  0  0  0  0  0
   27.4099   14.0846   29.0993 C   0  0  1  0  0  0  0  0  0  0  0  0
   24.2708   15.6778   30.3925 O   0  0  0  0  0  0  0  0  0  0  0  0
   26.9737   13.8765   27.6698 C   0  0  1  0  0  0  0  0  0  0  0  0
   22.4114   16.9341   29.8758 O   0  0  0  0  0  0  0  0  0  0  0  0
   26.1393   15.0944   27.2110 C   0  0  0  0  0  0  0  0  0  0  0  0
   20.2370   15.1811   32.2253 O   0  0  0  0  0  0  0  0  0  0  0  0
   24.9109   15.2248   28.1584 C   0  0  1  0  0  0  0  0  0  0  0  0
   22.0459   16.3599   34.0073 O   0  0  0  0  0  0  0  0  0  0  0  0
   25.3516   15.5472   29.5554 C   0  0  2  0  0  0  0  0  0  0  0  0
   23.7213   16.9255   30.6626 C   0  0  1  0  0  0  0  0  0  0  0  0
   21.4385   15.8997   30.3437 C   0  0  2  0  0  0  0  0  0  0  0  0
   20.1295   15.9785   29.5309 C   0  0  0  0  0  0  0  0  0  0  0  0
   21.1289   16.1500   31.7895 C   0  0  2  0  0  0  0  0  0  0  0  0
   22.3690   16.0988   32.6339 C   0  0  1  0  0  0  0  0  0  0  0  0
   23.3248   17.1350   32.1510 C   0  0  1  0  0  0  0  0  0  0  0  0
  5  4  1  1  0  0  0
  5  8  1  0  0  0  0
  5 16  1  0  0  0  0
  8  7  1  1  0  0  0
  8 10  1  0  0  0  0
 10  1  1  6  0  0  0
 10 12  1  0  0  0  0
 11 18  1  0  0  0  0
 12 14  1  0  0  0  0
 14  2  1  6  0  0  0
 14 16  1  0  0  0  0
 16  9  1  1  0  0  0
 17  9  1  1  0  0  0
 17 11  1  0  0  0  0
 17 22  1  0  0  0  0
 18 19  1  6  0  0  0
 18 20  1  0  0  0  0
 19  3  1  0  0  0  0
 20 13  1  1  0  0  0
 20 21  1  0  0  0  0
 21 15  1  1  0  0  0
 21 22  1  0  0  0  0
 22  6  1  1  0  0  0
M  END
>  <CHROM.1>
150.49763501,106.47526550,-51.22293318,24.04864884,15.55587476,30.18445498
0.47815964,0.34676948,-1.62410564

>  <Name>
2et8_lig

>  <RI>
0

>  <Rbt.Current_Directory>
/home/itssahil/PROJECTS/Mol_Feturizer/New_Systems/rnas/2et8

>  <Rbt.Executable>
rbdock ($Id: //depot/dev/client3/rdock/2013.1/src/exe/rbdock.cxx#4 $)

>  <Rbt.Library>
libRbt.so (2013.1, Build901 2013/11/27)

>  <Rbt.Parameter_File>
/export/apps/rDock/src/rDock_2013.1_src/data/scripts/dock_solv.prm

>  <Rbt.Receptor>
prm/blind_docking_100.prm

>  <SCORE>
-10.4991

>  <SCORE.INTER>
-14.4812

>  <SCORE.INTER.CONST>
1

>  <SCORE.INTER.POLAR>
-0.80837

>  <SCORE.INTER.ROT>
3

>  <SCORE.INTER.SOLV>
21.2268

>  <SCORE.INTER.VDW>
-19.6352

>  <SCORE.INTER.norm>
-0.658238

>  <SCORE.INTRA>
2.74275

>  <SCORE.INTRA.DIHEDRAL>
5.0597

>  <SCORE.INTRA.DIHEDRAL.0>
4.99603

>  <SCORE.INTRA.POLAR>
0

>  <SCORE.INTRA.POLAR.0>
0

>  <SCORE.INTRA.REPUL>
0

>  <SCORE.INTRA.REPUL.0>
0

>  <SCORE.INTRA.SOLV>
2.57182

>  <SCORE.INTRA.SOLV.lig_0>
-74.884

>  <SCORE.INTRA.VDW>
-1.07301

>  <SCORE.INTRA.VDW.0>
-0.858933

>  <SCORE.INTRA.norm>
0.12467

>  <SCORE.RESTR>
1.23942

>  <SCORE.RESTR.CAVITY>
1.23942

>  <SCORE.RESTR.norm>
0.0563374

>  <SCORE.SYSTEM>
0

>  <SCORE.SYSTEM.CONST>
0

>  <SCORE.SYSTEM.DIHEDRAL>
0

>  <SCORE.SYSTEM.SOLV>
0

>  <SCORE.SYSTEM.norm>
0

>  <SCORE.heavy>
22

>  <SCORE.norm>
-0.477231

>  <RMSD>
8.604

$$$$
2et8_lig
 OpenBabel11021811433D
libRbt.so/2013.1/901 2013/11/27
 22 23  0  0  0  0  0  0  0  0999 V2000
   28.5654   14.1672   26.8185 N   0  0  0  0  0  0  0  0  0  0  0  0
   26.2357   14.5202   31.1838 N   0  0  0  0  0  0  0  0  0  0  0  0
   22.8055   17.6459   34.4035 N   0  0  0  0  0  0  0  0  0  0  0  0
   24.0194   16.0624   27.0806 O   0  0  0  0  0  0  0  0  0  0  0  0
   25.2761   15.9536   27.7935 C   0  0  2  0  0  0  0  0  0  0  0  0
   21.5269   14.8299   29.1646 N   0  0  0  0  0  0  0  0  0  0  0  0
   26.5317   15.7012   25.6572 O   0  0  0  0  0  0  0  0  0  0  0  0
   26.2909   15.1036   26.9374 C   0  0  1  0  0  0  0  0  0  0  0  0
   24.1704   16.0025   29.8972 O   0  0  0  0  0  0  0  0  0  0  0  0
   27.6162   14.9847   27.6490 C   0  0  1  0  0  0  0  0  0  0  0  0
   23.5003   16.2461   32.0868 O   0  0  0  0  0  0  0  0  0  0  0  0
   27.3939   14.3261   29.0299 C   0  0  0  0  0  0  0  0  0  0  0  0
   21.3104   19.0810   31.3875 O   0  0  0  0  0  0  0  0  0  0  0  0
   26.4025   15.2147   29.8366 C   0  0  1  0  0  0  0  0  0  0  0  0
   20.0076   17.0760   29.9315 O   0  0  0  0  0  0  0  0  0  0  0  0
   25.0532   15.2317   29.1815 C   0  0  2  0  0  0  0  0  0  0  0  0
   23.2970   15.4274   30.8126 C   0  0  1  0  0  0  0  0  0  0  0  0
   23.1123   17.6816   31.9306 C   0  0  2  0  0  0  0  0  0  0  0  0
   23.3135   18.4455   33.2558 C   0  0  0  0  0  0  0  0  0  0  0  0
   21.6647   17.7492   31.5454 C   0  0  2  0  0  0  0  0  0  0  0  0
   21.4016   17.0105   30.2653 C   0  0  1  0  0  0  0  0  0  0  0  0
   21.7956   15.5842   30.4413 C   0  0  1  0  0  0  0  0  0  0  0  0
  5  4  1  6  0  0  0
  5  8  1  0  0  0  0
  5 16  1  0  0  0  0
  8  7  1  6  0  0  0
  8 10  1  0  0  0  0
 10  1  1  6  0  0  0
 10 12  1  0  0  0  0
 11 18  1  0  0  0  0
 12 14  1  0  0  0  0
 14  2  1  1  0  0  0
 14 16  1  0  0  0  0
 16  9  1  1  0  0  0
 17  9  1  6  0  0  0
 17 11  1  0  0  0  0
 17 22  1  0  0  0  0
 18 19  1  1  0  0  0
 18 20  1  0  0  0  0
 19  3  1  0  0  0  0
 20 13  1  6  0  0  0
 20 21  1  0  0  0  0
 21 15  1  1  0  0  0
 21 22  1  0  0  0  0
 22  6  1  6  0  0  0
M  END
>  <CHROM.1>
149.41221718,129.09357271,-43.87692973,24.11400241,16.11935302,29.81871778
-0.74322318,-0.31425392,1.36587686

>  <Name>
2et8_lig

>  <RI>
0

>  <Rbt.Current_Directory>
/home/itssahil/PROJECTS/Mol_Feturizer/New_Systems/rnas/2et8

>  <Rbt.Executable>
rbdock ($Id: //depot/dev/client3/rdock/2013.1/src/exe/rbdock.cxx#4 $)

>  <Rbt.Library>
libRbt.so (2013.1, Build901 2013/11/27)

>  <Rbt.Parameter_File>
/export/apps/rDock/src/rDock_2013.1_src/data/scripts/dock_solv.prm

>  <Rbt.Receptor>
prm/blind_docking_80.prm

>  <SCORE>
-7.95125

>  <SCORE.INTER>
-13.0216

>  <SCORE.INTER.CONST>
1

>  <SCORE.INTER.POLAR>
-0.597963

>  <SCORE.INTER.ROT>
3

>  <SCORE.INTER.SOLV>
19.1561

>  <SCORE.INTER.VDW>
-18.6733

>  <SCORE.INTER.norm>
-0.591893

>  <SCORE.INTRA>
3.21563

>  <SCORE.INTRA.DIHEDRAL>
6.32546

>  <SCORE.INTRA.DIHEDRAL.0>
4.99603

>  <SCORE.INTRA.POLAR>
0

>  <SCORE.INTRA.POLAR.0>
0

>  <SCORE.INTRA.REPUL>
0

>  <SCORE.INTRA.REPUL.0>
0

>  <SCORE.INTRA.SOLV>
2.11064

>  <SCORE.INTRA.SOLV.lig_0>
-74.884

>  <SCORE.INTRA.VDW>
-1.00242

>  <SCORE.INTRA.VDW.0>
-0.858933

>  <SCORE.INTRA.norm>
0.146165

>  <SCORE.RESTR>
1.85476

>  <SCORE.RESTR.CAVITY>
1.85476

>  <SCORE.RESTR.norm>
0.0843071

>  <SCORE.SYSTEM>
0

>  <SCORE.SYSTEM.CONST>
0

>  <SCORE.SYSTEM.DIHEDRAL>
0

>  <SCORE.SYSTEM.SOLV>
0

>  <SCORE.SYSTEM.norm>
0

>  <SCORE.heavy>
22

>  <SCORE.norm>
-0.361421

>  <RMSD>
8.613

$$$$
2et8_lig
 OpenBabel11021811433D
libRbt.so/2013.1/901 2013/11/27
 22 23  0  0  0  0  0  0  0  0999 V2000
   28.2291   13.7009   26.8345 N   0  0  0  0  0  0  0  0  0  0  0  0
   24.1324   16.4005   27.5676 N   0  0  0  0  0  0  0  0  0  0  0  0
   19.5178   17.3985   29.5822 N   0  0  0  0  0  0  0  0  0  0  0  0
   26.5514   14.5096   31.4015 O   0  0  0  0  0  0  0  0  0  0  0  0
   26.1338   14.3025   30.0297 C   0  0  2  0  0  0  0  0  0  0  0  0
   24.5683   17.1004   32.9304 N   0  0  0  0  0  0  0  0  0  0  0  0
   28.1923   12.9879   29.5415 O   0  0  0  0  0  0  0  0  0  0  0  0
   27.4062   14.1094   29.1193 C   0  0  1  0  0  0  0  0  0  0  0  0
   24.2254   15.6886   30.3248 O   0  0  0  0  0  0  0  0  0  0  0  0
   27.0019   13.8769   27.6843 C   0  0  1  0  0  0  0  0  0  0  0  0
   22.3684   16.9592   29.8353 O   0  0  0  0  0  0  0  0  0  0  0  0
   26.1652   15.0797   27.1912 C   0  0  0  0  0  0  0  0  0  0  0  0
   20.2117   15.2143   32.2071 O   0  0  0  0  0  0  0  0  0  0  0  0
   24.9162   15.2109   28.1110 C   0  0  1  0  0  0  0  0  0  0  0  0
   22.0511   16.3753   33.9695 O   0  0  0  0  0  0  0  0  0  0  0  0
   25.3246   15.5573   29.5121 C   0  0  2  0  0  0  0  0  0  0  0  0
   23.6881   16.9392   30.6055 C   0  0  1  0  0  0  0  0  0  0  0  0
   21.3943   15.9302   30.3126 C   0  0  2  0  0  0  0  0  0  0  0  0
   20.0757   16.0204   29.5167 C   0  0  0  0  0  0  0  0  0  0  0  0
   21.1047   16.1783   31.7629 C   0  0  2  0  0  0  0  0  0  0  0  0
   22.3551   16.1160   32.5913 C   0  0  1  0  0  0  0  0  0  0  0  0
   23.3119   17.1470   32.0994 C   0  0  1  0  0  0  0  0  0  0  0  0
  5  4  1  1  0  0  0
  5  8  1  0  0  0  0
  5 16  1  0  0  0  0
  8  7  1  1  0  0  0
  8 10  1  0  0  0  0
 10  1  1  6  0  0  0
 10 12  1  0  0  0  0
 11 18  1  0  0  0  0
 12 14  1  0  0  0  0
 14  2  1  6  0  0  0
 14 16  1  0  0  0  0
 16  9  1  1  0  0  0
 17  9  1  1  0  0  0
 17 11  1  0  0  0  0
 17 22  1  0  0  0  0
 18 19  1  6  0  0  0
 18 20  1  0  0  0  0
 19  3  1  0  0  0  0
 20 13  1  1  0  0  0
 20 21  1  0  0  0  0
 21 15  1  1  0  0  0
 21 22  1  0  0  0  0
 22  6  1  1  0  0  0
M  END
>  <CHROM.1>
148.09656784,108.85601514,-54.98041696,24.03071286,15.57210167,30.16397848
0.46763675,0.34580854,-1.62285757

>  <Name>
2et8_lig

>  <RI>
0

>  <Rbt.Current_Directory>
/home/itssahil/PROJECTS/Mol_Feturizer/New_Systems/rnas/2et8

>  <Rbt.Executable>
rbdock ($Id: //depot/dev/client3/rdock/2013.1/src/exe/rbdock.cxx#4 $)

>  <Rbt.Library>
libRbt.so (2013.1, Build901 2013/11/27)

>  <Rbt.Parameter_File>
/export/apps/rDock/src/rDock_2013.1_src/data/scripts/dock_solv.prm

>  <Rbt.Receptor>
prm/blind_docking_100.prm

>  <SCORE>
-10.2799

>  <SCORE.INTER>
-14.4828

>  <SCORE.INTER.CONST>
1

>  <SCORE.INTER.POLAR>
-0.796976

>  <SCORE.INTER.ROT>
3

>  <SCORE.INTER.SOLV>
21.0619

>  <SCORE.INTER.VDW>
-19.6193

>  <SCORE.INTER.norm>
-0.658311

>  <SCORE.INTRA>
2.99788

>  <SCORE.INTRA.DIHEDRAL>
5.57759

>  <SCORE.INTRA.DIHEDRAL.0>
4.99603

>  <SCORE.INTRA.POLAR>
0

>  <SCORE.INTRA.POLAR.0>
0

>  <SCORE.INTRA.REPUL>
0

>  <SCORE.INTRA.REPUL.0>
0

>  <SCORE.INTRA.SOLV>
2.61227

>  <SCORE.INTRA.SOLV.lig_0>
-74.884

>  <SCORE.INTRA.VDW>
-1.09705

>  <SCORE.INTRA.VDW.0>
-0.858933

>  <SCORE.INTRA.norm>
0.136267

>  <SCORE.RESTR>
1.20509

>  <SCORE.RESTR.CAVITY>
1.20509

>  <SCORE.RESTR.norm>
0.0547766

>  <SCORE.SYSTEM>
0

>  <SCORE.SYSTEM.CONST>
0

>  <SCORE.SYSTEM.DIHEDRAL>
0

>  <SCORE.SYSTEM.SOLV>
0

>  <SCORE.SYSTEM.norm>
0

>  <SCORE.heavy>
22

>  <SCORE.norm>
-0.467267

>  <RMSD>
8.623

$$$$
2et8_lig
 OpenBabel11021811433D
libRbt.so/2013.1/901 2013/11/27
 22 23  0  0  0  0  0  0  0  0999 V2000
   28.1806   13.6966   26.7827 N   0  0  0  0  0  0  0  0  0  0  0  0
   24.0874   16.3767   27.6014 N   0  0  0  0  0  0  0  0  0  0  0  0
   19.5804   17.3892   29.5105 N   0  0  0  0  0  0  0  0  0  0  0  0
   26.6168   14.5304   31.3855 O   0  0  0  0  0  0  0  0  0  0  0  0
   26.1651   14.3101   30.0265 C   0  0  2  0  0  0  0  0  0  0  0  0
   24.5576   17.0986   32.9713 N   0  0  0  0  0  0  0  0  0  0  0  0
   28.2186   13.0044   29.4950 O   0  0  0  0  0  0  0  0  0  0  0  0
   27.4147   14.1178   29.0849 C   0  0  1  0  0  0  0  0  0  0  0  0
   24.2562   15.6868   30.3606 O   0  0  0  0  0  0  0  0  0  0  0  0
   26.9748   13.8717   27.6627 C   0  0  1  0  0  0  0  0  0  0  0  0
   22.4005   16.9495   29.8466 O   0  0  0  0  0  0  0  0  0  0  0  0
   26.1180   15.0655   27.1823 C   0  0  0  0  0  0  0  0  0  0  0  0
   20.2195   15.1940   32.1880 O   0  0  0  0  0  0  0  0  0  0  0  0
   24.8924   15.1961   28.1333 C   0  0  1  0  0  0  0  0  0  0  0  0
   22.0297   16.3619   33.9758 O   0  0  0  0  0  0  0  0  0  0  0  0
   25.3348   15.5559   29.5207 C   0  0  2  0  0  0  0  0  0  0  0  0
   23.7097   16.9349   30.6346 C   0  0  1  0  0  0  0  0  0  0  0  0
   21.4246   15.9161   30.3100 C   0  0  2  0  0  0  0  0  0  0  0  0
   20.1165   16.0010   29.4963 C   0  0  0  0  0  0  0  0  0  0  0  0
   21.1143   16.1621   31.7564 C   0  0  2  0  0  0  0  0  0  0  0  0
   22.3535   16.1047   32.6017 C   0  0  1  0  0  0  0  0  0  0  0  0
   23.3124   17.1402   32.1234 C   0  0  1  0  0  0  0  0  0  0  0  0
  5  4  1  1  0  0  0
  5  8  1  0  0  0  0
  5 16  1  0  0  0  0
  8  7  1  1  0  0  0
  8 10  1  0  0  0  0
 10  1  1  6  0  0  0
 10 12  1  0  0  0  0
 11 18  1  0  0  0  0
 12 14  1  0  0  0  0
 14  2  1  6  0  0  0
 14 16  1  0  0  0  0
 16  9  1  1  0  0  0
 17  9  1  1  0  0  0
 17 11  1  0  0  0  0
 17 22  1  0  0  0  0
 18 19  1  6  0  0  0
 18 20  1  0  0  0  0
 19  3  1  0  0  0  0
 20 13  1  1  0  0  0
 20 21  1  0  0  0  0
 21 15  1  1  0  0  0
 21 22  1  0  0  0  0
 22  6  1  1  0  0  0
M  END
>  <CHROM.1>
148.77619635,106.26477266,-52.74298774,24.03830741,15.56597117,30.16009061
0.47677036,0.34086343,-1.63339997

>  <Name>
2et8_lig

>  <RI>
0

>  <Rbt.Current_Directory>
/home/itssahil/PROJECTS/Mol_Feturizer/New_Systems/rnas/2et8

>  <Rbt.Executable>
rbdock ($Id: //depot/dev/client3/rdock/2013.1/src/exe/rbdock.cxx#4 $)

>  <Rbt.Library>
libRbt.so (2013.1, Build901 2013/11/27)

>  <Rbt.Parameter_File>
/export/apps/rDock/src/rDock_2013.1_src/data/scripts/dock_solv.prm

>  <Rbt.Receptor>
prm/blind_docking_100.prm

>  <SCORE>
-10.4344

>  <SCORE.INTER>
-14.5274

>  <SCORE.INTER.CONST>
1

>  <SCORE.INTER.POLAR>
-0.819419

>  <SCORE.INTER.ROT>
3

>  <SCORE.INTER.SOLV>
21.0739

>  <SCORE.INTER.VDW>
-19.5781

>  <SCORE.INTER.norm>
-0.660335

>  <SCORE.INTRA>
2.85852

>  <SCORE.INTRA.DIHEDRAL>
5.2629

>  <SCORE.INTRA.DIHEDRAL.0>
4.99603

>  <SCORE.INTRA.POLAR>
0

>  <SCORE.INTRA.POLAR.0>
0

>  <SCORE.INTRA.REPUL>
0

>  <SCORE.INTRA.REPUL.0>
0

>  <SCORE.INTRA.SOLV>
2.64711

>  <SCORE.INTRA.SOLV.lig_0>
-74.884

>  <SCORE.INTRA.VDW>
-1.09648

>  <SCORE.INTRA.VDW.0>
-0.858933

>  <SCORE.INTRA.norm>
0.129933

>  <SCORE.RESTR>
1.23441

>  <SCORE.RESTR.CAVITY>
1.23441

>  <SCORE.RESTR.norm>
0.0561096

>  <SCORE.SYSTEM>
0

>  <SCORE.SYSTEM.CONST>
0

>  <SCORE.SYSTEM.DIHEDRAL>
0

>  <SCORE.SYSTEM.SOLV>
0

>  <SCORE.SYSTEM.norm>
0

>  <SCORE.heavy>
22

>  <SCORE.norm>
-0.474292

>  <RMSD>
8.626

$$$$
2et8_lig
 OpenBabel11021811433D
libRbt.so/2013.1/901 2013/11/27
 22 23  0  0  0  0  0  0  0  0999 V2000
   28.0913   13.1254   27.5656 N   0  0  0  0  0  0  0  0  0  0  0  0
   23.7882   15.3858   26.5748 N   0  0  0  0  0  0  0  0  0  0  0  0
   24.9439   16.9976   33.6029 N   0  0  0  0  0  0  0  0  0  0  0  0
   25.9505   16.0165   30.9398 O   0  0  0  0  0  0  0  0  0  0  0  0
   25.6755   15.0859   29.8637 C   0  0  2  0  0  0  0  0  0  0  0  0
   20.8693   15.2340   28.9945 N   0  0  0  0  0  0  0  0  0  0  0  0
   27.8464   13.9234   30.2378 O   0  0  0  0  0  0  0  0  0  0  0  0
   27.0364   14.5768   29.2524 C   0  0  1  0  0  0  0  0  0  0  0  0
   23.6675   16.2239   29.2952 O   0  0  0  0  0  0  0  0  0  0  0  0
   26.7821   13.5932   28.1366 C   0  0  1  0  0  0  0  0  0  0  0  0
   23.5588   15.9567   31.5798 O   0  0  0  0  0  0  0  0  0  0  0  0
   25.9235   14.2735   27.0458 C   0  0  0  0  0  0  0  0  0  0  0  0
   21.4115   18.8633   32.0919 O   0  0  0  0  0  0  0  0  0  0  0  0
   24.5887   14.7375   27.6989 C   0  0  1  0  0  0  0  0  0  0  0  0
   19.6959   17.2363   30.5930 O   0  0  0  0  0  0  0  0  0  0  0  0
   24.8434   15.8004   28.7261 C   0  0  2  0  0  0  0  0  0  0  0  0
   23.0127   15.4496   30.2457 C   0  0  1  0  0  0  0  0  0  0  0  0
   23.2179   17.3875   31.8481 C   0  0  2  0  0  0  0  0  0  0  0  0
   23.7714   17.8297   33.2186 C   0  0  0  0  0  0  0  0  0  0  0  0
   21.7254   17.5328   31.8567 C   0  0  2  0  0  0  0  0  0  0  0  0
   21.1241   17.1046   30.5496 C   0  0  1  0  0  0  0  0  0  0  0  0
   21.4761   15.6782   30.3006 C   0  0  1  0  0  0  0  0  0  0  0  0
  5  4  1  1  0  0  0
  5  8  1  0  0  0  0
  5 16  1  0  0  0  0
  8  7  1  1  0  0  0
  8 10  1  0  0  0  0
 10  1  1  6  0  0  0
 10 12  1  0  0  0  0
 11 18  1  0  0  0  0
 12 14  1  0  0  0  0
 14  2  1  6  0  0  0
 14 16  1  0  0  0  0
 16  9  1  1  0  0  0
 17  9  1  6  0  0  0
 17 11  1  0  0  0  0
 17 22  1  0  0  0  0
 18 19  1  1  0  0  0
 18 20  1  0  0  0  0
 19  3  1  0  0  0  0
 20 13  1  6  0  0  0
 20 21  1  0  0  0  0
 21 15  1  1  0  0  0
 21 22  1  0  0  0  0
 22  6  1  6  0  0  0
M  END
>  <CHROM.1>
-37.94281488,92.24166048,25.30281210,24.03491607,15.84399647,30.04513676
-0.67827521,-0.29392117,1.12006056

>  <Name>
2et8_lig

>  <RI>
0

>  <Rbt.Current_Directory>
/home/itssahil/PROJECTS/Mol_Feturizer/New_Systems/rnas/2et8

>  <Rbt.Executable>
rbdock ($Id: //depot/dev/client3/rdock/2013.1/src/exe/rbdock.cxx#4 $)

>  <Rbt.Library>
libRbt.so (2013.1, Build901 2013/11/27)

>  <Rbt.Parameter_File>
/export/apps/rDock/src/rDock_2013.1_src/data/scripts/dock_solv.prm

>  <Rbt.Receptor>
prm/blind_docking_100.prm

>  <SCORE>
-8.83747

>  <SCORE.INTER>
-15.3371

>  <SCORE.INTER.CONST>
1

>  <SCORE.INTER.POLAR>
-1.07869

>  <SCORE.INTER.ROT>
3

>  <SCORE.INTER.SOLV>
20.7557

>  <SCORE.INTER.VDW>
-19.1476

>  <SCORE.INTER.norm>
-0.697139

>  <SCORE.INTRA>
5.05536

>  <SCORE.INTRA.DIHEDRAL>
4.48458

>  <SCORE.INTRA.DIHEDRAL.0>
4.99603

>  <SCORE.INTRA.POLAR>
0

>  <SCORE.INTRA.POLAR.0>
0

>  <SCORE.INTRA.REPUL>
0

>  <SCORE.INTRA.REPUL.0>
0

>  <SCORE.INTRA.SOLV>
2.17778

>  <SCORE.INTRA.SOLV.lig_0>
-74.884

>  <SCORE.INTRA.VDW>
1.72418

>  <SCORE.INTRA.VDW.0>
-0.858933

>  <SCORE.INTRA.norm>
0.229789

>  <SCORE.RESTR>
1.44423

>  <SCORE.RESTR.CAVITY>
1.44423

>  <SCORE.RESTR.norm>
0.0656467

>  <SCORE.SYSTEM>
0

>  <SCORE.SYSTEM.CONST>
0

>  <SCORE.SYSTEM.DIHEDRAL>
0

>  <SCORE.SYSTEM.SOLV>
0

>  <SCORE.SYSTEM.norm>
0

>  <SCORE.heavy>
22

>  <SCORE.norm>
-0.401703

>  <RMSD>
8.645

$$$$
2et8_lig
 OpenBabel11021811433D
libRbt.so/2013.1/901 2013/11/27
 22 23  0  0  0  0  0  0  0  0999 V2000
   28.0962   12.9990   27.4948 N   0  0  0  0  0  0  0  0  0  0  0  0
   23.8250   15.4188   26.7810 N   0  0  0  0  0  0  0  0  0  0  0  0
   23.9309   19.2030   33.6965 N   0  0  0  0  0  0  0  0  0  0  0  0
   26.2782   15.9510   31.0030 O   0  0  0  0  0  0  0  0  0  0  0  0
   25.9025   15.0358   29.9444 C   0  0  2  0  0  0  0  0  0  0  0  0
   21.0855   15.3292   29.1872 N   0  0  0  0  0  0  0  0  0  0  0  0
   28.0486   13.7935   30.1789 O   0  0  0  0  0  0  0  0  0  0  0  0
   27.2028   14.4802   29.2476 C   0  0  1  0  0  0  0  0  0  0  0  0
   23.9057   16.2486   29.5055 O   0  0  0  0  0  0  0  0  0  0  0  0
   26.8433   13.5115   28.1480 C   0  0  1  0  0  0  0  0  0  0  0  0
   23.7986   15.9177   31.7818 O   0  0  0  0  0  0  0  0  0  0  0  0
   25.9434   14.2275   27.1147 C   0  0  0  0  0  0  0  0  0  0  0  0
   21.7174   18.8544   32.3862 O   0  0  0  0  0  0  0  0  0  0  0  0
   24.6701   14.7367   27.8513 C   0  0  1  0  0  0  0  0  0  0  0  0
   19.9616   17.3095   30.8476 O   0  0  0  0  0  0  0  0  0  0  0  0
   25.0273   15.7852   28.8628 C   0  0  2  0  0  0  0  0  0  0  0  0
   23.2372   15.4616   30.4357 C   0  0  1  0  0  0  0  0  0  0  0  0
   23.4901   17.3472   32.0927 C   0  0  2  0  0  0  0  0  0  0  0  0
   24.0577   17.7371   33.4733 C   0  0  0  0  0  0  0  0  0  0  0  0
   22.0012   17.5247   32.1114 C   0  0  2  0  0  0  0  0  0  0  0  0
   21.3864   17.1479   30.7948 C   0  0  1  0  0  0  0  0  0  0  0  0
   21.7061   15.7220   30.5032 C   0  0  1  0  0  0  0  0  0  0  0  0
  5  4  1  1  0  0  0
  5  8  1  0  0  0  0
  5 16  1  0  0  0  0
  8  7  1  1  0  0  0
  8 10  1  0  0  0  0
 10  1  1  6  0  0  0
 10 12  1  0  0  0  0
 11 18  1  0  0  0  0
 12 14  1  0  0  0  0
 14  2  1  6  0  0  0
 14 16  1  0  0  0  0
 16  9  1  1  0  0  0
 17  9  1  6  0  0  0
 17 11  1  0  0  0  0
 17 22  1  0  0  0  0
 18 19  1  1  0  0  0
 18 20  1  0  0  0  0
 19  3  1  0  0  0  0
 20 13  1  6  0  0  0
 20 21  1  0  0  0  0
 21 15  1  1  0  0  0
 21 22  1  0  0  0  0
 22  6  1  6  0  0  0
M  END
>  <CHROM.1>
-41.85290071,96.02749506,171.58585273,24.17940634,15.92174050,30.19210002
-0.79164466,-0.26116178,1.03379307

>  <Name>
2et8_lig

>  <RI>
0

>  <Rbt.Current_Directory>
/home/itssahil/PROJECTS/Mol_Feturizer/New_Systems/rnas/2et8

>  <Rbt.Executable>
rbdock ($Id: //depot/dev/client3/rdock/2013.1/src/exe/rbdock.cxx#4 $)

>  <Rbt.Library>
libRbt.so (2013.1, Build901 2013/11/27)

>  <Rbt.Parameter_File>
/export/apps/rDock/src/rDock_2013.1_src/data/scripts/dock_solv.prm

>  <Rbt.Receptor>
prm/blind_docking_80.prm

>  <SCORE>
-12.0749

>  <SCORE.INTER>
-16.9611

>  <SCORE.INTER.CONST>
1

>  <SCORE.INTER.POLAR>
-1.09516

>  <SCORE.INTER.ROT>
3

>  <SCORE.INTER.SOLV>
20.3059

>  <SCORE.INTER.VDW>
-20.0255

>  <SCORE.INTER.norm>
-0.770957

>  <SCORE.INTRA>
3.16024

>  <SCORE.INTRA.DIHEDRAL>
1.51682

>  <SCORE.INTRA.DIHEDRAL.0>
4.99603

>  <SCORE.INTRA.POLAR>
0

>  <SCORE.INTRA.POLAR.0>
0

>  <SCORE.INTRA.REPUL>
0

>  <SCORE.INTRA.REPUL.0>
0

>  <SCORE.INTRA.SOLV>
2.12118

>  <SCORE.INTRA.SOLV.lig_0>
-74.884

>  <SCORE.INTRA.VDW>
1.34124

>  <SCORE.INTRA.VDW.0>
-0.858933

>  <SCORE.INTRA.norm>
0.143647

>  <SCORE.RESTR>
1.72589

>  <SCORE.RESTR.CAVITY>
1.72589

>  <SCORE.RESTR.norm>
0.0784497

>  <SCORE.SYSTEM>
0

>  <SCORE.SYSTEM.CONST>
0

>  <SCORE.SYSTEM.DIHEDRAL>
0

>  <SCORE.SYSTEM.SOLV>
0

>  <SCORE.SYSTEM.norm>
0

>  <SCORE.heavy>
22

>  <SCORE.norm>
-0.54886

>  <RMSD>
8.645

$$$$
2et8_lig
 OpenBabel11021811433D
libRbt.so/2013.1/901 2013/11/27
 22 23  0  0  0  0  0  0  0  0999 V2000
   28.3338   13.6318   27.4774 N   0  0  0  0  0  0  0  0  0  0  0  0
   23.6809   15.3426   27.3025 N   0  0  0  0  0  0  0  0  0  0  0  0
   18.9303   17.2235   29.3476 N   0  0  0  0  0  0  0  0  0  0  0  0
   26.3385   15.8563   31.4012 O   0  0  0  0  0  0  0  0  0  0  0  0
   26.0357   15.0026   30.2704 C   0  0  2  0  0  0  0  0  0  0  0  0
   24.2072   15.9094   33.0539 N   0  0  0  0  0  0  0  0  0  0  0  0
   28.3682   14.1296   30.2321 O   0  0  0  0  0  0  0  0  0  0  0  0
   27.3506   14.7520   29.4377 C   0  0  1  0  0  0  0  0  0  0  0  0
   23.8388   15.8929   30.0935 O   0  0  0  0  0  0  0  0  0  0  0  0
   27.0693   13.8527   28.2591 C   0  0  1  0  0  0  0  0  0  0  0  0
   22.5921   17.8262   30.1979 O   0  0  0  0  0  0  0  0  0  0  0  0
   25.9856   14.5048   27.3700 C   0  0  0  0  0  0  0  0  0  0  0  0
   19.6448   16.1752   31.5795 O   0  0  0  0  0  0  0  0  0  0  0  0
   24.7081   14.7106   28.2354 C   0  0  1  0  0  0  0  0  0  0  0  0
   21.4610   15.7832   33.6736 O   0  0  0  0  0  0  0  0  0  0  0  0
   24.9671   15.6966   29.3357 C   0  0  2  0  0  0  0  0  0  0  0  0
   23.6971   17.0258   30.8861 C   0  0  1  0  0  0  0  0  0  0  0  0
   21.2760   17.1168   30.1822 C   0  0  2  0  0  0  0  0  0  0  0  0
   20.1988   17.9864   29.5012 C   0  0  0  0  0  0  0  0  0  0  0  0
   20.8590   16.8455   31.5968 C   0  0  2  0  0  0  0  0  0  0  0  0
   21.8765   16.0109   32.3191 C   0  0  1  0  0  0  0  0  0  0  0  0
   23.1794   16.7340   32.3225 C   0  0  1  0  0  0  0  0  0  0  0  0
  5  4  1  1  0  0  0
  5  8  1  0  0  0  0
  5 16  1  0  0  0  0
  8  7  1  1  0  0  0
  8 10  1  0  0  0  0
 10  1  1  6  0  0  0
 10 12  1  0  0  0  0
 11 18  1  0  0  0  0
 12 14  1  0  0  0  0
 14  2  1  6  0  0  0
 14 16  1  0  0  0  0
 16  9  1  1  0  0  0
 17  9  1  6  0  0  0
 17 11  1  0  0  0  0
 17 22  1  0  0  0  0
 18 19  1  1  0  0  0
 18 20  1  0  0  0  0
 19  3  1  0  0  0  0
 20 13  1  6  0  0  0
 20 21  1  0  0  0  0
 21 15  1  1  0  0  0
 21 22  1  0  0  0  0
 22  6  1  6  0  0  0
M  END
>  <CHROM.1>
85.74884121,110.77918584,173.63153770,23.83180830,15.82489693,30.22082898
0.35583350,0.34306172,-1.64556175

>  <Name>
2et8_lig

>  <RI>
0

>  <Rbt.Current_Directory>
/home/itssahil/PROJECTS/Mol_Feturizer/New_Systems/rnas/2et8

>  <Rbt.Executable>
rbdock ($Id: //depot/dev/client3/rdock/2013.1/src/exe/rbdock.cxx#4 $)

>  <Rbt.Library>
libRbt.so (2013.1, Build901 2013/11/27)

>  <Rbt.Parameter_File>
/export/apps/rDock/src/rDock_2013.1_src/data/scripts/dock_solv.prm

>  <Rbt.Receptor>
prm/blind_docking_80.prm

>  <SCORE>
-11.2279

>  <SCORE.INTER>
-17.1715

>  <SCORE.INTER.CONST>
1

>  <SCORE.INTER.POLAR>
-0.955746

>  <SCORE.INTER.ROT>
3

>  <SCORE.INTER.SOLV>
21.3001

>  <SCORE.INTER.VDW>
-20.9619

>  <SCORE.INTER.norm>
-0.780522

>  <SCORE.INTRA>
3.14995

>  <SCORE.INTRA.DIHEDRAL>
4.69226

>  <SCORE.INTRA.DIHEDRAL.0>
4.99603

>  <SCORE.INTRA.POLAR>
0

>  <SCORE.INTRA.POLAR.0>
0

>  <SCORE.INTRA.REPUL>
0

>  <SCORE.INTRA.REPUL.0>
0

>  <SCORE.INTRA.SOLV>
2.30082

>  <SCORE.INTRA.SOLV.lig_0>
-74.884

>  <SCORE.INTRA.VDW>
-0.346591

>  <SCORE.INTRA.VDW.0>
-0.858933

>  <SCORE.INTRA.norm>
0.14318

>  <SCORE.RESTR>
2.79361

>  <SCORE.RESTR.CAVITY>
2.79361

>  <SCORE.RESTR.norm>
0.126982

>  <SCORE.SYSTEM>
0

>  <SCORE.SYSTEM.CONST>
0

>  <SCORE.SYSTEM.DIHEDRAL>
0

>  <SCORE.SYSTEM.SOLV>
0

>  <SCORE.SYSTEM.norm>
0

>  <SCORE.heavy>
22

>  <SCORE.norm>
-0.51036

>  <RMSD>
8.646

$$$$
2et8_lig
 OpenBabel11021811433D
libRbt.so/2013.1/901 2013/11/27
 22 23  0  0  0  0  0  0  0  0999 V2000
   28.2482   13.6490   26.8281 N   0  0  0  0  0  0  0  0  0  0  0  0
   24.1098   16.3021   27.4937 N   0  0  0  0  0  0  0  0  0  0  0  0
   19.5222   17.3925   29.5230 N   0  0  0  0  0  0  0  0  0  0  0  0
   26.5673   14.5619   31.3743 O   0  0  0  0  0  0  0  0  0  0  0  0
   26.1502   14.3086   30.0100 C   0  0  2  0  0  0  0  0  0  0  0  0
   24.5755   17.0944   32.8680 N   0  0  0  0  0  0  0  0  0  0  0  0
   28.2288   13.0139   29.5546 O   0  0  0  0  0  0  0  0  0  0  0  0
   27.4237   14.1099   29.1023 C   0  0  1  0  0  0  0  0  0  0  0  0
   24.2202   15.6717   30.2700 O   0  0  0  0  0  0  0  0  0  0  0  0
   27.0201   13.8296   27.6756 C   0  0  1  0  0  0  0  0  0  0  0  0
   22.3642   16.9441   29.7814 O   0  0  0  0  0  0  0  0  0  0  0  0
   26.1629   15.0040   27.1502 C   0  0  0  0  0  0  0  0  0  0  0  0
   20.2123   15.2147   32.1688 O   0  0  0  0  0  0  0  0  0  0  0  0
   24.9139   15.1414   28.0691 C   0  0  1  0  0  0  0  0  0  0  0  0
   22.0605   16.3796   33.9193 O   0  0  0  0  0  0  0  0  0  0  0  0
   25.3196   15.5347   29.4586 C   0  0  2  0  0  0  0  0  0  0  0  0
   23.6866   16.9247   30.5470 C   0  0  1  0  0  0  0  0  0  0  0  0
   21.3896   15.9194   30.2668 C   0  0  2  0  0  0  0  0  0  0  0  0
   20.0684   16.0090   29.4752 C   0  0  0  0  0  0  0  0  0  0  0  0
   21.1058   16.1747   31.7170 C   0  0  2  0  0  0  0  0  0  0  0  0
   22.3589   16.1134   32.5412 C   0  0  1  0  0  0  0  0  0  0  0  0
   23.3162   17.1401   32.0413 C   0  0  1  0  0  0  0  0  0  0  0  0
  5  4  1  1  0  0  0
  5  8  1  0  0  0  0
  5 16  1  0  0  0  0
  8  7  1  1  0  0  0
  8 10  1  0  0  0  0
 10  1  1  6  0  0  0
 10 12  1  0  0  0  0
 11 18  1  0  0  0  0
 12 14  1  0  0  0  0
 14  2  1  6  0  0  0
 14 16  1  0  0  0  0
 16  9  1  1  0  0  0
 17  9  1  1  0  0  0
 17 11  1  0  0  0  0
 17 22  1  0  0  0  0
 18 19  1  6  0  0  0
 18 20  1  0  0  0  0
 19  3  1  0  0  0  0
 20 13  1  1  0  0  0
 20 21  1  0  0  0  0
 21 15  1  1  0  0  0
 21 22  1  0  0  0  0
 22  6  1  1  0  0  0
M  END
>  <CHROM.1>
146.21841322,109.13752804,-54.30203796,24.03538850,15.55629127,30.12350366
0.46600791,0.34081391,-1.63757117

>  <Name>
2et8_lig

>  <RI>
0

>  <Rbt.Current_Directory>
/home/itssahil/PROJECTS/Mol_Feturizer/New_Systems/rnas/2et8

>  <Rbt.Executable>
rbdock ($Id: //depot/dev/client3/rdock/2013.1/src/exe/rbdock.cxx#4 $)

>  <Rbt.Library>
libRbt.so (2013.1, Build901 2013/11/27)

>  <Rbt.Parameter_File>
/export/apps/rDock/src/rDock_2013.1_src/data/scripts/dock_solv.prm

>  <Rbt.Receptor>
prm/blind_docking_100.prm

>  <SCORE>
-10.215

>  <SCORE.INTER>
-14.5626

>  <SCORE.INTER.CONST>
1

>  <SCORE.INTER.POLAR>
-0.815131

>  <SCORE.INTER.ROT>
3

>  <SCORE.INTER.SOLV>
20.9859

>  <SCORE.INTER.VDW>
-19.5866

>  <SCORE.INTER.norm>
-0.661938

>  <SCORE.INTRA>
3.17835

>  <SCORE.INTRA.DIHEDRAL>
5.97119

>  <SCORE.INTRA.DIHEDRAL.0>
4.99603

>  <SCORE.INTRA.POLAR>
0

>  <SCORE.INTRA.POLAR.0>
0

>  <SCORE.INTRA.REPUL>
0

>  <SCORE.INTRA.REPUL.0>
0

>  <SCORE.INTRA.SOLV>
2.63974

>  <SCORE.INTRA.SOLV.lig_0>
-74.884

>  <SCORE.INTRA.VDW>
-1.12712

>  <SCORE.INTRA.VDW.0>
-0.858933

>  <SCORE.INTRA.norm>
0.14447

>  <SCORE.RESTR>
1.1693

>  <SCORE.RESTR.CAVITY>
1.1693

>  <SCORE.RESTR.norm>
0.05315

>  <SCORE.SYSTEM>
0

>  <SCORE.SYSTEM.CONST>
0

>  <SCORE.SYSTEM.DIHEDRAL>
0

>  <SCORE.SYSTEM.SOLV>
0

>  <SCORE.SYSTEM.norm>
0

>  <SCORE.heavy>
22

>  <SCORE.norm>
-0.464317

>  <RMSD>
8.662

$$$$
2et8_lig
 OpenBabel11021811433D
libRbt.so/2013.1/901 2013/11/27
 22 23  0  0  0  0  0  0  0  0999 V2000
   28.0396   12.9975   27.6287 N   0  0  0  0  0  0  0  0  0  0  0  0
   23.7416   15.2470   26.5921 N   0  0  0  0  0  0  0  0  0  0  0  0
   22.9963   17.1538   34.1610 N   0  0  0  0  0  0  0  0  0  0  0  0
   25.9469   16.0257   30.9115 O   0  0  0  0  0  0  0  0  0  0  0  0
   25.6566   15.0575   29.8733 C   0  0  2  0  0  0  0  0  0  0  0  0
   20.9593   14.9652   28.8724 N   0  0  0  0  0  0  0  0  0  0  0  0
   27.8236   13.8958   30.2714 O   0  0  0  0  0  0  0  0  0  0  0  0
   27.0088   14.5173   29.2694 C   0  0  1  0  0  0  0  0  0  0  0  0
   23.6504   16.1864   29.2804 O   0  0  0  0  0  0  0  0  0  0  0  0
   26.7385   13.4945   28.1934 C   0  0  1  0  0  0  0  0  0  0  0  0
   23.3935   16.0858   31.5665 O   0  0  0  0  0  0  0  0  0  0  0  0
   25.8742   14.1393   27.0855 C   0  0  0  0  0  0  0  0  0  0  0  0
   21.0134   18.8498   31.6950 O   0  0  0  0  0  0  0  0  0  0  0  0
   24.5483   14.6358   27.7326 C   0  0  1  0  0  0  0  0  0  0  0  0
   19.5324   16.9872   30.2203 O   0  0  0  0  0  0  0  0  0  0  0  0
   24.8186   15.7346   28.7172 C   0  0  2  0  0  0  0  0  0  0  0  0
   22.9843   15.4386   30.2440 C   0  0  1  0  0  0  0  0  0  0  0  0
   22.9331   17.5025   31.6943 C   0  0  2  0  0  0  0  0  0  0  0  0
   23.3517   18.0884   33.0587 C   0  0  0  0  0  0  0  0  0  0  0  0
   21.4374   17.5332   31.5901 C   0  0  2  0  0  0  0  0  0  0  0  0
   20.9657   16.9624   30.2844 C   0  0  1  0  0  0  0  0  0  0  0  0
   21.4354   15.5524   30.1762 C   0  0  1  0  0  0  0  0  0  0  0  0
  5  4  1  1  0  0  0
  5  8  1  0  0  0  0
  5 16  1  0  0  0  0
  8  7  1  1  0  0  0
  8 10  1  0  0  0  0
 10  1  1  6  0  0  0
 10 12  1  0  0  0  0
 11 18  1  0  0  0  0
 12 14  1  0  0  0  0
 14  2  1  6  0  0  0
 14 16  1  0  0  0  0
 16  9  1  1  0  0  0
 17  9  1  6  0  0  0
 17 11  1  0  0  0  0
 17 22  1  0  0  0  0
 18 19  1  1  0  0  0
 18 20  1  0  0  0  0
 19  3  1  0  0  0  0
 20 13  1  6  0  0  0
 20 21  1  0  0  0  0
 21 15  1  1  0  0  0
 21 22  1  0  0  0  0
 22  6  1  6  0  0  0
M  END
>  <CHROM.1>
-39.34351909,99.75632855,-48.37558338,23.84559892,15.80099107,29.99263949
-0.66592983,-0.30058343,1.12089881

>  <Name>
2et8_lig

>  <RI>
224

>  <Rbt.Current_Directory>
/home/itssahil/PROJECTS/Mol_Feturizer/New_Systems/rnas/2et8

>  <Rbt.Executable>
rbdock ($Id: //depot/dev/client3/rdock/2013.1/src/exe/rbdock.cxx#4 $)

>  <Rbt.Library>
libRbt.so (2013.1, Build901 2013/11/27)

>  <Rbt.Parameter_File>
/export/apps/rDock/src/rDock_2013.1_src/data/scripts/dock_solv.prm

>  <Rbt.Receptor>
prm/blind_docking_60.prm

>  <SCORE>
-12.3089

>  <SCORE.INTER>
-16.8624

>  <SCORE.INTER.CONST>
1

>  <SCORE.INTER.POLAR>
-1.09545

>  <SCORE.INTER.ROT>
3

>  <SCORE.INTER.SOLV>
17.822

>  <SCORE.INTER.VDW>
-19.1308

>  <SCORE.INTER.norm>
-0.766475

>  <SCORE.INTRA>
3.55154

>  <SCORE.INTRA.DIHEDRAL>
2.75958

>  <SCORE.INTRA.DIHEDRAL.0>
4.99603

>  <SCORE.INTRA.POLAR>
0

>  <SCORE.INTRA.POLAR.0>
0

>  <SCORE.INTRA.REPUL>
0

>  <SCORE.INTRA.REPUL.0>
0

>  <SCORE.INTRA.SOLV>
2.31876

>  <SCORE.INTRA.SOLV.lig_0>
-74.884

>  <SCORE.INTRA.VDW>
1.01237

>  <SCORE.INTRA.VDW.0>
-0.858933

>  <SCORE.INTRA.norm>
0.161434

>  <SCORE.RESTR>
1.00205

>  <SCORE.RESTR.CAVITY>
1.00205

>  <SCORE.RESTR.norm>
0.0455477

>  <SCORE.SYSTEM>
0

>  <SCORE.SYSTEM.CONST>
0

>  <SCORE.SYSTEM.DIHEDRAL>
0

>  <SCORE.SYSTEM.SOLV>
0

>  <SCORE.SYSTEM.norm>
0

>  <SCORE.heavy>
22

>  <SCORE.norm>
-0.559493

>  <RMSD>
8.687

$$$$
2et8_lig
 OpenBabel11021811433D
libRbt.so/2013.1/901 2013/11/27
 22 23  0  0  0  0  0  0  0  0999 V2000
   28.0358   12.9998   27.6303 N   0  0  0  0  0  0  0  0  0  0  0  0
   23.7391   15.2511   26.5923 N   0  0  0  0  0  0  0  0  0  0  0  0
   22.9893   17.1559   34.1524 N   0  0  0  0  0  0  0  0  0  0  0  0
   25.9420   16.0271   30.9133 O   0  0  0  0  0  0  0  0  0  0  0  0
   25.6521   15.0595   29.8745 C   0  0  2  0  0  0  0  0  0  0  0  0
   20.9642   14.9523   28.8630 N   0  0  0  0  0  0  0  0  0  0  0  0
   27.8185   13.8970   30.2733 O   0  0  0  0  0  0  0  0  0  0  0  0
   27.0045   14.5191   29.2711 C   0  0  1  0  0  0  0  0  0  0  0  0
   23.6466   16.1893   29.2810 O   0  0  0  0  0  0  0  0  0  0  0  0
   26.7345   13.4970   28.1944 C   0  0  1  0  0  0  0  0  0  0  0  0
   23.3783   16.0946   31.5660 O   0  0  0  0  0  0  0  0  0  0  0  0
   25.8710   14.1426   27.0864 C   0  0  0  0  0  0  0  0  0  0  0  0
   20.9829   18.8462   31.6732 O   0  0  0  0  0  0  0  0  0  0  0  0
   24.5448   14.6391   27.7329 C   0  0  1  0  0  0  0  0  0  0  0  0
   19.5195   16.9710   30.1969 O   0  0  0  0  0  0  0  0  0  0  0  0
   24.8149   15.7373   28.7182 C   0  0  2  0  0  0  0  0  0  0  0  0
   22.9795   15.4410   30.2436 C   0  0  1  0  0  0  0  0  0  0  0  0
   22.9097   17.5092   31.6868 C   0  0  2  0  0  0  0  0  0  0  0  0
   23.3180   18.1017   33.0515 C   0  0  0  0  0  0  0  0  0  0  0  0
   21.4144   17.5316   31.5748 C   0  0  2  0  0  0  0  0  0  0  0  0
   20.9526   16.9540   30.2685 C   0  0  1  0  0  0  0  0  0  0  0  0
   21.4304   15.5462   30.1673 C   0  0  1  0  0  0  0  0  0  0  0  0
  5  4  1  1  0  0  0
  5  8  1  0  0  0  0
  5 16  1  0  0  0  0
  8  7  1  1  0  0  0
  8 10  1  0  0  0  0
 10  1  1  6  0  0  0
 10 12  1  0  0  0  0
 11 18  1  0  0  0  0
 12 14  1  0  0  0  0
 14  2  1  6  0  0  0
 14 16  1  0  0  0  0
 16  9  1  1  0  0  0
 17  9  1  6  0  0  0
 17 11  1  0  0  0  0
 17 22  1  0  0  0  0
 18 19  1  1  0  0  0
 18 20  1  0  0  0  0
 19  3  1  0  0  0  0
 20 13  1  6  0  0  0
 20 21  1  0  0  0  0
 21 15  1  1  0  0  0
 21 22  1  0  0  0  0
 22  6  1  6  0  0  0
M  END
>  <CHROM.1>
-39.36296828,100.23566251,-47.12573596,23.83605575,15.80148507,29.98768970
-0.66283385,-0.30025531,1.12048412

>  <Name>
2et8_lig

>  <RI>
224

>  <Rbt.Current_Directory>
/home/itssahil/PROJECTS/Mol_Feturizer/New_Systems/rnas/2et8

>  <Rbt.Executable>
rbdock ($Id: //depot/dev/client3/rdock/2013.1/src/exe/rbdock.cxx#4 $)

>  <Rbt.Library>
libRbt.so (2013.1, Build901 2013/11/27)

>  <Rbt.Parameter_File>
/export/apps/rDock/src/rDock_2013.1_src/data/scripts/dock_solv.prm

>  <Rbt.Receptor>
prm/blind_docking_60.prm

>  <SCORE>
-12.2562

>  <SCORE.INTER>
-16.8671

>  <SCORE.INTER.CONST>
1

>  <SCORE.INTER.POLAR>
-1.09407

>  <SCORE.INTER.ROT>
3

>  <SCORE.INTER.SOLV>
17.8706

>  <SCORE.INTER.VDW>
-19.1547

>  <SCORE.INTER.norm>
-0.766687

>  <SCORE.INTRA>
3.61777

>  <SCORE.INTRA.DIHEDRAL>
2.93637

>  <SCORE.INTRA.DIHEDRAL.0>
4.99603

>  <SCORE.INTRA.POLAR>
0

>  <SCORE.INTRA.POLAR.0>
0

>  <SCORE.INTRA.REPUL>
0

>  <SCORE.INTRA.REPUL.0>
0

>  <SCORE.INTRA.SOLV>
2.31852

>  <SCORE.INTRA.SOLV.lig_0>
-74.884

>  <SCORE.INTRA.VDW>
0.990321

>  <SCORE.INTRA.VDW.0>
-0.858933

>  <SCORE.INTRA.norm>
0.164444

>  <SCORE.RESTR>
0.993184

>  <SCORE.RESTR.CAVITY>
0.993184

>  <SCORE.RESTR.norm>
0.0451447

>  <SCORE.SYSTEM>
0

>  <SCORE.SYSTEM.CONST>
0

>  <SCORE.SYSTEM.DIHEDRAL>
0

>  <SCORE.SYSTEM.SOLV>
0

>  <SCORE.SYSTEM.norm>
0

>  <SCORE.heavy>
22

>  <SCORE.norm>
-0.557099

>  <RMSD>
8.689

$$$$
2et8_lig
 OpenBabel11021811433D
libRbt.so/2013.1/901 2013/11/27
 22 23  0  0  0  0  0  0  0  0999 V2000
   28.0475   12.9990   27.6374 N   0  0  0  0  0  0  0  0  0  0  0  0
   23.7396   15.2110   26.5622 N   0  0  0  0  0  0  0  0  0  0  0  0
   22.9786   17.1058   34.1389 N   0  0  0  0  0  0  0  0  0  0  0  0
   25.9072   16.0214   30.8947 O   0  0  0  0  0  0  0  0  0  0  0  0
   25.6321   15.0476   29.8577 C   0  0  2  0  0  0  0  0  0  0  0  0
   20.9195   14.9601   28.8429 N   0  0  0  0  0  0  0  0  0  0  0  0
   27.8053   13.9044   30.2754 O   0  0  0  0  0  0  0  0  0  0  0  0
   26.9929   14.5160   29.2655 C   0  0  1  0  0  0  0  0  0  0  0  0
   23.6215   16.1586   29.2465 O   0  0  0  0  0  0  0  0  0  0  0  0
   26.7384   13.4876   28.1910 C   0  0  1  0  0  0  0  0  0  0  0  0
   23.3747   16.0436   31.5331 O   0  0  0  0  0  0  0  0  0  0  0  0
   25.8772   14.1219   27.0747 C   0  0  0  0  0  0  0  0  0  0  0  0
   21.0158   18.8241   31.6925 O   0  0  0  0  0  0  0  0  0  0  0  0
   24.5427   14.6100   27.7105 C   0  0  1  0  0  0  0  0  0  0  0  0
   19.5140   16.9830   30.2119 O   0  0  0  0  0  0  0  0  0  0  0  0
   24.7972   15.7141   28.6933 C   0  0  2  0  0  0  0  0  0  0  0  0
   22.9544   15.4089   30.2081 C   0  0  1  0  0  0  0  0  0  0  0  0
   22.9254   17.4627   31.6731 C   0  0  2  0  0  0  0  0  0  0  0  0
   23.3547   18.0358   33.0396 C   0  0  0  0  0  0  0  0  0  0  0  0
   21.4295   17.5053   31.5764 C   0  0  2  0  0  0  0  0  0  0  0  0
   20.9474   16.9472   30.2689 C   0  0  1  0  0  0  0  0  0  0  0  0
   21.4061   15.5345   30.1485 C   0  0  1  0  0  0  0  0  0  0  0  0
  5  4  1  1  0  0  0
  5  8  1  0  0  0  0
  5 16  1  0  0  0  0
  8  7  1  1  0  0  0
  8 10  1  0  0  0  0
 10  1  1  6  0  0  0
 10 12  1  0  0  0  0
 11 18  1  0  0  0  0
 12 14  1  0  0  0  0
 14  2  1  6  0  0  0
 14 16  1  0  0  0  0
 16  9  1  1  0  0  0
 17  9  1  6  0  0  0
 17 11  1  0  0  0  0
 17 22  1  0  0  0  0
 18 19  1  1  0  0  0
 18 20  1  0  0  0  0
 19  3  1  0  0  0  0
 20 13  1  6  0  0  0
 20 21  1  0  0  0  0
 21 15  1  1  0  0  0
 21 22  1  0  0  0  0
 22  6  1  6  0  0  0
M  END
>  <CHROM.1>
-39.32931626,98.48524746,-49.26204433,23.83051170,15.78078454,29.97567339
-0.66166019,-0.29949460,1.12407866

>  <Name>
2et8_lig

>  <RI>
224

>  <Rbt.Current_Directory>
/home/itssahil/PROJECTS/Mol_Feturizer/New_Systems/rnas/2et8

>  <Rbt.Executable>
rbdock ($Id: //depot/dev/client3/rdock/2013.1/src/exe/rbdock.cxx#4 $)

>  <Rbt.Library>
libRbt.so (2013.1, Build901 2013/11/27)

>  <Rbt.Parameter_File>
/export/apps/rDock/src/rDock_2013.1_src/data/scripts/dock_solv.prm

>  <Rbt.Receptor>
prm/blind_docking_60.prm

>  <SCORE>
-12.1859

>  <SCORE.INTER>
-16.5969

>  <SCORE.INTER.CONST>
1

>  <SCORE.INTER.POLAR>
-1.09488

>  <SCORE.INTER.ROT>
3

>  <SCORE.INTER.SOLV>
17.8378

>  <SCORE.INTER.VDW>
-18.9609

>  <SCORE.INTER.norm>
-0.754403

>  <SCORE.INTRA>
3.45551

>  <SCORE.INTRA.DIHEDRAL>
2.48629

>  <SCORE.INTRA.DIHEDRAL.0>
4.99603

>  <SCORE.INTRA.POLAR>
0

>  <SCORE.INTRA.POLAR.0>
0

>  <SCORE.INTRA.REPUL>
0

>  <SCORE.INTRA.REPUL.0>
0

>  <SCORE.INTRA.SOLV>
2.28087

>  <SCORE.INTRA.SOLV.lig_0>
-74.884

>  <SCORE.INTRA.VDW>
1.07193

>  <SCORE.INTRA.VDW.0>
-0.858933

>  <SCORE.INTRA.norm>
0.157069

>  <SCORE.RESTR>
0.955476

>  <SCORE.RESTR.CAVITY>
0.955476

>  <SCORE.RESTR.norm>
0.0434307

>  <SCORE.SYSTEM>
0

>  <SCORE.SYSTEM.CONST>
0

>  <SCORE.SYSTEM.DIHEDRAL>
0

>  <SCORE.SYSTEM.SOLV>
0

>  <SCORE.SYSTEM.norm>
0

>  <SCORE.heavy>
22

>  <SCORE.norm>
-0.553904

>  <RMSD>
8.691

$$$$
2et8_lig
 OpenBabel11021811433D
libRbt.so/2013.1/901 2013/11/27
 22 23  0  0  0  0  0  0  0  0999 V2000
   28.0429   12.9682   27.5994 N   0  0  0  0  0  0  0  0  0  0  0  0
   23.7812   15.3410   26.6965 N   0  0  0  0  0  0  0  0  0  0  0  0
   22.8349   17.2720   34.2005 N   0  0  0  0  0  0  0  0  0  0  0  0
   26.1126   16.0105   30.9676 O   0  0  0  0  0  0  0  0  0  0  0  0
   25.7713   15.0627   29.9262 C   0  0  2  0  0  0  0  0  0  0  0  0
   21.1863   14.8801   28.8600 N   0  0  0  0  0  0  0  0  0  0  0  0
   27.9162   13.8403   30.2567 O   0  0  0  0  0  0  0  0  0  0  0  0
   27.0934   14.4946   29.2825 C   0  0  1  0  0  0  0  0  0  0  0  0
   23.7814   16.2504   29.3966 O   0  0  0  0  0  0  0  0  0  0  0  0
   26.7697   13.4922   28.2022 C   0  0  1  0  0  0  0  0  0  0  0  0
   23.3904   16.1890   31.6650 O   0  0  0  0  0  0  0  0  0  0  0  0
   25.8954   14.1724   27.1237 C   0  0  0  0  0  0  0  0  0  0  0  0
   20.8687   18.8261   31.5781 O   0  0  0  0  0  0  0  0  0  0  0  0
   24.5995   14.6955   27.8094 C   0  0  1  0  0  0  0  0  0  0  0  0
   19.5780   16.8548   30.0665 O   0  0  0  0  0  0  0  0  0  0  0  0
   24.9229   15.7750   28.7992 C   0  0  2  0  0  0  0  0  0  0  0  0
   23.0966   15.4909   30.3378 C   0  0  1  0  0  0  0  0  0  0  0  0
   22.8512   17.5820   31.7278 C   0  0  2  0  0  0  0  0  0  0  0  0
   23.1548   18.2204   33.0992 C   0  0  0  0  0  0  0  0  0  0  0  0
   21.3651   17.5316   31.5334 C   0  0  2  0  0  0  0  0  0  0  0  0
   21.0041   16.9068   30.2170 C   0  0  1  0  0  0  0  0  0  0  0  0
   21.5510   15.5214   30.1741 C   0  0  1  0  0  0  0  0  0  0  0  0
  5  4  1  1  0  0  0
  5  8  1  0  0  0  0
  5 16  1  0  0  0  0
  8  7  1  1  0  0  0
  8 10  1  0  0  0  0
 10  1  1  6  0  0  0
 10 12  1  0  0  0  0
 11 18  1  0  0  0  0
 12 14  1  0  0  0  0
 14  2  1  6  0  0  0
 14 16  1  0  0  0  0
 16  9  1  1  0  0  0
 17  9  1  6  0  0  0
 17 11  1  0  0  0  0
 17 22  1  0  0  0  0
 18 19  1  1  0  0  0
 18 20  1  0  0  0  0
 19  3  1  0  0  0  0
 20 13  1  6  0  0  0
 20 21  1  0  0  0  0
 21 15  1  1  0  0  0
 21 22  1  0  0  0  0
 22  6  1  6  0  0  0
M  END
>  <CHROM.1>
-41.37608411,107.54069273,-45.97386878,23.87825168,15.81500035,30.00990294
0.65675962,0.30227264,-2.02287058

>  <Name>
2et8_lig

>  <RI>
224

>  <Rbt.Current_Directory>
/home/itssahil/PROJECTS/Mol_Feturizer/New_Systems/rnas/2et8

>  <Rbt.Executable>
rbdock ($Id: //depot/dev/client3/rdock/2013.1/src/exe/rbdock.cxx#4 $)

>  <Rbt.Library>
libRbt.so (2013.1, Build901 2013/11/27)

>  <Rbt.Parameter_File>
/export/apps/rDock/src/rDock_2013.1_src/data/scripts/dock_solv.prm

>  <Rbt.Receptor>
prm/blind_docking_60.prm

>  <SCORE>
-12.672

>  <SCORE.INTER>
-17.6724

>  <SCORE.INTER.CONST>
1

>  <SCORE.INTER.POLAR>
-1.08574

>  <SCORE.INTER.ROT>
3

>  <SCORE.INTER.SOLV>
18.0621

>  <SCORE.INTER.VDW>
-19.7832

>  <SCORE.INTER.norm>
-0.80329

>  <SCORE.INTRA>
3.86108

>  <SCORE.INTRA.DIHEDRAL>
3.72318

>  <SCORE.INTRA.DIHEDRAL.0>
4.99603

>  <SCORE.INTRA.POLAR>
0

>  <SCORE.INTRA.POLAR.0>
0

>  <SCORE.INTRA.REPUL>
0

>  <SCORE.INTRA.REPUL.0>
0

>  <SCORE.INTRA.SOLV>
2.67456

>  <SCORE.INTRA.SOLV.lig_0>
-74.884

>  <SCORE.INTRA.VDW>
0.66221

>  <SCORE.INTRA.VDW.0>
-0.858933

>  <SCORE.INTRA.norm>
0.175504

>  <SCORE.RESTR>
1.13934

>  <SCORE.RESTR.CAVITY>
1.13934

>  <SCORE.RESTR.norm>
0.0517882

>  <SCORE.SYSTEM>
0

>  <SCORE.SYSTEM.CONST>
0

>  <SCORE.SYSTEM.DIHEDRAL>
0

>  <SCORE.SYSTEM.SOLV>
0

>  <SCORE.SYSTEM.norm>
0

>  <SCORE.heavy>
22

>  <SCORE.norm>
-0.575998

>  <RMSD>
8.696

$$$$
2et8_lig
 OpenBabel11021811433D
libRbt.so/2013.1/901 2013/11/27
 22 23  0  0  0  0  0  0  0  0999 V2000
   28.0530   13.0023   27.6403 N   0  0  0  0  0  0  0  0  0  0  0  0
   23.7484   15.2126   26.5483 N   0  0  0  0  0  0  0  0  0  0  0  0
   23.0064   17.0723   34.1155 N   0  0  0  0  0  0  0  0  0  0  0  0
   25.8973   16.0216   30.8904 O   0  0  0  0  0  0  0  0  0  0  0  0
   25.6271   15.0482   29.8517 C   0  0  2  0  0  0  0  0  0  0  0  0
   20.9209   14.9556   28.8127 N   0  0  0  0  0  0  0  0  0  0  0  0
   27.7992   13.9060   30.2778 O   0  0  0  0  0  0  0  0  0  0  0  0
   26.9907   14.5178   29.2649 C   0  0  1  0  0  0  0  0  0  0  0  0
   23.6185   16.1585   29.2327 O   0  0  0  0  0  0  0  0  0  0  0  0
   26.7413   13.4899   28.1887 C   0  0  1  0  0  0  0  0  0  0  0  0
   23.3585   16.0419   31.5177 O   0  0  0  0  0  0  0  0  0  0  0  0
   25.8844   14.1243   27.0692 C   0  0  0  0  0  0  0  0  0  0  0  0
   20.9939   18.8183   31.6647 O   0  0  0  0  0  0  0  0  0  0  0  0
   24.5470   14.6113   27.6996 C   0  0  1  0  0  0  0  0  0  0  0  0
   19.5040   16.9754   30.1744 O   0  0  0  0  0  0  0  0  0  0  0  0
   24.7967   15.7150   28.6842 C   0  0  2  0  0  0  0  0  0  0  0  0
   22.9470   15.4071   30.1899 C   0  0  1  0  0  0  0  0  0  0  0  0
   22.9059   17.4602   31.6558 C   0  0  2  0  0  0  0  0  0  0  0  0
   23.3263   18.0333   33.0251 C   0  0  0  0  0  0  0  0  0  0  0  0
   21.4106   17.5002   31.5503 C   0  0  2  0  0  0  0  0  0  0  0  0
   20.9371   16.9419   30.2398 C   0  0  1  0  0  0  0  0  0  0  0  0
   21.3989   15.5302   30.1213 C   0  0  1  0  0  0  0  0  0  0  0  0
  5  4  1  1  0  0  0
  5  8  1  0  0  0  0
  5 16  1  0  0  0  0
  8  7  1  1  0  0  0
  8 10  1  0  0  0  0
 10  1  1  6  0  0  0
 10 12  1  0  0  0  0
 11 18  1  0  0  0  0
 12 14  1  0  0  0  0
 14  2  1  6  0  0  0
 14 16  1  0  0  0  0
 16  9  1  1  0  0  0
 17  9  1  6  0  0  0
 17 11  1  0  0  0  0
 17 22  1  0  0  0  0
 18 19  1  1  0  0  0
 18 20  1  0  0  0  0
 19  3  1  0  0  0  0
 20 13  1  6  0  0  0
 20 21  1  0  0  0  0
 21 15  1  1  0  0  0
 21 22  1  0  0  0  0
 22  6  1  6  0  0  0
M  END
>  <CHROM.1>
-39.39846171,98.61950994,-46.45596747,23.82538251,15.77807994,29.96072433
-0.65552537,-0.30129046,1.12666387

>  <Name>
2et8_lig

>  <RI>
224

>  <Rbt.Current_Directory>
/home/itssahil/PROJECTS/Mol_Feturizer/New_Systems/rnas/2et8

>  <Rbt.Executable>
rbdock ($Id: //depot/dev/client3/rdock/2013.1/src/exe/rbdock.cxx#4 $)

>  <Rbt.Library>
libRbt.so (2013.1, Build901 2013/11/27)

>  <Rbt.Parameter_File>
/export/apps/rDock/src/rDock_2013.1_src/data/scripts/dock_solv.prm

>  <Rbt.Receptor>
prm/blind_docking_60.prm

>  <SCORE>
-11.9568

>  <SCORE.INTER>
-16.4061

>  <SCORE.INTER.CONST>
1

>  <SCORE.INTER.POLAR>
-1.09146

>  <SCORE.INTER.ROT>
3

>  <SCORE.INTER.SOLV>
17.9746

>  <SCORE.INTER.VDW>
-18.8908

>  <SCORE.INTER.norm>
-0.745734

>  <SCORE.INTRA>
3.54098

>  <SCORE.INTRA.DIHEDRAL>
2.72788

>  <SCORE.INTRA.DIHEDRAL.0>
4.99603

>  <SCORE.INTRA.POLAR>
0

>  <SCORE.INTRA.POLAR.0>
0

>  <SCORE.INTRA.REPUL>
0

>  <SCORE.INTRA.REPUL.0>
0

>  <SCORE.INTRA.SOLV>
2.2432

>  <SCORE.INTRA.SOLV.lig_0>
-74.884

>  <SCORE.INTRA.VDW>
1.05544

>  <SCORE.INTRA.VDW.0>
-0.858933

>  <SCORE.INTRA.norm>
0.160954

>  <SCORE.RESTR>
0.908337

>  <SCORE.RESTR.CAVITY>
0.908337

>  <SCORE.RESTR.norm>
0.0412881

>  <SCORE.SYSTEM>
0

>  <SCORE.SYSTEM.CONST>
0

>  <SCORE.SYSTEM.DIHEDRAL>
0

>  <SCORE.SYSTEM.SOLV>
0

>  <SCORE.SYSTEM.norm>
0

>  <SCORE.heavy>
22

>  <SCORE.norm>
-0.543492

>  <RMSD>
8.701

$$$$
2et8_lig
 OpenBabel11021811433D
libRbt.so/2013.1/901 2013/11/27
 22 23  0  0  0  0  0  0  0  0999 V2000
   28.0013   12.9282   27.5742 N   0  0  0  0  0  0  0  0  0  0  0  0
   23.8707   15.6174   27.0135 N   0  0  0  0  0  0  0  0  0  0  0  0
   24.4260   18.4277   33.7601 N   0  0  0  0  0  0  0  0  0  0  0  0
   26.4910   15.9672   31.1533 O   0  0  0  0  0  0  0  0  0  0  0  0
   26.0233   15.0842   30.1040 C   0  0  2  0  0  0  0  0  0  0  0  0
   21.6358   14.9078   28.9882 N   0  0  0  0  0  0  0  0  0  0  0  0
   28.0929   13.7074   30.2616 O   0  0  0  0  0  0  0  0  0  0  0  0
   27.2621   14.4520   29.3620 C   0  0  1  0  0  0  0  0  0  0  0  0
   24.0939   16.4235   29.7371 O   0  0  0  0  0  0  0  0  0  0  0  0
   26.8057   13.5148   28.2709 C   0  0  1  0  0  0  0  0  0  0  0  0
   23.4852   16.3914   31.9577 O   0  0  0  0  0  0  0  0  0  0  0  0
   25.9193   14.2926   27.2712 C   0  0  0  0  0  0  0  0  0  0  0  0
   20.8557   18.8904   31.5553 O   0  0  0  0  0  0  0  0  0  0  0  0
   24.7059   14.8767   28.0521 C   0  0  1  0  0  0  0  0  0  0  0  0
   19.8200   16.8216   29.9791 O   0  0  0  0  0  0  0  0  0  0  0  0
   25.1621   15.8941   29.0554 C   0  0  2  0  0  0  0  0  0  0  0  0
   23.3586   15.6500   30.6274 C   0  0  1  0  0  0  0  0  0  0  0  0
   22.8735   17.7554   31.9303 C   0  0  2  0  0  0  0  0  0  0  0  0
   23.0086   18.4386   33.3070 C   0  0  0  0  0  0  0  0  0  0  0  0
   21.4181   17.6230   31.5939 C   0  0  2  0  0  0  0  0  0  0  0  0
   21.2200   16.9515   30.2660 C   0  0  1  0  0  0  0  0  0  0  0  0
   21.8370   15.5960   30.3138 C   0  0  1  0  0  0  0  0  0  0  0  0
  5  4  1  1  0  0  0
  5  8  1  0  0  0  0
  5 16  1  0  0  0  0
  8  7  1  1  0  0  0
  8 10  1  0  0  0  0
 10  1  1  6  0  0  0
 10 12  1  0  0  0  0
 11 18  1  0  0  0  0
 12 14  1  0  0  0  0
 14  2  1  6  0  0  0
 14 16  1  0  0  0  0
 16  9  1  1  0  0  0
 17  9  1  6  0  0  0
 17 11  1  0  0  0  0
 17 22  1  0  0  0  0
 18 19  1  1  0  0  0
 18 20  1  0  0  0  0
 19  3  1  0  0  0  0
 20 13  1  6  0  0  0
 20 21  1  0  0  0  0
 21 15  1  1  0  0  0
 21 22  1  0  0  0  0
 22  6  1  6  0  0  0
M  END
>  <CHROM.1>
-45.71661736,121.07590801,53.12906887,24.09732507,15.94174027,30.12755895
0.68421421,0.28691965,-2.11561792

>  <Name>
2et8_lig

>  <RI>
224

>  <Rbt.Current_Directory>
/home/itssahil/PROJECTS/Mol_Feturizer/New_Systems/rnas/2et8

>  <Rbt.Executable>
rbdock ($Id: //depot/dev/client3/rdock/2013.1/src/exe/rbdock.cxx#4 $)

>  <Rbt.Library>
libRbt.so (2013.1, Build901 2013/11/27)

>  <Rbt.Parameter_File>
/export/apps/rDock/src/rDock_2013.1_src/data/scripts/dock_solv.prm

>  <Rbt.Receptor>
prm/blind_docking_60.prm

>  <SCORE>
-12.0604

>  <SCORE.INTER>
-16.942

>  <SCORE.INTER.CONST>
1

>  <SCORE.INTER.POLAR>
-0.997623

>  <SCORE.INTER.ROT>
3

>  <SCORE.INTER.SOLV>
21.8779

>  <SCORE.INTER.VDW>
-20.8619

>  <SCORE.INTER.norm>
-0.770093

>  <SCORE.INTRA>
3.24716

>  <SCORE.INTRA.DIHEDRAL>
3.32377

>  <SCORE.INTRA.DIHEDRAL.0>
4.99603

>  <SCORE.INTRA.POLAR>
0

>  <SCORE.INTRA.POLAR.0>
0

>  <SCORE.INTRA.REPUL>
0

>  <SCORE.INTRA.REPUL.0>
0

>  <SCORE.INTRA.SOLV>
2.45682

>  <SCORE.INTRA.SOLV.lig_0>
-74.884

>  <SCORE.INTRA.VDW>
0.356865

>  <SCORE.INTRA.VDW.0>
-0.858933

>  <SCORE.INTRA.norm>
0.147598

>  <SCORE.RESTR>
1.63453

>  <SCORE.RESTR.CAVITY>
1.63453

>  <SCORE.RESTR.norm>
0.0742968

>  <SCORE.SYSTEM>
0

>  <SCORE.SYSTEM.CONST>
0

>  <SCORE.SYSTEM.DIHEDRAL>
0

>  <SCORE.SYSTEM.SOLV>
0

>  <SCORE.SYSTEM.norm>
0

>  <SCORE.heavy>
22

>  <SCORE.norm>
-0.548198

>  <RMSD>
8.705

$$$$
2et8_lig
 OpenBabel11021811433D
libRbt.so/2013.1/901 2013/11/27
 22 23  0  0  0  0  0  0  0  0999 V2000
   28.0680   12.9939   27.6245 N   0  0  0  0  0  0  0  0  0  0  0  0
   23.7717   15.2425   26.5789 N   0  0  0  0  0  0  0  0  0  0  0  0
   22.9774   17.1493   34.1393 N   0  0  0  0  0  0  0  0  0  0  0  0
   25.9660   16.0189   30.9043 O   0  0  0  0  0  0  0  0  0  0  0  0
   25.6786   15.0514   29.8647 C   0  0  2  0  0  0  0  0  0  0  0  0
   20.9944   14.9398   28.8381 N   0  0  0  0  0  0  0  0  0  0  0  0
   27.8451   13.8902   30.2673 O   0  0  0  0  0  0  0  0  0  0  0  0
   27.0325   14.5121   29.2638 C   0  0  1  0  0  0  0  0  0  0  0  0
   23.6735   16.1799   29.2676 O   0  0  0  0  0  0  0  0  0  0  0  0
   26.7652   13.4900   28.1863 C   0  0  1  0  0  0  0  0  0  0  0  0
   23.3965   16.0825   31.5516 O   0  0  0  0  0  0  0  0  0  0  0  0
   25.9034   14.1353   27.0768 C   0  0  0  0  0  0  0  0  0  0  0  0
   20.9970   18.8308   31.6523 O   0  0  0  0  0  0  0  0  0  0  0  0
   24.5757   14.6308   27.7209 C   0  0  1  0  0  0  0  0  0  0  0  0
   19.5418   16.9552   30.1684 O   0  0  0  0  0  0  0  0  0  0  0  0
   24.8432   15.7290   28.7070 C   0  0  2  0  0  0  0  0  0  0  0  0
   23.0036   15.4298   30.2269 C   0  0  1  0  0  0  0  0  0  0  0  0
   22.9255   17.4964   31.6720 C   0  0  2  0  0  0  0  0  0  0  0  0
   23.3277   18.0880   33.0389 C   0  0  0  0  0  0  0  0  0  0  0  0
   21.4307   17.5169   31.5543 C   0  0  2  0  0  0  0  0  0  0  0  0
   20.9746   16.9401   30.2455 C   0  0  1  0  0  0  0  0  0  0  0  0
   21.4547   15.5330   30.1448 C   0  0  1  0  0  0  0  0  0  0  0  0
  5  4  1  1  0  0  0
  5  8  1  0  0  0  0
  5 16  1  0  0  0  0
  8  7  1  1  0  0  0
  8 10  1  0  0  0  0
 10  1  1  6  0  0  0
 10 12  1  0  0  0  0
 11 18  1  0  0  0  0
 12 14  1  0  0  0  0
 14  2  1  6  0  0  0
 14 16  1  0  0  0  0
 16  9  1  1  0  0  0
 17  9  1  6  0  0  0
 17 11  1  0  0  0  0
 17 22  1  0  0  0  0
 18 19  1  1  0  0  0
 18 20  1  0  0  0  0
 19  3  1  0  0  0  0
 20 13  1  6  0  0  0
 20 21  1  0  0  0  0
 21 15  1  1  0  0  0
 21 22  1  0  0  0  0
 22  6  1  6  0  0  0
M  END
>  <CHROM.1>
-39.49156413,100.36726399,-47.97520413,23.85889207,15.79114998,29.97322839
-0.65992791,-0.30041605,1.12206454

>  <Name>
2et8_lig

>  <RI>
224

>  <Rbt.Current_Directory>
/home/itssahil/PROJECTS/Mol_Feturizer/New_Systems/rnas/2et8

>  <Rbt.Executable>
rbdock ($Id: //depot/dev/client3/rdock/2013.1/src/exe/rbdock.cxx#4 $)

>  <Rbt.Library>
libRbt.so (2013.1, Build901 2013/11/27)

>  <Rbt.Parameter_File>
/export/apps/rDock/src/rDock_2013.1_src/data/scripts/dock_solv.prm

>  <Rbt.Receptor>
prm/blind_docking_60.prm

>  <SCORE>
-12.3723

>  <SCORE.INTER>
-16.9572

>  <SCORE.INTER.CONST>
1

>  <SCORE.INTER.POLAR>
-1.09545

>  <SCORE.INTER.ROT>
3

>  <SCORE.INTER.SOLV>
17.8662

>  <SCORE.INTER.VDW>
-19.2087

>  <SCORE.INTER.norm>
-0.77078

>  <SCORE.INTRA>
3.57851

>  <SCORE.INTRA.DIHEDRAL>
2.86513

>  <SCORE.INTRA.DIHEDRAL.0>
4.99603

>  <SCORE.INTRA.POLAR>
0

>  <SCORE.INTRA.POLAR.0>
0

>  <SCORE.INTRA.REPUL>
0

>  <SCORE.INTRA.REPUL.0>
0

>  <SCORE.INTRA.SOLV>
2.34268

>  <SCORE.INTRA.SOLV.lig_0>
-74.884

>  <SCORE.INTRA.VDW>
0.974605

>  <SCORE.INTRA.VDW.0>
-0.858933

>  <SCORE.INTRA.norm>
0.162659

>  <SCORE.RESTR>
1.00633

>  <SCORE.RESTR.CAVITY>
1.00633

>  <SCORE.RESTR.norm>
0.0457421

>  <SCORE.SYSTEM>
0

>  <SCORE.SYSTEM.CONST>
0

>  <SCORE.SYSTEM.DIHEDRAL>
0

>  <SCORE.SYSTEM.SOLV>
0

>  <SCORE.SYSTEM.norm>
0

>  <SCORE.heavy>
22

>  <SCORE.norm>
-0.562378

>  <RMSD>
8.706

$$$$
2et8_lig
 OpenBabel11021811433D
libRbt.so/2013.1/901 2013/11/27
 22 23  0  0  0  0  0  0  0  0999 V2000
   28.0707   12.9876   27.6240 N   0  0  0  0  0  0  0  0  0  0  0  0
   23.7837   15.2605   26.5927 N   0  0  0  0  0  0  0  0  0  0  0  0
   22.9781   17.1491   34.1475 N   0  0  0  0  0  0  0  0  0  0  0  0
   25.9935   16.0197   30.9131 O   0  0  0  0  0  0  0  0  0  0  0  0
   25.6983   15.0551   29.8731 C   0  0  2  0  0  0  0  0  0  0  0  0
   21.0247   14.9503   28.8291 N   0  0  0  0  0  0  0  0  0  0  0  0
   27.8596   13.8819   30.2685 O   0  0  0  0  0  0  0  0  0  0  0  0
   27.0477   14.5093   29.2679 C   0  0  1  0  0  0  0  0  0  0  0  0
   23.6977   16.1951   29.2828 O   0  0  0  0  0  0  0  0  0  0  0  0
   26.7721   13.4901   28.1899 C   0  0  1  0  0  0  0  0  0  0  0  0
   23.4013   16.0950   31.5642 O   0  0  0  0  0  0  0  0  0  0  0  0
   25.9108   14.1413   27.0835 C   0  0  0  0  0  0  0  0  0  0  0  0
   20.9957   18.8386   31.6469 O   0  0  0  0  0  0  0  0  0  0  0  0
   24.5875   14.6431   27.7318 C   0  0  1  0  0  0  0  0  0  0  0  0
   19.5570   16.9617   30.1488 O   0  0  0  0  0  0  0  0  0  0  0  0
   24.8634   15.7385   28.7185 C   0  0  2  0  0  0  0  0  0  0  0  0
   23.0210   15.4427   30.2356 C   0  0  1  0  0  0  0  0  0  0  0  0
   22.9266   17.5078   31.6819 C   0  0  2  0  0  0  0  0  0  0  0  0
   23.3159   18.0989   33.0527 C   0  0  0  0  0  0  0  0  0  0  0  0
   21.4328   17.5256   31.5513 C   0  0  2  0  0  0  0  0  0  0  0  0
   20.9891   16.9492   30.2382 C   0  0  1  0  0  0  0  0  0  0  0  0
   21.4727   15.5431   30.1402 C   0  0  1  0  0  0  0  0  0  0  0  0
  5  4  1  1  0  0  0
  5  8  1  0  0  0  0
  5 16  1  0  0  0  0
  8  7  1  1  0  0  0
  8 10  1  0  0  0  0
 10  1  1  6  0  0  0
 10 12  1  0  0  0  0
 11 18  1  0  0  0  0
 12 14  1  0  0  0  0
 14  2  1  6  0  0  0
 14 16  1  0  0  0  0
 16  9  1  1  0  0  0
 17  9  1  6  0  0  0
 17 11  1  0  0  0  0
 17 22  1  0  0  0  0
 18 19  1  1  0  0  0
 18 20  1  0  0  0  0
 19  3  1  0  0  0  0
 20 13  1  6  0  0  0
 20 21  1  0  0  0  0
 21 15  1  1  0  0  0
 21 22  1  0  0  0  0
 22  6  1  6  0  0  0
M  END
>  <CHROM.1>
-39.97867182,101.25978391,-47.05851131,23.87045170,15.79783231,29.97714661
-0.65855351,-0.30379045,1.12403810

>  <Name>
2et8_lig

>  <RI>
224

>  <Rbt.Current_Directory>
/home/itssahil/PROJECTS/Mol_Feturizer/New_Systems/rnas/2et8

>  <Rbt.Executable>
rbdock ($Id: //depot/dev/client3/rdock/2013.1/src/exe/rbdock.cxx#4 $)

>  <Rbt.Library>
libRbt.so (2013.1, Build901 2013/11/27)

>  <Rbt.Parameter_File>
/export/apps/rDock/src/rDock_2013.1_src/data/scripts/dock_solv.prm

>  <Rbt.Receptor>
prm/blind_docking_60.prm

>  <SCORE>
-12.3413

>  <SCORE.INTER>
-16.9313

>  <SCORE.INTER.CONST>
1

>  <SCORE.INTER.POLAR>
-1.08656

>  <SCORE.INTER.ROT>
3

>  <SCORE.INTER.SOLV>
17.9263

>  <SCORE.INTER.VDW>
-19.2411

>  <SCORE.INTER.norm>
-0.769606

>  <SCORE.INTRA>
3.59332

>  <SCORE.INTRA.DIHEDRAL>
3.00323

>  <SCORE.INTRA.DIHEDRAL.0>
4.99603

>  <SCORE.INTRA.POLAR>
0

>  <SCORE.INTRA.POLAR.0>
0

>  <SCORE.INTRA.REPUL>
0

>  <SCORE.INTRA.REPUL.0>
0

>  <SCORE.INTRA.SOLV>
2.38267

>  <SCORE.INTRA.SOLV.lig_0>
-74.884

>  <SCORE.INTRA.VDW>
0.900369

>  <SCORE.INTRA.VDW.0>
-0.858933

>  <SCORE.INTRA.norm>
0.163333

>  <SCORE.RESTR>
0.996764

>  <SCORE.RESTR.CAVITY>
0.996764

>  <SCORE.RESTR.norm>
0.0453074

>  <SCORE.SYSTEM>
0

>  <SCORE.SYSTEM.CONST>
0

>  <SCORE.SYSTEM.DIHEDRAL>
0

>  <SCORE.SYSTEM.SOLV>
0

>  <SCORE.SYSTEM.norm>
0

>  <SCORE.heavy>
22

>  <SCORE.norm>
-0.560966

>  <RMSD>
8.707

$$$$
2et8_lig
 OpenBabel11021811433D
libRbt.so/2013.1/901 2013/11/27
 22 23  0  0  0  0  0  0  0  0999 V2000
   28.0689   12.9820   27.6194 N   0  0  0  0  0  0  0  0  0  0  0  0
   23.7842   15.2637   26.5981 N   0  0  0  0  0  0  0  0  0  0  0  0
   22.9862   17.1434   34.1507 N   0  0  0  0  0  0  0  0  0  0  0  0
   26.0048   16.0172   30.9140 O   0  0  0  0  0  0  0  0  0  0  0  0
   25.7054   15.0534   29.8743 C   0  0  2  0  0  0  0  0  0  0  0  0
   21.0351   14.9506   28.8277 N   0  0  0  0  0  0  0  0  0  0  0  0
   27.8653   13.8758   30.2647 O   0  0  0  0  0  0  0  0  0  0  0  0
   27.0524   14.5052   29.2660 C   0  0  1  0  0  0  0  0  0  0  0  0
   23.7058   16.1975   29.2886 O   0  0  0  0  0  0  0  0  0  0  0  0
   26.7725   13.4868   28.1883 C   0  0  1  0  0  0  0  0  0  0  0  0
   23.4037   16.0964   31.5692 O   0  0  0  0  0  0  0  0  0  0  0  0
   25.9101   14.1401   27.0839 C   0  0  0  0  0  0  0  0  0  0  0  0
   20.9956   18.8379   31.6468 O   0  0  0  0  0  0  0  0  0  0  0  0
   24.5892   14.6442   27.7352 C   0  0  1  0  0  0  0  0  0  0  0  0
   19.5622   16.9602   30.1444 O   0  0  0  0  0  0  0  0  0  0  0  0
   24.8694   15.7389   28.7217 C   0  0  2  0  0  0  0  0  0  0  0  0
   23.0274   15.4443   30.2394 C   0  0  1  0  0  0  0  0  0  0  0  0
   22.9274   17.5088   31.6862 C   0  0  2  0  0  0  0  0  0  0  0  0
   23.3128   18.0997   33.0583 C   0  0  0  0  0  0  0  0  0  0  0  0
   21.4340   17.5253   31.5519 C   0  0  2  0  0  0  0  0  0  0  0  0
   20.9941   16.9489   30.2374 C   0  0  1  0  0  0  0  0  0  0  0  0
   21.4792   15.5433   30.1402 C   0  0  1  0  0  0  0  0  0  0  0  0
  5  4  1  1  0  0  0
  5  8  1  0  0  0  0
  5 16  1  0  0  0  0
  8  7  1  1  0  0  0
  8 10  1  0  0  0  0
 10  1  1  6  0  0  0
 10 12  1  0  0  0  0
 11 18  1  0  0  0  0
 12 14  1  0  0  0  0
 14  2  1  6  0  0  0
 14 16  1  0  0  0  0
 16  9  1  1  0  0  0
 17  9  1  6  0  0  0
 17 11  1  0  0  0  0
 17 22  1  0  0  0  0
 18 19  1  1  0  0  0
 18 20  1  0  0  0  0
 19  3  1  0  0  0  0
 20 13  1  6  0  0  0
 20 21  1  0  0  0  0
 21 15  1  1  0  0  0
 21 22  1  0  0  0  0
 22  6  1  6  0  0  0
M  END
>  <CHROM.1>
-40.19197478,101.62598358,-46.46643994,23.87442093,15.79687021,29.97822903
-0.65877724,-0.30461103,1.12450639

>  <Name>
2et8_lig

>  <RI>
224

>  <Rbt.Current_Directory>
/home/itssahil/PROJECTS/Mol_Feturizer/New_Systems/rnas/2et8

>  <Rbt.Executable>
rbdock ($Id: //depot/dev/client3/rdock/2013.1/src/exe/rbdock.cxx#4 $)

>  <Rbt.Library>
libRbt.so (2013.1, Build901 2013/11/27)

>  <Rbt.Parameter_File>
/export/apps/rDock/src/rDock_2013.1_src/data/scripts/dock_solv.prm

>  <Rbt.Receptor>
prm/blind_docking_60.prm

>  <SCORE>
-12.3556

>  <SCORE.INTER>
-16.9608

>  <SCORE.INTER.CONST>
1

>  <SCORE.INTER.POLAR>
-1.09512

>  <SCORE.INTER.ROT>
3

>  <SCORE.INTER.SOLV>
17.9472

>  <SCORE.INTER.VDW>
-19.2392

>  <SCORE.INTER.norm>
-0.770947

>  <SCORE.INTRA>
3.60758

>  <SCORE.INTRA.DIHEDRAL>
3.07759

>  <SCORE.INTRA.DIHEDRAL.0>
4.99603

>  <SCORE.INTRA.POLAR>
0

>  <SCORE.INTRA.POLAR.0>
0

>  <SCORE.INTRA.REPUL>
0

>  <SCORE.INTRA.REPUL.0>
0

>  <SCORE.INTRA.SOLV>
2.39605

>  <SCORE.INTRA.SOLV.lig_0>
-74.884

>  <SCORE.INTRA.VDW>
0.87076

>  <SCORE.INTRA.VDW.0>
-0.858933

>  <SCORE.INTRA.norm>
0.163981

>  <SCORE.RESTR>
0.997657

>  <SCORE.RESTR.CAVITY>
0.997657

>  <SCORE.RESTR.norm>
0.045348

>  <SCORE.SYSTEM>
0

>  <SCORE.SYSTEM.CONST>
0

>  <SCORE.SYSTEM.DIHEDRAL>
0

>  <SCORE.SYSTEM.SOLV>
0

>  <SCORE.SYSTEM.norm>
0

>  <SCORE.heavy>
22

>  <SCORE.norm>
-0.561619

>  <RMSD>
8.707

$$$$
2et8_lig
 OpenBabel11021811433D
libRbt.so/2013.1/901 2013/11/27
 22 23  0  0  0  0  0  0  0  0999 V2000
   28.1517   13.7443   28.3993 N   0  0  0  0  0  0  0  0  0  0  0  0
   23.7268   14.9164   26.4876 N   0  0  0  0  0  0  0  0  0  0  0  0
   22.4174   19.4937   32.7644 N   0  0  0  0  0  0  0  0  0  0  0  0
   25.0198   16.6061   30.9147 O   0  0  0  0  0  0  0  0  0  0  0  0
   25.0902   15.4913   29.9918 C   0  0  2  0  0  0  0  0  0  0  0  0
   20.3621   14.8251   28.5777 N   0  0  0  0  0  0  0  0  0  0  0  0
   27.3465   14.8601   30.8373 O   0  0  0  0  0  0  0  0  0  0  0  0
   26.5998   15.1839   29.6576 C   0  0  1  0  0  0  0  0  0  0  0  0
   23.0273   16.1032   28.9816 O   0  0  0  0  0  0  0  0  0  0  0  0
   26.7061   14.0162   28.7079 C   0  0  1  0  0  0  0  0  0  0  0  0
   22.7671   16.0159   31.2679 O   0  0  0  0  0  0  0  0  0  0  0  0
   25.9241   14.3408   27.4144 C   0  0  0  0  0  0  0  0  0  0  0  0
   20.3320   18.7328   31.3686 O   0  0  0  0  0  0  0  0  0  0  0  0
   24.4414   14.6158   27.8006 C   0  0  1  0  0  0  0  0  0  0  0  0
   18.8919   16.8292   29.9059 O   0  0  0  0  0  0  0  0  0  0  0  0
   24.3352   15.8475   28.6501 C   0  0  2  0  0  0  0  0  0  0  0  0
   22.3740   15.3500   29.9498 C   0  0  1  0  0  0  0  0  0  0  0  0
   22.2782   17.4242   31.3831 C   0  0  2  0  0  0  0  0  0  0  0  0
   22.6818   18.0293   32.7436 C   0  0  0  0  0  0  0  0  0  0  0  0
   20.7825   17.4242   31.2754 C   0  0  2  0  0  0  0  0  0  0  0  0
   20.3253   16.8335   29.9733 C   0  0  1  0  0  0  0  0  0  0  0  0
   20.8233   15.4323   29.8777 C   0  0  1  0  0  0  0  0  0  0  0  0
  5  4  1  1  0  0  0
  5  8  1  0  0  0  0
  5 16  1  0  0  0  0
  8  7  1  1  0  0  0
  8 10  1  0  0  0  0
 10  1  1  6  0  0  0
 10 12  1  0  0  0  0
 11 18  1  0  0  0  0
 12 14  1  0  0  0  0
 14  2  1  6  0  0  0
 14 16  1  0  0  0  0
 16  9  1  1  0  0  0
 17  9  1  6  0  0  0
 17 11  1  0  0  0  0
 17 22  1  0  0  0  0
 18 19  1  1  0  0  0
 18 20  1  0  0  0  0
 19  3  1  0  0  0  0
 20 13  1  6  0  0  0
 20 21  1  0  0  0  0
 21 15  1  1  0  0  0
 21 22  1  0  0  0  0
 22  6  1  6  0  0  0
M  END
>  <CHROM.1>
-38.73440301,84.38794508,169.73370282,23.36366025,16.03306135,29.89117660
-0.55022244,-0.18251320,0.94478293

>  <Name>
2et8_lig

>  <RI>
224

>  <Rbt.Current_Directory>
/home/itssahil/PROJECTS/Mol_Feturizer/New_Systems/rnas/2et8

>  <Rbt.Executable>
rbdock ($Id: //depot/dev/client3/rdock/2013.1/src/exe/rbdock.cxx#4 $)

>  <Rbt.Library>
libRbt.so (2013.1, Build901 2013/11/27)

>  <Rbt.Parameter_File>
/export/apps/rDock/src/rDock_2013.1_src/data/scripts/dock_solv.prm

>  <Rbt.Receptor>
prm/blind_docking_60.prm

>  <SCORE>
-7.59547

>  <SCORE.INTER>
-13.1582

>  <SCORE.INTER.CONST>
1

>  <SCORE.INTER.POLAR>
-0.860206

>  <SCORE.INTER.ROT>
3

>  <SCORE.INTER.SOLV>
21.7241

>  <SCORE.INTER.VDW>
-18.7462

>  <SCORE.INTER.norm>
-0.598102

>  <SCORE.INTRA>
4.13553

>  <SCORE.INTRA.DIHEDRAL>
0.0158181

>  <SCORE.INTRA.DIHEDRAL.0>
4.99603

>  <SCORE.INTRA.POLAR>
0

>  <SCORE.INTRA.POLAR.0>
0

>  <SCORE.INTRA.REPUL>
0

>  <SCORE.INTRA.REPUL.0>
0

>  <SCORE.INTRA.SOLV>
1.55156

>  <SCORE.INTRA.SOLV.lig_0>
-74.884

>  <SCORE.INTRA.VDW>
3.35184

>  <SCORE.INTRA.VDW.0>
-0.858933

>  <SCORE.INTRA.norm>
0.187979

>  <SCORE.RESTR>
1.42725

>  <SCORE.RESTR.CAVITY>
1.42725

>  <SCORE.RESTR.norm>
0.0648751

>  <SCORE.SYSTEM>
0

>  <SCORE.SYSTEM.CONST>
0

>  <SCORE.SYSTEM.DIHEDRAL>
0

>  <SCORE.SYSTEM.SOLV>
0

>  <SCORE.SYSTEM.norm>
0

>  <SCORE.heavy>
22

>  <SCORE.norm>
-0.345249

>  <RMSD>
8.710

$$$$
2et8_lig
 OpenBabel11021811433D
libRbt.so/2013.1/901 2013/11/27
 22 23  0  0  0  0  0  0  0  0999 V2000
   28.0999   12.9583   27.5896 N   0  0  0  0  0  0  0  0  0  0  0  0
   23.8488   15.3576   26.7071 N   0  0  0  0  0  0  0  0  0  0  0  0
   22.8735   17.2652   34.1990 N   0  0  0  0  0  0  0  0  0  0  0  0
   26.1955   15.9986   30.9742 O   0  0  0  0  0  0  0  0  0  0  0  0
   25.8462   15.0565   29.9303 C   0  0  2  0  0  0  0  0  0  0  0  0
   21.2835   14.8681   28.8401 N   0  0  0  0  0  0  0  0  0  0  0  0
   27.9853   13.8213   30.2504 O   0  0  0  0  0  0  0  0  0  0  0  0
   27.1634   14.4837   29.2809 C   0  0  1  0  0  0  0  0  0  0  0  0
   23.8614   16.2570   29.4105 O   0  0  0  0  0  0  0  0  0  0  0  0
   26.8312   13.4870   28.1977 C   0  0  1  0  0  0  0  0  0  0  0  0
   23.4400   16.1950   31.6735 O   0  0  0  0  0  0  0  0  0  0  0  0
   25.9578   14.1759   27.1242 C   0  0  0  0  0  0  0  0  0  0  0  0
   20.9013   18.8143   31.5495 O   0  0  0  0  0  0  0  0  0  0  0  0
   24.6666   14.7035   27.8153 C   0  0  1  0  0  0  0  0  0  0  0  0
   19.6451   16.8325   30.0225 O   0  0  0  0  0  0  0  0  0  0  0  0
   24.9987   15.7777   28.8083 C   0  0  2  0  0  0  0  0  0  0  0  0
   23.1692   15.4937   30.3431 C   0  0  1  0  0  0  0  0  0  0  0  0
   22.8902   17.5844   31.7275 C   0  0  2  0  0  0  0  0  0  0  0  0
   23.1707   18.2261   33.1022 C   0  0  0  0  0  0  0  0  0  0  0  0
   21.4073   17.5233   31.5129 C   0  0  2  0  0  0  0  0  0  0  0  0
   21.0686   16.8948   30.1924 C   0  0  1  0  0  0  0  0  0  0  0  0
   21.6258   15.5132   30.1584 C   0  0  1  0  0  0  0  0  0  0  0  0
  5  4  1  1  0  0  0
  5  8  1  0  0  0  0
  5 16  1  0  0  0  0
  8  7  1  1  0  0  0
  8 10  1  0  0  0  0
 10  1  1  6  0  0  0
 10 12  1  0  0  0  0
 11 18  1  0  0  0  0
 12 14  1  0  0  0  0
 14  2  1  6  0  0  0
 14 16  1  0  0  0  0
 16  9  1  1  0  0  0
 17  9  1  6  0  0  0
 17 11  1  0  0  0  0
 17 22  1  0  0  0  0
 18 19  1  1  0  0  0
 18 20  1  0  0  0  0
 19  3  1  0  0  0  0
 20 13  1  6  0  0  0
 20 21  1  0  0  0  0
 21 15  1  1  0  0  0
 21 22  1  0  0  0  0
 22  6  1  6  0  0  0
M  END
>  <CHROM.1>
-41.88167511,108.92923781,-44.61497499,23.94017126,15.81071454,30.00476227
0.65302493,0.30490407,-2.02000644

>  <Name>
2et8_lig

>  <RI>
224

>  <Rbt.Current_Directory>
/home/itssahil/PROJECTS/Mol_Feturizer/New_Systems/rnas/2et8

>  <Rbt.Executable>
rbdock ($Id: //depot/dev/client3/rdock/2013.1/src/exe/rbdock.cxx#4 $)

>  <Rbt.Library>
libRbt.so (2013.1, Build901 2013/11/27)

>  <Rbt.Parameter_File>
/export/apps/rDock/src/rDock_2013.1_src/data/scripts/dock_solv.prm

>  <Rbt.Receptor>
prm/blind_docking_60.prm

>  <SCORE>
-12.8046

>  <SCORE.INTER>
-17.9194

>  <SCORE.INTER.CONST>
1

>  <SCORE.INTER.POLAR>
-1.09545

>  <SCORE.INTER.ROT>
3

>  <SCORE.INTER.SOLV>
18.041

>  <SCORE.INTER.VDW>
-19.9084

>  <SCORE.INTER.norm>
-0.814518

>  <SCORE.INTRA>
3.93957

>  <SCORE.INTRA.DIHEDRAL>
3.92593

>  <SCORE.INTRA.DIHEDRAL.0>
4.99603

>  <SCORE.INTRA.POLAR>
0

>  <SCORE.INTRA.POLAR.0>
0

>  <SCORE.INTRA.REPUL>
0

>  <SCORE.INTRA.REPUL.0>
0

>  <SCORE.INTRA.SOLV>
2.72843

>  <SCORE.INTRA.SOLV.lig_0>
-74.884

>  <SCORE.INTRA.VDW>
0.612395

>  <SCORE.INTRA.VDW.0>
-0.858933

>  <SCORE.INTRA.norm>
0.179071

>  <SCORE.RESTR>
1.1752

>  <SCORE.RESTR.CAVITY>
1.1752

>  <SCORE.RESTR.norm>
0.0534183

>  <SCORE.SYSTEM>
0

>  <SCORE.SYSTEM.CONST>
0

>  <SCORE.SYSTEM.DIHEDRAL>
0

>  <SCORE.SYSTEM.SOLV>
0

>  <SCORE.SYSTEM.norm>
0

>  <SCORE.heavy>
22

>  <SCORE.norm>
-0.582029

>  <RMSD>
8.716

$$$$
2et8_lig
 OpenBabel11021811433D
libRbt.so/2013.1/901 2013/11/27
 22 23  0  0  0  0  0  0  0  0999 V2000
   28.4258   14.0409   27.0742 N   0  0  0  0  0  0  0  0  0  0  0  0
   26.1137   14.5910   31.4284 N   0  0  0  0  0  0  0  0  0  0  0  0
   23.8917   18.9494   33.6252 N   0  0  0  0  0  0  0  0  0  0  0  0
   23.9701   16.1447   27.2911 O   0  0  0  0  0  0  0  0  0  0  0  0
   25.2205   15.9943   28.0076 C   0  0  2  0  0  0  0  0  0  0  0  0
   21.7018   14.7018   29.1080 N   0  0  0  0  0  0  0  0  0  0  0  0
   26.4637   15.6403   25.8785 O   0  0  0  0  0  0  0  0  0  0  0  0
   26.1960   15.0814   27.1708 C   0  0  1  0  0  0  0  0  0  0  0  0
   24.1178   16.1376   30.1086 O   0  0  0  0  0  0  0  0  0  0  0  0
   27.5144   14.9178   27.8862 C   0  0  1  0  0  0  0  0  0  0  0  0
   23.0688   16.5921   32.1075 O   0  0  0  0  0  0  0  0  0  0  0  0
   27.2623   14.2993   29.2805 C   0  0  0  0  0  0  0  0  0  0  0  0
   20.8944   19.1612   30.6959 O   0  0  0  0  0  0  0  0  0  0  0  0
   26.3119   15.2486   30.0671 C   0  0  1  0  0  0  0  0  0  0  0  0
   19.9634   16.9099   29.3167 O   0  0  0  0  0  0  0  0  0  0  0  0
   24.9650   15.3127   29.4102 C   0  0  2  0  0  0  0  0  0  0  0  0
   23.1292   15.6152   30.9340 C   0  0  1  0  0  0  0  0  0  0  0  0
   22.6428   17.9676   31.7051 C   0  0  2  0  0  0  0  0  0  0  0  0
   22.5743   18.8963   32.9352 C   0  0  0  0  0  0  0  0  0  0  0  0
   21.2817   17.8862   31.0810 C   0  0  2  0  0  0  0  0  0  0  0  0
   21.2804   16.9836   29.8815 C   0  0  1  0  0  0  0  0  0  0  0  0
   21.7085   15.6199   30.3031 C   0  0  1  0  0  0  0  0  0  0  0  0
  5  4  1  6  0  0  0
  5  8  1  0  0  0  0
  5 16  1  0  0  0  0
  8  7  1  6  0  0  0
  8 10  1  0  0  0  0
 10  1  1  6  0  0  0
 10 12  1  0  0  0  0
 11 18  1  0  0  0  0
 12 14  1  0  0  0  0
 14  2  1  1  0  0  0
 14 16  1  0  0  0  0
 16  9  1  1  0  0  0
 17  9  1  6  0  0  0
 17 11  1  0  0  0  0
 17 22  1  0  0  0  0
 18 19  1  1  0  0  0
 18 20  1  0  0  0  0
 19  3  1  0  0  0  0
 20 13  1  6  0  0  0
 20 21  1  0  0  0  0
 21 15  1  1  0  0  0
 21 22  1  0  0  0  0
 22  6  1  6  0  0  0
M  END
>  <CHROM.1>
142.89989564,144.09238846,57.71642282,23.99537885,16.23934754,29.76955689
-0.69046448,-0.29911295,1.22839947

>  <Name>
2et8_lig

>  <RI>
0

>  <Rbt.Current_Directory>
/home/itssahil/PROJECTS/Mol_Feturizer/New_Systems/rnas/2et8

>  <Rbt.Executable>
rbdock ($Id: //depot/dev/client3/rdock/2013.1/src/exe/rbdock.cxx#4 $)

>  <Rbt.Library>
libRbt.so (2013.1, Build901 2013/11/27)

>  <Rbt.Parameter_File>
/export/apps/rDock/src/rDock_2013.1_src/data/scripts/dock_solv.prm

>  <Rbt.Receptor>
prm/blind_docking_80.prm

>  <SCORE>
-8.45759

>  <SCORE.INTER>
-12.0468

>  <SCORE.INTER.CONST>
1

>  <SCORE.INTER.POLAR>
-0.359401

>  <SCORE.INTER.ROT>
3

>  <SCORE.INTER.SOLV>
23.8849

>  <SCORE.INTER.VDW>
-20.3948

>  <SCORE.INTER.norm>
-0.54758

>  <SCORE.INTRA>
1.60081

>  <SCORE.INTRA.DIHEDRAL>
4.56123

>  <SCORE.INTRA.DIHEDRAL.0>
4.99603

>  <SCORE.INTRA.POLAR>
0

>  <SCORE.INTRA.POLAR.0>
0

>  <SCORE.INTRA.REPUL>
0

>  <SCORE.INTRA.REPUL.0>
0

>  <SCORE.INTRA.SOLV>
0.998834

>  <SCORE.INTRA.SOLV.lig_0>
-74.884

>  <SCORE.INTRA.VDW>
-1.17922

>  <SCORE.INTRA.VDW.0>
-0.858933

>  <SCORE.INTRA.norm>
0.0727641

>  <SCORE.RESTR>
1.98837

>  <SCORE.RESTR.CAVITY>
1.98837

>  <SCORE.RESTR.norm>
0.0903803

>  <SCORE.SYSTEM>
0

>  <SCORE.SYSTEM.CONST>
0

>  <SCORE.SYSTEM.DIHEDRAL>
0

>  <SCORE.SYSTEM.SOLV>
0

>  <SCORE.SYSTEM.norm>
0

>  <SCORE.heavy>
22

>  <SCORE.norm>
-0.384436

>  <RMSD>
8.716

$$$$
2et8_lig
 OpenBabel11021811433D
libRbt.so/2013.1/901 2013/11/27
 22 23  0  0  0  0  0  0  0  0999 V2000
   28.0494   12.9955   27.6297 N   0  0  0  0  0  0  0  0  0  0  0  0
   23.7545   15.2514   26.5941 N   0  0  0  0  0  0  0  0  0  0  0  0
   24.4923   17.3201   33.6271 N   0  0  0  0  0  0  0  0  0  0  0  0
   25.9685   16.0370   30.9077 O   0  0  0  0  0  0  0  0  0  0  0  0
   25.6745   15.0667   29.8726 C   0  0  2  0  0  0  0  0  0  0  0  0
   20.9812   14.9887   28.8228 N   0  0  0  0  0  0  0  0  0  0  0  0
   27.8397   13.9015   30.2703 O   0  0  0  0  0  0  0  0  0  0  0  0
   27.0245   14.5219   29.2680 C   0  0  1  0  0  0  0  0  0  0  0  0
   23.6697   16.1982   29.2799 O   0  0  0  0  0  0  0  0  0  0  0  0
   26.7503   13.4969   28.1952 C   0  0  1  0  0  0  0  0  0  0  0  0
   23.3819   16.0735   31.5612 O   0  0  0  0  0  0  0  0  0  0  0  0
   25.8855   14.1405   27.0870 C   0  0  0  0  0  0  0  0  0  0  0  0
   21.0074   18.8423   31.6879 O   0  0  0  0  0  0  0  0  0  0  0  0
   24.5617   14.6415   27.7349 C   0  0  1  0  0  0  0  0  0  0  0  0
   19.5415   16.9999   30.1733 O   0  0  0  0  0  0  0  0  0  0  0  0
   24.8360   15.7424   28.7161 C   0  0  2  0  0  0  0  0  0  0  0  0
   22.9888   15.4418   30.2264 C   0  0  1  0  0  0  0  0  0  0  0  0
   22.9234   17.4899   31.6982 C   0  0  2  0  0  0  0  0  0  0  0  0
   23.3252   18.0599   33.0745 C   0  0  0  0  0  0  0  0  0  0  0  0
   21.4294   17.5258   31.5744 C   0  0  2  0  0  0  0  0  0  0  0  0
   20.9738   16.9704   30.2563 C   0  0  1  0  0  0  0  0  0  0  0  0
   21.4413   15.5604   30.1391 C   0  0  1  0  0  0  0  0  0  0  0  0
  5  4  1  1  0  0  0
  5  8  1  0  0  0  0
  5 16  1  0  0  0  0
  8  7  1  1  0  0  0
  8 10  1  0  0  0  0
 10  1  1  6  0  0  0
 10 12  1  0  0  0  0
 11 18  1  0  0  0  0
 12 14  1  0  0  0  0
 14  2  1  6  0  0  0
 14 16  1  0  0  0  0
 16  9  1  1  0  0  0
 17  9  1  6  0  0  0
 17 11  1  0  0  0  0
 17 22  1  0  0  0  0
 18 19  1  1  0  0  0
 18 20  1  0  0  0  0
 19  3  1  0  0  0  0
 20 13  1  6  0  0  0
 20 21  1  0  0  0  0
 21 15  1  1  0  0  0
 21 22  1  0  0  0  0
 22  6  1  6  0  0  0
M  END
>  <CHROM.1>
-40.69434445,100.52219008,23.87951784,23.92019112,15.81076557,29.95993733
0.64995383,0.28842330,-2.06340539

>  <Name>
2et8_lig

>  <RI>
224

>  <Rbt.Current_Directory>
/home/itssahil/PROJECTS/Mol_Feturizer/New_Systems/rnas/2et8

>  <Rbt.Executable>
rbdock ($Id: //depot/dev/client3/rdock/2013.1/src/exe/rbdock.cxx#4 $)

>  <Rbt.Library>
libRbt.so (2013.1, Build901 2013/11/27)

>  <Rbt.Parameter_File>
/export/apps/rDock/src/rDock_2013.1_src/data/scripts/dock_solv.prm

>  <Rbt.Receptor>
prm/blind_docking_60.prm

>  <SCORE>
-9.60189

>  <SCORE.INTER>
-15.536

>  <SCORE.INTER.CONST>
1

>  <SCORE.INTER.POLAR>
-1.08852

>  <SCORE.INTER.ROT>
3

>  <SCORE.INTER.SOLV>
20.7534

>  <SCORE.INTER.VDW>
-19.2467

>  <SCORE.INTER.norm>
-0.706183

>  <SCORE.INTRA>
4.84104

>  <SCORE.INTRA.DIHEDRAL>
5.65838

>  <SCORE.INTRA.DIHEDRAL.0>
4.99603

>  <SCORE.INTRA.POLAR>
0

>  <SCORE.INTRA.POLAR.0>
0

>  <SCORE.INTRA.REPUL>
0

>  <SCORE.INTRA.REPUL.0>
0

>  <SCORE.INTRA.SOLV>
2.185

>  <SCORE.INTRA.SOLV.lig_0>
-74.884

>  <SCORE.INTRA.VDW>
0.919348

>  <SCORE.INTRA.VDW.0>
-0.858933

>  <SCORE.INTRA.norm>
0.220047

>  <SCORE.RESTR>
1.0931

>  <SCORE.RESTR.CAVITY>
1.0931

>  <SCORE.RESTR.norm>
0.0496863

>  <SCORE.SYSTEM>
0

>  <SCORE.SYSTEM.CONST>
0

>  <SCORE.SYSTEM.DIHEDRAL>
0

>  <SCORE.SYSTEM.SOLV>
0

>  <SCORE.SYSTEM.norm>
0

>  <SCORE.heavy>
22

>  <SCORE.norm>
-0.43645

>  <RMSD>
8.723

$$$$
2et8_lig
 OpenBabel11021811433D
libRbt.so/2013.1/901 2013/11/27
 22 23  0  0  0  0  0  0  0  0999 V2000
   28.1943   13.0040   27.5563 N   0  0  0  0  0  0  0  0  0  0  0  0
   23.9414   15.3934   26.6558 N   0  0  0  0  0  0  0  0  0  0  0  0
   23.0043   17.1833   34.1868 N   0  0  0  0  0  0  0  0  0  0  0  0
   26.2265   15.9770   30.9644 O   0  0  0  0  0  0  0  0  0  0  0  0
   25.8969   15.0504   29.9004 C   0  0  2  0  0  0  0  0  0  0  0  0
   21.3186   14.8849   28.8121 N   0  0  0  0  0  0  0  0  0  0  0  0
   28.0387   13.8222   30.2291 O   0  0  0  0  0  0  0  0  0  0  0  0
   27.2261   14.4958   29.2596 C   0  0  1  0  0  0  0  0  0  0  0  0
   23.9122   16.2480   29.3736 O   0  0  0  0  0  0  0  0  0  0  0  0
   26.9145   13.5154   28.1558 C   0  0  1  0  0  0  0  0  0  0  0  0
   23.5163   16.1544   31.6401 O   0  0  0  0  0  0  0  0  0  0  0  0
   26.0515   14.2170   27.0820 C   0  0  0  0  0  0  0  0  0  0  0  0
   20.9941   18.7920   31.5851 O   0  0  0  0  0  0  0  0  0  0  0  0
   24.7480   14.7257   27.7641 C   0  0  1  0  0  0  0  0  0  0  0  0
   19.7072   16.8420   30.0428 O   0  0  0  0  0  0  0  0  0  0  0  0
   25.0603   15.7851   28.7791 C   0  0  2  0  0  0  0  0  0  0  0  0
   23.2255   15.4751   30.3025 C   0  0  1  0  0  0  0  0  0  0  0  0
   22.9766   17.5463   31.7215 C   0  0  2  0  0  0  0  0  0  0  0  0
   23.2771   18.1652   33.1024 C   0  0  0  0  0  0  0  0  0  0  0  0
   21.4909   17.4984   31.5231 C   0  0  2  0  0  0  0  0  0  0  0  0
   21.1329   16.8922   30.1972 C   0  0  1  0  0  0  0  0  0  0  0  0
   21.6803   15.5076   30.1360 C   0  0  1  0  0  0  0  0  0  0  0  0
  5  4  1  1  0  0  0
  5  8  1  0  0  0  0
  5 16  1  0  0  0  0
  8  7  1  1  0  0  0
  8 10  1  0  0  0  0
 10  1  1  6  0  0  0
 10 12  1  0  0  0  0
 11 18  1  0  0  0  0
 12 14  1  0  0  0  0
 14  2  1  6  0  0  0
 14 16  1  0  0  0  0
 16  9  1  1  0  0  0
 17  9  1  6  0  0  0
 17 11  1  0  0  0  0
 17 22  1  0  0  0  0
 18 19  1  1  0  0  0
 18 20  1  0  0  0  0
 19  3  1  0  0  0  0
 20 13  1  6  0  0  0
 20 21  1  0  0  0  0
 21 15  1  1  0  0  0
 21 22  1  0  0  0  0
 22  6  1  6  0  0  0
M  END
>  <CHROM.1>
-40.68544526,107.08070667,-43.81409539,24.01278411,15.80518828,29.98533578
-0.65079759,-0.30533030,1.13717419

>  <Name>
2et8_lig

>  <RI>
0

>  <Rbt.Current_Directory>
/home/itssahil/PROJECTS/Mol_Feturizer/New_Systems/rnas/2et8

>  <Rbt.Executable>
rbdock ($Id: //depot/dev/client3/rdock/2013.1/src/exe/rbdock.cxx#4 $)

>  <Rbt.Library>
libRbt.so (2013.1, Build901 2013/11/27)

>  <Rbt.Parameter_File>
/export/apps/rDock/src/rDock_2013.1_src/data/scripts/dock_solv.prm

>  <Rbt.Receptor>
prm/blind_docking_80.prm

>  <SCORE>
-13.4617

>  <SCORE.INTER>
-18.1009

>  <SCORE.INTER.CONST>
1

>  <SCORE.INTER.POLAR>
-1.09097

>  <SCORE.INTER.ROT>
3

>  <SCORE.INTER.SOLV>
17.8063

>  <SCORE.INTER.VDW>
-19.9661

>  <SCORE.INTER.norm>
-0.822768

>  <SCORE.INTRA>
4.01151

>  <SCORE.INTRA.DIHEDRAL>
3.98909

>  <SCORE.INTRA.DIHEDRAL.0>
4.99603

>  <SCORE.INTRA.POLAR>
0

>  <SCORE.INTRA.POLAR.0>
0

>  <SCORE.INTRA.REPUL>
0

>  <SCORE.INTRA.REPUL.0>
0

>  <SCORE.INTRA.SOLV>
2.59112

>  <SCORE.INTRA.SOLV.lig_0>
-74.884

>  <SCORE.INTRA.VDW>
0.721404

>  <SCORE.INTRA.VDW.0>
-0.858933

>  <SCORE.INTRA.norm>
0.182341

>  <SCORE.RESTR>
0.627737

>  <SCORE.RESTR.CAVITY>
0.627737

>  <SCORE.RESTR.norm>
0.0285335

>  <SCORE.SYSTEM>
0

>  <SCORE.SYSTEM.CONST>
0

>  <SCORE.SYSTEM.DIHEDRAL>
0

>  <SCORE.SYSTEM.SOLV>
0

>  <SCORE.SYSTEM.norm>
0

>  <SCORE.heavy>
22

>  <SCORE.norm>
-0.611894

>  <RMSD>
8.738

$$$$
2et8_lig
 OpenBabel11021811433D
libRbt.so/2013.1/901 2013/11/27
 22 23  0  0  0  0  0  0  0  0999 V2000
   28.1471   13.0079   27.6233 N   0  0  0  0  0  0  0  0  0  0  0  0
   23.8313   15.1804   26.4999 N   0  0  0  0  0  0  0  0  0  0  0  0
   24.5374   17.0518   33.5991 N   0  0  0  0  0  0  0  0  0  0  0  0
   25.9275   15.9860   30.8683 O   0  0  0  0  0  0  0  0  0  0  0  0
   25.6779   15.0160   29.8214 C   0  0  2  0  0  0  0  0  0  0  0  0
   20.9381   14.9602   28.8045 N   0  0  0  0  0  0  0  0  0  0  0  0
   27.8571   13.8935   30.2632 O   0  0  0  0  0  0  0  0  0  0  0  0
   27.0527   14.5029   29.2455 C   0  0  1  0  0  0  0  0  0  0  0  0
   23.6643   16.1092   29.1882 O   0  0  0  0  0  0  0  0  0  0  0  0
   26.8249   13.4788   28.1609 C   0  0  1  0  0  0  0  0  0  0  0  0
   23.4491   15.9589   31.4759 O   0  0  0  0  0  0  0  0  0  0  0  0
   25.9730   14.1110   27.0364 C   0  0  0  0  0  0  0  0  0  0  0  0
   21.1371   18.7727   31.7174 O   0  0  0  0  0  0  0  0  0  0  0  0
   24.6243   14.5806   27.6559 C   0  0  1  0  0  0  0  0  0  0  0  0
   19.5850   16.9809   30.2283 O   0  0  0  0  0  0  0  0  0  0  0  0
   24.8526   15.6810   28.6493 C   0  0  2  0  0  0  0  0  0  0  0  0
   22.9996   15.3536   30.1467 C   0  0  1  0  0  0  0  0  0  0  0  0
   23.0245   17.3822   31.6466 C   0  0  2  0  0  0  0  0  0  0  0  0
   23.4827   17.9250   33.0161 C   0  0  0  0  0  0  0  0  0  0  0  0
   21.5282   17.4497   31.5728 C   0  0  2  0  0  0  0  0  0  0  0  0
   21.0183   16.9217   30.2633 C   0  0  1  0  0  0  0  0  0  0  0  0
   21.4528   15.5044   30.1123 C   0  0  1  0  0  0  0  0  0  0  0  0
  5  4  1  1  0  0  0
  5  8  1  0  0  0  0
  5 16  1  0  0  0  0
  8  7  1  1  0  0  0
  8 10  1  0  0  0  0
 10  1  1  6  0  0  0
 10 12  1  0  0  0  0
 11 18  1  0  0  0  0
 12 14  1  0  0  0  0
 14  2  1  6  0  0  0
 14 16  1  0  0  0  0
 16  9  1  1  0  0  0
 17  9  1  6  0  0  0
 17 11  1  0  0  0  0
 17 22  1  0  0  0  0
 18 19  1  1  0  0  0
 18 20  1  0  0  0  0
 19  3  1  0  0  0  0
 20 13  1  6  0  0  0
 20 21  1  0  0  0  0
 21 15  1  1  0  0  0
 21 22  1  0  0  0  0
 22  6  1  6  0  0  0
M  END
>  <CHROM.1>
-38.57059375,95.84784702,16.75828327,23.96910138,15.74456976,29.92414965
-0.64369151,-0.28813918,1.09625914

>  <Name>
2et8_lig

>  <RI>
0

>  <Rbt.Current_Directory>
/home/itssahil/PROJECTS/Mol_Feturizer/New_Systems/rnas/2et8

>  <Rbt.Executable>
rbdock ($Id: //depot/dev/client3/rdock/2013.1/src/exe/rbdock.cxx#4 $)

>  <Rbt.Library>
libRbt.so (2013.1, Build901 2013/11/27)

>  <Rbt.Parameter_File>
/export/apps/rDock/src/rDock_2013.1_src/data/scripts/dock_solv.prm

>  <Rbt.Receptor>
prm/blind_docking_80.prm

>  <SCORE>
-9.3047

>  <SCORE.INTER>
-15.3456

>  <SCORE.INTER.CONST>
1

>  <SCORE.INTER.POLAR>
-1.09545

>  <SCORE.INTER.ROT>
3

>  <SCORE.INTER.SOLV>
20.2912

>  <SCORE.INTER.VDW>
-18.9427

>  <SCORE.INTER.norm>
-0.697529

>  <SCORE.INTRA>
5.51004

>  <SCORE.INTRA.DIHEDRAL>
6.07331

>  <SCORE.INTRA.DIHEDRAL.0>
4.99603

>  <SCORE.INTRA.POLAR>
0

>  <SCORE.INTRA.POLAR.0>
0

>  <SCORE.INTRA.REPUL>
0

>  <SCORE.INTRA.REPUL.0>
0

>  <SCORE.INTRA.SOLV>
2.14531

>  <SCORE.INTRA.SOLV.lig_0>
-74.884

>  <SCORE.INTRA.VDW>
1.40072

>  <SCORE.INTRA.VDW.0>
-0.858933

>  <SCORE.INTRA.norm>
0.250456

>  <SCORE.RESTR>
0.530916

>  <SCORE.RESTR.CAVITY>
0.530916

>  <SCORE.RESTR.norm>
0.0241326

>  <SCORE.SYSTEM>
0

>  <SCORE.SYSTEM.CONST>
0

>  <SCORE.SYSTEM.DIHEDRAL>
0

>  <SCORE.SYSTEM.SOLV>
0

>  <SCORE.SYSTEM.norm>
0

>  <SCORE.heavy>
22

>  <SCORE.norm>
-0.422941

>  <RMSD>
8.741

$$$$
2et8_lig
 OpenBabel11021811433D
libRbt.so/2013.1/901 2013/11/27
 22 23  0  0  0  0  0  0  0  0999 V2000
   28.2005   13.0015   27.5505 N   0  0  0  0  0  0  0  0  0  0  0  0
   23.9508   15.3981   26.6540 N   0  0  0  0  0  0  0  0  0  0  0  0
   22.9668   17.2401   34.1926 N   0  0  0  0  0  0  0  0  0  0  0  0
   26.2388   15.9746   30.9620 O   0  0  0  0  0  0  0  0  0  0  0  0
   25.9072   15.0493   29.8974 C   0  0  2  0  0  0  0  0  0  0  0  0
   21.3246   14.8889   28.8354 N   0  0  0  0  0  0  0  0  0  0  0  0
   28.0474   13.8176   30.2240 O   0  0  0  0  0  0  0  0  0  0  0  0
   27.2353   14.4933   29.2555 C   0  0  1  0  0  0  0  0  0  0  0  0
   23.9242   16.2504   29.3725 O   0  0  0  0  0  0  0  0  0  0  0  0
   26.9217   13.5143   28.1510 C   0  0  1  0  0  0  0  0  0  0  0  0
   23.5444   16.1670   31.6422 O   0  0  0  0  0  0  0  0  0  0  0  0
   26.0593   14.2181   27.0782 C   0  0  0  0  0  0  0  0  0  0  0  0
   21.0258   18.8081   31.5940 O   0  0  0  0  0  0  0  0  0  0  0  0
   24.7569   14.7282   27.7614 C   0  0  1  0  0  0  0  0  0  0  0  0
   19.7250   16.8535   30.0694 O   0  0  0  0  0  0  0  0  0  0  0  0
   25.0713   15.7863   28.7770 C   0  0  2  0  0  0  0  0  0  0  0  0
   23.2431   15.4825   30.3095 C   0  0  1  0  0  0  0  0  0  0  0  0
   23.0073   17.5601   31.7215 C   0  0  2  0  0  0  0  0  0  0  0  0
   23.3187   18.1844   33.0975 C   0  0  0  0  0  0  0  0  0  0  0  0
   21.5202   17.5135   31.5340 C   0  0  2  0  0  0  0  0  0  0  0  0
   21.1518   16.9023   30.2133 C   0  0  1  0  0  0  0  0  0  0  0  0
   21.6967   15.5166   30.1540 C   0  0  1  0  0  0  0  0  0  0  0  0
  5  4  1  1  0  0  0
  5  8  1  0  0  0  0
  5 16  1  0  0  0  0
  8  7  1  1  0  0  0
  8 10  1  0  0  0  0
 10  1  1  6  0  0  0
 10 12  1  0  0  0  0
 11 18  1  0  0  0  0
 12 14  1  0  0  0  0
 14  2  1  6  0  0  0
 14 16  1  0  0  0  0
 16  9  1  1  0  0  0
 17  9  1  6  0  0  0
 17 11  1  0  0  0  0
 17 22  1  0  0  0  0
 18 19  1  1  0  0  0
 18 20  1  0  0  0  0
 19  3  1  0  0  0  0
 20 13  1  6  0  0  0
 20 21  1  0  0  0  0
 21 15  1  1  0  0  0
 21 22  1  0  0  0  0
 22  6  1  6  0  0  0
M  END
>  <CHROM.1>
-40.12825088,106.72437546,-47.58201266,24.02668519,15.81305732,29.98888489
-0.65672919,-0.30453990,1.13317509

>  <Name>
2et8_lig

>  <RI>
0

>  <Rbt.Current_Directory>
/home/itssahil/PROJECTS/Mol_Feturizer/New_Systems/rnas/2et8

>  <Rbt.Executable>
rbdock ($Id: //depot/dev/client3/rdock/2013.1/src/exe/rbdock.cxx#4 $)

>  <Rbt.Library>
libRbt.so (2013.1, Build901 2013/11/27)

>  <Rbt.Parameter_File>
/export/apps/rDock/src/rDock_2013.1_src/data/scripts/dock_solv.prm

>  <Rbt.Receptor>
prm/blind_docking_80.prm

>  <SCORE>
-13.7491

>  <SCORE.INTER>
-18.3347

>  <SCORE.INTER.CONST>
1

>  <SCORE.INTER.POLAR>
-1.09083

>  <SCORE.INTER.ROT>
3

>  <SCORE.INTER.SOLV>
17.7334

>  <SCORE.INTER.VDW>
-20.0982

>  <SCORE.INTER.norm>
-0.833398

>  <SCORE.INTRA>
3.91496

>  <SCORE.INTRA.DIHEDRAL>
3.6802

>  <SCORE.INTRA.DIHEDRAL.0>
4.99603

>  <SCORE.INTRA.POLAR>
0

>  <SCORE.INTRA.POLAR.0>
0

>  <SCORE.INTRA.REPUL>
0

>  <SCORE.INTRA.REPUL.0>
0

>  <SCORE.INTRA.SOLV>
2.61645

>  <SCORE.INTRA.SOLV.lig_0>
-74.884

>  <SCORE.INTRA.VDW>
0.766633

>  <SCORE.INTRA.VDW.0>
-0.858933

>  <SCORE.INTRA.norm>
0.177953

>  <SCORE.RESTR>
0.670723

>  <SCORE.RESTR.CAVITY>
0.670723

>  <SCORE.RESTR.norm>
0.0304874

>  <SCORE.SYSTEM>
0

>  <SCORE.SYSTEM.CONST>
0

>  <SCORE.SYSTEM.DIHEDRAL>
0

>  <SCORE.SYSTEM.SOLV>
0

>  <SCORE.SYSTEM.norm>
0

>  <SCORE.heavy>
22

>  <SCORE.norm>
-0.624958

>  <RMSD>
8.742

$$$$
2et8_lig
 OpenBabel11021811433D
libRbt.so/2013.1/901 2013/11/27
 22 23  0  0  0  0  0  0  0  0999 V2000
   28.2028   12.9964   27.5516 N   0  0  0  0  0  0  0  0  0  0  0  0
   23.9551   15.3979   26.6587 N   0  0  0  0  0  0  0  0  0  0  0  0
   22.8956   17.2666   34.1957 N   0  0  0  0  0  0  0  0  0  0  0  0
   26.2442   15.9670   30.9671 O   0  0  0  0  0  0  0  0  0  0  0  0
   25.9117   15.0434   29.9014 C   0  0  2  0  0  0  0  0  0  0  0  0
   21.3353   14.8776   28.8356 N   0  0  0  0  0  0  0  0  0  0  0  0
   28.0508   13.8094   30.2262 O   0  0  0  0  0  0  0  0  0  0  0  0
   27.2392   14.4870   29.2586 C   0  0  1  0  0  0  0  0  0  0  0  0
   23.9296   16.2468   29.3783 O   0  0  0  0  0  0  0  0  0  0  0  0
   26.9245   13.5096   28.1530 C   0  0  1  0  0  0  0  0  0  0  0  0
   23.5436   16.1654   31.6470 O   0  0  0  0  0  0  0  0  0  0  0  0
   26.0626   14.2155   27.0811 C   0  0  0  0  0  0  0  0  0  0  0  0
   21.0181   18.7997   31.5882 O   0  0  0  0  0  0  0  0  0  0  0  0
   24.7608   14.7259   27.7652 C   0  0  1  0  0  0  0  0  0  0  0  0
   19.7268   16.8396   30.0624 O   0  0  0  0  0  0  0  0  0  0  0  0
   25.0762   15.7825   28.7821 C   0  0  2  0  0  0  0  0  0  0  0  0
   23.2479   15.4784   30.3144 C   0  0  1  0  0  0  0  0  0  0  0  0
   23.0026   17.5571   31.7230 C   0  0  2  0  0  0  0  0  0  0  0  0
   23.3083   18.1840   33.0991 C   0  0  0  0  0  0  0  0  0  0  0  0
   21.5162   17.5063   31.5313 C   0  0  2  0  0  0  0  0  0  0  0  0
   21.1532   16.8924   30.2104 C   0  0  1  0  0  0  0  0  0  0  0  0
   21.7019   15.5081   30.1544 C   0  0  1  0  0  0  0  0  0  0  0  0
  5  4  1  1  0  0  0
  5  8  1  0  0  0  0
  5 16  1  0  0  0  0
  8  7  1  1  0  0  0
  8 10  1  0  0  0  0
 10  1  1  6  0  0  0
 10 12  1  0  0  0  0
 11 18  1  0  0  0  0
 12 14  1  0  0  0  0
 14  2  1  6  0  0  0
 14 16  1  0  0  0  0
 16  9  1  1  0  0  0
 17  9  1  6  0  0  0
 17 11  1  0  0  0  0
 17 22  1  0  0  0  0
 18 19  1  1  0  0  0
 18 20  1  0  0  0  0
 19  3  1  0  0  0  0
 20 13  1  6  0  0  0
 20 21  1  0  0  0  0
 21 15  1  1  0  0  0
 21 22  1  0  0  0  0
 22  6  1  6  0  0  0
M  END
>  <CHROM.1>
-40.13442098,107.03179164,-50.28869544,24.02526850,15.80879547,29.99057650
-0.65649694,-0.30398026,1.13293575

>  <Name>
2et8_lig

>  <RI>
0

>  <Rbt.Current_Directory>
/home/itssahil/PROJECTS/Mol_Feturizer/New_Systems/rnas/2et8

>  <Rbt.Executable>
rbdock ($Id: //depot/dev/client3/rdock/2013.1/src/exe/rbdock.cxx#4 $)

>  <Rbt.Library>
libRbt.so (2013.1, Build901 2013/11/27)

>  <Rbt.Parameter_File>
/export/apps/rDock/src/rDock_2013.1_src/data/scripts/dock_solv.prm

>  <Rbt.Receptor>
prm/blind_docking_80.prm

>  <SCORE>
-13.8205

>  <SCORE.INTER>
-18.3768

>  <SCORE.INTER.CONST>
1

>  <SCORE.INTER.POLAR>
-1.08367

>  <SCORE.INTER.ROT>
3

>  <SCORE.INTER.SOLV>
17.7096

>  <SCORE.INTER.VDW>
-20.1421

>  <SCORE.INTER.norm>
-0.835309

>  <SCORE.INTRA>
3.85668

>  <SCORE.INTRA.DIHEDRAL>
3.51008

>  <SCORE.INTRA.DIHEDRAL.0>
4.99603

>  <SCORE.INTRA.POLAR>
0

>  <SCORE.INTRA.POLAR.0>
0

>  <SCORE.INTRA.REPUL>
0

>  <SCORE.INTRA.REPUL.0>
0

>  <SCORE.INTRA.SOLV>
2.67237

>  <SCORE.INTRA.SOLV.lig_0>
-74.884

>  <SCORE.INTRA.VDW>
0.765462

>  <SCORE.INTRA.VDW.0>
-0.858933

>  <SCORE.INTRA.norm>
0.175304

>  <SCORE.RESTR>
0.699581

>  <SCORE.RESTR.CAVITY>
0.699581

>  <SCORE.RESTR.norm>
0.0317991

>  <SCORE.SYSTEM>
0

>  <SCORE.SYSTEM.CONST>
0

>  <SCORE.SYSTEM.DIHEDRAL>
0

>  <SCORE.SYSTEM.SOLV>
0

>  <SCORE.SYSTEM.norm>
0

>  <SCORE.heavy>
22

>  <SCORE.norm>
-0.628206

>  <RMSD>
8.742

$$$$
2et8_lig
 OpenBabel11021811433D
libRbt.so/2013.1/901 2013/11/27
 22 23  0  0  0  0  0  0  0  0999 V2000
   28.1664   12.9936   27.5144 N   0  0  0  0  0  0  0  0  0  0  0  0
   23.9180   15.4144   26.6788 N   0  0  0  0  0  0  0  0  0  0  0  0
   22.8732   17.2466   34.2005 N   0  0  0  0  0  0  0  0  0  0  0  0
   26.2660   15.9706   30.9571 O   0  0  0  0  0  0  0  0  0  0  0  0
   25.9154   15.0491   29.8953 C   0  0  2  0  0  0  0  0  0  0  0  0
   21.3609   14.8639   28.8194 N   0  0  0  0  0  0  0  0  0  0  0  0
   28.0531   13.8054   30.1912 O   0  0  0  0  0  0  0  0  0  0  0  0
   27.2319   14.4873   29.2348 C   0  0  1  0  0  0  0  0  0  0  0  0
   23.9320   16.2617   29.3990 O   0  0  0  0  0  0  0  0  0  0  0  0
   26.8984   13.5120   28.1327 C   0  0  1  0  0  0  0  0  0  0  0  0
   23.5144   16.1760   31.6619 O   0  0  0  0  0  0  0  0  0  0  0  0
   26.0257   14.2225   27.0728 C   0  0  0  0  0  0  0  0  0  0  0  0
   20.9611   18.7824   31.5664 O   0  0  0  0  0  0  0  0  0  0  0  0
   24.7352   14.7382   27.7741 C   0  0  1  0  0  0  0  0  0  0  0  0
   19.7136   16.8081   30.0227 O   0  0  0  0  0  0  0  0  0  0  0  0
   25.0686   15.7927   28.7875 C   0  0  2  0  0  0  0  0  0  0  0  0
   23.2454   15.4858   30.3254 C   0  0  1  0  0  0  0  0  0  0  0  0
   22.9571   17.5617   31.7298 C   0  0  2  0  0  0  0  0  0  0  0  0
   23.2362   18.1920   33.1101 C   0  0  0  0  0  0  0  0  0  0  0  0
   21.4742   17.4946   31.5169 C   0  0  2  0  0  0  0  0  0  0  0  0
   21.1369   16.8766   30.1911 C   0  0  1  0  0  0  0  0  0  0  0  0
   21.7017   15.4985   30.1432 C   0  0  1  0  0  0  0  0  0  0  0  0
  5  4  1  1  0  0  0
  5  8  1  0  0  0  0
  5 16  1  0  0  0  0
  8  7  1  1  0  0  0
  8 10  1  0  0  0  0
 10  1  1  6  0  0  0
 10 12  1  0  0  0  0
 11 18  1  0  0  0  0
 12 14  1  0  0  0  0
 14  2  1  6  0  0  0
 14 16  1  0  0  0  0
 16  9  1  1  0  0  0
 17  9  1  6  0  0  0
 17 11  1  0  0  0  0
 17 22  1  0  0  0  0
 18 19  1  1  0  0  0
 18 20  1  0  0  0  0
 19  3  1  0  0  0  0
 20 13  1  6  0  0  0
 20 21  1  0  0  0  0
 21 15  1  1  0  0  0
 21 22  1  0  0  0  0
 22  6  1  6  0  0  0
M  END
>  <CHROM.1>
-41.32543525,109.13316862,-47.81235750,24.00630341,15.80760059,29.98310781
0.65567418,0.30256066,-2.00699654

>  <Name>
2et8_lig

>  <RI>
0

>  <Rbt.Current_Directory>
/home/itssahil/PROJECTS/Mol_Feturizer/New_Systems/rnas/2et8

>  <Rbt.Executable>
rbdock ($Id: //depot/dev/client3/rdock/2013.1/src/exe/rbdock.cxx#4 $)

>  <Rbt.Library>
libRbt.so (2013.1, Build901 2013/11/27)

>  <Rbt.Parameter_File>
/export/apps/rDock/src/rDock_2013.1_src/data/scripts/dock_solv.prm

>  <Rbt.Receptor>
prm/blind_docking_80.prm

>  <SCORE>
-13.7916

>  <SCORE.INTER>
-18.3815

>  <SCORE.INTER.CONST>
1

>  <SCORE.INTER.POLAR>
-1.09498

>  <SCORE.INTER.ROT>
3

>  <SCORE.INTER.SOLV>
17.8501

>  <SCORE.INTER.VDW>
-20.1545

>  <SCORE.INTER.norm>
-0.835525

>  <SCORE.INTRA>
3.90014

>  <SCORE.INTRA.DIHEDRAL>
3.7377

>  <SCORE.INTRA.DIHEDRAL.0>
4.99603

>  <SCORE.INTRA.POLAR>
0

>  <SCORE.INTRA.POLAR.0>
0

>  <SCORE.INTRA.REPUL>
0

>  <SCORE.INTRA.REPUL.0>
0

>  <SCORE.INTRA.SOLV>
2.7659

>  <SCORE.INTRA.SOLV.lig_0>
-74.884

>  <SCORE.INTRA.VDW>
0.648341

>  <SCORE.INTRA.VDW.0>
-0.858933

>  <SCORE.INTRA.norm>
0.177279

>  <SCORE.RESTR>
0.689813

>  <SCORE.RESTR.CAVITY>
0.689813

>  <SCORE.RESTR.norm>
0.0313551

>  <SCORE.SYSTEM>
0

>  <SCORE.SYSTEM.CONST>
0

>  <SCORE.SYSTEM.DIHEDRAL>
0

>  <SCORE.SYSTEM.SOLV>
0

>  <SCORE.SYSTEM.norm>
0

>  <SCORE.heavy>
22

>  <SCORE.norm>
-0.62689

>  <RMSD>
8.743

$$$$
2et8_lig
 OpenBabel11021811433D
libRbt.so/2013.1/901 2013/11/27
 22 23  0  0  0  0  0  0  0  0999 V2000
   28.2009   12.9871   27.5484 N   0  0  0  0  0  0  0  0  0  0  0  0
   23.9561   15.3950   26.6593 N   0  0  0  0  0  0  0  0  0  0  0  0
   22.9696   17.2582   34.1972 N   0  0  0  0  0  0  0  0  0  0  0  0
   26.2561   15.9699   30.9611 O   0  0  0  0  0  0  0  0  0  0  0  0
   25.9193   15.0444   29.8984 C   0  0  2  0  0  0  0  0  0  0  0  0
   21.3356   14.8932   28.8452 N   0  0  0  0  0  0  0  0  0  0  0  0
   28.0566   13.8068   30.2214 O   0  0  0  0  0  0  0  0  0  0  0  0
   27.2442   14.4837   29.2540 C   0  0  1  0  0  0  0  0  0  0  0  0
   23.9385   16.2506   29.3769 O   0  0  0  0  0  0  0  0  0  0  0  0
   26.9251   13.5043   28.1514 C   0  0  1  0  0  0  0  0  0  0  0  0
   23.5614   16.1716   31.6471 O   0  0  0  0  0  0  0  0  0  0  0  0
   26.0622   14.2094   27.0798 C   0  0  0  0  0  0  0  0  0  0  0  0
   21.0478   18.8175   31.5978 O   0  0  0  0  0  0  0  0  0  0  0  0
   24.7629   14.7241   27.7655 C   0  0  1  0  0  0  0  0  0  0  0  0
   19.7413   16.8629   30.0780 O   0  0  0  0  0  0  0  0  0  0  0  0
   25.0828   15.7824   28.7792 C   0  0  2  0  0  0  0  0  0  0  0  0
   23.2570   15.4855   30.3160 C   0  0  1  0  0  0  0  0  0  0  0  0
   23.0271   17.5658   31.7249 C   0  0  2  0  0  0  0  0  0  0  0  0
   23.3414   18.1918   33.0995 C   0  0  0  0  0  0  0  0  0  0  0  0
   21.5396   17.5218   31.5393 C   0  0  2  0  0  0  0  0  0  0  0  0
   21.1684   16.9091   30.2201 C   0  0  1  0  0  0  0  0  0  0  0  0
   21.7105   15.5223   30.1623 C   0  0  1  0  0  0  0  0  0  0  0  0
  5  4  1  1  0  0  0
  5  8  1  0  0  0  0
  5 16  1  0  0  0  0
  8  7  1  1  0  0  0
  8 10  1  0  0  0  0
 10  1  1  6  0  0  0
 10 12  1  0  0  0  0
 11 18  1  0  0  0  0
 12 14  1  0  0  0  0
 14  2  1  6  0  0  0
 14 16  1  0  0  0  0
 16  9  1  1  0  0  0
 17  9  1  6  0  0  0
 17 11  1  0  0  0  0
 17 22  1  0  0  0  0
 18 19  1  1  0  0  0
 18 20  1  0  0  0  0
 19  3  1  0  0  0  0
 20 13  1  6  0  0  0
 20 21  1  0  0  0  0
 21 15  1  1  0  0  0
 21 22  1  0  0  0  0
 22  6  1  6  0  0  0
M  END
>  <CHROM.1>
-40.15675162,106.82586655,-48.45187114,24.03892129,15.81352243,29.99233449
-0.65993257,-0.30583983,1.13076425

>  <Name>
2et8_lig

>  <RI>
0

>  <Rbt.Current_Directory>
/home/itssahil/PROJECTS/Mol_Feturizer/New_Systems/rnas/2et8

>  <Rbt.Executable>
rbdock ($Id: //depot/dev/client3/rdock/2013.1/src/exe/rbdock.cxx#4 $)

>  <Rbt.Library>
libRbt.so (2013.1, Build901 2013/11/27)

>  <Rbt.Parameter_File>
/export/apps/rDock/src/rDock_2013.1_src/data/scripts/dock_solv.prm

>  <Rbt.Receptor>
prm/blind_docking_80.prm

>  <SCORE>
-13.6476

>  <SCORE.INTER>
-18.2191

>  <SCORE.INTER.CONST>
1

>  <SCORE.INTER.POLAR>
-1.08977

>  <SCORE.INTER.ROT>
3

>  <SCORE.INTER.SOLV>
17.7321

>  <SCORE.INTER.VDW>
-20.0242

>  <SCORE.INTER.norm>
-0.82814

>  <SCORE.INTRA>
3.88998

>  <SCORE.INTRA.DIHEDRAL>
3.61693

>  <SCORE.INTRA.DIHEDRAL.0>
4.99603

>  <SCORE.INTRA.POLAR>
0

>  <SCORE.INTRA.POLAR.0>
0

>  <SCORE.INTRA.REPUL>
0

>  <SCORE.INTRA.REPUL.0>
0

>  <SCORE.INTRA.SOLV>
2.63579

>  <SCORE.INTRA.SOLV.lig_0>
-74.884

>  <SCORE.INTRA.VDW>
0.763617

>  <SCORE.INTRA.VDW.0>
-0.858933

>  <SCORE.INTRA.norm>
0.176817

>  <SCORE.RESTR>
0.681492

>  <SCORE.RESTR.CAVITY>
0.681492

>  <SCORE.RESTR.norm>
0.0309769

>  <SCORE.SYSTEM>
0

>  <SCORE.SYSTEM.CONST>
0

>  <SCORE.SYSTEM.DIHEDRAL>
0

>  <SCORE.SYSTEM.SOLV>
0

>  <SCORE.SYSTEM.norm>
0

>  <SCORE.heavy>
22

>  <SCORE.norm>
-0.620346

>  <RMSD>
8.745

$$$$
2et8_lig
 OpenBabel11021811433D
libRbt.so/2013.1/901 2013/11/27
 22 23  0  0  0  0  0  0  0  0999 V2000
   28.4861   14.1223   26.4821 N   0  0  0  0  0  0  0  0  0  0  0  0
   26.6626   14.4450   31.0841 N   0  0  0  0  0  0  0  0  0  0  0  0
   22.5512   17.6594   34.3506 N   0  0  0  0  0  0  0  0  0  0  0  0
   24.0487   16.1225   27.2789 O   0  0  0  0  0  0  0  0  0  0  0  0
   25.3730   15.9687   27.8462 C   0  0  2  0  0  0  0  0  0  0  0  0
   21.9650   14.8850   28.9719 N   0  0  0  0  0  0  0  0  0  0  0  0
   26.3780   15.7284   25.5798 O   0  0  0  0  0  0  0  0  0  0  0  0
   26.2642   15.1115   26.8684 C   0  0  1  0  0  0  0  0  0  0  0  0
   24.5080   16.0027   30.0600 O   0  0  0  0  0  0  0  0  0  0  0  0
   27.6563   14.9460   27.4266 C   0  0  1  0  0  0  0  0  0  0  0  0
   23.5569   16.2445   32.1431 O   0  0  0  0  0  0  0  0  0  0  0  0
   27.5704   14.2656   28.8121 C   0  0  0  0  0  0  0  0  0  0  0  0
   21.5304   19.1247   31.1846 O   0  0  0  0  0  0  0  0  0  0  0  0
   26.6980   15.1619   29.7389 C   0  0  1  0  0  0  0  0  0  0  0  0
   20.3974   17.1542   29.5502 O   0  0  0  0  0  0  0  0  0  0  0  0
   25.2857   15.2250   29.2377 C   0  0  2  0  0  0  0  0  0  0  0  0
   23.5104   15.4382   30.8459 C   0  0  1  0  0  0  0  0  0  0  0  0
   23.2188   17.6880   31.9498 C   0  0  2  0  0  0  0  0  0  0  0  0
   23.2554   18.4393   33.2968 C   0  0  0  0  0  0  0  0  0  0  0  0
   21.8367   17.7854   31.3761 C   0  0  2  0  0  0  0  0  0  0  0  0
   21.7332   17.0603   30.0658 C   0  0  1  0  0  0  0  0  0  0  0  0
   22.0748   15.6257   30.2797 C   0  0  1  0  0  0  0  0  0  0  0  0
  5  4  1  6  0  0  0
  5  8  1  0  0  0  0
  5 16  1  0  0  0  0
  8  7  1  6  0  0  0
  8 10  1  0  0  0  0
 10  1  1  6  0  0  0
 10 12  1  0  0  0  0
 11 18  1  0  0  0  0
 12 14  1  0  0  0  0
 14  2  1  1  0  0  0
 14 16  1  0  0  0  0
 16  9  1  1  0  0  0
 17  9  1  6  0  0  0
 17 11  1  0  0  0  0
 17 22  1  0  0  0  0
 18 19  1  1  0  0  0
 18 20  1  0  0  0  0
 19  3  1  0  0  0  0
 20 13  1  6  0  0  0
 20 21  1  0  0  0  0
 21 15  1  1  0  0  0
 21 22  1  0  0  0  0
 22  6  1  6  0  0  0
M  END
>  <CHROM.1>
134.87272402,143.05078614,-45.48227050,24.26175497,16.12763521,29.73555728
-0.74725220,-0.38050295,1.41113617

>  <Name>
2et8_lig

>  <RI>
0

>  <Rbt.Current_Directory>
/home/itssahil/PROJECTS/Mol_Feturizer/New_Systems/rnas/2et8

>  <Rbt.Executable>
rbdock ($Id: //depot/dev/client3/rdock/2013.1/src/exe/rbdock.cxx#4 $)

>  <Rbt.Library>
libRbt.so (2013.1, Build901 2013/11/27)

>  <Rbt.Parameter_File>
/export/apps/rDock/src/rDock_2013.1_src/data/scripts/dock_solv.prm

>  <Rbt.Receptor>
prm/blind_docking_80.prm

>  <SCORE>
-9.66646

>  <SCORE.INTER>
-15.2245

>  <SCORE.INTER.CONST>
1

>  <SCORE.INTER.POLAR>
-1.03305

>  <SCORE.INTER.ROT>
3

>  <SCORE.INTER.SOLV>
19.7923

>  <SCORE.INTER.VDW>
-18.9036

>  <SCORE.INTER.norm>
-0.692024

>  <SCORE.INTRA>
3.35507

>  <SCORE.INTRA.DIHEDRAL>
6.66928

>  <SCORE.INTRA.DIHEDRAL.0>
4.99603

>  <SCORE.INTRA.POLAR>
0

>  <SCORE.INTRA.POLAR.0>
0

>  <SCORE.INTRA.REPUL>
0

>  <SCORE.INTRA.REPUL.0>
0

>  <SCORE.INTRA.SOLV>
2.52918

>  <SCORE.INTRA.SOLV.lig_0>
-74.884

>  <SCORE.INTRA.VDW>
-1.24416

>  <SCORE.INTRA.VDW.0>
-0.858933

>  <SCORE.INTRA.norm>
0.152503

>  <SCORE.RESTR>
2.20298

>  <SCORE.RESTR.CAVITY>
2.20298

>  <SCORE.RESTR.norm>
0.100136

>  <SCORE.SYSTEM>
0

>  <SCORE.SYSTEM.CONST>
0

>  <SCORE.SYSTEM.DIHEDRAL>
0

>  <SCORE.SYSTEM.SOLV>
0

>  <SCORE.SYSTEM.norm>
0

>  <SCORE.heavy>
22

>  <SCORE.norm>
-0.439385

>  <RMSD>
8.747

$$$$
2et8_lig
 OpenBabel11021811433D
libRbt.so/2013.1/901 2013/11/27
 22 23  0  0  0  0  0  0  0  0999 V2000
   28.1379   12.9988   27.5012 N   0  0  0  0  0  0  0  0  0  0  0  0
   23.8925   15.4252   26.6664 N   0  0  0  0  0  0  0  0  0  0  0  0
   22.8525   17.2618   34.1876 N   0  0  0  0  0  0  0  0  0  0  0  0
   26.2345   15.9669   30.9499 O   0  0  0  0  0  0  0  0  0  0  0  0
   25.8849   15.0489   29.8848 C   0  0  2  0  0  0  0  0  0  0  0  0
   21.3360   14.8561   28.8174 N   0  0  0  0  0  0  0  0  0  0  0  0
   28.0212   13.8028   30.1803 O   0  0  0  0  0  0  0  0  0  0  0  0
   27.2019   14.4881   29.2246 C   0  0  1  0  0  0  0  0  0  0  0  0
   23.9031   16.2644   29.3892 O   0  0  0  0  0  0  0  0  0  0  0  0
   26.8694   13.5163   28.1192 C   0  0  1  0  0  0  0  0  0  0  0  0
   23.4878   16.1863   31.6528 O   0  0  0  0  0  0  0  0  0  0  0  0
   25.9987   14.2306   27.0600 C   0  0  0  0  0  0  0  0  0  0  0  0
   20.9260   18.7839   31.5494 O   0  0  0  0  0  0  0  0  0  0  0  0
   24.7075   14.7451   27.7610 C   0  0  1  0  0  0  0  0  0  0  0  0
   19.6834   16.7996   30.0145 O   0  0  0  0  0  0  0  0  0  0  0  0
   25.0402   15.7963   28.7779 C   0  0  2  0  0  0  0  0  0  0  0  0
   23.2198   15.4899   30.3192 C   0  0  1  0  0  0  0  0  0  0  0  0
   22.9260   17.5704   31.7158 C   0  0  2  0  0  0  0  0  0  0  0  0
   23.2043   18.2071   33.0933 C   0  0  0  0  0  0  0  0  0  0  0  0
   21.4432   17.4976   31.5044 C   0  0  2  0  0  0  0  0  0  0  0  0
   21.1067   16.8734   30.1813 C   0  0  1  0  0  0  0  0  0  0  0  0
   21.6759   15.4969   30.1384 C   0  0  1  0  0  0  0  0  0  0  0  0
  5  4  1  1  0  0  0
  5  8  1  0  0  0  0
  5 16  1  0  0  0  0
  8  7  1  1  0  0  0
  8 10  1  0  0  0  0
 10  1  1  6  0  0  0
 10 12  1  0  0  0  0
 11 18  1  0  0  0  0
 12 14  1  0  0  0  0
 14  2  1  6  0  0  0
 14 16  1  0  0  0  0
 16  9  1  1  0  0  0
 17  9  1  6  0  0  0
 17 11  1  0  0  0  0
 17 22  1  0  0  0  0
 18 19  1  1  0  0  0
 18 20  1  0  0  0  0
 19  3  1  0  0  0  0
 20 13  1  6  0  0  0
 20 21  1  0  0  0  0
 21 15  1  1  0  0  0
 21 22  1  0  0  0  0
 22  6  1  6  0  0  0
M  END
>  <CHROM.1>
-40.86951379,109.16865346,-47.49565133,23.97750047,15.81079404,29.97236210
0.65615373,0.30200090,-2.00791342

>  <Name>
2et8_lig

>  <RI>
0

>  <Rbt.Current_Directory>
/home/itssahil/PROJECTS/Mol_Feturizer/New_Systems/rnas/2et8

>  <Rbt.Executable>
rbdock ($Id: //depot/dev/client3/rdock/2013.1/src/exe/rbdock.cxx#4 $)

>  <Rbt.Library>
libRbt.so (2013.1, Build901 2013/11/27)

>  <Rbt.Parameter_File>
/export/apps/rDock/src/rDock_2013.1_src/data/scripts/dock_solv.prm

>  <Rbt.Receptor>
prm/blind_docking_80.prm

>  <SCORE>
-13.6474

>  <SCORE.INTER>
-18.2974

>  <SCORE.INTER.CONST>
1

>  <SCORE.INTER.POLAR>
-1.0753

>  <SCORE.INTER.ROT>
3

>  <SCORE.INTER.SOLV>
17.8951

>  <SCORE.INTER.VDW>
-20.179

>  <SCORE.INTER.norm>
-0.831699

>  <SCORE.INTRA>
3.97034

>  <SCORE.INTRA.DIHEDRAL>
3.83726

>  <SCORE.INTRA.DIHEDRAL.0>
4.99603

>  <SCORE.INTRA.POLAR>
0

>  <SCORE.INTRA.POLAR.0>
0

>  <SCORE.INTRA.REPUL>
0

>  <SCORE.INTRA.REPUL.0>
0

>  <SCORE.INTRA.SOLV>
2.74257

>  <SCORE.INTRA.SOLV.lig_0>
-74.884

>  <SCORE.INTRA.VDW>
0.680423

>  <SCORE.INTRA.VDW.0>
-0.858933

>  <SCORE.INTRA.norm>
0.18047

>  <SCORE.RESTR>
0.67963

>  <SCORE.RESTR.CAVITY>
0.67963

>  <SCORE.RESTR.norm>
0.0308923

>  <SCORE.SYSTEM>
0

>  <SCORE.SYSTEM.CONST>
0

>  <SCORE.SYSTEM.DIHEDRAL>
0

>  <SCORE.SYSTEM.SOLV>
0

>  <SCORE.SYSTEM.norm>
0

>  <SCORE.heavy>
22

>  <SCORE.norm>
-0.620337

>  <RMSD>
8.747

$$$$
2et8_lig
 OpenBabel11021811433D
libRbt.so/2013.1/901 2013/11/27
 22 23  0  0  0  0  0  0  0  0999 V2000
   28.1980   12.9936   27.5401 N   0  0  0  0  0  0  0  0  0  0  0  0
   23.9475   15.3959   26.6627 N   0  0  0  0  0  0  0  0  0  0  0  0
   22.8936   17.2156   34.1854 N   0  0  0  0  0  0  0  0  0  0  0  0
   26.2563   15.9704   30.9598 O   0  0  0  0  0  0  0  0  0  0  0  0
   25.9185   15.0453   29.8971 C   0  0  2  0  0  0  0  0  0  0  0  0
   21.3572   14.8657   28.7955 N   0  0  0  0  0  0  0  0  0  0  0  0
   28.0584   13.8107   30.2141 O   0  0  0  0  0  0  0  0  0  0  0  0
   27.2428   14.4873   29.2492 C   0  0  1  0  0  0  0  0  0  0  0  0
   23.9347   16.2490   29.3811 O   0  0  0  0  0  0  0  0  0  0  0  0
   26.9227   13.5083   28.1464 C   0  0  1  0  0  0  0  0  0  0  0  0
   23.5159   16.1572   31.6435 O   0  0  0  0  0  0  0  0  0  0  0  0
   26.0564   14.2131   27.0774 C   0  0  0  0  0  0  0  0  0  0  0  0
   20.9751   18.7760   31.5566 O   0  0  0  0  0  0  0  0  0  0  0  0
   24.7578   14.7252   27.7665 C   0  0  1  0  0  0  0  0  0  0  0  0
   19.7187   16.8133   30.0052 O   0  0  0  0  0  0  0  0  0  0  0  0
   25.0784   15.7831   28.7804 C   0  0  2  0  0  0  0  0  0  0  0  0
   23.2441   15.4730   30.3044 C   0  0  1  0  0  0  0  0  0  0  0  0
   22.9651   17.5453   31.7163 C   0  0  2  0  0  0  0  0  0  0  0  0
   23.2467   18.1692   33.0989 C   0  0  0  0  0  0  0  0  0  0  0  0
   21.4820   17.4859   31.5025 C   0  0  2  0  0  0  0  0  0  0  0  0
   21.1423   16.8744   30.1743 C   0  0  1  0  0  0  0  0  0  0  0  0
   21.7005   15.4938   30.1217 C   0  0  1  0  0  0  0  0  0  0  0  0
  5  4  1  1  0  0  0
  5  8  1  0  0  0  0
  5 16  1  0  0  0  0
  8  7  1  1  0  0  0
  8 10  1  0  0  0  0
 10  1  1  6  0  0  0
 10 12  1  0  0  0  0
 11 18  1  0  0  0  0
 12 14  1  0  0  0  0
 14  2  1  6  0  0  0
 14 16  1  0  0  0  0
 16  9  1  1  0  0  0
 17  9  1  6  0  0  0
 17 11  1  0  0  0  0
 17 22  1  0  0  0  0
 18 19  1  1  0  0  0
 18 20  1  0  0  0  0
 19  3  1  0  0  0  0
 20 13  1  6  0  0  0
 20 21  1  0  0  0  0
 21 15  1  1  0  0  0
 21 22  1  0  0  0  0
 22  6  1  6  0  0  0
M  END
>  <CHROM.1>
-41.24838365,108.33391980,-47.15671188,24.01641863,15.79942142,29.97649687
0.64966616,0.30439174,-2.00448900

>  <Name>
2et8_lig

>  <RI>
0

>  <Rbt.Current_Directory>
/home/itssahil/PROJECTS/Mol_Feturizer/New_Systems/rnas/2et8

>  <Rbt.Executable>
rbdock ($Id: //depot/dev/client3/rdock/2013.1/src/exe/rbdock.cxx#4 $)

>  <Rbt.Library>
libRbt.so (2013.1, Build901 2013/11/27)

>  <Rbt.Parameter_File>
/export/apps/rDock/src/rDock_2013.1_src/data/scripts/dock_solv.prm

>  <Rbt.Receptor>
prm/blind_docking_80.prm

>  <SCORE>
-13.6941

>  <SCORE.INTER>
-18.2264

>  <SCORE.INTER.CONST>
1

>  <SCORE.INTER.POLAR>
-1.09512

>  <SCORE.INTER.ROT>
3

>  <SCORE.INTER.SOLV>
17.8395

>  <SCORE.INTER.VDW>
-20.047

>  <SCORE.INTER.norm>
-0.828472

>  <SCORE.INTRA>
3.88347

>  <SCORE.INTRA.DIHEDRAL>
3.72286

>  <SCORE.INTRA.DIHEDRAL.0>
4.99603

>  <SCORE.INTRA.POLAR>
0

>  <SCORE.INTRA.POLAR.0>
0

>  <SCORE.INTRA.REPUL>
0

>  <SCORE.INTRA.REPUL.0>
0

>  <SCORE.INTRA.SOLV>
2.72032

>  <SCORE.INTRA.SOLV.lig_0>
-74.884

>  <SCORE.INTRA.VDW>
0.661876

>  <SCORE.INTRA.VDW.0>
-0.858933

>  <SCORE.INTRA.norm>
0.176521

>  <SCORE.RESTR>
0.648803

>  <SCORE.RESTR.CAVITY>
0.648803

>  <SCORE.RESTR.norm>
0.0294911

>  <SCORE.SYSTEM>
0

>  <SCORE.SYSTEM.CONST>
0

>  <SCORE.SYSTEM.DIHEDRAL>
0

>  <SCORE.SYSTEM.SOLV>
0

>  <SCORE.SYSTEM.norm>
0

>  <SCORE.heavy>
22

>  <SCORE.norm>
-0.62246

>  <RMSD>
8.749

$$$$
2et8_lig
 OpenBabel11021811433D
libRbt.so/2013.1/901 2013/11/27
 22 23  0  0  0  0  0  0  0  0999 V2000
   28.1370   13.0432   27.5019 N   0  0  0  0  0  0  0  0  0  0  0  0
   23.8985   15.5061   26.7420 N   0  0  0  0  0  0  0  0  0  0  0  0
   22.5118   17.5020   34.1454 N   0  0  0  0  0  0  0  0  0  0  0  0
   26.2873   15.9781   31.0078 O   0  0  0  0  0  0  0  0  0  0  0  0
   25.9211   15.0760   29.9347 C   0  0  2  0  0  0  0  0  0  0  0  0
   21.5289   14.6646   28.8666 N   0  0  0  0  0  0  0  0  0  0  0  0
   28.0525   13.8132   30.1922 O   0  0  0  0  0  0  0  0  0  0  0  0
   27.2278   14.5157   29.2539 C   0  0  1  0  0  0  0  0  0  0  0  0
   23.9420   16.3099   29.4750 O   0  0  0  0  0  0  0  0  0  0  0  0
   26.8780   13.5604   28.1395 C   0  0  1  0  0  0  0  0  0  0  0  0
   23.4153   16.3252   31.7167 O   0  0  0  0  0  0  0  0  0  0  0  0
   26.0011   14.2936   27.0986 C   0  0  0  0  0  0  0  0  0  0  0  0
   20.6640   18.6926   31.3339 O   0  0  0  0  0  0  0  0  0  0  0  0
   24.7204   14.8069   27.8193 C   0  0  1  0  0  0  0  0  0  0  0  0
   19.6660   16.5293   29.8635 O   0  0  0  0  0  0  0  0  0  0  0  0
   25.0700   15.8428   28.8462 C   0  0  2  0  0  0  0  0  0  0  0  0
   23.2744   15.5352   30.4162 C   0  0  1  0  0  0  0  0  0  0  0  0
   22.7426   17.6595   31.6690 C   0  0  2  0  0  0  0  0  0  0  0  0
   22.8963   18.3934   33.0174 C   0  0  0  0  0  0  0  0  0  0  0  0
   21.2835   17.4528   31.3915 C   0  0  2  0  0  0  0  0  0  0  0  0
   21.0682   16.7296   30.0938 C   0  0  1  0  0  0  0  0  0  0  0  0
   21.7465   15.4045   30.1613 C   0  0  1  0  0  0  0  0  0  0  0  0
  5  4  1  1  0  0  0
  5  8  1  0  0  0  0
  5 16  1  0  0  0  0
  8  7  1  1  0  0  0
  8 10  1  0  0  0  0
 10  1  1  6  0  0  0
 10 12  1  0  0  0  0
 11 18  1  0  0  0  0
 12 14  1  0  0  0  0
 14  2  1  6  0  0  0
 14 16  1  0  0  0  0
 16  9  1  1  0  0  0
 17  9  1  6  0  0  0
 17 11  1  0  0  0  0
 17 22  1  0  0  0  0
 18 19  1  1  0  0  0
 18 20  1  0  0  0  0
 19  3  1  0  0  0  0
 20 13  1  6  0  0  0
 20 21  1  0  0  0  0
 21 15  1  1  0  0  0
 21 22  1  0  0  0  0
 22  6  1  6  0  0  0
M  END
>  <CHROM.1>
-39.93284639,115.98106491,-49.73811628,23.93944334,15.82443541,29.97101202
0.63958285,0.28255075,-2.02641545

>  <Name>
2et8_lig

>  <RI>
0

>  <Rbt.Current_Directory>
/home/itssahil/PROJECTS/Mol_Feturizer/New_Systems/rnas/2et8

>  <Rbt.Executable>
rbdock ($Id: //depot/dev/client3/rdock/2013.1/src/exe/rbdock.cxx#4 $)

>  <Rbt.Library>
libRbt.so (2013.1, Build901 2013/11/27)

>  <Rbt.Parameter_File>
/export/apps/rDock/src/rDock_2013.1_src/data/scripts/dock_solv.prm

>  <Rbt.Receptor>
prm/blind_docking_100.prm

>  <SCORE>
-13.5368

>  <SCORE.INTER>
-19.1201

>  <SCORE.INTER.CONST>
1

>  <SCORE.INTER.POLAR>
-1.08564

>  <SCORE.INTER.ROT>
3

>  <SCORE.INTER.SOLV>
18.2495

>  <SCORE.INTER.VDW>
-20.8111

>  <SCORE.INTER.norm>
-0.869096

>  <SCORE.INTRA>
4.39736

>  <SCORE.INTRA.DIHEDRAL>
4.28226

>  <SCORE.INTRA.DIHEDRAL.0>
4.99603

>  <SCORE.INTRA.POLAR>
0

>  <SCORE.INTRA.POLAR.0>
0

>  <SCORE.INTRA.REPUL>
0

>  <SCORE.INTRA.REPUL.0>
0

>  <SCORE.INTRA.SOLV>
3.0565

>  <SCORE.INTRA.SOLV.lig_0>
-74.884

>  <SCORE.INTRA.VDW>
0.727986

>  <SCORE.INTRA.VDW.0>
-0.858933

>  <SCORE.INTRA.norm>
0.19988

>  <SCORE.RESTR>
1.18597

>  <SCORE.RESTR.CAVITY>
1.18597

>  <SCORE.RESTR.norm>
0.0539077

>  <SCORE.SYSTEM>
0

>  <SCORE.SYSTEM.CONST>
0

>  <SCORE.SYSTEM.DIHEDRAL>
0

>  <SCORE.SYSTEM.SOLV>
0

>  <SCORE.SYSTEM.norm>
0

>  <SCORE.heavy>
22

>  <SCORE.norm>
-0.615308

>  <RMSD>
8.758

$$$$
2et8_lig
 OpenBabel11021811433D
libRbt.so/2013.1/901 2013/11/27
 22 23  0  0  0  0  0  0  0  0999 V2000
   28.0046   12.9473   27.5971 N   0  0  0  0  0  0  0  0  0  0  0  0
   23.7758   15.4070   26.7759 N   0  0  0  0  0  0  0  0  0  0  0  0
   24.3672   18.1590   33.5578 N   0  0  0  0  0  0  0  0  0  0  0  0
   26.1958   16.0184   31.0063 O   0  0  0  0  0  0  0  0  0  0  0  0
   25.8171   15.0804   29.9689 C   0  0  2  0  0  0  0  0  0  0  0  0
   21.3272   14.8306   28.8537 N   0  0  0  0  0  0  0  0  0  0  0  0
   27.9427   13.8146   30.2582 O   0  0  0  0  0  0  0  0  0  0  0  0
   27.1159   14.4878   29.3004 C   0  0  1  0  0  0  0  0  0  0  0  0
   23.8423   16.3089   29.4777 O   0  0  0  0  0  0  0  0  0  0  0  0
   26.7531   13.4950   28.2236 C   0  0  1  0  0  0  0  0  0  0  0  0
   23.3435   16.2886   31.7256 O   0  0  0  0  0  0  0  0  0  0  0  0
   25.8735   14.1954   27.1625 C   0  0  0  0  0  0  0  0  0  0  0  0
   20.7361   18.8275   31.4490 O   0  0  0  0  0  0  0  0  0  0  0  0
   24.6007   14.7423   27.8725 C   0  0  1  0  0  0  0  0  0  0  0  0
   19.5922   16.7732   29.9296 O   0  0  0  0  0  0  0  0  0  0  0  0
   24.9632   15.8125   28.8589 C   0  0  2  0  0  0  0  0  0  0  0  0
   23.1400   15.5479   30.4046 C   0  0  1  0  0  0  0  0  0  0  0  0
   22.7523   17.6619   31.7260 C   0  0  2  0  0  0  0  0  0  0  0  0
   22.9656   18.3444   33.0930 C   0  0  0  0  0  0  0  0  0  0  0  0
   21.2802   17.5516   31.4621 C   0  0  2  0  0  0  0  0  0  0  0  0
   21.0064   16.8818   30.1468 C   0  0  1  0  0  0  0  0  0  0  0  0
   21.6042   15.5170   30.1665 C   0  0  1  0  0  0  0  0  0  0  0  0
  5  4  1  1  0  0  0
  5  8  1  0  0  0  0
  5 16  1  0  0  0  0
  8  7  1  1  0  0  0
  8 10  1  0  0  0  0
 10  1  1  6  0  0  0
 10 12  1  0  0  0  0
 11 18  1  0  0  0  0
 12 14  1  0  0  0  0
 14  2  1  6  0  0  0
 14 16  1  0  0  0  0
 16  9  1  1  0  0  0
 17  9  1  6  0  0  0
 17 11  1  0  0  0  0
 17 22  1  0  0  0  0
 18 19  1  1  0  0  0
 18 20  1  0  0  0  0
 19  3  1  0  0  0  0
 20 13  1  6  0  0  0
 20 21  1  0  0  0  0
 21 15  1  1  0  0  0
 21 22  1  0  0  0  0
 22  6  1  6  0  0  0
M  END
>  <CHROM.1>
-42.99737480,113.42206109,45.82266318,23.94289755,15.87406380,29.98627754
0.65784231,0.27250431,-2.11742197

>  <Name>
2et8_lig

>  <RI>
224

>  <Rbt.Current_Directory>
/home/itssahil/PROJECTS/Mol_Feturizer/New_Systems/rnas/2et8

>  <Rbt.Executable>
rbdock ($Id: //depot/dev/client3/rdock/2013.1/src/exe/rbdock.cxx#4 $)

>  <Rbt.Library>
libRbt.so (2013.1, Build901 2013/11/27)

>  <Rbt.Parameter_File>
/export/apps/rDock/src/rDock_2013.1_src/data/scripts/dock_solv.prm

>  <Rbt.Receptor>
prm/blind_docking_60.prm

>  <SCORE>
-11.3335

>  <SCORE.INTER>
-16.2448

>  <SCORE.INTER.CONST>
1

>  <SCORE.INTER.POLAR>
-1.0828

>  <SCORE.INTER.ROT>
3

>  <SCORE.INTER.SOLV>
21.8423

>  <SCORE.INTER.VDW>
-20.1013

>  <SCORE.INTER.norm>
-0.7384

>  <SCORE.INTRA>
3.56617

>  <SCORE.INTRA.DIHEDRAL>
4.00976

>  <SCORE.INTRA.DIHEDRAL.0>
4.99603

>  <SCORE.INTRA.POLAR>
0

>  <SCORE.INTRA.POLAR.0>
0

>  <SCORE.INTRA.REPUL>
0

>  <SCORE.INTRA.REPUL.0>
0

>  <SCORE.INTRA.SOLV>
2.1711

>  <SCORE.INTRA.SOLV.lig_0>
-74.884

>  <SCORE.INTRA.VDW>
0.475736

>  <SCORE.INTRA.VDW.0>
-0.858933

>  <SCORE.INTRA.norm>
0.162099

>  <SCORE.RESTR>
1.34511

>  <SCORE.RESTR.CAVITY>
1.34511

>  <SCORE.RESTR.norm>
0.0611416

>  <SCORE.SYSTEM>
0

>  <SCORE.SYSTEM.CONST>
0

>  <SCORE.SYSTEM.DIHEDRAL>
0

>  <SCORE.SYSTEM.SOLV>
0

>  <SCORE.SYSTEM.norm>
0

>  <SCORE.heavy>
22

>  <SCORE.norm>
-0.51516

>  <RMSD>
8.760

$$$$
2et8_lig
 OpenBabel11021811433D
libRbt.so/2013.1/901 2013/11/27
 22 23  0  0  0  0  0  0  0  0999 V2000
   28.2141   12.9990   27.5366 N   0  0  0  0  0  0  0  0  0  0  0  0
   23.9612   15.3856   26.6283 N   0  0  0  0  0  0  0  0  0  0  0  0
   22.9492   17.2135   34.1610 N   0  0  0  0  0  0  0  0  0  0  0  0
   26.2346   15.9657   30.9436 O   0  0  0  0  0  0  0  0  0  0  0  0
   25.9086   15.0401   29.8775 C   0  0  2  0  0  0  0  0  0  0  0  0
   21.3339   14.8641   28.7933 N   0  0  0  0  0  0  0  0  0  0  0  0
   28.0508   13.8135   30.2101 O   0  0  0  0  0  0  0  0  0  0  0  0
   27.2400   14.4877   29.2394 C   0  0  1  0  0  0  0  0  0  0  0  0
   23.9242   16.2366   29.3471 O   0  0  0  0  0  0  0  0  0  0  0  0
   26.9322   13.5084   28.1335 C   0  0  1  0  0  0  0  0  0  0  0  0
   23.5307   16.1506   31.6143 O   0  0  0  0  0  0  0  0  0  0  0  0
   26.0714   14.2106   27.0584 C   0  0  0  0  0  0  0  0  0  0  0  0
   21.0011   18.7809   31.5515 O   0  0  0  0  0  0  0  0  0  0  0  0
   24.7656   14.7172   27.7378 C   0  0  1  0  0  0  0  0  0  0  0  0
   19.7182   16.8213   30.0180 O   0  0  0  0  0  0  0  0  0  0  0  0
   25.0743   15.7756   28.7549 C   0  0  2  0  0  0  0  0  0  0  0  0
   23.2406   15.4654   30.2796 C   0  0  1  0  0  0  0  0  0  0  0  0
   22.9871   17.5413   31.6908 C   0  0  2  0  0  0  0  0  0  0  0  0
   23.2872   18.1664   33.0690 C   0  0  0  0  0  0  0  0  0  0  0  0
   21.5014   17.4885   31.4941 C   0  0  2  0  0  0  0  0  0  0  0  0
   21.1439   16.8762   30.1709 C   0  0  1  0  0  0  0  0  0  0  0  0
   21.6951   15.4929   30.1144 C   0  0  1  0  0  0  0  0  0  0  0  0
  5  4  1  1  0  0  0
  5  8  1  0  0  0  0
  5 16  1  0  0  0  0
  8  7  1  1  0  0  0
  8 10  1  0  0  0  0
 10  1  1  6  0  0  0
 10 12  1  0  0  0  0
 11 18  1  0  0  0  0
 12 14  1  0  0  0  0
 14  2  1  6  0  0  0
 14 16  1  0  0  0  0
 16  9  1  1  0  0  0
 17  9  1  6  0  0  0
 17 11  1  0  0  0  0
 17 22  1  0  0  0  0
 18 19  1  1  0  0  0
 18 20  1  0  0  0  0
 19  3  1  0  0  0  0
 20 13  1  6  0  0  0
 20 21  1  0  0  0  0
 21 15  1  1  0  0  0
 21 22  1  0  0  0  0
 22  6  1  6  0  0  0
M  END
>  <CHROM.1>
-40.26523006,106.96937011,-46.84264700,24.02319451,15.79720597,29.96052967
-0.65085882,-0.30368550,1.13551760

>  <Name>
2et8_lig

>  <RI>
0

>  <Rbt.Current_Directory>
/home/itssahil/PROJECTS/Mol_Feturizer/New_Systems/rnas/2et8

>  <Rbt.Executable>
rbdock ($Id: //depot/dev/client3/rdock/2013.1/src/exe/rbdock.cxx#4 $)

>  <Rbt.Library>
libRbt.so (2013.1, Build901 2013/11/27)

>  <Rbt.Parameter_File>
/export/apps/rDock/src/rDock_2013.1_src/data/scripts/dock_solv.prm

>  <Rbt.Receptor>
prm/blind_docking_80.prm

>  <SCORE>
-13.5453

>  <SCORE.INTER>
-18.1263

>  <SCORE.INTER.CONST>
1

>  <SCORE.INTER.POLAR>
-1.08782

>  <SCORE.INTER.ROT>
3

>  <SCORE.INTER.SOLV>
17.7751

>  <SCORE.INTER.VDW>
-19.9831

>  <SCORE.INTER.norm>
-0.823921

>  <SCORE.INTRA>
3.93747

>  <SCORE.INTRA.DIHEDRAL>
3.75083

>  <SCORE.INTRA.DIHEDRAL.0>
4.99603

>  <SCORE.INTRA.POLAR>
0

>  <SCORE.INTRA.POLAR.0>
0

>  <SCORE.INTRA.REPUL>
0

>  <SCORE.INTRA.REPUL.0>
0

>  <SCORE.INTRA.SOLV>
2.61975

>  <SCORE.INTRA.SOLV.lig_0>
-74.884

>  <SCORE.INTRA.VDW>
0.752187

>  <SCORE.INTRA.VDW.0>
-0.858933

>  <SCORE.INTRA.norm>
0.178976

>  <SCORE.RESTR>
0.643515

>  <SCORE.RESTR.CAVITY>
0.643515

>  <SCORE.RESTR.norm>
0.0292507

>  <SCORE.SYSTEM>
0

>  <SCORE.SYSTEM.CONST>
0

>  <SCORE.SYSTEM.DIHEDRAL>
0

>  <SCORE.SYSTEM.SOLV>
0

>  <SCORE.SYSTEM.norm>
0

>  <SCORE.heavy>
22

>  <SCORE.norm>
-0.615695

>  <RMSD>
8.763

$$$$
2et8_lig
 OpenBabel11021811433D
libRbt.so/2013.1/901 2013/11/27
 22 23  0  0  0  0  0  0  0  0999 V2000
   27.5857   14.4040   25.9924 N   0  0  0  0  0  0  0  0  0  0  0  0
   26.7414   15.2309   30.8102 N   0  0  0  0  0  0  0  0  0  0  0  0
   20.0968   18.6864   29.7375 N   0  0  0  0  0  0  0  0  0  0  0  0
   22.9772   14.4684   27.7483 O   0  0  0  0  0  0  0  0  0  0  0  0
   24.2897   15.0612   27.9069 C   0  0  2  0  0  0  0  0  0  0  0  0
   24.9641   16.6581   32.7294 N   0  0  0  0  0  0  0  0  0  0  0  0
   24.8363   14.6295   25.5155 O   0  0  0  0  0  0  0  0  0  0  0  0
   25.2818   14.4220   26.8618 C   0  0  1  0  0  0  0  0  0  0  0  0
   23.9527   15.3601   30.2409 O   0  0  0  0  0  0  0  0  0  0  0  0
   26.6561   15.0309   26.9933 C   0  0  1  0  0  0  0  0  0  0  0  0
   22.6885   17.2179   29.7382 O   0  0  0  0  0  0  0  0  0  0  0  0
   27.1745   14.8087   28.4327 C   0  0  0  0  0  0  0  0  0  0  0  0
   20.1822   16.5443   32.3044 O   0  0  0  0  0  0  0  0  0  0  0  0
   26.1699   15.4747   29.4178 C   0  0  1  0  0  0  0  0  0  0  0  0
   22.4288   16.9991   33.9116 O   0  0  0  0  0  0  0  0  0  0  0  0
   24.8387   14.7857   29.3628 C   0  0  2  0  0  0  0  0  0  0  0  0
   23.9471   16.7331   30.4564 C   0  0  1  0  0  0  0  0  0  0  0  0
   21.4288   16.6627   30.3214 C   0  0  2  0  0  0  0  0  0  0  0  0
   20.1962   17.2107   29.5727 C   0  0  0  0  0  0  0  0  0  0  0  0
   21.3445   17.0720   31.7616 C   0  0  2  0  0  0  0  0  0  0  0  0
   22.5266   16.5774   32.5435 C   0  0  1  0  0  0  0  0  0  0  0  0
   23.7702   17.1404   31.9462 C   0  0  1  0  0  0  0  0  0  0  0  0
  5  4  1  1  0  0  0
  5  8  1  0  0  0  0
  5 16  1  0  0  0  0
  8  7  1  6  0  0  0
  8 10  1  0  0  0  0
 10  1  1  6  0  0  0
 10 12  1  0  0  0  0
 11 18  1  0  0  0  0
 12 14  1  0  0  0  0
 14  2  1  1  0  0  0
 14 16  1  0  0  0  0
 16  9  1  1  0  0  0
 17  9  1  1  0  0  0
 17 11  1  0  0  0  0
 17 22  1  0  0  0  0
 18 19  1  6  0  0  0
 18 20  1  0  0  0  0
 19  3  1  0  0  0  0
 20 13  1  1  0  0  0
 20 21  1  0  0  0  0
 21 15  1  1  0  0  0
 21 22  1  0  0  0  0
 22  6  1  1  0  0  0
M  END
>  <CHROM.1>
-77.23179413,106.63355980,-63.38103147,23.77754234,15.96118481,29.74705384
-0.80770356,-0.28923397,1.34697426

>  <Name>
2et8_lig

>  <RI>
0

>  <Rbt.Current_Directory>
/home/itssahil/PROJECTS/Mol_Feturizer/New_Systems/rnas/2et8

>  <Rbt.Executable>
rbdock ($Id: //depot/dev/client3/rdock/2013.1/src/exe/rbdock.cxx#4 $)

>  <Rbt.Library>
libRbt.so (2013.1, Build901 2013/11/27)

>  <Rbt.Parameter_File>
/export/apps/rDock/src/rDock_2013.1_src/data/scripts/dock_solv.prm

>  <Rbt.Receptor>
prm/blind_docking_100.prm

>  <SCORE>
-3.04779

>  <SCORE.INTER>
-9.07344

>  <SCORE.INTER.CONST>
1

>  <SCORE.INTER.POLAR>
-1.01689

>  <SCORE.INTER.ROT>
3

>  <SCORE.INTER.SOLV>
23.4268

>  <SCORE.INTER.VDW>
-16.0683

>  <SCORE.INTER.norm>
-0.412429

>  <SCORE.INTRA>
3.78488

>  <SCORE.INTRA.DIHEDRAL>
2.77129

>  <SCORE.INTRA.DIHEDRAL.0>
4.99603

>  <SCORE.INTRA.POLAR>
0

>  <SCORE.INTRA.POLAR.0>
0

>  <SCORE.INTRA.REPUL>
0

>  <SCORE.INTRA.REPUL.0>
0

>  <SCORE.INTRA.SOLV>
3.76271

>  <SCORE.INTRA.SOLV.lig_0>
-74.884

>  <SCORE.INTRA.VDW>
0.517876

>  <SCORE.INTRA.VDW.0>
-0.858933

>  <SCORE.INTRA.norm>
0.17204

>  <SCORE.RESTR>
2.24077

>  <SCORE.RESTR.CAVITY>
2.24077

>  <SCORE.RESTR.norm>
0.101853

>  <SCORE.SYSTEM>
0

>  <SCORE.SYSTEM.CONST>
0

>  <SCORE.SYSTEM.DIHEDRAL>
0

>  <SCORE.SYSTEM.SOLV>
0

>  <SCORE.SYSTEM.norm>
0

>  <SCORE.heavy>
22

>  <SCORE.norm>
-0.138536

>  <RMSD>
8.765

$$$$
2et8_lig
 OpenBabel11021811433D
libRbt.so/2013.1/901 2013/11/27
 22 23  0  0  0  0  0  0  0  0999 V2000
   28.2406   13.2523   27.5018 N   0  0  0  0  0  0  0  0  0  0  0  0
   23.9327   15.5295   26.5721 N   0  0  0  0  0  0  0  0  0  0  0  0
   22.5735   17.4568   34.0640 N   0  0  0  0  0  0  0  0  0  0  0  0
   26.0670   16.0037   30.9705 O   0  0  0  0  0  0  0  0  0  0  0  0
   25.8025   15.1134   29.8584 C   0  0  2  0  0  0  0  0  0  0  0  0
   21.3491   14.6212   28.8378 N   0  0  0  0  0  0  0  0  0  0  0  0
   27.9766   13.9472   30.2009 O   0  0  0  0  0  0  0  0  0  0  0  0
   27.1693   14.6339   29.2362 C   0  0  1  0  0  0  0  0  0  0  0  0
   23.7925   16.2632   29.3215 O   0  0  0  0  0  0  0  0  0  0  0  0
   26.9259   13.6923   28.0824 C   0  0  1  0  0  0  0  0  0  0  0  0
   23.3862   16.2721   31.5881 O   0  0  0  0  0  0  0  0  0  0  0  0
   26.0704   14.4097   27.0132 C   0  0  0  0  0  0  0  0  0  0  0  0
   20.6201   18.6422   31.3596 O   0  0  0  0  0  0  0  0  0  0  0  0
   24.7298   14.8425   27.6755 C   0  0  1  0  0  0  0  0  0  0  0  0
   19.5435   16.4840   29.9383 O   0  0  0  0  0  0  0  0  0  0  0  0
   24.9736   15.8669   28.7438 C   0  0  2  0  0  0  0  0  0  0  0  0
   23.1755   15.4861   30.2947 C   0  0  1  0  0  0  0  0  0  0  0  0
   22.7129   17.6070   31.5804 C   0  0  2  0  0  0  0  0  0  0  0  0
   22.9388   18.3367   32.9208 C   0  0  0  0  0  0  0  0  0  0  0  0
   21.2409   17.4020   31.3804 C   0  0  2  0  0  0  0  0  0  0  0  0
   20.9561   16.6827   30.0940 C   0  0  1  0  0  0  0  0  0  0  0  0
   21.6360   15.3571   30.1213 C   0  0  1  0  0  0  0  0  0  0  0  0
  5  4  1  1  0  0  0
  5  8  1  0  0  0  0
  5 16  1  0  0  0  0
  8  7  1  1  0  0  0
  8 10  1  0  0  0  0
 10  1  1  6  0  0  0
 10 12  1  0  0  0  0
 11 18  1  0  0  0  0
 12 14  1  0  0  0  0
 14  2  1  6  0  0  0
 14 16  1  0  0  0  0
 16  9  1  1  0  0  0
 17  9  1  6  0  0  0
 17 11  1  0  0  0  0
 17 22  1  0  0  0  0
 18 19  1  1  0  0  0
 18 20  1  0  0  0  0
 19  3  1  0  0  0  0
 20 13  1  6  0  0  0
 20 21  1  0  0  0  0
 21 15  1  1  0  0  0
 21 22  1  0  0  0  0
 22  6  1  6  0  0  0
M  END
>  <CHROM.1>
-34.20684647,108.25328029,-51.52169703,23.88671436,15.83597929,29.91165643
-0.62652746,-0.25792769,1.12853822

>  <Name>
2et8_lig

>  <RI>
0

>  <Rbt.Current_Directory>
/home/itssahil/PROJECTS/Mol_Feturizer/New_Systems/rnas/2et8

>  <Rbt.Executable>
rbdock ($Id: //depot/dev/client3/rdock/2013.1/src/exe/rbdock.cxx#4 $)

>  <Rbt.Library>
libRbt.so (2013.1, Build901 2013/11/27)

>  <Rbt.Parameter_File>
/export/apps/rDock/src/rDock_2013.1_src/data/scripts/dock_solv.prm

>  <Rbt.Receptor>
prm/blind_docking_100.prm

>  <SCORE>
-13.1009

>  <SCORE.INTER>
-19.1344

>  <SCORE.INTER.CONST>
1

>  <SCORE.INTER.POLAR>
-1.09407

>  <SCORE.INTER.ROT>
3

>  <SCORE.INTER.SOLV>
17.8013

>  <SCORE.INTER.VDW>
-20.6431

>  <SCORE.INTER.norm>
-0.869747

>  <SCORE.INTRA>
4.7774

>  <SCORE.INTRA.DIHEDRAL>
4.571

>  <SCORE.INTRA.DIHEDRAL.0>
4.99603

>  <SCORE.INTRA.POLAR>
0

>  <SCORE.INTRA.POLAR.0>
0

>  <SCORE.INTRA.REPUL>
0

>  <SCORE.INTRA.REPUL.0>
0

>  <SCORE.INTRA.SOLV>
2.47506

>  <SCORE.INTRA.SOLV.lig_0>
-74.884

>  <SCORE.INTRA.VDW>
1.25437

>  <SCORE.INTRA.VDW.0>
-0.858933

>  <SCORE.INTRA.norm>
0.217155

>  <SCORE.RESTR>
1.25613

>  <SCORE.RESTR.CAVITY>
1.25613

>  <SCORE.RESTR.norm>
0.0570968

>  <SCORE.SYSTEM>
0

>  <SCORE.SYSTEM.CONST>
0

>  <SCORE.SYSTEM.DIHEDRAL>
0

>  <SCORE.SYSTEM.SOLV>
0

>  <SCORE.SYSTEM.norm>
0

>  <SCORE.heavy>
22

>  <SCORE.norm>
-0.595495

>  <RMSD>
8.771

$$$$
2et8_lig
 OpenBabel11021811433D
libRbt.so/2013.1/901 2013/11/27
 22 23  0  0  0  0  0  0  0  0999 V2000
   28.1183   13.0076   27.4983 N   0  0  0  0  0  0  0  0  0  0  0  0
   23.8701   15.4452   26.7119 N   0  0  0  0  0  0  0  0  0  0  0  0
   22.5133   17.5220   34.1010 N   0  0  0  0  0  0  0  0  0  0  0  0
   26.2602   15.9778   30.9698 O   0  0  0  0  0  0  0  0  0  0  0  0
   25.8966   15.0615   29.9080 C   0  0  2  0  0  0  0  0  0  0  0  0
   21.4956   14.6316   28.8573 N   0  0  0  0  0  0  0  0  0  0  0  0
   28.0330   13.8098   30.1791 O   0  0  0  0  0  0  0  0  0  0  0  0
   27.2050   14.4979   29.2330 C   0  0  1  0  0  0  0  0  0  0  0  0
   23.9126   16.2822   29.4350 O   0  0  0  0  0  0  0  0  0  0  0  0
   26.8579   13.5278   28.1305 C   0  0  1  0  0  0  0  0  0  0  0  0
   23.3987   16.3210   31.6793 O   0  0  0  0  0  0  0  0  0  0  0  0
   25.9775   14.2450   27.0815 C   0  0  0  0  0  0  0  0  0  0  0  0
   20.6458   18.6852   31.2875 O   0  0  0  0  0  0  0  0  0  0  0  0
   24.6954   14.7622   27.7970 C   0  0  1  0  0  0  0  0  0  0  0  0
   19.6389   16.5072   29.8454 O   0  0  0  0  0  0  0  0  0  0  0  0
   25.0418   15.8118   28.8110 C   0  0  2  0  0  0  0  0  0  0  0  0
   23.2501   15.5176   30.3879 C   0  0  1  0  0  0  0  0  0  0  0  0
   22.7261   17.6550   31.6216 C   0  0  2  0  0  0  0  0  0  0  0  0
   22.8876   18.4028   32.9614 C   0  0  0  0  0  0  0  0  0  0  0  0
   21.2654   17.4460   31.3545 C   0  0  2  0  0  0  0  0  0  0  0  0
   21.0424   16.7093   30.0656 C   0  0  1  0  0  0  0  0  0  0  0  0
   21.7208   15.3848   30.1431 C   0  0  1  0  0  0  0  0  0  0  0  0
  5  4  1  1  0  0  0
  5  8  1  0  0  0  0
  5 16  1  0  0  0  0
  8  7  1  1  0  0  0
  8 10  1  0  0  0  0
 10  1  1  6  0  0  0
 10 12  1  0  0  0  0
 11 18  1  0  0  0  0
 12 14  1  0  0  0  0
 14  2  1  6  0  0  0
 14 16  1  0  0  0  0
 16  9  1  1  0  0  0
 17  9  1  6  0  0  0
 17 11  1  0  0  0  0
 17 22  1  0  0  0  0
 18 19  1  1  0  0  0
 18 20  1  0  0  0  0
 19  3  1  0  0  0  0
 20 13  1  6  0  0  0
 20 21  1  0  0  0  0
 21 15  1  1  0  0  0
 21 22  1  0  0  0  0
 22  6  1  6  0  0  0
M  END
>  <CHROM.1>
-39.80425619,115.55332343,-49.55971179,23.91760760,15.80558048,29.94233770
0.64112964,0.27935698,-2.03815498

>  <Name>
2et8_lig

>  <RI>
0

>  <Rbt.Current_Directory>
/home/itssahil/PROJECTS/Mol_Feturizer/New_Systems/rnas/2et8

>  <Rbt.Executable>
rbdock ($Id: //depot/dev/client3/rdock/2013.1/src/exe/rbdock.cxx#4 $)

>  <Rbt.Library>
libRbt.so (2013.1, Build901 2013/11/27)

>  <Rbt.Parameter_File>
/export/apps/rDock/src/rDock_2013.1_src/data/scripts/dock_solv.prm

>  <Rbt.Receptor>
prm/blind_docking_100.prm

>  <SCORE>
-13.1864

>  <SCORE.INTER>
-18.697

>  <SCORE.INTER.CONST>
1

>  <SCORE.INTER.POLAR>
-1.09328

>  <SCORE.INTER.ROT>
3

>  <SCORE.INTER.SOLV>
18.2886

>  <SCORE.INTER.VDW>
-20.5166

>  <SCORE.INTER.norm>
-0.849862

>  <SCORE.INTRA>
4.39802

>  <SCORE.INTRA.DIHEDRAL>
4.29813

>  <SCORE.INTRA.DIHEDRAL.0>
4.99603

>  <SCORE.INTRA.POLAR>
0

>  <SCORE.INTRA.POLAR.0>
0

>  <SCORE.INTRA.REPUL>
0

>  <SCORE.INTRA.REPUL.0>
0

>  <SCORE.INTRA.SOLV>
3.02159

>  <SCORE.INTRA.SOLV.lig_0>
-74.884

>  <SCORE.INTRA.VDW>
0.738162

>  <SCORE.INTRA.VDW.0>
-0.858933

>  <SCORE.INTRA.norm>
0.19991

>  <SCORE.RESTR>
1.11249

>  <SCORE.RESTR.CAVITY>
1.11249

>  <SCORE.RESTR.norm>
0.0505678

>  <SCORE.SYSTEM>
0

>  <SCORE.SYSTEM.CONST>
0

>  <SCORE.SYSTEM.DIHEDRAL>
0

>  <SCORE.SYSTEM.SOLV>
0

>  <SCORE.SYSTEM.norm>
0

>  <SCORE.heavy>
22

>  <SCORE.norm>
-0.599384

>  <RMSD>
8.779

$$$$
2et8_lig
 OpenBabel11021811433D
libRbt.so/2013.1/901 2013/11/27
 22 23  0  0  0  0  0  0  0  0999 V2000
   28.2561   13.1528   27.5121 N   0  0  0  0  0  0  0  0  0  0  0  0
   23.9807   15.4912   26.5846 N   0  0  0  0  0  0  0  0  0  0  0  0
   22.7133   17.4361   34.0861 N   0  0  0  0  0  0  0  0  0  0  0  0
   26.1549   15.9836   30.9615 O   0  0  0  0  0  0  0  0  0  0  0  0
   25.8673   15.0842   29.8625 C   0  0  2  0  0  0  0  0  0  0  0  0
   21.3769   14.7037   28.8322 N   0  0  0  0  0  0  0  0  0  0  0  0
   28.0238   13.8856   30.2041 O   0  0  0  0  0  0  0  0  0  0  0  0
   27.2211   14.5738   29.2366 C   0  0  1  0  0  0  0  0  0  0  0  0
   23.8731   16.2612   29.3256 O   0  0  0  0  0  0  0  0  0  0  0  0
   26.9534   13.6222   28.0965 C   0  0  1  0  0  0  0  0  0  0  0  0
   23.4749   16.2567   31.5937 O   0  0  0  0  0  0  0  0  0  0  0  0
   26.1023   14.3407   27.0245 C   0  0  0  0  0  0  0  0  0  0  0  0
   20.7851   18.7164   31.4028 O   0  0  0  0  0  0  0  0  0  0  0  0
   24.7741   14.8045   27.6909 C   0  0  1  0  0  0  0  0  0  0  0  0
   19.6354   16.6102   29.9607 O   0  0  0  0  0  0  0  0  0  0  0  0
   25.0430   15.8378   28.7445 C   0  0  2  0  0  0  0  0  0  0  0  0
   23.2349   15.4929   30.2921 C   0  0  1  0  0  0  0  0  0  0  0  0
   22.8445   17.6125   31.6038 C   0  0  2  0  0  0  0  0  0  0  0  0
   23.0981   18.3190   32.9516 C   0  0  0  0  0  0  0  0  0  0  0  0
   21.3661   17.4568   31.4070 C   0  0  2  0  0  0  0  0  0  0  0  0
   21.0541   16.7620   30.1134 C   0  0  1  0  0  0  0  0  0  0  0  0
   21.6915   15.4151   30.1230 C   0  0  1  0  0  0  0  0  0  0  0  0
  5  4  1  1  0  0  0
  5  8  1  0  0  0  0
  5 16  1  0  0  0  0
  8  7  1  1  0  0  0
  8 10  1  0  0  0  0
 10  1  1  6  0  0  0
 10 12  1  0  0  0  0
 11 18  1  0  0  0  0
 12 14  1  0  0  0  0
 14  2  1  6  0  0  0
 14 16  1  0  0  0  0
 16  9  1  1  0  0  0
 17  9  1  6  0  0  0
 17 11  1  0  0  0  0
 17 22  1  0  0  0  0
 18 19  1  1  0  0  0
 18 20  1  0  0  0  0
 19  3  1  0  0  0  0
 20 13  1  6  0  0  0
 20 21  1  0  0  0  0
 21 15  1  1  0  0  0
 21 22  1  0  0  0  0
 22  6  1  6  0  0  0
M  END
>  <CHROM.1>
-35.61699364,107.87721629,-51.32426350,23.96527473,15.83294084,29.92325848
-0.63777795,-0.27614530,1.12628300

>  <Name>
2et8_lig

>  <RI>
0

>  <Rbt.Current_Directory>
/home/itssahil/PROJECTS/Mol_Feturizer/New_Systems/rnas/2et8

>  <Rbt.Executable>
rbdock ($Id: //depot/dev/client3/rdock/2013.1/src/exe/rbdock.cxx#4 $)

>  <Rbt.Library>
libRbt.so (2013.1, Build901 2013/11/27)

>  <Rbt.Parameter_File>
/export/apps/rDock/src/rDock_2013.1_src/data/scripts/dock_solv.prm

>  <Rbt.Receptor>
prm/blind_docking_100.prm

>  <SCORE>
-13.1988

>  <SCORE.INTER>
-19.0096

>  <SCORE.INTER.CONST>
1

>  <SCORE.INTER.POLAR>
-1.08162

>  <SCORE.INTER.ROT>
3

>  <SCORE.INTER.SOLV>
17.8005

>  <SCORE.INTER.VDW>
-20.6011

>  <SCORE.INTER.norm>
-0.864071

>  <SCORE.INTRA>
4.5387

>  <SCORE.INTRA.DIHEDRAL>
4.29323

>  <SCORE.INTRA.DIHEDRAL.0>
4.99603

>  <SCORE.INTRA.POLAR>
0

>  <SCORE.INTRA.POLAR.0>
0

>  <SCORE.INTRA.REPUL>
0

>  <SCORE.INTRA.REPUL.0>
0

>  <SCORE.INTRA.SOLV>
2.52137

>  <SCORE.INTRA.SOLV.lig_0>
-74.884

>  <SCORE.INTRA.VDW>
1.1314

>  <SCORE.INTRA.VDW.0>
-0.858933

>  <SCORE.INTRA.norm>
0.206305

>  <SCORE.RESTR>
1.27204

>  <SCORE.RESTR.CAVITY>
1.27204

>  <SCORE.RESTR.norm>
0.05782

>  <SCORE.SYSTEM>
0

>  <SCORE.SYSTEM.CONST>
0

>  <SCORE.SYSTEM.DIHEDRAL>
0

>  <SCORE.SYSTEM.SOLV>
0

>  <SCORE.SYSTEM.norm>
0

>  <SCORE.heavy>
22

>  <SCORE.norm>
-0.599946

>  <RMSD>
8.787

$$$$
2et8_lig
 OpenBabel11021811433D
libRbt.so/2013.1/901 2013/11/27
 22 23  0  0  0  0  0  0  0  0999 V2000
   28.1483   13.0462   27.5014 N   0  0  0  0  0  0  0  0  0  0  0  0
   23.9270   15.5305   26.7166 N   0  0  0  0  0  0  0  0  0  0  0  0
   22.4958   17.5225   34.0974 N   0  0  0  0  0  0  0  0  0  0  0  0
   26.2771   15.9671   31.0076 O   0  0  0  0  0  0  0  0  0  0  0  0
   25.9176   15.0730   29.9255 C   0  0  2  0  0  0  0  0  0  0  0  0
   21.5610   14.6406   28.8295 N   0  0  0  0  0  0  0  0  0  0  0  0
   28.0415   13.8002   30.1954 O   0  0  0  0  0  0  0  0  0  0  0  0
   27.2285   14.5117   29.2537 C   0  0  1  0  0  0  0  0  0  0  0  0
   23.9478   16.3176   29.4548 O   0  0  0  0  0  0  0  0  0  0  0  0
   26.8854   13.5645   28.1302 C   0  0  1  0  0  0  0  0  0  0  0  0
   23.3901   16.3489   31.6887 O   0  0  0  0  0  0  0  0  0  0  0  0
   26.0213   14.3075   27.0856 C   0  0  0  0  0  0  0  0  0  0  0  0
   20.6192   18.6827   31.2449 O   0  0  0  0  0  0  0  0  0  0  0  0
   24.7358   14.8216   27.7973 C   0  0  1  0  0  0  0  0  0  0  0  0
   19.6648   16.4947   29.7825 O   0  0  0  0  0  0  0  0  0  0  0  0
   25.0798   15.8499   28.8338 C   0  0  2  0  0  0  0  0  0  0  0  0
   23.2755   15.5449   30.3943 C   0  0  1  0  0  0  0  0  0  0  0  0
   22.7039   17.6754   31.6187 C   0  0  2  0  0  0  0  0  0  0  0  0
   22.8311   18.4240   32.9618 C   0  0  0  0  0  0  0  0  0  0  0  0
   21.2511   17.4504   31.3232 C   0  0  2  0  0  0  0  0  0  0  0  0
   21.0614   16.7123   30.0299 C   0  0  1  0  0  0  0  0  0  0  0  0
   21.7528   15.3953   30.1198 C   0  0  1  0  0  0  0  0  0  0  0  0
  5  4  1  1  0  0  0
  5  8  1  0  0  0  0
  5 16  1  0  0  0  0
  8  7  1  1  0  0  0
  8 10  1  0  0  0  0
 10  1  1  6  0  0  0
 10 12  1  0  0  0  0
 11 18  1  0  0  0  0
 12 14  1  0  0  0  0
 14  2  1  6  0  0  0
 14 16  1  0  0  0  0
 16  9  1  1  0  0  0
 17  9  1  6  0  0  0
 17 11  1  0  0  0  0
 17 22  1  0  0  0  0
 18 19  1  1  0  0  0
 18 20  1  0  0  0  0
 19  3  1  0  0  0  0
 20 13  1  6  0  0  0
 20 21  1  0  0  0  0
 21 15  1  1  0  0  0
 21 22  1  0  0  0  0
 22  6  1  6  0  0  0
M  END
>  <CHROM.1>
-39.31111125,116.80578779,-47.35674170,23.93375378,15.82626768,29.93924611
0.63052722,0.28612752,-2.02565074

>  <Name>
2et8_lig

>  <RI>
0

>  <Rbt.Current_Directory>
/home/itssahil/PROJECTS/Mol_Feturizer/New_Systems/rnas/2et8

>  <Rbt.Executable>
rbdock ($Id: //depot/dev/client3/rdock/2013.1/src/exe/rbdock.cxx#4 $)

>  <Rbt.Library>
libRbt.so (2013.1, Build901 2013/11/27)

>  <Rbt.Parameter_File>
/export/apps/rDock/src/rDock_2013.1_src/data/scripts/dock_solv.prm

>  <Rbt.Receptor>
prm/blind_docking_100.prm

>  <SCORE>
-13.4726

>  <SCORE.INTER>
-19.2338

>  <SCORE.INTER.CONST>
1

>  <SCORE.INTER.POLAR>
-1.05434

>  <SCORE.INTER.ROT>
3

>  <SCORE.INTER.SOLV>
18.3925

>  <SCORE.INTER.VDW>
-21.0389

>  <SCORE.INTER.norm>
-0.874263

>  <SCORE.INTRA>
4.58983

>  <SCORE.INTRA.DIHEDRAL>
4.59623

>  <SCORE.INTRA.DIHEDRAL.0>
4.99603

>  <SCORE.INTRA.POLAR>
0

>  <SCORE.INTRA.POLAR.0>
0

>  <SCORE.INTRA.REPUL>
0

>  <SCORE.INTRA.REPUL.0>
0

>  <SCORE.INTRA.SOLV>
3.04702

>  <SCORE.INTRA.SOLV.lig_0>
-74.884

>  <SCORE.INTRA.VDW>
0.768204

>  <SCORE.INTRA.VDW.0>
-0.858933

>  <SCORE.INTRA.norm>
0.208629

>  <SCORE.RESTR>
1.17141

>  <SCORE.RESTR.CAVITY>
1.17141

>  <SCORE.RESTR.norm>
0.0532457

>  <SCORE.SYSTEM>
0

>  <SCORE.SYSTEM.CONST>
0

>  <SCORE.SYSTEM.DIHEDRAL>
0

>  <SCORE.SYSTEM.SOLV>
0

>  <SCORE.SYSTEM.norm>
0

>  <SCORE.heavy>
22

>  <SCORE.norm>
-0.612389

>  <RMSD>
8.788

$$$$
2et8_lig
 OpenBabel11021811433D
libRbt.so/2013.1/901 2013/11/27
 22 23  0  0  0  0  0  0  0  0999 V2000
   28.1512   13.0598   27.5023 N   0  0  0  0  0  0  0  0  0  0  0  0
   23.9157   15.5162   26.7057 N   0  0  0  0  0  0  0  0  0  0  0  0
   22.4907   17.5281   34.0901 N   0  0  0  0  0  0  0  0  0  0  0  0
   26.2603   15.9821   30.9967 O   0  0  0  0  0  0  0  0  0  0  0  0
   25.9068   15.0820   29.9176 C   0  0  2  0  0  0  0  0  0  0  0  0
   21.5399   14.6346   28.8328 N   0  0  0  0  0  0  0  0  0  0  0  0
   28.0380   13.8228   30.1935 O   0  0  0  0  0  0  0  0  0  0  0  0
   27.2215   14.5261   29.2487 C   0  0  1  0  0  0  0  0  0  0  0  0
   23.9300   16.3132   29.4411 O   0  0  0  0  0  0  0  0  0  0  0  0
   26.8849   13.5729   28.1284 C   0  0  1  0  0  0  0  0  0  0  0  0
   23.3862   16.3471   31.6784 O   0  0  0  0  0  0  0  0  0  0  0  0
   26.0171   14.3069   27.0805 C   0  0  0  0  0  0  0  0  0  0  0  0
   20.6119   18.6795   31.2490 O   0  0  0  0  0  0  0  0  0  0  0  0
   24.7281   14.8159   27.7895 C   0  0  1  0  0  0  0  0  0  0  0  0
   19.6491   16.4893   29.7952 O   0  0  0  0  0  0  0  0  0  0  0  0
   25.0652   15.8499   28.8225 C   0  0  2  0  0  0  0  0  0  0  0  0
   23.2639   15.5414   30.3857 C   0  0  1  0  0  0  0  0  0  0  0  0
   22.6992   17.6733   31.6110 C   0  0  2  0  0  0  0  0  0  0  0  0
   22.8345   18.4236   32.9523 C   0  0  0  0  0  0  0  0  0  0  0  0
   21.2446   17.4474   31.3249 C   0  0  2  0  0  0  0  0  0  0  0  0
   21.0471   16.7076   30.0337 C   0  0  1  0  0  0  0  0  0  0  0  0
   21.7395   15.3910   30.1209 C   0  0  1  0  0  0  0  0  0  0  0  0
  5  4  1  1  0  0  0
  5  8  1  0  0  0  0
  5 16  1  0  0  0  0
  8  7  1  1  0  0  0
  8 10  1  0  0  0  0
 10  1  1  6  0  0  0
 10 12  1  0  0  0  0
 11 18  1  0  0  0  0
 12 14  1  0  0  0  0
 14  2  1  6  0  0  0
 14 16  1  0  0  0  0
 16  9  1  1  0  0  0
 17  9  1  6  0  0  0
 17 11  1  0  0  0  0
 17 22  1  0  0  0  0
 18 19  1  1  0  0  0
 18 20  1  0  0  0  0
 19  3  1  0  0  0  0
 20 13  1  6  0  0  0
 20 21  1  0  0  0  0
 21 15  1  1  0  0  0
 21 22  1  0  0  0  0
 22  6  1  6  0  0  0
M  END
>  <CHROM.1>
-39.12519191,116.20686492,-48.03977091,23.92499281,15.82771266,29.93509743
0.63088123,0.28160460,-2.02836749

>  <Name>
2et8_lig

>  <RI>
0

>  <Rbt.Current_Directory>
/home/itssahil/PROJECTS/Mol_Feturizer/New_Systems/rnas/2et8

>  <Rbt.Executable>
rbdock ($Id: //depot/dev/client3/rdock/2013.1/src/exe/rbdock.cxx#4 $)

>  <Rbt.Library>
libRbt.so (2013.1, Build901 2013/11/27)

>  <Rbt.Parameter_File>
/export/apps/rDock/src/rDock_2013.1_src/data/scripts/dock_solv.prm

>  <Rbt.Receptor>
prm/blind_docking_100.prm

>  <SCORE>
-13.4531

>  <SCORE.INTER>
-19.1872

>  <SCORE.INTER.CONST>
1

>  <SCORE.INTER.POLAR>
-1.07559

>  <SCORE.INTER.ROT>
3

>  <SCORE.INTER.SOLV>
18.3432

>  <SCORE.INTER.VDW>
-20.9206

>  <SCORE.INTER.norm>
-0.872146

>  <SCORE.INTRA>
4.56412

>  <SCORE.INTRA.DIHEDRAL>
4.54949

>  <SCORE.INTRA.DIHEDRAL.0>
4.99603

>  <SCORE.INTRA.POLAR>
0

>  <SCORE.INTRA.POLAR.0>
0

>  <SCORE.INTRA.REPUL>
0

>  <SCORE.INTRA.REPUL.0>
0

>  <SCORE.INTRA.SOLV>
3.01099

>  <SCORE.INTRA.SOLV.lig_0>
-74.884

>  <SCORE.INTRA.VDW>
0.783882

>  <SCORE.INTRA.VDW.0>
-0.858933

>  <SCORE.INTRA.norm>
0.20746

>  <SCORE.RESTR>
1.16999

>  <SCORE.RESTR.CAVITY>
1.16999

>  <SCORE.RESTR.norm>
0.0531812

>  <SCORE.SYSTEM>
0

>  <SCORE.SYSTEM.CONST>
0

>  <SCORE.SYSTEM.DIHEDRAL>
0

>  <SCORE.SYSTEM.SOLV>
0

>  <SCORE.SYSTEM.norm>
0

>  <SCORE.heavy>
22

>  <SCORE.norm>
-0.611505

>  <RMSD>
8.788

$$$$
2et8_lig
 OpenBabel11021811433D
libRbt.so/2013.1/901 2013/11/27
 22 23  0  0  0  0  0  0  0  0999 V2000
   28.1333   13.0231   27.4950 N   0  0  0  0  0  0  0  0  0  0  0  0
   23.9019   15.4913   26.7134 N   0  0  0  0  0  0  0  0  0  0  0  0
   22.5129   17.5415   34.0880 N   0  0  0  0  0  0  0  0  0  0  0  0
   26.2818   15.9787   30.9825 O   0  0  0  0  0  0  0  0  0  0  0  0
   25.9162   15.0723   29.9128 C   0  0  2  0  0  0  0  0  0  0  0  0
   21.5459   14.6342   28.8407 N   0  0  0  0  0  0  0  0  0  0  0  0
   28.0443   13.8062   30.1813 O   0  0  0  0  0  0  0  0  0  0  0  0
   27.2233   14.5060   29.2378 C   0  0  1  0  0  0  0  0  0  0  0  0
   23.9408   16.3082   29.4426 O   0  0  0  0  0  0  0  0  0  0  0  0
   26.8740   13.5460   28.1272 C   0  0  1  0  0  0  0  0  0  0  0  0
   23.3974   16.3516   31.6799 O   0  0  0  0  0  0  0  0  0  0  0  0
   26.0011   14.2761   27.0807 C   0  0  0  0  0  0  0  0  0  0  0  0
   20.6296   18.6903   31.2425 O   0  0  0  0  0  0  0  0  0  0  0  0
   24.7198   14.7956   27.7960 C   0  0  1  0  0  0  0  0  0  0  0  0
   19.6604   16.4976   29.7967 O   0  0  0  0  0  0  0  0  0  0  0  0
   25.0692   15.8357   28.8187 C   0  0  2  0  0  0  0  0  0  0  0  0
   23.2726   15.5417   30.3901 C   0  0  1  0  0  0  0  0  0  0  0  0
   22.7142   17.6796   31.6079 C   0  0  2  0  0  0  0  0  0  0  0  0
   22.8518   18.4342   32.9464 C   0  0  0  0  0  0  0  0  0  0  0  0
   21.2589   17.4567   31.3227 C   0  0  2  0  0  0  0  0  0  0  0  0
   21.0591   16.7129   30.0342 C   0  0  1  0  0  0  0  0  0  0  0  0
   21.7478   15.3946   30.1260 C   0  0  1  0  0  0  0  0  0  0  0  0
  5  4  1  1  0  0  0
  5  8  1  0  0  0  0
  5 16  1  0  0  0  0
  8  7  1  1  0  0  0
  8 10  1  0  0  0  0
 10  1  1  6  0  0  0
 10 12  1  0  0  0  0
 11 18  1  0  0  0  0
 12 14  1  0  0  0  0
 14  2  1  6  0  0  0
 14 16  1  0  0  0  0
 16  9  1  1  0  0  0
 17  9  1  6  0  0  0
 17 11  1  0  0  0  0
 17 22  1  0  0  0  0
 18 19  1  1  0  0  0
 18 20  1  0  0  0  0
 19  3  1  0  0  0  0
 20 13  1  6  0  0  0
 20 21  1  0  0  0  0
 21 15  1  1  0  0  0
 21 22  1  0  0  0  0
 22  6  1  6  0  0  0
M  END
>  <CHROM.1>
-39.65511795,116.67180500,-47.72101104,23.93123222,15.82173886,29.93325447
0.63577233,0.28306092,-2.03487962

>  <Name>
2et8_lig

>  <RI>
0

>  <Rbt.Current_Directory>
/home/itssahil/PROJECTS/Mol_Feturizer/New_Systems/rnas/2et8

>  <Rbt.Executable>
rbdock ($Id: //depot/dev/client3/rdock/2013.1/src/exe/rbdock.cxx#4 $)

>  <Rbt.Library>
libRbt.so (2013.1, Build901 2013/11/27)

>  <Rbt.Parameter_File>
/export/apps/rDock/src/rDock_2013.1_src/data/scripts/dock_solv.prm

>  <Rbt.Receptor>
prm/blind_docking_100.prm

>  <SCORE>
-13.3683

>  <SCORE.INTER>
-19.035

>  <SCORE.INTER.CONST>
1

>  <SCORE.INTER.POLAR>
-1.0826

>  <SCORE.INTER.ROT>
3

>  <SCORE.INTER.SOLV>
18.3847

>  <SCORE.INTER.VDW>
-20.8095

>  <SCORE.INTER.norm>
-0.865226

>  <SCORE.INTRA>
4.5259

>  <SCORE.INTRA.DIHEDRAL>
4.50615

>  <SCORE.INTRA.DIHEDRAL.0>
4.99603

>  <SCORE.INTRA.POLAR>
0

>  <SCORE.INTRA.POLAR.0>
0

>  <SCORE.INTRA.REPUL>
0

>  <SCORE.INTRA.REPUL.0>
0

>  <SCORE.INTRA.SOLV>
3.0584

>  <SCORE.INTRA.SOLV.lig_0>
-74.884

>  <SCORE.INTRA.VDW>
0.743622

>  <SCORE.INTRA.VDW.0>
-0.858933

>  <SCORE.INTRA.norm>
0.205723

>  <SCORE.RESTR>
1.14076

>  <SCORE.RESTR.CAVITY>
1.14076

>  <SCORE.RESTR.norm>
0.0518527

>  <SCORE.SYSTEM>
0

>  <SCORE.SYSTEM.CONST>
0

>  <SCORE.SYSTEM.DIHEDRAL>
0

>  <SCORE.SYSTEM.SOLV>
0

>  <SCORE.SYSTEM.norm>
0

>  <SCORE.heavy>
22

>  <SCORE.norm>
-0.607651

>  <RMSD>
8.794

$$$$
2et8_lig
 OpenBabel11021811433D
libRbt.so/2013.1/901 2013/11/27
 22 23  0  0  0  0  0  0  0  0999 V2000
   28.2912   13.1491   27.4964 N   0  0  0  0  0  0  0  0  0  0  0  0
   24.0057   15.4695   26.5703 N   0  0  0  0  0  0  0  0  0  0  0  0
   22.8102   17.3839   34.0712 N   0  0  0  0  0  0  0  0  0  0  0  0
   26.1827   15.9764   30.9441 O   0  0  0  0  0  0  0  0  0  0  0  0
   25.8974   15.0744   29.8467 C   0  0  2  0  0  0  0  0  0  0  0  0
   21.4080   14.6760   28.8158 N   0  0  0  0  0  0  0  0  0  0  0  0
   28.0589   13.8846   30.1876 O   0  0  0  0  0  0  0  0  0  0  0  0
   27.2525   14.5684   29.2200 C   0  0  1  0  0  0  0  0  0  0  0  0
   23.8980   16.2429   29.3104 O   0  0  0  0  0  0  0  0  0  0  0  0
   26.9873   13.6142   28.0816 C   0  0  1  0  0  0  0  0  0  0  0  0
   23.4989   16.2367   31.5783 O   0  0  0  0  0  0  0  0  0  0  0  0
   26.1322   14.3279   27.0095 C   0  0  0  0  0  0  0  0  0  0  0  0
   20.8000   18.6861   31.3865 O   0  0  0  0  0  0  0  0  0  0  0  0
   24.8030   14.7875   27.6767 C   0  0  1  0  0  0  0  0  0  0  0  0
   19.6588   16.5758   29.9438 O   0  0  0  0  0  0  0  0  0  0  0  0
   25.0690   15.8232   28.7286 C   0  0  2  0  0  0  0  0  0  0  0  0
   23.2623   15.4721   30.2765 C   0  0  1  0  0  0  0  0  0  0  0  0
   22.8635   17.5900   31.5883 C   0  0  2  0  0  0  0  0  0  0  0  0
   23.1138   18.2973   32.9363 C   0  0  0  0  0  0  0  0  0  0  0  0
   21.3857   17.4288   31.3909 C   0  0  2  0  0  0  0  0  0  0  0  0
   21.0769   16.7329   30.0971 C   0  0  1  0  0  0  0  0  0  0  0  0
   21.7194   15.3884   30.1068 C   0  0  1  0  0  0  0  0  0  0  0  0
  5  4  1  1  0  0  0
  5  8  1  0  0  0  0
  5 16  1  0  0  0  0
  8  7  1  1  0  0  0
  8 10  1  0  0  0  0
 10  1  1  6  0  0  0
 10 12  1  0  0  0  0
 11 18  1  0  0  0  0
 12 14  1  0  0  0  0
 14  2  1  6  0  0  0
 14 16  1  0  0  0  0
 16  9  1  1  0  0  0
 17  9  1  6  0  0  0
 17 11  1  0  0  0  0
 17 22  1  0  0  0  0
 18 19  1  1  0  0  0
 18 20  1  0  0  0  0
 19  3  1  0  0  0  0
 20 13  1  6  0  0  0
 20 21  1  0  0  0  0
 21 15  1  1  0  0  0
 21 22  1  0  0  0  0
 22  6  1  6  0  0  0
M  END
>  <CHROM.1>
-35.75681793,107.95400779,-47.88786622,23.99477662,15.81324030,29.90748208
-0.63545322,-0.27314824,1.12677315

>  <Name>
2et8_lig

>  <RI>
0

>  <Rbt.Current_Directory>
/home/itssahil/PROJECTS/Mol_Feturizer/New_Systems/rnas/2et8

>  <Rbt.Executable>
rbdock ($Id: //depot/dev/client3/rdock/2013.1/src/exe/rbdock.cxx#4 $)

>  <Rbt.Library>
libRbt.so (2013.1, Build901 2013/11/27)

>  <Rbt.Parameter_File>
/export/apps/rDock/src/rDock_2013.1_src/data/scripts/dock_solv.prm

>  <Rbt.Receptor>
prm/blind_docking_100.prm

>  <SCORE>
-13.1037

>  <SCORE.INTER>
-18.9631

>  <SCORE.INTER.CONST>
1

>  <SCORE.INTER.POLAR>
-1.09545

>  <SCORE.INTER.ROT>
3

>  <SCORE.INTER.SOLV>
17.7465

>  <SCORE.INTER.VDW>
-20.506

>  <SCORE.INTER.norm>
-0.861957

>  <SCORE.INTRA>
4.61046

>  <SCORE.INTRA.DIHEDRAL>
4.52326

>  <SCORE.INTRA.DIHEDRAL.0>
4.99603

>  <SCORE.INTRA.POLAR>
0

>  <SCORE.INTRA.POLAR.0>
0

>  <SCORE.INTRA.REPUL>
0

>  <SCORE.INTRA.REPUL.0>
0

>  <SCORE.INTRA.SOLV>
2.4757

>  <SCORE.INTRA.SOLV.lig_0>
-74.884

>  <SCORE.INTRA.VDW>
1.11097

>  <SCORE.INTRA.VDW.0>
-0.858933

>  <SCORE.INTRA.norm>
0.209566

>  <SCORE.RESTR>
1.24887

>  <SCORE.RESTR.CAVITY>
1.24887

>  <SCORE.RESTR.norm>
0.0567667

>  <SCORE.SYSTEM>
0

>  <SCORE.SYSTEM.CONST>
0

>  <SCORE.SYSTEM.DIHEDRAL>
0

>  <SCORE.SYSTEM.SOLV>
0

>  <SCORE.SYSTEM.norm>
0

>  <SCORE.heavy>
22

>  <SCORE.norm>
-0.595624

>  <RMSD>
8.801

$$$$
2et8_lig
 OpenBabel11021811433D
libRbt.so/2013.1/901 2013/11/27
 22 23  0  0  0  0  0  0  0  0999 V2000
   28.2821   13.1577   27.4895 N   0  0  0  0  0  0  0  0  0  0  0  0
   24.0003   15.4885   26.5722 N   0  0  0  0  0  0  0  0  0  0  0  0
   22.6671   17.4510   34.0639 N   0  0  0  0  0  0  0  0  0  0  0  0
   26.1833   15.9835   30.9444 O   0  0  0  0  0  0  0  0  0  0  0  0
   25.8949   15.0839   29.8457 C   0  0  2  0  0  0  0  0  0  0  0  0
   21.4171   14.6771   28.8129 N   0  0  0  0  0  0  0  0  0  0  0  0
   28.0544   13.8892   30.1822 O   0  0  0  0  0  0  0  0  0  0  0  0
   27.2483   14.5763   29.2167 C   0  0  1  0  0  0  0  0  0  0  0  0
   23.8973   16.2574   29.3137 O   0  0  0  0  0  0  0  0  0  0  0  0
   26.9798   13.6246   28.0769 C   0  0  1  0  0  0  0  0  0  0  0  0
   23.4885   16.2558   31.5798 O   0  0  0  0  0  0  0  0  0  0  0  0
   26.1250   14.3418   27.0070 C   0  0  0  0  0  0  0  0  0  0  0  0
   20.7785   18.6916   31.3693 O   0  0  0  0  0  0  0  0  0  0  0  0
   24.7974   14.8029   27.6765 C   0  0  1  0  0  0  0  0  0  0  0  0
   19.6538   16.5716   29.9278 O   0  0  0  0  0  0  0  0  0  0  0  0
   25.0668   15.8363   28.7298 C   0  0  2  0  0  0  0  0  0  0  0  0
   23.2612   15.4863   30.2793 C   0  0  1  0  0  0  0  0  0  0  0  0
   22.8464   17.6061   31.5831 C   0  0  2  0  0  0  0  0  0  0  0  0
   23.0875   18.3185   32.9302 C   0  0  0  0  0  0  0  0  0  0  0  0
   21.3703   17.4371   31.3799 C   0  0  2  0  0  0  0  0  0  0  0  0
   21.0705   16.7360   30.0868 C   0  0  1  0  0  0  0  0  0  0  0  0
   21.7194   15.3947   30.1031 C   0  0  1  0  0  0  0  0  0  0  0  0
  5  4  1  1  0  0  0
  5  8  1  0  0  0  0
  5 16  1  0  0  0  0
  8  7  1  1  0  0  0
  8 10  1  0  0  0  0
 10  1  1  6  0  0  0
 10 12  1  0  0  0  0
 11 18  1  0  0  0  0
 12 14  1  0  0  0  0
 14  2  1  6  0  0  0
 14 16  1  0  0  0  0
 16  9  1  1  0  0  0
 17  9  1  6  0  0  0
 17 11  1  0  0  0  0
 17 22  1  0  0  0  0
 18 19  1  1  0  0  0
 18 20  1  0  0  0  0
 19  3  1  0  0  0  0
 20 13  1  6  0  0  0
 20 21  1  0  0  0  0
 21 15  1  1  0  0  0
 21 22  1  0  0  0  0
 22  6  1  6  0  0  0
M  END
>  <CHROM.1>
-35.75254998,108.51854474,-53.00945699,23.98181206,15.82595915,29.90319379
-0.63577400,-0.27213070,1.12537810

>  <Name>
2et8_lig

>  <RI>
0

>  <Rbt.Current_Directory>
/home/itssahil/PROJECTS/Mol_Feturizer/New_Systems/rnas/2et8

>  <Rbt.Executable>
rbdock ($Id: //depot/dev/client3/rdock/2013.1/src/exe/rbdock.cxx#4 $)

>  <Rbt.Library>
libRbt.so (2013.1, Build901 2013/11/27)

>  <Rbt.Parameter_File>
/export/apps/rDock/src/rDock_2013.1_src/data/scripts/dock_solv.prm

>  <Rbt.Receptor>
prm/blind_docking_100.prm

>  <SCORE>
-13.1306

>  <SCORE.INTER>
-18.9084

>  <SCORE.INTER.CONST>
1

>  <SCORE.INTER.POLAR>
-1.09545

>  <SCORE.INTER.ROT>
3

>  <SCORE.INTER.SOLV>
17.8137

>  <SCORE.INTER.VDW>
-20.492

>  <SCORE.INTER.norm>
-0.859473

>  <SCORE.INTRA>
4.52592

>  <SCORE.INTRA.DIHEDRAL>
4.24481

>  <SCORE.INTRA.DIHEDRAL.0>
4.99603

>  <SCORE.INTRA.POLAR>
0

>  <SCORE.INTRA.POLAR.0>
0

>  <SCORE.INTRA.REPUL>
0

>  <SCORE.INTRA.REPUL.0>
0

>  <SCORE.INTRA.SOLV>
2.57686

>  <SCORE.INTRA.SOLV.lig_0>
-74.884

>  <SCORE.INTRA.VDW>
1.11508

>  <SCORE.INTRA.VDW.0>
-0.858933

>  <SCORE.INTRA.norm>
0.205723

>  <SCORE.RESTR>
1.25186

>  <SCORE.RESTR.CAVITY>
1.25186

>  <SCORE.RESTR.norm>
0.0569025

>  <SCORE.SYSTEM>
0

>  <SCORE.SYSTEM.CONST>
0

>  <SCORE.SYSTEM.DIHEDRAL>
0

>  <SCORE.SYSTEM.SOLV>
0

>  <SCORE.SYSTEM.norm>
0

>  <SCORE.heavy>
22

>  <SCORE.norm>
-0.596847

>  <RMSD>
8.807

$$$$
2et8_lig
 OpenBabel11021811433D
libRbt.so/2013.1/901 2013/11/27
 22 23  0  0  0  0  0  0  0  0999 V2000
   28.3441   13.4739   27.2831 N   0  0  0  0  0  0  0  0  0  0  0  0
   23.7388   15.2945   26.9917 N   0  0  0  0  0  0  0  0  0  0  0  0
   19.4663   18.5028   29.9793 N   0  0  0  0  0  0  0  0  0  0  0  0
   26.2949   15.7246   31.1640 O   0  0  0  0  0  0  0  0  0  0  0  0
   26.0033   14.8840   30.0204 C   0  0  2  0  0  0  0  0  0  0  0  0
   24.5387   16.4805   32.6131 N   0  0  0  0  0  0  0  0  0  0  0  0
   28.3149   13.9566   30.0405 O   0  0  0  0  0  0  0  0  0  0  0  0
   27.3342   14.6069   29.2223 C   0  0  1  0  0  0  0  0  0  0  0  0
   23.8334   15.8266   29.7891 O   0  0  0  0  0  0  0  0  0  0  0  0
   27.0642   13.7205   28.0314 C   0  0  1  0  0  0  0  0  0  0  0  0
   22.2865   17.5317   29.7388 O   0  0  0  0  0  0  0  0  0  0  0  0
   26.0207   14.4024   27.1170 C   0  0  0  0  0  0  0  0  0  0  0  0
   19.8596   15.7588   31.8096 O   0  0  0  0  0  0  0  0  0  0  0  0
   24.7252   14.6337   27.9485 C   0  0  1  0  0  0  0  0  0  0  0  0
   21.9500   16.0652   33.6464 O   0  0  0  0  0  0  0  0  0  0  0  0
   24.9770   15.6077   29.0611 C   0  0  2  0  0  0  0  0  0  0  0  0
   23.5884   17.0586   30.3840 C   0  0  1  0  0  0  0  0  0  0  0  0
   21.1235   16.6426   30.0428 C   0  0  2  0  0  0  0  0  0  0  0  0
   19.8374   17.1883   29.3883 C   0  0  0  0  0  0  0  0  0  0  0  0
   20.9302   16.5950   31.5291 C   0  0  2  0  0  0  0  0  0  0  0  0
   22.1566   16.0822   32.2265 C   0  0  1  0  0  0  0  0  0  0  0  0
   23.3029   16.9802   31.9101 C   0  0  1  0  0  0  0  0  0  0  0  0
  5  4  1  1  0  0  0
  5  8  1  0  0  0  0
  5 16  1  0  0  0  0
  8  7  1  1  0  0  0
  8 10  1  0  0  0  0
 10  1  1  6  0  0  0
 10 12  1  0  0  0  0
 11 18  1  0  0  0  0
 12 14  1  0  0  0  0
 14  2  1  6  0  0  0
 14 16  1  0  0  0  0
 16  9  1  1  0  0  0
 17  9  1  6  0  0  0
 17 11  1  0  0  0  0
 17 22  1  0  0  0  0
 18 19  1  6  0  0  0
 18 20  1  0  0  0  0
 19  3  1  0  0  0  0
 20 13  1  6  0  0  0
 20 21  1  0  0  0  0
 21 15  1  1  0  0  0
 21 22  1  0  0  0  0
 22  6  1  1  0  0  0
M  END
>  <CHROM.1>
97.71871835,119.50919952,-64.70693481,23.88238478,15.77789256,30.03548873
0.41016116,0.35975381,-1.68408742

>  <Name>
2et8_lig

>  <RI>
0

>  <Rbt.Current_Directory>
/home/itssahil/PROJECTS/Mol_Feturizer/New_Systems/rnas/2et8

>  <Rbt.Executable>
rbdock ($Id: //depot/dev/client3/rdock/2013.1/src/exe/rbdock.cxx#4 $)

>  <Rbt.Library>
libRbt.so (2013.1, Build901 2013/11/27)

>  <Rbt.Parameter_File>
/export/apps/rDock/src/rDock_2013.1_src/data/scripts/dock_solv.prm

>  <Rbt.Receptor>
prm/blind_docking_100.prm

>  <SCORE>
-11.9417

>  <SCORE.INTER>
-18.0733

>  <SCORE.INTER.CONST>
1

>  <SCORE.INTER.POLAR>
-0.976514

>  <SCORE.INTER.ROT>
3

>  <SCORE.INTER.SOLV>
21.8571

>  <SCORE.INTER.VDW>
-21.6795

>  <SCORE.INTER.norm>
-0.821512

>  <SCORE.INTRA>
5.2731

>  <SCORE.INTRA.DIHEDRAL>
7.17053

>  <SCORE.INTRA.DIHEDRAL.0>
4.99603

>  <SCORE.INTRA.POLAR>
0

>  <SCORE.INTRA.POLAR.0>
0

>  <SCORE.INTRA.REPUL>
0

>  <SCORE.INTRA.REPUL.0>
0

>  <SCORE.INTRA.SOLV>
3.06617

>  <SCORE.INTRA.SOLV.lig_0>
-74.884

>  <SCORE.INTRA.VDW>
0.154748

>  <SCORE.INTRA.VDW.0>
-0.858933

>  <SCORE.INTRA.norm>
0.239686

>  <SCORE.RESTR>
0.858494

>  <SCORE.RESTR.CAVITY>
0.858494

>  <SCORE.RESTR.norm>
0.0390225

>  <SCORE.SYSTEM>
0

>  <SCORE.SYSTEM.CONST>
0

>  <SCORE.SYSTEM.DIHEDRAL>
0

>  <SCORE.SYSTEM.SOLV>
0

>  <SCORE.SYSTEM.norm>
0

>  <SCORE.heavy>
22

>  <SCORE.norm>
-0.542803

>  <RMSD>
8.808

$$$$
2et8_lig
 OpenBabel11021811433D
libRbt.so/2013.1/901 2013/11/27
 22 23  0  0  0  0  0  0  0  0999 V2000
   28.3447   13.4684   27.2862 N   0  0  0  0  0  0  0  0  0  0  0  0
   23.7467   15.3063   26.9889 N   0  0  0  0  0  0  0  0  0  0  0  0
   19.4760   18.5116   29.9748 N   0  0  0  0  0  0  0  0  0  0  0  0
   26.2955   15.7185   31.1674 O   0  0  0  0  0  0  0  0  0  0  0  0
   26.0032   14.8813   30.0215 C   0  0  2  0  0  0  0  0  0  0  0  0
   24.5504   16.4935   32.6080 N   0  0  0  0  0  0  0  0  0  0  0  0
   28.3115   13.9456   30.0446 O   0  0  0  0  0  0  0  0  0  0  0  0
   27.3348   14.6010   29.2257 C   0  0  1  0  0  0  0  0  0  0  0  0
   23.8373   15.8323   29.7876 O   0  0  0  0  0  0  0  0  0  0  0  0
   27.0641   13.7181   28.0323 C   0  0  1  0  0  0  0  0  0  0  0  0
   22.2889   17.5360   29.7377 O   0  0  0  0  0  0  0  0  0  0  0  0
   26.0250   14.4057   27.1171 C   0  0  0  0  0  0  0  0  0  0  0  0
   19.8695   15.7662   31.8200 O   0  0  0  0  0  0  0  0  0  0  0  0
   24.7286   14.6400   27.9464 C   0  0  1  0  0  0  0  0  0  0  0  0
   21.9650   16.0788   33.6499 O   0  0  0  0  0  0  0  0  0  0  0  0
   24.9816   15.6107   29.0616 C   0  0  2  0  0  0  0  0  0  0  0  0
   23.5931   17.0655   30.3803 C   0  0  1  0  0  0  0  0  0  0  0  0
   21.1275   16.6468   30.0473 C   0  0  2  0  0  0  0  0  0  0  0  0
   19.8390   17.1899   29.3953 C   0  0  0  0  0  0  0  0  0  0  0  0
   20.9386   16.6026   31.5343 C   0  0  2  0  0  0  0  0  0  0  0  0
   22.1675   16.0925   32.2293 C   0  0  1  0  0  0  0  0  0  0  0  0
   23.3121   16.9906   31.9074 C   0  0  1  0  0  0  0  0  0  0  0  0
  5  4  1  1  0  0  0
  5  8  1  0  0  0  0
  5 16  1  0  0  0  0
  8  7  1  1  0  0  0
  8 10  1  0  0  0  0
 10  1  1  6  0  0  0
 10 12  1  0  0  0  0
 11 18  1  0  0  0  0
 12 14  1  0  0  0  0
 14  2  1  6  0  0  0
 14 16  1  0  0  0  0
 16  9  1  1  0  0  0
 17  9  1  6  0  0  0
 17 11  1  0  0  0  0
 17 22  1  0  0  0  0
 18 19  1  6  0  0  0
 18 20  1  0  0  0  0
 19  3  1  0  0  0  0
 20 13  1  6  0  0  0
 20 21  1  0  0  0  0
 21 15  1  1  0  0  0
 21 22  1  0  0  0  0
 22  6  1  1  0  0  0
M  END
>  <CHROM.1>
97.96949379,119.78921698,-64.15825179,23.88739557,15.78167527,30.03677644
0.41058758,0.36181219,-1.68401460

>  <Name>
2et8_lig

>  <RI>
0

>  <Rbt.Current_Directory>
/home/itssahil/PROJECTS/Mol_Feturizer/New_Systems/rnas/2et8

>  <Rbt.Executable>
rbdock ($Id: //depot/dev/client3/rdock/2013.1/src/exe/rbdock.cxx#4 $)

>  <Rbt.Library>
libRbt.so (2013.1, Build901 2013/11/27)

>  <Rbt.Parameter_File>
/export/apps/rDock/src/rDock_2013.1_src/data/scripts/dock_solv.prm

>  <Rbt.Receptor>
prm/blind_docking_100.prm

>  <SCORE>
-11.888

>  <SCORE.INTER>
-18.0684

>  <SCORE.INTER.CONST>
1

>  <SCORE.INTER.POLAR>
-0.976153

>  <SCORE.INTER.ROT>
3

>  <SCORE.INTER.SOLV>
21.9107

>  <SCORE.INTER.VDW>
-21.6953

>  <SCORE.INTER.norm>
-0.82129

>  <SCORE.INTRA>
5.33263

>  <SCORE.INTRA.DIHEDRAL>
7.19616

>  <SCORE.INTRA.DIHEDRAL.0>
4.99603

>  <SCORE.INTRA.POLAR>
0

>  <SCORE.INTRA.POLAR.0>
0

>  <SCORE.INTRA.REPUL>
0

>  <SCORE.INTRA.REPUL.0>
0

>  <SCORE.INTRA.SOLV>
3.06749

>  <SCORE.INTRA.SOLV.lig_0>
-74.884

>  <SCORE.INTRA.VDW>
0.200812

>  <SCORE.INTRA.VDW.0>
-0.858933

>  <SCORE.INTRA.norm>
0.242392

>  <SCORE.RESTR>
0.847757

>  <SCORE.RESTR.CAVITY>
0.847757

>  <SCORE.RESTR.norm>
0.0385344

>  <SCORE.SYSTEM>
0

>  <SCORE.SYSTEM.CONST>
0

>  <SCORE.SYSTEM.DIHEDRAL>
0

>  <SCORE.SYSTEM.SOLV>
0

>  <SCORE.SYSTEM.norm>
0

>  <SCORE.heavy>
22

>  <SCORE.norm>
-0.540363

>  <RMSD>
8.810

$$$$
2et8_lig
 OpenBabel11021811433D
libRbt.so/2013.1/901 2013/11/27
 22 23  0  0  0  0  0  0  0  0999 V2000
   28.3431   13.4440   27.2929 N   0  0  0  0  0  0  0  0  0  0  0  0
   23.7486   15.2896   26.9907 N   0  0  0  0  0  0  0  0  0  0  0  0
   19.4986   18.5204   29.9454 N   0  0  0  0  0  0  0  0  0  0  0  0
   26.2983   15.7086   31.1680 O   0  0  0  0  0  0  0  0  0  0  0  0
   26.0044   14.8688   30.0244 C   0  0  2  0  0  0  0  0  0  0  0  0
   24.5570   16.4962   32.6045 N   0  0  0  0  0  0  0  0  0  0  0  0
   28.3108   13.9288   30.0500 O   0  0  0  0  0  0  0  0  0  0  0  0
   27.3354   14.5838   29.2293 C   0  0  1  0  0  0  0  0  0  0  0  0
   23.8402   15.8232   29.7880 O   0  0  0  0  0  0  0  0  0  0  0  0
   27.0630   13.6981   28.0384 C   0  0  1  0  0  0  0  0  0  0  0  0
   22.2927   17.5275   29.7325 O   0  0  0  0  0  0  0  0  0  0  0  0
   26.0252   14.3852   27.1213 C   0  0  0  0  0  0  0  0  0  0  0  0
   19.8748   15.7681   31.8253 O   0  0  0  0  0  0  0  0  0  0  0  0
   24.7293   14.6241   27.9500 C   0  0  1  0  0  0  0  0  0  0  0  0
   21.9727   16.0874   33.6513 O   0  0  0  0  0  0  0  0  0  0  0  0
   24.9841   15.5974   29.0625 C   0  0  2  0  0  0  0  0  0  0  0  0
   23.5974   17.0590   30.3756 C   0  0  1  0  0  0  0  0  0  0  0  0
   21.1312   16.6403   30.0473 C   0  0  2  0  0  0  0  0  0  0  0  0
   19.8422   17.1813   29.3945 C   0  0  0  0  0  0  0  0  0  0  0  0
   20.9440   16.6027   31.5347 C   0  0  2  0  0  0  0  0  0  0  0  0
   22.1734   16.0949   32.2305 C   0  0  1  0  0  0  0  0  0  0  0  0
   23.3182   16.9909   31.9033 C   0  0  1  0  0  0  0  0  0  0  0  0
  5  4  1  1  0  0  0
  5  8  1  0  0  0  0
  5 16  1  0  0  0  0
  8  7  1  1  0  0  0
  8 10  1  0  0  0  0
 10  1  1  6  0  0  0
 10 12  1  0  0  0  0
 11 18  1  0  0  0  0
 12 14  1  0  0  0  0
 14  2  1  6  0  0  0
 14 16  1  0  0  0  0
 16  9  1  1  0  0  0
 17  9  1  6  0  0  0
 17 11  1  0  0  0  0
 17 22  1  0  0  0  0
 18 19  1  6  0  0  0
 18 20  1  0  0  0  0
 19  3  1  0  0  0  0
 20 13  1  6  0  0  0
 20 21  1  0  0  0  0
 21 15  1  1  0  0  0
 21 22  1  0  0  0  0
 22  6  1  1  0  0  0
M  END
>  <CHROM.1>
98.06617547,119.84579836,-62.80718869,23.89122530,15.77354174,30.03664502
0.41078778,0.36396838,-1.68675874

>  <Name>
2et8_lig

>  <RI>
0

>  <Rbt.Current_Directory>
/home/itssahil/PROJECTS/Mol_Feturizer/New_Systems/rnas/2et8

>  <Rbt.Executable>
rbdock ($Id: //depot/dev/client3/rdock/2013.1/src/exe/rbdock.cxx#4 $)

>  <Rbt.Library>
libRbt.so (2013.1, Build901 2013/11/27)

>  <Rbt.Parameter_File>
/export/apps/rDock/src/rDock_2013.1_src/data/scripts/dock_solv.prm

>  <Rbt.Receptor>
prm/blind_docking_100.prm

>  <SCORE>
-11.859

>  <SCORE.INTER>
-18.0029

>  <SCORE.INTER.CONST>
1

>  <SCORE.INTER.POLAR>
-0.972569

>  <SCORE.INTER.ROT>
3

>  <SCORE.INTER.SOLV>
21.996

>  <SCORE.INTER.VDW>
-21.692

>  <SCORE.INTER.norm>
-0.818312

>  <SCORE.INTRA>
5.30594

>  <SCORE.INTRA.DIHEDRAL>
7.1788

>  <SCORE.INTRA.DIHEDRAL.0>
4.99603

>  <SCORE.INTRA.POLAR>
0

>  <SCORE.INTRA.POLAR.0>
0

>  <SCORE.INTRA.REPUL>
0

>  <SCORE.INTRA.REPUL.0>
0

>  <SCORE.INTRA.SOLV>
3.05183

>  <SCORE.INTRA.SOLV.lig_0>
-74.884

>  <SCORE.INTRA.VDW>
0.190626

>  <SCORE.INTRA.VDW.0>
-0.858933

>  <SCORE.INTRA.norm>
0.241179

>  <SCORE.RESTR>
0.837911

>  <SCORE.RESTR.CAVITY>
0.837911

>  <SCORE.RESTR.norm>
0.0380869

>  <SCORE.SYSTEM>
0

>  <SCORE.SYSTEM.CONST>
0

>  <SCORE.SYSTEM.DIHEDRAL>
0

>  <SCORE.SYSTEM.SOLV>
0

>  <SCORE.SYSTEM.norm>
0

>  <SCORE.heavy>
22

>  <SCORE.norm>
-0.539046

>  <RMSD>
8.812

$$$$
2et8_lig
 OpenBabel11021811433D
libRbt.so/2013.1/901 2013/11/27
 22 23  0  0  0  0  0  0  0  0999 V2000
   28.3049   13.4525   27.2623 N   0  0  0  0  0  0  0  0  0  0  0  0
   23.7091   15.2997   26.9900 N   0  0  0  0  0  0  0  0  0  0  0  0
   19.4738   18.5298   29.9561 N   0  0  0  0  0  0  0  0  0  0  0  0
   26.2847   15.7146   31.1517 O   0  0  0  0  0  0  0  0  0  0  0  0
   25.9836   14.8758   30.0093 C   0  0  2  0  0  0  0  0  0  0  0  0
   24.5376   16.5033   32.6031 N   0  0  0  0  0  0  0  0  0  0  0  0
   28.2898   13.9351   30.0199 O   0  0  0  0  0  0  0  0  0  0  0  0
   27.3095   14.5910   29.2058 C   0  0  1  0  0  0  0  0  0  0  0  0
   23.8182   15.8310   29.7870 O   0  0  0  0  0  0  0  0  0  0  0  0
   27.0296   13.7064   28.0159 C   0  0  1  0  0  0  0  0  0  0  0  0
   22.2738   17.5381   29.7319 O   0  0  0  0  0  0  0  0  0  0  0  0
   25.9863   14.3944   27.1058 C   0  0  0  0  0  0  0  0  0  0  0  0
   19.8537   15.7836   31.8262 O   0  0  0  0  0  0  0  0  0  0  0  0
   24.6955   14.6331   27.9426 C   0  0  1  0  0  0  0  0  0  0  0  0
   21.9530   16.0994   33.6512 O   0  0  0  0  0  0  0  0  0  0  0  0
   24.9576   15.6055   29.0543 C   0  0  2  0  0  0  0  0  0  0  0  0
   23.5779   17.0674   30.3745 C   0  0  1  0  0  0  0  0  0  0  0  0
   21.1108   16.6531   30.0474 C   0  0  2  0  0  0  0  0  0  0  0  0
   19.8226   17.1963   29.3951 C   0  0  0  0  0  0  0  0  0  0  0  0
   20.9243   16.6161   31.5349 C   0  0  2  0  0  0  0  0  0  0  0  0
   22.1531   16.1062   32.2303 C   0  0  1  0  0  0  0  0  0  0  0  0
   23.2993   17.0001   31.9023 C   0  0  1  0  0  0  0  0  0  0  0  0
  5  4  1  1  0  0  0
  5  8  1  0  0  0  0
  5 16  1  0  0  0  0
  8  7  1  1  0  0  0
  8 10  1  0  0  0  0
 10  1  1  6  0  0  0
 10 12  1  0  0  0  0
 11 18  1  0  0  0  0
 12 14  1  0  0  0  0
 14  2  1  6  0  0  0
 14 16  1  0  0  0  0
 16  9  1  1  0  0  0
 17  9  1  6  0  0  0
 17 11  1  0  0  0  0
 17 22  1  0  0  0  0
 18 19  1  6  0  0  0
 18 20  1  0  0  0  0
 19  3  1  0  0  0  0
 20 13  1  6  0  0  0
 20 21  1  0  0  0  0
 21 15  1  1  0  0  0
 21 22  1  0  0  0  0
 22  6  1  1  0  0  0
M  END
>  <CHROM.1>
98.21697691,119.44953304,-63.39643431,23.86704339,15.78319455,30.02924320
0.41513010,0.36387096,-1.68858447

>  <Name>
2et8_lig

>  <RI>
0

>  <Rbt.Current_Directory>
/home/itssahil/PROJECTS/Mol_Feturizer/New_Systems/rnas/2et8

>  <Rbt.Executable>
rbdock ($Id: //depot/dev/client3/rdock/2013.1/src/exe/rbdock.cxx#4 $)

>  <Rbt.Library>
libRbt.so (2013.1, Build901 2013/11/27)

>  <Rbt.Parameter_File>
/export/apps/rDock/src/rDock_2013.1_src/data/scripts/dock_solv.prm

>  <Rbt.Receptor>
prm/blind_docking_100.prm

>  <SCORE>
-11.9221

>  <SCORE.INTER>
-18.0167

>  <SCORE.INTER.CONST>
1

>  <SCORE.INTER.POLAR>
-0.989036

>  <SCORE.INTER.ROT>
3

>  <SCORE.INTER.SOLV>
21.9398

>  <SCORE.INTER.VDW>
-21.6276

>  <SCORE.INTER.norm>
-0.81894

>  <SCORE.INTRA>
5.22376

>  <SCORE.INTRA.DIHEDRAL>
7.2156

>  <SCORE.INTRA.DIHEDRAL.0>
4.99603

>  <SCORE.INTRA.POLAR>
0

>  <SCORE.INTRA.POLAR.0>
0

>  <SCORE.INTRA.REPUL>
0

>  <SCORE.INTRA.REPUL.0>
0

>  <SCORE.INTRA.SOLV>
3.0517

>  <SCORE.INTRA.SOLV.lig_0>
-74.884

>  <SCORE.INTRA.VDW>
0.0901159

>  <SCORE.INTRA.VDW.0>
-0.858933

>  <SCORE.INTRA.norm>
0.237444

>  <SCORE.RESTR>
0.87082

>  <SCORE.RESTR.CAVITY>
0.87082

>  <SCORE.RESTR.norm>
0.0395827

>  <SCORE.SYSTEM>
0

>  <SCORE.SYSTEM.CONST>
0

>  <SCORE.SYSTEM.DIHEDRAL>
0

>  <SCORE.SYSTEM.SOLV>
0

>  <SCORE.SYSTEM.norm>
0

>  <SCORE.heavy>
22

>  <SCORE.norm>
-0.541913

>  <RMSD>
8.814

$$$$
2et8_lig
 OpenBabel11021811433D
libRbt.so/2013.1/901 2013/11/27
 22 23  0  0  0  0  0  0  0  0999 V2000
   28.0422   12.9914   27.5993 N   0  0  0  0  0  0  0  0  0  0  0  0
   23.7590   15.3286   26.7050 N   0  0  0  0  0  0  0  0  0  0  0  0
   22.5130   19.7007   33.0034 N   0  0  0  0  0  0  0  0  0  0  0  0
   26.0912   16.0141   30.9732 O   0  0  0  0  0  0  0  0  0  0  0  0
   25.7564   15.0643   29.9315 C   0  0  2  0  0  0  0  0  0  0  0  0
   21.2273   14.7410   28.8825 N   0  0  0  0  0  0  0  0  0  0  0  0
   27.9122   13.8600   30.2575 O   0  0  0  0  0  0  0  0  0  0  0  0
   27.0823   14.5081   29.2852 C   0  0  1  0  0  0  0  0  0  0  0  0
   23.7557   16.2355   29.4060 O   0  0  0  0  0  0  0  0  0  0  0  0
   26.7655   13.5040   28.2044 C   0  0  1  0  0  0  0  0  0  0  0  0
   23.3370   16.2298   31.6703 O   0  0  0  0  0  0  0  0  0  0  0  0
   25.8838   14.1776   27.1279 C   0  0  0  0  0  0  0  0  0  0  0  0
   20.7092   18.7546   31.4676 O   0  0  0  0  0  0  0  0  0  0  0  0
   24.5845   14.6890   27.8161 C   0  0  1  0  0  0  0  0  0  0  0  0
   19.5221   16.6837   30.0049 O   0  0  0  0  0  0  0  0  0  0  0  0
   24.9003   15.7704   28.8064 C   0  0  2  0  0  0  0  0  0  0  0  0
   23.0904   15.4782   30.3628 C   0  0  1  0  0  0  0  0  0  0  0  0
   22.7395   17.6003   31.6815 C   0  0  2  0  0  0  0  0  0  0  0  0
   22.9979   18.2941   33.0351 C   0  0  0  0  0  0  0  0  0  0  0  0
   21.2596   17.4813   31.4708 C   0  0  2  0  0  0  0  0  0  0  0  0
   20.9426   16.8004   30.1710 C   0  0  1  0  0  0  0  0  0  0  0  0
   21.5473   15.4385   30.1796 C   0  0  1  0  0  0  0  0  0  0  0  0
  5  4  1  1  0  0  0
  5  8  1  0  0  0  0
  5 16  1  0  0  0  0
  8  7  1  1  0  0  0
  8 10  1  0  0  0  0
 10  1  1  6  0  0  0
 10 12  1  0  0  0  0
 11 18  1  0  0  0  0
 12 14  1  0  0  0  0
 14  2  1  6  0  0  0
 14 16  1  0  0  0  0
 16  9  1  1  0  0  0
 17  9  1  6  0  0  0
 17 11  1  0  0  0  0
 17 22  1  0  0  0  0
 18 19  1  1  0  0  0
 18 20  1  0  0  0  0
 19  3  1  0  0  0  0
 20 13  1  6  0  0  0
 20 21  1  0  0  0  0
 21 15  1  1  0  0  0
 21 22  1  0  0  0  0
 22  6  1  6  0  0  0
M  END
>  <CHROM.1>
-40.35805018,109.68536487,174.84317333,23.82547464,15.90328814,29.94256428
-0.69142117,-0.23805631,0.95856528

>  <Name>
2et8_lig

>  <RI>
224

>  <Rbt.Current_Directory>
/home/itssahil/PROJECTS/Mol_Feturizer/New_Systems/rnas/2et8

>  <Rbt.Executable>
rbdock ($Id: //depot/dev/client3/rdock/2013.1/src/exe/rbdock.cxx#4 $)

>  <Rbt.Library>
libRbt.so (2013.1, Build901 2013/11/27)

>  <Rbt.Parameter_File>
/export/apps/rDock/src/rDock_2013.1_src/data/scripts/dock_solv.prm

>  <Rbt.Receptor>
prm/blind_docking_60.prm

>  <SCORE>
-11.6314

>  <SCORE.INTER>
-17.3491

>  <SCORE.INTER.CONST>
1

>  <SCORE.INTER.POLAR>
-1.09545

>  <SCORE.INTER.ROT>
3

>  <SCORE.INTER.SOLV>
20.3881

>  <SCORE.INTER.VDW>
-20.3106

>  <SCORE.INTER.norm>
-0.788596

>  <SCORE.INTRA>
4.32098

>  <SCORE.INTRA.DIHEDRAL>
3.51327

>  <SCORE.INTRA.DIHEDRAL.0>
4.99603

>  <SCORE.INTRA.POLAR>
0

>  <SCORE.INTRA.POLAR.0>
0

>  <SCORE.INTRA.REPUL>
0

>  <SCORE.INTRA.REPUL.0>
0

>  <SCORE.INTRA.SOLV>
2.69217

>  <SCORE.INTRA.SOLV.lig_0>
-74.884

>  <SCORE.INTRA.VDW>
1.21826

>  <SCORE.INTRA.VDW.0>
-0.858933

>  <SCORE.INTRA.norm>
0.196408

>  <SCORE.RESTR>
1.39675

>  <SCORE.RESTR.CAVITY>
1.39675

>  <SCORE.RESTR.norm>
0.0634888

>  <SCORE.SYSTEM>
0

>  <SCORE.SYSTEM.CONST>
0

>  <SCORE.SYSTEM.DIHEDRAL>
0

>  <SCORE.SYSTEM.SOLV>
0

>  <SCORE.SYSTEM.norm>
0

>  <SCORE.heavy>
22

>  <SCORE.norm>
-0.528699

>  <RMSD>
8.829

$$$$
2et8_lig
 OpenBabel11021811433D
libRbt.so/2013.1/901 2013/11/27
 22 23  0  0  0  0  0  0  0  0999 V2000
   28.1036   12.9994   27.4972 N   0  0  0  0  0  0  0  0  0  0  0  0
   23.9142   15.5627   26.8003 N   0  0  0  0  0  0  0  0  0  0  0  0
   24.1573   18.5394   33.4759 N   0  0  0  0  0  0  0  0  0  0  0  0
   26.3650   15.9596   31.0385 O   0  0  0  0  0  0  0  0  0  0  0  0
   25.9650   15.0713   29.9660 C   0  0  2  0  0  0  0  0  0  0  0  0
   21.6429   14.7134   28.7535 N   0  0  0  0  0  0  0  0  0  0  0  0
   28.0697   13.7585   30.1917 O   0  0  0  0  0  0  0  0  0  0  0  0
   27.2501   14.4842   29.2667 C   0  0  1  0  0  0  0  0  0  0  0  0
   24.0095   16.3525   29.5362 O   0  0  0  0  0  0  0  0  0  0  0  0
   26.8648   13.5424   28.1525 C   0  0  1  0  0  0  0  0  0  0  0  0
   23.3469   16.3284   31.7414 O   0  0  0  0  0  0  0  0  0  0  0  0
   25.9924   14.3005   27.1257 C   0  0  0  0  0  0  0  0  0  0  0  0
   20.6171   18.6968   31.2314 O   0  0  0  0  0  0  0  0  0  0  0  0
   24.7328   14.8398   27.8644 C   0  0  1  0  0  0  0  0  0  0  0  0
   19.7172   16.5572   29.6663 O   0  0  0  0  0  0  0  0  0  0  0  0
   25.1186   15.8626   28.8915 C   0  0  2  0  0  0  0  0  0  0  0  0
   23.2880   15.5605   30.4215 C   0  0  1  0  0  0  0  0  0  0  0  0
   22.6745   17.6621   31.6754 C   0  0  2  0  0  0  0  0  0  0  0  0
   22.7433   18.3730   33.0429 C   0  0  0  0  0  0  0  0  0  0  0  0
   21.2356   17.4574   31.3057 C   0  0  2  0  0  0  0  0  0  0  0  0
   21.1020   16.7561   29.9852 C   0  0  1  0  0  0  0  0  0  0  0  0
   21.7789   15.4314   30.0715 C   0  0  1  0  0  0  0  0  0  0  0  0
  5  4  1  1  0  0  0
  5  8  1  0  0  0  0
  5 16  1  0  0  0  0
  8  7  1  1  0  0  0
  8 10  1  0  0  0  0
 10  1  1  6  0  0  0
 10 12  1  0  0  0  0
 11 18  1  0  0  0  0
 12 14  1  0  0  0  0
 14  2  1  6  0  0  0
 14 16  1  0  0  0  0
 16  9  1  1  0  0  0
 17  9  1  6  0  0  0
 17 11  1  0  0  0  0
 17 22  1  0  0  0  0
 18 19  1  1  0  0  0
 18 20  1  0  0  0  0
 19  3  1  0  0  0  0
 20 13  1  6  0  0  0
 20 21  1  0  0  0  0
 21 15  1  1  0  0  0
 21 22  1  0  0  0  0
 22  6  1  6  0  0  0
M  END
>  <CHROM.1>
-43.88803695,120.98994163,58.00567115,24.01910345,15.87722207,29.92575365
0.64360992,0.26565280,-2.11820801

>  <Name>
2et8_lig

>  <RI>
0

>  <Rbt.Current_Directory>
/home/itssahil/PROJECTS/Mol_Feturizer/New_Systems/rnas/2et8

>  <Rbt.Executable>
rbdock ($Id: //depot/dev/client3/rdock/2013.1/src/exe/rbdock.cxx#4 $)

>  <Rbt.Library>
libRbt.so (2013.1, Build901 2013/11/27)

>  <Rbt.Parameter_File>
/export/apps/rDock/src/rDock_2013.1_src/data/scripts/dock_solv.prm

>  <Rbt.Receptor>
prm/blind_docking_80.prm

>  <SCORE>
-13.3523

>  <SCORE.INTER>
-17.799

>  <SCORE.INTER.CONST>
1

>  <SCORE.INTER.POLAR>
-1.02937

>  <SCORE.INTER.ROT>
3

>  <SCORE.INTER.SOLV>
22.319

>  <SCORE.INTER.VDW>
-21.4744

>  <SCORE.INTER.norm>
-0.809044

>  <SCORE.INTRA>
3.2964

>  <SCORE.INTRA.DIHEDRAL>
3.4096

>  <SCORE.INTRA.DIHEDRAL.0>
4.99603

>  <SCORE.INTRA.POLAR>
0

>  <SCORE.INTRA.POLAR.0>
0

>  <SCORE.INTRA.REPUL>
0

>  <SCORE.INTRA.REPUL.0>
0

>  <SCORE.INTRA.SOLV>
2.29702

>  <SCORE.INTRA.SOLV.lig_0>
-74.884

>  <SCORE.INTRA.VDW>
0.443088

>  <SCORE.INTRA.VDW.0>
-0.858933

>  <SCORE.INTRA.norm>
0.149836

>  <SCORE.RESTR>
1.15029

>  <SCORE.RESTR.CAVITY>
1.15029

>  <SCORE.RESTR.norm>
0.0522861

>  <SCORE.SYSTEM>
0

>  <SCORE.SYSTEM.CONST>
0

>  <SCORE.SYSTEM.DIHEDRAL>
0

>  <SCORE.SYSTEM.SOLV>
0

>  <SCORE.SYSTEM.norm>
0

>  <SCORE.heavy>
22

>  <SCORE.norm>
-0.606921

>  <RMSD>
8.842

$$$$
2et8_lig
 OpenBabel11021811433D
libRbt.so/2013.1/901 2013/11/27
 22 23  0  0  0  0  0  0  0  0999 V2000
   28.0988   13.0117   27.5003 N   0  0  0  0  0  0  0  0  0  0  0  0
   23.8832   15.5193   26.7599 N   0  0  0  0  0  0  0  0  0  0  0  0
   24.1333   18.5191   33.4238 N   0  0  0  0  0  0  0  0  0  0  0  0
   26.2950   15.9636   31.0158 O   0  0  0  0  0  0  0  0  0  0  0  0
   25.9148   15.0661   29.9437 C   0  0  2  0  0  0  0  0  0  0  0  0
   21.5840   14.6494   28.7700 N   0  0  0  0  0  0  0  0  0  0  0  0
   28.0339   13.7809   30.1914 O   0  0  0  0  0  0  0  0  0  0  0  0
   27.2127   14.4926   29.2570 C   0  0  1  0  0  0  0  0  0  0  0  0
   23.9468   16.3210   29.4932 O   0  0  0  0  0  0  0  0  0  0  0  0
   26.8481   13.5417   28.1436 C   0  0  1  0  0  0  0  0  0  0  0  0
   23.3189   16.3206   31.7087 O   0  0  0  0  0  0  0  0  0  0  0  0
   25.9745   14.2847   27.1068 C   0  0  0  0  0  0  0  0  0  0  0  0
   20.5591   18.6564   31.2099 O   0  0  0  0  0  0  0  0  0  0  0  0
   24.7023   14.8110   27.8333 C   0  0  1  0  0  0  0  0  0  0  0  0
   19.6552   16.4874   29.6881 O   0  0  0  0  0  0  0  0  0  0  0  0
   25.0671   15.8425   28.8594 C   0  0  2  0  0  0  0  0  0  0  0  0
   23.2467   15.5344   30.4004 C   0  0  1  0  0  0  0  0  0  0  0  0
   22.6329   17.6470   31.6354 C   0  0  2  0  0  0  0  0  0  0  0  0
   22.7163   18.3771   32.9919 C   0  0  0  0  0  0  0  0  0  0  0  0
   21.1904   17.4240   31.2912 C   0  0  2  0  0  0  0  0  0  0  0  0
   21.0429   16.7035   29.9825 C   0  0  1  0  0  0  0  0  0  0  0  0
   21.7336   15.3865   30.0760 C   0  0  1  0  0  0  0  0  0  0  0  0
  5  4  1  1  0  0  0
  5  8  1  0  0  0  0
  5 16  1  0  0  0  0
  8  7  1  1  0  0  0
  8 10  1  0  0  0  0
 10  1  1  6  0  0  0
 10 12  1  0  0  0  0
 11 18  1  0  0  0  0
 12 14  1  0  0  0  0
 14  2  1  6  0  0  0
 14 16  1  0  0  0  0
 16  9  1  1  0  0  0
 17  9  1  6  0  0  0
 17 11  1  0  0  0  0
 17 22  1  0  0  0  0
 18 19  1  1  0  0  0
 18 20  1  0  0  0  0
 19  3  1  0  0  0  0
 20 13  1  6  0  0  0
 20 21  1  0  0  0  0
 21 15  1  1  0  0  0
 21 22  1  0  0  0  0
 22  6  1  6  0  0  0
M  END
>  <CHROM.1>
-42.32253106,119.57815127,55.97473714,23.97780013,15.85597881,29.90677854
0.64036078,0.25433947,-2.12510206

>  <Name>
2et8_lig

>  <RI>
0

>  <Rbt.Current_Directory>
/home/itssahil/PROJECTS/Mol_Feturizer/New_Systems/rnas/2et8

>  <Rbt.Executable>
rbdock ($Id: //depot/dev/client3/rdock/2013.1/src/exe/rbdock.cxx#4 $)

>  <Rbt.Library>
libRbt.so (2013.1, Build901 2013/11/27)

>  <Rbt.Parameter_File>
/export/apps/rDock/src/rDock_2013.1_src/data/scripts/dock_solv.prm

>  <Rbt.Receptor>
prm/blind_docking_80.prm

>  <SCORE>
-13.3284

>  <SCORE.INTER>
-17.9193

>  <SCORE.INTER.CONST>
1

>  <SCORE.INTER.POLAR>
-1.05435

>  <SCORE.INTER.ROT>
3

>  <SCORE.INTER.SOLV>
22.2567

>  <SCORE.INTER.VDW>
-21.4506

>  <SCORE.INTER.norm>
-0.814513

>  <SCORE.INTRA>
3.46203

>  <SCORE.INTRA.DIHEDRAL>
3.67836

>  <SCORE.INTRA.DIHEDRAL.0>
4.99603

>  <SCORE.INTRA.POLAR>
0

>  <SCORE.INTRA.POLAR.0>
0

>  <SCORE.INTRA.REPUL>
0

>  <SCORE.INTRA.REPUL.0>
0

>  <SCORE.INTRA.SOLV>
2.17874

>  <SCORE.INTRA.SOLV.lig_0>
-74.884

>  <SCORE.INTRA.VDW>
0.533477

>  <SCORE.INTRA.VDW.0>
-0.858933

>  <SCORE.INTRA.norm>
0.157365

>  <SCORE.RESTR>
1.12889

>  <SCORE.RESTR.CAVITY>
1.12889

>  <SCORE.RESTR.norm>
0.051313

>  <SCORE.SYSTEM>
0

>  <SCORE.SYSTEM.CONST>
0

>  <SCORE.SYSTEM.DIHEDRAL>
0

>  <SCORE.SYSTEM.SOLV>
0

>  <SCORE.SYSTEM.norm>
0

>  <SCORE.heavy>
22

>  <SCORE.norm>
-0.605835

>  <RMSD>
8.843

$$$$
2et8_lig
 OpenBabel11021811433D
libRbt.so/2013.1/901 2013/11/27
 22 23  0  0  0  0  0  0  0  0999 V2000
   28.0396   12.9866   27.6058 N   0  0  0  0  0  0  0  0  0  0  0  0
   23.7626   15.3232   26.6813 N   0  0  0  0  0  0  0  0  0  0  0  0
   24.0072   18.5133   33.2606 N   0  0  0  0  0  0  0  0  0  0  0  0
   26.0678   16.0141   30.9632 O   0  0  0  0  0  0  0  0  0  0  0  0
   25.7394   15.0630   29.9206 C   0  0  2  0  0  0  0  0  0  0  0  0
   21.3613   14.5581   28.7304 N   0  0  0  0  0  0  0  0  0  0  0  0
   27.8929   13.8588   30.2619 O   0  0  0  0  0  0  0  0  0  0  0  0
   27.0694   14.5058   29.2835 C   0  0  1  0  0  0  0  0  0  0  0  0
   23.7423   16.2337   29.3809 O   0  0  0  0  0  0  0  0  0  0  0  0
   26.7592   13.5002   28.2021 C   0  0  1  0  0  0  0  0  0  0  0  0
   23.1541   16.2759   31.6068 O   0  0  0  0  0  0  0  0  0  0  0  0
   25.8845   14.1725   27.1192 C   0  0  0  0  0  0  0  0  0  0  0  0
   20.3938   18.6126   31.1149 O   0  0  0  0  0  0  0  0  0  0  0  0
   24.5809   14.6850   27.7984 C   0  0  1  0  0  0  0  0  0  0  0  0
   19.4555   16.4198   29.6491 O   0  0  0  0  0  0  0  0  0  0  0  0
   24.8906   15.7677   28.7892 C   0  0  2  0  0  0  0  0  0  0  0  0
   23.0559   15.4664   30.3145 C   0  0  1  0  0  0  0  0  0  0  0  0
   22.4714   17.6034   31.5216 C   0  0  2  0  0  0  0  0  0  0  0  0
   22.5815   18.3576   32.8629 C   0  0  0  0  0  0  0  0  0  0  0  0
   21.0223   17.3795   31.2072 C   0  0  2  0  0  0  0  0  0  0  0  0
   20.8490   16.6360   29.9147 C   0  0  1  0  0  0  0  0  0  0  0  0
   21.5367   15.3182   30.0199 C   0  0  1  0  0  0  0  0  0  0  0  0
  5  4  1  1  0  0  0
  5  8  1  0  0  0  0
  5 16  1  0  0  0  0
  8  7  1  1  0  0  0
  8 10  1  0  0  0  0
 10  1  1  6  0  0  0
 10 12  1  0  0  0  0
 11 18  1  0  0  0  0
 12 14  1  0  0  0  0
 14  2  1  6  0  0  0
 14 16  1  0  0  0  0
 16  9  1  1  0  0  0
 17  9  1  6  0  0  0
 17 11  1  0  0  0  0
 17 22  1  0  0  0  0
 18 19  1  1  0  0  0
 18 20  1  0  0  0  0
 19  3  1  0  0  0  0
 20 13  1  6  0  0  0
 20 21  1  0  0  0  0
 21 15  1  1  0  0  0
 21 22  1  0  0  0  0
 22  6  1  6  0  0  0
M  END
>  <CHROM.1>
-41.68278997,116.02979520,56.50309207,23.81909909,15.80771904,29.85761144
0.62173671,0.24099477,-2.15012666

>  <Name>
2et8_lig

>  <RI>
224

>  <Rbt.Current_Directory>
/home/itssahil/PROJECTS/Mol_Feturizer/New_Systems/rnas/2et8

>  <Rbt.Executable>
rbdock ($Id: //depot/dev/client3/rdock/2013.1/src/exe/rbdock.cxx#4 $)

>  <Rbt.Library>
libRbt.so (2013.1, Build901 2013/11/27)

>  <Rbt.Parameter_File>
/export/apps/rDock/src/rDock_2013.1_src/data/scripts/dock_solv.prm

>  <Rbt.Receptor>
prm/blind_docking_60.prm

>  <SCORE>
-11.7023

>  <SCORE.INTER>
-16.539

>  <SCORE.INTER.CONST>
1

>  <SCORE.INTER.POLAR>
-1.08873

>  <SCORE.INTER.ROT>
3

>  <SCORE.INTER.SOLV>
22.5565

>  <SCORE.INTER.VDW>
-20.5157

>  <SCORE.INTER.norm>
-0.751774

>  <SCORE.INTRA>
3.42414

>  <SCORE.INTRA.DIHEDRAL>
3.68392

>  <SCORE.INTRA.DIHEDRAL.0>
4.99603

>  <SCORE.INTRA.POLAR>
0

>  <SCORE.INTRA.POLAR.0>
0

>  <SCORE.INTRA.REPUL>
0

>  <SCORE.INTRA.REPUL.0>
0

>  <SCORE.INTRA.SOLV>
2.03035

>  <SCORE.INTRA.SOLV.lig_0>
-74.884

>  <SCORE.INTRA.VDW>
0.567006

>  <SCORE.INTRA.VDW.0>
-0.858933

>  <SCORE.INTRA.norm>
0.155643

>  <SCORE.RESTR>
1.41254

>  <SCORE.RESTR.CAVITY>
1.41254

>  <SCORE.RESTR.norm>
0.0642062

>  <SCORE.SYSTEM>
0

>  <SCORE.SYSTEM.CONST>
0

>  <SCORE.SYSTEM.DIHEDRAL>
0

>  <SCORE.SYSTEM.SOLV>
0

>  <SCORE.SYSTEM.norm>
0

>  <SCORE.heavy>
22

>  <SCORE.norm>
-0.531925

>  <RMSD>
8.844

$$$$
2et8_lig
 OpenBabel11021811433D
libRbt.so/2013.1/901 2013/11/27
 22 23  0  0  0  0  0  0  0  0999 V2000
   28.1194   13.0058   27.5758 N   0  0  0  0  0  0  0  0  0  0  0  0
   23.8649   15.4026   26.7027 N   0  0  0  0  0  0  0  0  0  0  0  0
   22.5876   19.6636   33.0873 N   0  0  0  0  0  0  0  0  0  0  0  0
   26.1873   15.9952   30.9900 O   0  0  0  0  0  0  0  0  0  0  0  0
   25.8465   15.0658   29.9320 C   0  0  2  0  0  0  0  0  0  0  0  0
   21.3186   14.8101   28.8538 N   0  0  0  0  0  0  0  0  0  0  0  0
   27.9881   13.8335   30.2470 O   0  0  0  0  0  0  0  0  0  0  0  0
   27.1690   14.5058   29.2821 C   0  0  1  0  0  0  0  0  0  0  0  0
   23.8605   16.2664   29.4177 O   0  0  0  0  0  0  0  0  0  0  0  0
   26.8458   13.5224   28.1842 C   0  0  1  0  0  0  0  0  0  0  0  0
   23.4290   16.2251   31.6792 O   0  0  0  0  0  0  0  0  0  0  0  0
   25.9756   14.2224   27.1153 C   0  0  0  0  0  0  0  0  0  0  0  0
   20.8306   18.7824   31.5075 O   0  0  0  0  0  0  0  0  0  0  0  0
   24.6791   14.7367   27.8065 C   0  0  1  0  0  0  0  0  0  0  0  0
   19.6288   16.7514   30.0015 O   0  0  0  0  0  0  0  0  0  0  0  0
   25.0024   15.7988   28.8152 C   0  0  2  0  0  0  0  0  0  0  0  0
   23.1814   15.4997   30.3572 C   0  0  1  0  0  0  0  0  0  0  0  0
   22.8467   17.6018   31.7118 C   0  0  2  0  0  0  0  0  0  0  0  0
   23.1051   18.2683   33.0789 C   0  0  0  0  0  0  0  0  0  0  0  0
   21.3667   17.5032   31.4909 C   0  0  2  0  0  0  0  0  0  0  0  0
   21.0496   16.8492   30.1774 C   0  0  1  0  0  0  0  0  0  0  0  0
   21.6390   15.4806   30.1649 C   0  0  1  0  0  0  0  0  0  0  0  0
  5  4  1  1  0  0  0
  5  8  1  0  0  0  0
  5 16  1  0  0  0  0
  8  7  1  1  0  0  0
  8 10  1  0  0  0  0
 10  1  1  6  0  0  0
 10 12  1  0  0  0  0
 11 18  1  0  0  0  0
 12 14  1  0  0  0  0
 14  2  1  6  0  0  0
 14 16  1  0  0  0  0
 16  9  1  1  0  0  0
 17  9  1  6  0  0  0
 17 11  1  0  0  0  0
 17 22  1  0  0  0  0
 18 19  1  1  0  0  0
 18 20  1  0  0  0  0
 19  3  1  0  0  0  0
 20 13  1  6  0  0  0
 20 21  1  0  0  0  0
 21 15  1  1  0  0  0
 21 22  1  0  0  0  0
 22  6  1  6  0  0  0
M  END
>  <CHROM.1>
-40.53290916,109.75326678,177.07491922,23.92117925,15.92315262,29.94909952
-0.69292020,-0.25082238,0.97750680

>  <Name>
2et8_lig

>  <RI>
0

>  <Rbt.Current_Directory>
/home/itssahil/PROJECTS/Mol_Feturizer/New_Systems/rnas/2et8

>  <Rbt.Executable>
rbdock ($Id: //depot/dev/client3/rdock/2013.1/src/exe/rbdock.cxx#4 $)

>  <Rbt.Library>
libRbt.so (2013.1, Build901 2013/11/27)

>  <Rbt.Parameter_File>
/export/apps/rDock/src/rDock_2013.1_src/data/scripts/dock_solv.prm

>  <Rbt.Receptor>
prm/blind_docking_80.prm

>  <SCORE>
-12.5679

>  <SCORE.INTER>
-17.9814

>  <SCORE.INTER.CONST>
1

>  <SCORE.INTER.POLAR>
-1.08667

>  <SCORE.INTER.ROT>
3

>  <SCORE.INTER.SOLV>
20.2724

>  <SCORE.INTER.VDW>
-20.7228

>  <SCORE.INTER.norm>
-0.817336

>  <SCORE.INTRA>
4.4151

>  <SCORE.INTRA.DIHEDRAL>
3.42809

>  <SCORE.INTRA.DIHEDRAL.0>
4.99603

>  <SCORE.INTRA.POLAR>
0

>  <SCORE.INTRA.POLAR.0>
0

>  <SCORE.INTRA.REPUL>
0

>  <SCORE.INTRA.REPUL.0>
0

>  <SCORE.INTRA.SOLV>
2.75424

>  <SCORE.INTRA.SOLV.lig_0>
-74.884

>  <SCORE.INTRA.VDW>
1.32394

>  <SCORE.INTRA.VDW.0>
-0.858933

>  <SCORE.INTRA.norm>
0.200687

>  <SCORE.RESTR>
0.998412

>  <SCORE.RESTR.CAVITY>
0.998412

>  <SCORE.RESTR.norm>
0.0453824

>  <SCORE.SYSTEM>
0

>  <SCORE.SYSTEM.CONST>
0

>  <SCORE.SYSTEM.DIHEDRAL>
0

>  <SCORE.SYSTEM.SOLV>
0

>  <SCORE.SYSTEM.norm>
0

>  <SCORE.heavy>
22

>  <SCORE.norm>
-0.571267

>  <RMSD>
8.844

$$$$
2et8_lig
 OpenBabel11021811433D
libRbt.so/2013.1/901 2013/11/27
 22 23  0  0  0  0  0  0  0  0999 V2000
   28.1005   12.9991   27.4905 N   0  0  0  0  0  0  0  0  0  0  0  0
   23.9206   15.5792   26.7979 N   0  0  0  0  0  0  0  0  0  0  0  0
   24.1808   18.5240   33.4873 N   0  0  0  0  0  0  0  0  0  0  0  0
   26.3703   15.9561   31.0386 O   0  0  0  0  0  0  0  0  0  0  0  0
   25.9678   15.0721   29.9635 C   0  0  2  0  0  0  0  0  0  0  0  0
   21.6457   14.7224   28.7676 N   0  0  0  0  0  0  0  0  0  0  0  0
   28.0677   13.7512   30.1870 O   0  0  0  0  0  0  0  0  0  0  0  0
   27.2512   14.4823   29.2634 C   0  0  1  0  0  0  0  0  0  0  0  0
   24.0171   16.3614   29.5358 O   0  0  0  0  0  0  0  0  0  0  0  0
   26.8632   13.5448   28.1465 C   0  0  1  0  0  0  0  0  0  0  0  0
   23.3632   16.3448   31.7437 O   0  0  0  0  0  0  0  0  0  0  0  0
   25.9942   14.3087   27.1212 C   0  0  0  0  0  0  0  0  0  0  0  0
   20.6340   18.7146   31.2372 O   0  0  0  0  0  0  0  0  0  0  0  0
   24.7360   14.8505   27.8605 C   0  0  1  0  0  0  0  0  0  0  0  0
   19.7256   16.5712   29.6823 O   0  0  0  0  0  0  0  0  0  0  0  0
   25.1249   15.8692   28.8905 C   0  0  2  0  0  0  0  0  0  0  0  0
   23.2982   15.5729   30.4264 C   0  0  1  0  0  0  0  0  0  0  0  0
   22.6920   17.6790   31.6762 C   0  0  2  0  0  0  0  0  0  0  0  0
   22.7670   18.3941   33.0413 C   0  0  0  0  0  0  0  0  0  0  0  0
   21.2515   17.4748   31.3129 C   0  0  2  0  0  0  0  0  0  0  0  0
   21.1119   16.7695   29.9951 C   0  0  1  0  0  0  0  0  0  0  0  0
   21.7876   15.4444   30.0829 C   0  0  1  0  0  0  0  0  0  0  0  0
  5  4  1  1  0  0  0
  5  8  1  0  0  0  0
  5 16  1  0  0  0  0
  8  7  1  1  0  0  0
  8 10  1  0  0  0  0
 10  1  1  6  0  0  0
 10 12  1  0  0  0  0
 11 18  1  0  0  0  0
 12 14  1  0  0  0  0
 14  2  1  6  0  0  0
 14 16  1  0  0  0  0
 16  9  1  1  0  0  0
 17  9  1  6  0  0  0
 17 11  1  0  0  0  0
 17 22  1  0  0  0  0
 18 19  1  1  0  0  0
 18 20  1  0  0  0  0
 19  3  1  0  0  0  0
 20 13  1  6  0  0  0
 20 21  1  0  0  0  0
 21 15  1  1  0  0  0
 21 22  1  0  0  0  0
 22  6  1  6  0  0  0
M  END
>  <CHROM.1>
-43.38712330,120.84417526,56.31679358,24.02739529,15.88523469,29.92794153
0.64659232,0.26757293,-2.11749337

>  <Name>
2et8_lig

>  <RI>
0

>  <Rbt.Current_Directory>
/home/itssahil/PROJECTS/Mol_Feturizer/New_Systems/rnas/2et8

>  <Rbt.Executable>
rbdock ($Id: //depot/dev/client3/rdock/2013.1/src/exe/rbdock.cxx#4 $)

>  <Rbt.Library>
libRbt.so (2013.1, Build901 2013/11/27)

>  <Rbt.Parameter_File>
/export/apps/rDock/src/rDock_2013.1_src/data/scripts/dock_solv.prm

>  <Rbt.Receptor>
prm/blind_docking_80.prm

>  <SCORE>
-13.3308

>  <SCORE.INTER>
-17.848

>  <SCORE.INTER.CONST>
1

>  <SCORE.INTER.POLAR>
-1.01841

>  <SCORE.INTER.ROT>
3

>  <SCORE.INTER.SOLV>
22.3149

>  <SCORE.INTER.VDW>
-21.5423

>  <SCORE.INTER.norm>
-0.811274

>  <SCORE.INTRA>
3.37382

>  <SCORE.INTRA.DIHEDRAL>
3.51428

>  <SCORE.INTRA.DIHEDRAL.0>
4.99603

>  <SCORE.INTRA.POLAR>
0

>  <SCORE.INTRA.POLAR.0>
0

>  <SCORE.INTRA.REPUL>
0

>  <SCORE.INTRA.REPUL.0>
0

>  <SCORE.INTRA.SOLV>
2.28571

>  <SCORE.INTRA.SOLV.lig_0>
-74.884

>  <SCORE.INTRA.VDW>
0.473821

>  <SCORE.INTRA.VDW.0>
-0.858933

>  <SCORE.INTRA.norm>
0.153355

>  <SCORE.RESTR>
1.14344

>  <SCORE.RESTR.CAVITY>
1.14344

>  <SCORE.RESTR.norm>
0.0519745

>  <SCORE.SYSTEM>
0

>  <SCORE.SYSTEM.CONST>
0

>  <SCORE.SYSTEM.DIHEDRAL>
0

>  <SCORE.SYSTEM.SOLV>
0

>  <SCORE.SYSTEM.norm>
0

>  <SCORE.heavy>
22

>  <SCORE.norm>
-0.605944

>  <RMSD>
8.844

$$$$
2et8_lig
 OpenBabel11021811433D
libRbt.so/2013.1/901 2013/11/27
 22 23  0  0  0  0  0  0  0  0999 V2000
   28.0945   12.9897   27.4986 N   0  0  0  0  0  0  0  0  0  0  0  0
   23.9271   15.5877   26.7984 N   0  0  0  0  0  0  0  0  0  0  0  0
   24.1721   18.5155   33.4968 N   0  0  0  0  0  0  0  0  0  0  0  0
   26.3696   15.9526   31.0443 O   0  0  0  0  0  0  0  0  0  0  0  0
   25.9656   15.0707   29.9680 C   0  0  2  0  0  0  0  0  0  0  0  0
   21.6507   14.7292   28.7666 N   0  0  0  0  0  0  0  0  0  0  0  0
   28.0594   13.7408   30.1952 O   0  0  0  0  0  0  0  0  0  0  0  0
   27.2479   14.4758   29.2703 C   0  0  1  0  0  0  0  0  0  0  0  0
   24.0213   16.3684   29.5369 O   0  0  0  0  0  0  0  0  0  0  0  0
   26.8582   13.5404   28.1522 C   0  0  1  0  0  0  0  0  0  0  0  0
   23.3604   16.3596   31.7428 O   0  0  0  0  0  0  0  0  0  0  0  0
   25.9945   14.3083   27.1254 C   0  0  0  0  0  0  0  0  0  0  0  0
   20.6351   18.7304   31.2200 O   0  0  0  0  0  0  0  0  0  0  0  0
   24.7371   14.8552   27.8624 C   0  0  1  0  0  0  0  0  0  0  0  0
   19.7295   16.5827   29.6693 O   0  0  0  0  0  0  0  0  0  0  0  0
   25.1283   15.8718   28.8937 C   0  0  2  0  0  0  0  0  0  0  0  0
   23.2989   15.5836   30.4278 C   0  0  1  0  0  0  0  0  0  0  0  0
   22.6907   17.6943   31.6689 C   0  0  2  0  0  0  0  0  0  0  0  0
   22.7621   18.4137   33.0318 C   0  0  0  0  0  0  0  0  0  0  0  0
   21.2511   17.4902   31.3017 C   0  0  2  0  0  0  0  0  0  0  0  0
   21.1150   16.7808   29.9857 C   0  0  1  0  0  0  0  0  0  0  0  0
   21.7892   15.4553   30.0799 C   0  0  1  0  0  0  0  0  0  0  0  0
  5  4  1  1  0  0  0
  5  8  1  0  0  0  0
  5 16  1  0  0  0  0
  8  7  1  1  0  0  0
  8 10  1  0  0  0  0
 10  1  1  6  0  0  0
 10 12  1  0  0  0  0
 11 18  1  0  0  0  0
 12 14  1  0  0  0  0
 14  2  1  6  0  0  0
 14 16  1  0  0  0  0
 16  9  1  1  0  0  0
 17  9  1  6  0  0  0
 17 11  1  0  0  0  0
 17 22  1  0  0  0  0
 18 19  1  1  0  0  0
 18 20  1  0  0  0  0
 19  3  1  0  0  0  0
 20 13  1  6  0  0  0
 20 21  1  0  0  0  0
 21 15  1  1  0  0  0
 21 22  1  0  0  0  0
 22  6  1  6  0  0  0
M  END
>  <CHROM.1>
-43.25403674,121.04056318,54.99594783,24.02681826,15.89026034,29.92733918
0.64608439,0.27201214,-2.11713361

>  <Name>
2et8_lig

>  <RI>
0

>  <Rbt.Current_Directory>
/home/itssahil/PROJECTS/Mol_Feturizer/New_Systems/rnas/2et8

>  <Rbt.Executable>
rbdock ($Id: //depot/dev/client3/rdock/2013.1/src/exe/rbdock.cxx#4 $)

>  <Rbt.Library>
libRbt.so (2013.1, Build901 2013/11/27)

>  <Rbt.Parameter_File>
/export/apps/rDock/src/rDock_2013.1_src/data/scripts/dock_solv.prm

>  <Rbt.Receptor>
prm/blind_docking_80.prm

>  <SCORE>
-13.2581

>  <SCORE.INTER>
-17.8415

>  <SCORE.INTER.CONST>
1

>  <SCORE.INTER.POLAR>
-1.00431

>  <SCORE.INTER.ROT>
3

>  <SCORE.INTER.SOLV>
22.3429

>  <SCORE.INTER.VDW>
-21.5943

>  <SCORE.INTER.norm>
-0.810978

>  <SCORE.INTRA>
3.44165

>  <SCORE.INTRA.DIHEDRAL>
3.57203

>  <SCORE.INTRA.DIHEDRAL.0>
4.99603

>  <SCORE.INTRA.POLAR>
0

>  <SCORE.INTRA.POLAR.0>
0

>  <SCORE.INTRA.REPUL>
0

>  <SCORE.INTRA.REPUL.0>
0

>  <SCORE.INTRA.SOLV>
2.30505

>  <SCORE.INTRA.SOLV.lig_0>
-74.884

>  <SCORE.INTRA.VDW>
0.503111

>  <SCORE.INTRA.VDW.0>
-0.858933

>  <SCORE.INTRA.norm>
0.156439

>  <SCORE.RESTR>
1.14175

>  <SCORE.RESTR.CAVITY>
1.14175

>  <SCORE.RESTR.norm>
0.0518976

>  <SCORE.SYSTEM>
0

>  <SCORE.SYSTEM.CONST>
0

>  <SCORE.SYSTEM.DIHEDRAL>
0

>  <SCORE.SYSTEM.SOLV>
0

>  <SCORE.SYSTEM.norm>
0

>  <SCORE.heavy>
22

>  <SCORE.norm>
-0.602642

>  <RMSD>
8.848

$$$$
2et8_lig
 OpenBabel11021811433D
libRbt.so/2013.1/901 2013/11/27
 22 23  0  0  0  0  0  0  0  0999 V2000
   28.1328   12.9986   27.5780 N   0  0  0  0  0  0  0  0  0  0  0  0
   23.8806   15.3987   26.7026 N   0  0  0  0  0  0  0  0  0  0  0  0
   22.5780   19.6650   33.0827 N   0  0  0  0  0  0  0  0  0  0  0  0
   26.2042   15.9940   30.9889 O   0  0  0  0  0  0  0  0  0  0  0  0
   25.8624   15.0637   29.9321 C   0  0  2  0  0  0  0  0  0  0  0  0
   21.3373   14.8054   28.8554 N   0  0  0  0  0  0  0  0  0  0  0  0
   28.0027   13.8295   30.2482 O   0  0  0  0  0  0  0  0  0  0  0  0
   27.1842   14.5016   29.2826 C   0  0  1  0  0  0  0  0  0  0  0  0
   23.8775   16.2658   29.4166 O   0  0  0  0  0  0  0  0  0  0  0  0
   26.8598   13.5172   28.1859 C   0  0  1  0  0  0  0  0  0  0  0  0
   23.4444   16.2310   31.6780 O   0  0  0  0  0  0  0  0  0  0  0  0
   25.9902   14.2169   27.1163 C   0  0  0  0  0  0  0  0  0  0  0  0
   20.8439   18.7855   31.4966 O   0  0  0  0  0  0  0  0  0  0  0  0
   24.6943   14.7333   27.8071 C   0  0  1  0  0  0  0  0  0  0  0  0
   19.6450   16.7488   29.9960 O   0  0  0  0  0  0  0  0  0  0  0  0
   25.0189   15.7962   28.8144 C   0  0  2  0  0  0  0  0  0  0  0  0
   23.1984   15.5013   30.3580 C   0  0  1  0  0  0  0  0  0  0  0  0
   22.8609   17.6072   31.7058 C   0  0  2  0  0  0  0  0  0  0  0  0
   23.1178   18.2782   33.0711 C   0  0  0  0  0  0  0  0  0  0  0  0
   21.3812   17.5067   31.4842 C   0  0  2  0  0  0  0  0  0  0  0  0
   21.0655   16.8484   30.1726 C   0  0  1  0  0  0  0  0  0  0  0  0
   21.6561   15.4803   30.1646 C   0  0  1  0  0  0  0  0  0  0  0  0
  5  4  1  1  0  0  0
  5  8  1  0  0  0  0
  5 16  1  0  0  0  0
  8  7  1  1  0  0  0
  8 10  1  0  0  0  0
 10  1  1  6  0  0  0
 10 12  1  0  0  0  0
 11 18  1  0  0  0  0
 12 14  1  0  0  0  0
 14  2  1  6  0  0  0
 14 16  1  0  0  0  0
 16  9  1  1  0  0  0
 17  9  1  6  0  0  0
 17 11  1  0  0  0  0
 17 22  1  0  0  0  0
 18 19  1  1  0  0  0
 18 20  1  0  0  0  0
 19  3  1  0  0  0  0
 20 13  1  6  0  0  0
 20 21  1  0  0  0  0
 21 15  1  1  0  0  0
 21 22  1  0  0  0  0
 22  6  1  6  0  0  0
M  END
>  <CHROM.1>
-40.47338865,109.87555557,178.05723589,23.93549811,15.92239311,29.94716671
-0.69280834,-0.25164524,0.97631004

>  <Name>
2et8_lig

>  <RI>
0

>  <Rbt.Current_Directory>
/home/itssahil/PROJECTS/Mol_Feturizer/New_Systems/rnas/2et8

>  <Rbt.Executable>
rbdock ($Id: //depot/dev/client3/rdock/2013.1/src/exe/rbdock.cxx#4 $)

>  <Rbt.Library>
libRbt.so (2013.1, Build901 2013/11/27)

>  <Rbt.Parameter_File>
/export/apps/rDock/src/rDock_2013.1_src/data/scripts/dock_solv.prm

>  <Rbt.Receptor>
prm/blind_docking_80.prm

>  <SCORE>
-12.5634

>  <SCORE.INTER>
-18.0439

>  <SCORE.INTER.CONST>
1

>  <SCORE.INTER.POLAR>
-1.09121

>  <SCORE.INTER.ROT>
3

>  <SCORE.INTER.SOLV>
20.2621

>  <SCORE.INTER.VDW>
-20.746

>  <SCORE.INTER.norm>
-0.820178

>  <SCORE.INTRA>
4.4902

>  <SCORE.INTRA.DIHEDRAL>
3.43174

>  <SCORE.INTRA.DIHEDRAL.0>
4.99603

>  <SCORE.INTRA.POLAR>
0

>  <SCORE.INTRA.POLAR.0>
0

>  <SCORE.INTRA.REPUL>
0

>  <SCORE.INTRA.REPUL.0>
0

>  <SCORE.INTRA.SOLV>
2.77886

>  <SCORE.INTRA.SOLV.lig_0>
-74.884

>  <SCORE.INTRA.VDW>
1.38489

>  <SCORE.INTRA.VDW.0>
-0.858933

>  <SCORE.INTRA.norm>
0.2041

>  <SCORE.RESTR>
0.990359

>  <SCORE.RESTR.CAVITY>
0.990359

>  <SCORE.RESTR.norm>
0.0450163

>  <SCORE.SYSTEM>
0

>  <SCORE.SYSTEM.CONST>
0

>  <SCORE.SYSTEM.DIHEDRAL>
0

>  <SCORE.SYSTEM.SOLV>
0

>  <SCORE.SYSTEM.norm>
0

>  <SCORE.heavy>
22

>  <SCORE.norm>
-0.571062

>  <RMSD>
8.850

$$$$
2et8_lig
 OpenBabel11021811433D
libRbt.so/2013.1/901 2013/11/27
 22 23  0  0  0  0  0  0  0  0999 V2000
   28.2825   13.4662   27.4472 N   0  0  0  0  0  0  0  0  0  0  0  0
   23.7066   15.3163   26.9510 N   0  0  0  0  0  0  0  0  0  0  0  0
   18.8813   17.4158   28.9967 N   0  0  0  0  0  0  0  0  0  0  0  0
   26.1218   15.8324   31.1967 O   0  0  0  0  0  0  0  0  0  0  0  0
   25.8620   14.9652   30.0655 C   0  0  2  0  0  0  0  0  0  0  0  0
   24.0876   15.7159   32.6878 N   0  0  0  0  0  0  0  0  0  0  0  0
   28.1631   14.0198   30.1889 O   0  0  0  0  0  0  0  0  0  0  0  0
   27.2169   14.6568   29.3211 C   0  0  1  0  0  0  0  0  0  0  0  0
   23.7099   15.9193   29.7356 O   0  0  0  0  0  0  0  0  0  0  0  0
   26.9800   13.7424   28.1444 C   0  0  1  0  0  0  0  0  0  0  0  0
   22.5224   17.8766   29.9823 O   0  0  0  0  0  0  0  0  0  0  0  0
   25.9747   14.4091   27.1775 C   0  0  0  0  0  0  0  0  0  0  0  0
   19.5308   16.2211   31.2593 O   0  0  0  0  0  0  0  0  0  0  0  0
   24.6535   14.6723   27.9577 C   0  0  1  0  0  0  0  0  0  0  0  0
   21.3407   15.6283   33.3112 O   0  0  0  0  0  0  0  0  0  0  0  0
   24.8759   15.6724   29.0533 C   0  0  2  0  0  0  0  0  0  0  0  0
   23.6049   16.9971   30.6067 C   0  0  1  0  0  0  0  0  0  0  0  0
   21.1855   17.2098   29.9234 C   0  0  2  0  0  0  0  0  0  0  0  0
   20.1329   18.1570   29.3108 C   0  0  0  0  0  0  0  0  0  0  0  0
   20.7648   16.8520   31.3175 C   0  0  2  0  0  0  0  0  0  0  0  0
   21.7588   15.9385   31.9740 C   0  0  1  0  0  0  0  0  0  0  0  0
   23.0829   16.6203   32.0216 C   0  0  1  0  0  0  0  0  0  0  0  0
  5  4  1  1  0  0  0
  5  8  1  0  0  0  0
  5 16  1  0  0  0  0
  8  7  1  1  0  0  0
  8 10  1  0  0  0  0
 10  1  1  6  0  0  0
 10 12  1  0  0  0  0
 11 18  1  0  0  0  0
 12 14  1  0  0  0  0
 14  2  1  6  0  0  0
 14 16  1  0  0  0  0
 16  9  1  1  0  0  0
 17  9  1  6  0  0  0
 17 11  1  0  0  0  0
 17 22  1  0  0  0  0
 18 19  1  1  0  0  0
 18 20  1  0  0  0  0
 19  3  1  0  0  0  0
 20 13  1  6  0  0  0
 20 21  1  0  0  0  0
 21 15  1  1  0  0  0
 21 22  1  0  0  0  0
 22  6  1  6  0  0  0
M  END
>  <CHROM.1>
78.91440614,116.91349445,168.52602821,23.73214320,15.79334665,29.97315494
0.31386704,0.38057749,-1.60422551

>  <Name>
2et8_lig

>  <RI>
0

>  <Rbt.Current_Directory>
/home/itssahil/PROJECTS/Mol_Feturizer/New_Systems/rnas/2et8

>  <Rbt.Executable>
rbdock ($Id: //depot/dev/client3/rdock/2013.1/src/exe/rbdock.cxx#4 $)

>  <Rbt.Library>
libRbt.so (2013.1, Build901 2013/11/27)

>  <Rbt.Parameter_File>
/export/apps/rDock/src/rDock_2013.1_src/data/scripts/dock_solv.prm

>  <Rbt.Receptor>
prm/blind_docking_100.prm

>  <SCORE>
-13.1942

>  <SCORE.INTER>
-18.0734

>  <SCORE.INTER.CONST>
1

>  <SCORE.INTER.POLAR>
-1.08831

>  <SCORE.INTER.ROT>
3

>  <SCORE.INTER.SOLV>
22.867

>  <SCORE.INTER.VDW>
-21.6435

>  <SCORE.INTER.norm>
-0.821517

>  <SCORE.INTRA>
3.27072

>  <SCORE.INTRA.DIHEDRAL>
4.22067

>  <SCORE.INTRA.DIHEDRAL.0>
4.99603

>  <SCORE.INTRA.POLAR>
0

>  <SCORE.INTRA.POLAR.0>
0

>  <SCORE.INTRA.REPUL>
0

>  <SCORE.INTRA.REPUL.0>
0

>  <SCORE.INTRA.SOLV>
2.22244

>  <SCORE.INTRA.SOLV.lig_0>
-74.884

>  <SCORE.INTRA.VDW>
0.0491617

>  <SCORE.INTRA.VDW.0>
-0.858933

>  <SCORE.INTRA.norm>
0.148669

>  <SCORE.RESTR>
1.60848

>  <SCORE.RESTR.CAVITY>
1.60848

>  <SCORE.RESTR.norm>
0.0731129

>  <SCORE.SYSTEM>
0

>  <SCORE.SYSTEM.CONST>
0

>  <SCORE.SYSTEM.DIHEDRAL>
0

>  <SCORE.SYSTEM.SOLV>
0

>  <SCORE.SYSTEM.norm>
0

>  <SCORE.heavy>
22

>  <SCORE.norm>
-0.599735

>  <RMSD>
8.854

$$$$
2et8_lig
 OpenBabel11021811433D
libRbt.so/2013.1/901 2013/11/27
 22 23  0  0  0  0  0  0  0  0999 V2000
   28.1180   13.0033   27.5018 N   0  0  0  0  0  0  0  0  0  0  0  0
   23.8972   15.4971   26.7445 N   0  0  0  0  0  0  0  0  0  0  0  0
   24.1372   18.5089   33.4044 N   0  0  0  0  0  0  0  0  0  0  0  0
   26.2975   15.9599   31.0048 O   0  0  0  0  0  0  0  0  0  0  0  0
   25.9224   15.0584   29.9343 C   0  0  2  0  0  0  0  0  0  0  0  0
   21.5868   14.6426   28.7424 N   0  0  0  0  0  0  0  0  0  0  0  0
   28.0445   13.7797   30.1906 O   0  0  0  0  0  0  0  0  0  0  0  0
   27.2235   14.4866   29.2523 C   0  0  1  0  0  0  0  0  0  0  0  0
   23.9520   16.3065   29.4757 O   0  0  0  0  0  0  0  0  0  0  0  0
   26.8643   13.5316   28.1406 C   0  0  1  0  0  0  0  0  0  0  0  0
   23.3201   16.2999   31.6900 O   0  0  0  0  0  0  0  0  0  0  0  0
   25.9911   14.2693   27.0998 C   0  0  0  0  0  0  0  0  0  0  0  0
   20.5663   18.6435   31.1942 O   0  0  0  0  0  0  0  0  0  0  0  0
   24.7157   14.7940   27.8218 C   0  0  1  0  0  0  0  0  0  0  0  0
   19.6605   16.4817   29.6633 O   0  0  0  0  0  0  0  0  0  0  0  0
   25.0751   15.8294   28.8458 C   0  0  2  0  0  0  0  0  0  0  0  0
   23.2485   15.5183   30.3788 C   0  0  1  0  0  0  0  0  0  0  0  0
   22.6371   17.6281   31.6200 C   0  0  2  0  0  0  0  0  0  0  0  0
   22.7196   18.3533   32.9792 C   0  0  0  0  0  0  0  0  0  0  0  0
   21.1948   17.4094   31.2724 C   0  0  2  0  0  0  0  0  0  0  0  0
   21.0481   16.6938   29.9609 C   0  0  1  0  0  0  0  0  0  0  0  0
   21.7357   15.3749   30.0512 C   0  0  1  0  0  0  0  0  0  0  0  0
  5  4  1  1  0  0  0
  5  8  1  0  0  0  0
  5 16  1  0  0  0  0
  8  7  1  1  0  0  0
  8 10  1  0  0  0  0
 10  1  1  6  0  0  0
 10 12  1  0  0  0  0
 11 18  1  0  0  0  0
 12 14  1  0  0  0  0
 14  2  1  6  0  0  0
 14 16  1  0  0  0  0
 16  9  1  1  0  0  0
 17  9  1  6  0  0  0
 17 11  1  0  0  0  0
 17 22  1  0  0  0  0
 18 19  1  1  0  0  0
 18 20  1  0  0  0  0
 19  3  1  0  0  0  0
 20 13  1  6  0  0  0
 20 21  1  0  0  0  0
 21 15  1  1  0  0  0
 21 22  1  0  0  0  0
 22  6  1  6  0  0  0
M  END
>  <CHROM.1>
-42.61260007,119.34347280,56.82303235,23.98525966,15.84378194,29.89248943
0.63709186,0.25470148,-2.12466027

>  <Name>
2et8_lig

>  <RI>
0

>  <Rbt.Current_Directory>
/home/itssahil/PROJECTS/Mol_Feturizer/New_Systems/rnas/2et8

>  <Rbt.Executable>
rbdock ($Id: //depot/dev/client3/rdock/2013.1/src/exe/rbdock.cxx#4 $)

>  <Rbt.Library>
libRbt.so (2013.1, Build901 2013/11/27)

>  <Rbt.Parameter_File>
/export/apps/rDock/src/rDock_2013.1_src/data/scripts/dock_solv.prm

>  <Rbt.Receptor>
prm/blind_docking_80.prm

>  <SCORE>
-13.3046

>  <SCORE.INTER>
-17.8148

>  <SCORE.INTER.CONST>
1

>  <SCORE.INTER.POLAR>
-1.05802

>  <SCORE.INTER.ROT>
3

>  <SCORE.INTER.SOLV>
22.2889

>  <SCORE.INTER.VDW>
-21.3794

>  <SCORE.INTER.norm>
-0.809763

>  <SCORE.INTRA>
3.40743

>  <SCORE.INTRA.DIHEDRAL>
3.61323

>  <SCORE.INTRA.DIHEDRAL.0>
4.99603

>  <SCORE.INTRA.POLAR>
0

>  <SCORE.INTRA.POLAR.0>
0

>  <SCORE.INTRA.REPUL>
0

>  <SCORE.INTRA.REPUL.0>
0

>  <SCORE.INTRA.SOLV>
2.17543

>  <SCORE.INTRA.SOLV.lig_0>
-74.884

>  <SCORE.INTRA.VDW>
0.5131

>  <SCORE.INTRA.VDW.0>
-0.858933

>  <SCORE.INTRA.norm>
0.154883

>  <SCORE.RESTR>
1.10272

>  <SCORE.RESTR.CAVITY>
1.10272

>  <SCORE.RESTR.norm>
0.0501234

>  <SCORE.SYSTEM>
0

>  <SCORE.SYSTEM.CONST>
0

>  <SCORE.SYSTEM.DIHEDRAL>
0

>  <SCORE.SYSTEM.SOLV>
0

>  <SCORE.SYSTEM.norm>
0

>  <SCORE.heavy>
22

>  <SCORE.norm>
-0.604756

>  <RMSD>
8.855

$$$$
2et8_lig
 OpenBabel11021811433D
libRbt.so/2013.1/901 2013/11/27
 22 23  0  0  0  0  0  0  0  0999 V2000
   28.1038   13.0021   27.4955 N   0  0  0  0  0  0  0  0  0  0  0  0
   23.8892   15.5116   26.7563 N   0  0  0  0  0  0  0  0  0  0  0  0
   24.0665   18.4725   33.4460 N   0  0  0  0  0  0  0  0  0  0  0  0
   26.3100   15.9661   31.0059 O   0  0  0  0  0  0  0  0  0  0  0  0
   25.9267   15.0658   29.9373 C   0  0  2  0  0  0  0  0  0  0  0  0
   21.6144   14.6456   28.7157 N   0  0  0  0  0  0  0  0  0  0  0  0
   28.0451   13.7792   30.1844 O   0  0  0  0  0  0  0  0  0  0  0  0
   27.2227   14.4890   29.2496 C   0  0  1  0  0  0  0  0  0  0  0  0
   23.9591   16.3213   29.4870 O   0  0  0  0  0  0  0  0  0  0  0  0
   26.8549   13.5352   28.1397 C   0  0  1  0  0  0  0  0  0  0  0  0
   23.2920   16.3107   31.6910 O   0  0  0  0  0  0  0  0  0  0  0  0
   25.9800   14.2759   27.1026 C   0  0  0  0  0  0  0  0  0  0  0  0
   20.5346   18.6404   31.1521 O   0  0  0  0  0  0  0  0  0  0  0  0
   24.7097   14.8056   27.8301 C   0  0  1  0  0  0  0  0  0  0  0  0
   19.6643   16.4746   29.6063 O   0  0  0  0  0  0  0  0  0  0  0  0
   25.0776   15.8398   28.8523 C   0  0  2  0  0  0  0  0  0  0  0  0
   23.2453   15.5292   30.3786 C   0  0  1  0  0  0  0  0  0  0  0  0
   22.6034   17.6354   31.6105 C   0  0  2  0  0  0  0  0  0  0  0  0
   22.6606   18.3605   32.9710 C   0  0  0  0  0  0  0  0  0  0  0  0
   21.1680   17.4095   31.2398 C   0  0  2  0  0  0  0  0  0  0  0  0
   21.0459   16.6936   29.9260 C   0  0  1  0  0  0  0  0  0  0  0  0
   21.7387   15.3782   30.0268 C   0  0  1  0  0  0  0  0  0  0  0  0
  5  4  1  1  0  0  0
  5  8  1  0  0  0  0
  5 16  1  0  0  0  0
  8  7  1  1  0  0  0
  8 10  1  0  0  0  0
 10  1  1  6  0  0  0
 10 12  1  0  0  0  0
 11 18  1  0  0  0  0
 12 14  1  0  0  0  0
 14  2  1  6  0  0  0
 14 16  1  0  0  0  0
 16  9  1  1  0  0  0
 17  9  1  6  0  0  0
 17 11  1  0  0  0  0
 17 22  1  0  0  0  0
 18 19  1  1  0  0  0
 18 20  1  0  0  0  0
 19  3  1  0  0  0  0
 20 13  1  6  0  0  0
 20 21  1  0  0  0  0
 21 15  1  1  0  0  0
 21 22  1  0  0  0  0
 22  6  1  6  0  0  0
M  END
>  <CHROM.1>
-43.56559036,120.80963555,54.45494364,23.97426159,15.84697613,29.88477706
0.63227194,0.25969103,-2.11899414

>  <Name>
2et8_lig

>  <RI>
0

>  <Rbt.Current_Directory>
/home/itssahil/PROJECTS/Mol_Feturizer/New_Systems/rnas/2et8

>  <Rbt.Executable>
rbdock ($Id: //depot/dev/client3/rdock/2013.1/src/exe/rbdock.cxx#4 $)

>  <Rbt.Library>
libRbt.so (2013.1, Build901 2013/11/27)

>  <Rbt.Parameter_File>
/export/apps/rDock/src/rDock_2013.1_src/data/scripts/dock_solv.prm

>  <Rbt.Receptor>
prm/blind_docking_80.prm

>  <SCORE>
-13.3274

>  <SCORE.INTER>
-17.8646

>  <SCORE.INTER.CONST>
1

>  <SCORE.INTER.POLAR>
-1.06203

>  <SCORE.INTER.ROT>
3

>  <SCORE.INTER.SOLV>
22.2048

>  <SCORE.INTER.VDW>
-21.3712

>  <SCORE.INTER.norm>
-0.812027

>  <SCORE.INTRA>
3.40129

>  <SCORE.INTRA.DIHEDRAL>
3.55091

>  <SCORE.INTRA.DIHEDRAL.0>
4.99603

>  <SCORE.INTRA.POLAR>
0

>  <SCORE.INTRA.POLAR.0>
0

>  <SCORE.INTRA.REPUL>
0

>  <SCORE.INTRA.REPUL.0>
0

>  <SCORE.INTRA.SOLV>
2.31755

>  <SCORE.INTRA.SOLV.lig_0>
-74.884

>  <SCORE.INTRA.VDW>
0.467056

>  <SCORE.INTRA.VDW.0>
-0.858933

>  <SCORE.INTRA.norm>
0.154604

>  <SCORE.RESTR>
1.1359

>  <SCORE.RESTR.CAVITY>
1.1359

>  <SCORE.RESTR.norm>
0.0516317

>  <SCORE.SYSTEM>
0

>  <SCORE.SYSTEM.CONST>
0

>  <SCORE.SYSTEM.DIHEDRAL>
0

>  <SCORE.SYSTEM.SOLV>
0

>  <SCORE.SYSTEM.norm>
0

>  <SCORE.heavy>
22

>  <SCORE.norm>
-0.605791

>  <RMSD>
8.860

$$$$
2et8_lig
 OpenBabel11021811433D
libRbt.so/2013.1/901 2013/11/27
 22 23  0  0  0  0  0  0  0  0999 V2000
   28.1106   13.0030   27.5001 N   0  0  0  0  0  0  0  0  0  0  0  0
   23.8984   15.5109   26.7412 N   0  0  0  0  0  0  0  0  0  0  0  0
   24.1159   18.5148   33.4041 N   0  0  0  0  0  0  0  0  0  0  0  0
   26.2924   15.9564   31.0070 O   0  0  0  0  0  0  0  0  0  0  0  0
   25.9166   15.0586   29.9336 C   0  0  2  0  0  0  0  0  0  0  0  0
   21.5938   14.6359   28.7455 N   0  0  0  0  0  0  0  0  0  0  0  0
   28.0345   13.7731   30.1906 O   0  0  0  0  0  0  0  0  0  0  0  0
   27.2173   14.4847   29.2526 C   0  0  1  0  0  0  0  0  0  0  0  0
   23.9506   16.3135   29.4744 O   0  0  0  0  0  0  0  0  0  0  0  0
   26.8573   13.5334   28.1380 C   0  0  1  0  0  0  0  0  0  0  0  0
   23.3132   16.3180   31.6872 O   0  0  0  0  0  0  0  0  0  0  0  0
   25.9881   14.2761   27.0973 C   0  0  0  0  0  0  0  0  0  0  0  0
   20.5516   18.6477   31.1702 O   0  0  0  0  0  0  0  0  0  0  0  0
   24.7129   14.8028   27.8183 C   0  0  1  0  0  0  0  0  0  0  0  0
   19.6580   16.4731   29.6504 O   0  0  0  0  0  0  0  0  0  0  0  0
   25.0735   15.8347   28.8454 C   0  0  2  0  0  0  0  0  0  0  0  0
   23.2480   15.5281   30.3806 C   0  0  1  0  0  0  0  0  0  0  0  0
   22.6252   17.6430   31.6073 C   0  0  2  0  0  0  0  0  0  0  0  0
   22.7015   18.3769   32.9623 C   0  0  0  0  0  0  0  0  0  0  0  0
   21.1847   17.4166   31.2575 C   0  0  2  0  0  0  0  0  0  0  0  0
   21.0441   16.6924   29.9501 C   0  0  1  0  0  0  0  0  0  0  0  0
   21.7366   15.3767   30.0501 C   0  0  1  0  0  0  0  0  0  0  0  0
  5  4  1  1  0  0  0
  5  8  1  0  0  0  0
  5 16  1  0  0  0  0
  8  7  1  1  0  0  0
  8 10  1  0  0  0  0
 10  1  1  6  0  0  0
 10 12  1  0  0  0  0
 11 18  1  0  0  0  0
 12 14  1  0  0  0  0
 14  2  1  6  0  0  0
 14 16  1  0  0  0  0
 16  9  1  1  0  0  0
 17  9  1  6  0  0  0
 17 11  1  0  0  0  0
 17 22  1  0  0  0  0
 18 19  1  1  0  0  0
 18 20  1  0  0  0  0
 19  3  1  0  0  0  0
 20 13  1  6  0  0  0
 20 21  1  0  0  0  0
 21 15  1  1  0  0  0
 21 22  1  0  0  0  0
 22  6  1  6  0  0  0
M  END
>  <CHROM.1>
-42.21030400,119.65953368,55.61545558,23.97922500,15.84822636,29.88765562
0.63663439,0.25611333,-2.12535528

>  <Name>
2et8_lig

>  <RI>
0

>  <Rbt.Current_Directory>
/home/itssahil/PROJECTS/Mol_Feturizer/New_Systems/rnas/2et8

>  <Rbt.Executable>
rbdock ($Id: //depot/dev/client3/rdock/2013.1/src/exe/rbdock.cxx#4 $)

>  <Rbt.Library>
libRbt.so (2013.1, Build901 2013/11/27)

>  <Rbt.Parameter_File>
/export/apps/rDock/src/rDock_2013.1_src/data/scripts/dock_solv.prm

>  <Rbt.Receptor>
prm/blind_docking_80.prm

>  <SCORE>
-13.2822

>  <SCORE.INTER>
-17.8751

>  <SCORE.INTER.CONST>
1

>  <SCORE.INTER.POLAR>
-1.04588

>  <SCORE.INTER.ROT>
3

>  <SCORE.INTER.SOLV>
22.3119

>  <SCORE.INTER.VDW>
-21.4678

>  <SCORE.INTER.norm>
-0.812507

>  <SCORE.INTRA>
3.48447

>  <SCORE.INTRA.DIHEDRAL>
3.70586

>  <SCORE.INTRA.DIHEDRAL.0>
4.99603

>  <SCORE.INTRA.POLAR>
0

>  <SCORE.INTRA.POLAR.0>
0

>  <SCORE.INTRA.REPUL>
0

>  <SCORE.INTRA.REPUL.0>
0

>  <SCORE.INTRA.SOLV>
2.18009

>  <SCORE.INTRA.SOLV.lig_0>
-74.884

>  <SCORE.INTRA.VDW>
0.5415

>  <SCORE.INTRA.VDW.0>
-0.858933

>  <SCORE.INTRA.norm>
0.158385

>  <SCORE.RESTR>
1.10848

>  <SCORE.RESTR.CAVITY>
1.10848

>  <SCORE.RESTR.norm>
0.0503853

>  <SCORE.SYSTEM>
0

>  <SCORE.SYSTEM.CONST>
0

>  <SCORE.SYSTEM.DIHEDRAL>
0

>  <SCORE.SYSTEM.SOLV>
0

>  <SCORE.SYSTEM.norm>
0

>  <SCORE.heavy>
22

>  <SCORE.norm>
-0.603736

>  <RMSD>
8.860

$$$$
2et8_lig
 OpenBabel11021811433D
libRbt.so/2013.1/901 2013/11/27
 22 23  0  0  0  0  0  0  0  0999 V2000
   28.2067   13.2617   27.5313 N   0  0  0  0  0  0  0  0  0  0  0  0
   23.9069   15.5574   26.6096 N   0  0  0  0  0  0  0  0  0  0  0  0
   22.2849   19.7709   32.8422 N   0  0  0  0  0  0  0  0  0  0  0  0
   26.0456   16.0129   31.0079 O   0  0  0  0  0  0  0  0  0  0  0  0
   25.7771   15.1263   29.8938 C   0  0  2  0  0  0  0  0  0  0  0  0
   21.3551   14.6004   28.8864 N   0  0  0  0  0  0  0  0  0  0  0  0
   27.9470   13.9511   30.2322 O   0  0  0  0  0  0  0  0  0  0  0  0
   27.1417   14.6431   29.2696 C   0  0  1  0  0  0  0  0  0  0  0  0
   23.7711   16.2849   29.3610 O   0  0  0  0  0  0  0  0  0  0  0  0
   26.8941   13.7052   28.1138 C   0  0  1  0  0  0  0  0  0  0  0  0
   23.3488   16.3232   31.6243 O   0  0  0  0  0  0  0  0  0  0  0  0
   26.0406   14.4284   27.0467 C   0  0  0  0  0  0  0  0  0  0  0  0
   20.5506   18.6492   31.3399 O   0  0  0  0  0  0  0  0  0  0  0  0
   24.7020   14.8647   27.7110 C   0  0  1  0  0  0  0  0  0  0  0  0
   19.5151   16.4538   29.9452 O   0  0  0  0  0  0  0  0  0  0  0  0
   24.9503   15.8856   28.7815 C   0  0  2  0  0  0  0  0  0  0  0  0
   23.1585   15.5142   30.3419 C   0  0  1  0  0  0  0  0  0  0  0  0
   22.6565   17.6480   31.5911 C   0  0  2  0  0  0  0  0  0  0  0  0
   22.8624   18.4017   32.9214 C   0  0  0  0  0  0  0  0  0  0  0  0
   21.1890   17.4186   31.3844 C   0  0  2  0  0  0  0  0  0  0  0  0
   20.9236   16.6753   30.1074 C   0  0  1  0  0  0  0  0  0  0  0  0
   21.6223   15.3603   30.1601 C   0  0  1  0  0  0  0  0  0  0  0  0
  5  4  1  1  0  0  0
  5  8  1  0  0  0  0
  5 16  1  0  0  0  0
  8  7  1  1  0  0  0
  8 10  1  0  0  0  0
 10  1  1  6  0  0  0
 10 12  1  0  0  0  0
 11 18  1  0  0  0  0
 12 14  1  0  0  0  0
 14  2  1  6  0  0  0
 14 16  1  0  0  0  0
 16  9  1  1  0  0  0
 17  9  1  6  0  0  0
 17 11  1  0  0  0  0
 17 22  1  0  0  0  0
 18 19  1  1  0  0  0
 18 20  1  0  0  0  0
 19  3  1  0  0  0  0
 20 13  1  6  0  0  0
 20 21  1  0  0  0  0
 21 15  1  1  0  0  0
 21 22  1  0  0  0  0
 22  6  1  6  0  0  0
M  END
>  <CHROM.1>
-33.57385530,109.35732320,174.61129099,23.84285890,15.95481425,29.88212626
-0.66056490,-0.21287349,0.97210968

>  <Name>
2et8_lig

>  <RI>
0

>  <Rbt.Current_Directory>
/home/itssahil/PROJECTS/Mol_Feturizer/New_Systems/rnas/2et8

>  <Rbt.Executable>
rbdock ($Id: //depot/dev/client3/rdock/2013.1/src/exe/rbdock.cxx#4 $)

>  <Rbt.Library>
libRbt.so (2013.1, Build901 2013/11/27)

>  <Rbt.Parameter_File>
/export/apps/rDock/src/rDock_2013.1_src/data/scripts/dock_solv.prm

>  <Rbt.Receptor>
prm/blind_docking_100.prm

>  <SCORE>
-11.8826

>  <SCORE.INTER>
-18.8355

>  <SCORE.INTER.CONST>
1

>  <SCORE.INTER.POLAR>
-1.07995

>  <SCORE.INTER.ROT>
3

>  <SCORE.INTER.SOLV>
20.1927

>  <SCORE.INTER.VDW>
-21.288

>  <SCORE.INTER.norm>
-0.856157

>  <SCORE.INTRA>
5.29442

>  <SCORE.INTRA.DIHEDRAL>
4.64259

>  <SCORE.INTRA.DIHEDRAL.0>
4.99603

>  <SCORE.INTRA.POLAR>
0

>  <SCORE.INTRA.POLAR.0>
0

>  <SCORE.INTRA.REPUL>
0

>  <SCORE.INTRA.REPUL.0>
0

>  <SCORE.INTRA.SOLV>
2.38233

>  <SCORE.INTRA.SOLV.lig_0>
-74.884

>  <SCORE.INTRA.VDW>
1.78197

>  <SCORE.INTRA.VDW.0>
-0.858933

>  <SCORE.INTRA.norm>
0.240656

>  <SCORE.RESTR>
1.65847

>  <SCORE.RESTR.CAVITY>
1.65847

>  <SCORE.RESTR.norm>
0.0753848

>  <SCORE.SYSTEM>
0

>  <SCORE.SYSTEM.CONST>
0

>  <SCORE.SYSTEM.DIHEDRAL>
0

>  <SCORE.SYSTEM.SOLV>
0

>  <SCORE.SYSTEM.norm>
0

>  <SCORE.heavy>
22

>  <SCORE.norm>
-0.540117

>  <RMSD>
8.876

$$$$
2et8_lig
 OpenBabel11021811433D
libRbt.so/2013.1/901 2013/11/27
 22 23  0  0  0  0  0  0  0  0999 V2000
   28.2592   13.2459   27.5059 N   0  0  0  0  0  0  0  0  0  0  0  0
   23.9674   15.5713   26.6222 N   0  0  0  0  0  0  0  0  0  0  0  0
   22.4092   19.7050   32.9516 N   0  0  0  0  0  0  0  0  0  0  0  0
   26.1422   16.0026   31.0052 O   0  0  0  0  0  0  0  0  0  0  0  0
   25.8596   15.1204   29.8911 C   0  0  2  0  0  0  0  0  0  0  0  0
   21.4131   14.6646   28.8520 N   0  0  0  0  0  0  0  0  0  0  0  0
   28.0243   13.9305   30.2103 O   0  0  0  0  0  0  0  0  0  0  0  0
   27.2162   14.6300   29.2554 C   0  0  1  0  0  0  0  0  0  0  0  0
   23.8571   16.2932   29.3761 O   0  0  0  0  0  0  0  0  0  0  0  0
   26.9539   13.6964   28.0993 C   0  0  1  0  0  0  0  0  0  0  0  0
   23.4300   16.2786   31.6389 O   0  0  0  0  0  0  0  0  0  0  0  0
   26.0970   14.4276   27.0405 C   0  0  0  0  0  0  0  0  0  0  0  0
   20.6737   18.6602   31.4111 O   0  0  0  0  0  0  0  0  0  0  0  0
   24.7664   14.8710   27.7158 C   0  0  1  0  0  0  0  0  0  0  0  0
   19.6033   16.5212   29.9563 O   0  0  0  0  0  0  0  0  0  0  0  0
   25.0293   15.8877   28.7869 C   0  0  2  0  0  0  0  0  0  0  0  0
   23.2287   15.5075   30.3350 C   0  0  1  0  0  0  0  0  0  0  0  0
   22.7611   17.6157   31.6396 C   0  0  2  0  0  0  0  0  0  0  0  0
   22.9769   18.3299   32.9900 C   0  0  0  0  0  0  0  0  0  0  0  0
   21.2903   17.4177   31.4240 C   0  0  2  0  0  0  0  0  0  0  0  0
   21.0150   16.7136   30.1271 C   0  0  1  0  0  0  0  0  0  0  0  0
   21.6905   15.3855   30.1461 C   0  0  1  0  0  0  0  0  0  0  0  0
  5  4  1  1  0  0  0
  5  8  1  0  0  0  0
  5 16  1  0  0  0  0
  8  7  1  1  0  0  0
  8 10  1  0  0  0  0
 10  1  1  6  0  0  0
 10 12  1  0  0  0  0
 11 18  1  0  0  0  0
 12 14  1  0  0  0  0
 14  2  1  6  0  0  0
 14 16  1  0  0  0  0
 16  9  1  1  0  0  0
 17  9  1  6  0  0  0
 17 11  1  0  0  0  0
 17 22  1  0  0  0  0
 18 19  1  1  0  0  0
 18 20  1  0  0  0  0
 19  3  1  0  0  0  0
 20 13  1  6  0  0  0
 20 21  1  0  0  0  0
 21 15  1  1  0  0  0
 21 22  1  0  0  0  0
 22  6  1  6  0  0  0
M  END
>  <CHROM.1>
-35.26174814,109.47354517,175.28993968,23.92579927,15.95213323,29.89501515
-0.66607124,-0.22142273,0.98861789

>  <Name>
2et8_lig

>  <RI>
0

>  <Rbt.Current_Directory>
/home/itssahil/PROJECTS/Mol_Feturizer/New_Systems/rnas/2et8

>  <Rbt.Executable>
rbdock ($Id: //depot/dev/client3/rdock/2013.1/src/exe/rbdock.cxx#4 $)

>  <Rbt.Library>
libRbt.so (2013.1, Build901 2013/11/27)

>  <Rbt.Parameter_File>
/export/apps/rDock/src/rDock_2013.1_src/data/scripts/dock_solv.prm

>  <Rbt.Receptor>
prm/blind_docking_100.prm

>  <SCORE>
-12.2163

>  <SCORE.INTER>
-19.0417

>  <SCORE.INTER.CONST>
1

>  <SCORE.INTER.POLAR>
-1.09545

>  <SCORE.INTER.ROT>
3

>  <SCORE.INTER.SOLV>
20.0595

>  <SCORE.INTER.VDW>
-21.3295

>  <SCORE.INTER.norm>
-0.865531

>  <SCORE.INTRA>
5.05898

>  <SCORE.INTRA.DIHEDRAL>
4.32933

>  <SCORE.INTRA.DIHEDRAL.0>
4.99603

>  <SCORE.INTRA.POLAR>
0

>  <SCORE.INTRA.POLAR.0>
0

>  <SCORE.INTRA.REPUL>
0

>  <SCORE.INTRA.REPUL.0>
0

>  <SCORE.INTRA.SOLV>
2.46923

>  <SCORE.INTRA.SOLV.lig_0>
-74.884

>  <SCORE.INTRA.VDW>
1.6597

>  <SCORE.INTRA.VDW.0>
-0.858933

>  <SCORE.INTRA.norm>
0.229954

>  <SCORE.RESTR>
1.76638

>  <SCORE.RESTR.CAVITY>
1.76638

>  <SCORE.RESTR.norm>
0.0802898

>  <SCORE.SYSTEM>
0

>  <SCORE.SYSTEM.CONST>
0

>  <SCORE.SYSTEM.DIHEDRAL>
0

>  <SCORE.SYSTEM.SOLV>
0

>  <SCORE.SYSTEM.norm>
0

>  <SCORE.heavy>
22

>  <SCORE.norm>
-0.555288

>  <RMSD>
8.877

$$$$
2et8_lig
 OpenBabel11021811433D
libRbt.so/2013.1/901 2013/11/27
 22 23  0  0  0  0  0  0  0  0999 V2000
   28.1982   13.0007   27.5143 N   0  0  0  0  0  0  0  0  0  0  0  0
   23.9702   15.4687   26.7141 N   0  0  0  0  0  0  0  0  0  0  0  0
   24.0036   18.5364   33.3479 N   0  0  0  0  0  0  0  0  0  0  0  0
   26.3198   15.9393   31.0018 O   0  0  0  0  0  0  0  0  0  0  0  0
   25.9625   15.0373   29.9256 C   0  0  2  0  0  0  0  0  0  0  0  0
   21.6806   14.5677   28.6347 N   0  0  0  0  0  0  0  0  0  0  0  0
   28.0898   13.7718   30.2034 O   0  0  0  0  0  0  0  0  0  0  0  0
   27.2748   14.4751   29.2572 C   0  0  1  0  0  0  0  0  0  0  0  0
   23.9893   16.2735   29.4472 O   0  0  0  0  0  0  0  0  0  0  0  0
   26.9341   13.5198   28.1400 C   0  0  1  0  0  0  0  0  0  0  0  0
   23.2832   16.2548   31.6389 O   0  0  0  0  0  0  0  0  0  0  0  0
   26.0679   14.2537   27.0907 C   0  0  0  0  0  0  0  0  0  0  0  0
   20.5061   18.5487   31.0498 O   0  0  0  0  0  0  0  0  0  0  0  0
   24.7811   14.7689   27.7993 C   0  0  1  0  0  0  0  0  0  0  0  0
   19.6915   16.3717   29.4896 O   0  0  0  0  0  0  0  0  0  0  0  0
   25.1225   15.8048   28.8290 C   0  0  2  0  0  0  0  0  0  0  0  0
   23.2700   15.4725   30.3262 C   0  0  1  0  0  0  0  0  0  0  0  0
   22.5792   17.5705   31.5455 C   0  0  2  0  0  0  0  0  0  0  0  0
   22.6027   18.2965   32.9066 C   0  0  0  0  0  0  0  0  0  0  0  0
   21.1537   17.3260   31.1494 C   0  0  2  0  0  0  0  0  0  0  0  0
   21.0642   16.6084   29.8339 C   0  0  1  0  0  0  0  0  0  0  0  0
   21.7720   15.3021   29.9476 C   0  0  1  0  0  0  0  0  0  0  0  0
  5  4  1  1  0  0  0
  5  8  1  0  0  0  0
  5 16  1  0  0  0  0
  8  7  1  1  0  0  0
  8 10  1  0  0  0  0
 10  1  1  6  0  0  0
 10 12  1  0  0  0  0
 11 18  1  0  0  0  0
 12 14  1  0  0  0  0
 14  2  1  6  0  0  0
 14 16  1  0  0  0  0
 16  9  1  1  0  0  0
 17  9  1  6  0  0  0
 17 11  1  0  0  0  0
 17 22  1  0  0  0  0
 18 19  1  1  0  0  0
 18 20  1  0  0  0  0
 19  3  1  0  0  0  0
 20 13  1  6  0  0  0
 20 21  1  0  0  0  0
 21 15  1  1  0  0  0
 21 22  1  0  0  0  0
 22  6  1  6  0  0  0
M  END
>  <CHROM.1>
-43.55565958,121.04339089,59.57831999,24.00101234,15.80248705,29.83858194
0.61464858,0.25538448,-2.12108952

>  <Name>
2et8_lig

>  <RI>
0

>  <Rbt.Current_Directory>
/home/itssahil/PROJECTS/Mol_Feturizer/New_Systems/rnas/2et8

>  <Rbt.Executable>
rbdock ($Id: //depot/dev/client3/rdock/2013.1/src/exe/rbdock.cxx#4 $)

>  <Rbt.Library>
libRbt.so (2013.1, Build901 2013/11/27)

>  <Rbt.Parameter_File>
/export/apps/rDock/src/rDock_2013.1_src/data/scripts/dock_solv.prm

>  <Rbt.Receptor>
prm/blind_docking_80.prm

>  <SCORE>
-12.9081

>  <SCORE.INTER>
-17.2779

>  <SCORE.INTER.CONST>
1

>  <SCORE.INTER.POLAR>
-1.02863

>  <SCORE.INTER.ROT>
3

>  <SCORE.INTER.SOLV>
22.3388

>  <SCORE.INTER.VDW>
-21.1361

>  <SCORE.INTER.norm>
-0.785361

>  <SCORE.INTRA>
3.31127

>  <SCORE.INTRA.DIHEDRAL>
3.44137

>  <SCORE.INTRA.DIHEDRAL.0>
4.99603

>  <SCORE.INTRA.POLAR>
0

>  <SCORE.INTRA.POLAR.0>
0

>  <SCORE.INTRA.REPUL>
0

>  <SCORE.INTRA.REPUL.0>
0

>  <SCORE.INTRA.SOLV>
2.26099

>  <SCORE.INTRA.SOLV.lig_0>
-74.884

>  <SCORE.INTRA.VDW>
0.46009

>  <SCORE.INTRA.VDW.0>
-0.858933

>  <SCORE.INTRA.norm>
0.150512

>  <SCORE.RESTR>
1.05856

>  <SCORE.RESTR.CAVITY>
1.05856

>  <SCORE.RESTR.norm>
0.0481164

>  <SCORE.SYSTEM>
0

>  <SCORE.SYSTEM.CONST>
0

>  <SCORE.SYSTEM.DIHEDRAL>
0

>  <SCORE.SYSTEM.SOLV>
0

>  <SCORE.SYSTEM.norm>
0

>  <SCORE.heavy>
22

>  <SCORE.norm>
-0.586732

>  <RMSD>
8.901

$$$$
2et8_lig
 OpenBabel11021811433D
libRbt.so/2013.1/901 2013/11/27
 22 23  0  0  0  0  0  0  0  0999 V2000
   28.0802   13.0012   27.4789 N   0  0  0  0  0  0  0  0  0  0  0  0
   23.9013   15.5861   26.7983 N   0  0  0  0  0  0  0  0  0  0  0  0
   23.8487   18.7775   33.3449 N   0  0  0  0  0  0  0  0  0  0  0  0
   26.3679   15.9663   31.0289 O   0  0  0  0  0  0  0  0  0  0  0  0
   25.9601   15.0811   29.9568 C   0  0  2  0  0  0  0  0  0  0  0  0
   21.7794   14.5562   28.7423 N   0  0  0  0  0  0  0  0  0  0  0  0
   28.0589   13.7577   30.1742 O   0  0  0  0  0  0  0  0  0  0  0  0
   27.2399   14.4885   29.2527 C   0  0  1  0  0  0  0  0  0  0  0  0
   24.0095   16.3725   29.5346 O   0  0  0  0  0  0  0  0  0  0  0  0
   26.8463   13.5498   28.1388 C   0  0  1  0  0  0  0  0  0  0  0  0
   23.2474   16.4258   31.7069 O   0  0  0  0  0  0  0  0  0  0  0  0
   25.9744   14.3132   27.1156 C   0  0  0  0  0  0  0  0  0  0  0  0
   20.4135   18.5971   30.9481 O   0  0  0  0  0  0  0  0  0  0  0  0
   24.7198   14.8580   27.8589 C   0  0  1  0  0  0  0  0  0  0  0  0
   19.7111   16.3278   29.4668 O   0  0  0  0  0  0  0  0  0  0  0  0
   25.1141   15.8777   28.8858 C   0  0  2  0  0  0  0  0  0  0  0  0
   23.2939   15.5869   30.4304 C   0  0  1  0  0  0  0  0  0  0  0  0
   22.5037   17.7117   31.5377 C   0  0  2  0  0  0  0  0  0  0  0  0
   22.4681   18.4969   32.8653 C   0  0  0  0  0  0  0  0  0  0  0  0
   21.0977   17.4024   31.1179 C   0  0  2  0  0  0  0  0  0  0  0  0
   21.0660   16.6254   29.8339 C   0  0  1  0  0  0  0  0  0  0  0  0
   21.8126   15.3498   30.0230 C   0  0  1  0  0  0  0  0  0  0  0  0
  5  4  1  1  0  0  0
  5  8  1  0  0  0  0
  5 16  1  0  0  0  0
  8  7  1  1  0  0  0
  8 10  1  0  0  0  0
 10  1  1  6  0  0  0
 10 12  1  0  0  0  0
 11 18  1  0  0  0  0
 12 14  1  0  0  0  0
 14  2  1  6  0  0  0
 14 16  1  0  0  0  0
 16  9  1  1  0  0  0
 17  9  1  6  0  0  0
 17 11  1  0  0  0  0
 17 22  1  0  0  0  0
 18 19  1  1  0  0  0
 18 20  1  0  0  0  0
 19  3  1  0  0  0  0
 20 13  1  6  0  0  0
 20 21  1  0  0  0  0
 21 15  1  1  0  0  0
 21 22  1  0  0  0  0
 22  6  1  6  0  0  0
M  END
>  <CHROM.1>
-43.30996192,126.23061109,58.36700286,23.96513400,15.87185286,29.85809055
0.62926418,0.25497411,-2.14367846

>  <Name>
2et8_lig

>  <RI>
0

>  <Rbt.Current_Directory>
/home/itssahil/PROJECTS/Mol_Feturizer/New_Systems/rnas/2et8

>  <Rbt.Executable>
rbdock ($Id: //depot/dev/client3/rdock/2013.1/src/exe/rbdock.cxx#4 $)

>  <Rbt.Library>
libRbt.so (2013.1, Build901 2013/11/27)

>  <Rbt.Parameter_File>
/export/apps/rDock/src/rDock_2013.1_src/data/scripts/dock_solv.prm

>  <Rbt.Receptor>
prm/blind_docking_100.prm

>  <SCORE>
-13.2505

>  <SCORE.INTER>
-18.1386

>  <SCORE.INTER.CONST>
1

>  <SCORE.INTER.POLAR>
-1.03411

>  <SCORE.INTER.ROT>
3

>  <SCORE.INTER.SOLV>
22.7143

>  <SCORE.INTER.VDW>
-21.8168

>  <SCORE.INTER.norm>
-0.82448

>  <SCORE.INTRA>
3.49633

>  <SCORE.INTRA.DIHEDRAL>
3.3042

>  <SCORE.INTRA.DIHEDRAL.0>
4.99603

>  <SCORE.INTRA.POLAR>
0

>  <SCORE.INTRA.POLAR.0>
0

>  <SCORE.INTRA.REPUL>
0

>  <SCORE.INTRA.REPUL.0>
0

>  <SCORE.INTRA.SOLV>
2.58613

>  <SCORE.INTRA.SOLV.lig_0>
-74.884

>  <SCORE.INTRA.VDW>
0.551169

>  <SCORE.INTRA.VDW.0>
-0.858933

>  <SCORE.INTRA.norm>
0.158924

>  <SCORE.RESTR>
1.39177

>  <SCORE.RESTR.CAVITY>
1.39177

>  <SCORE.RESTR.norm>
0.0632622

>  <SCORE.SYSTEM>
0

>  <SCORE.SYSTEM.CONST>
0

>  <SCORE.SYSTEM.DIHEDRAL>
0

>  <SCORE.SYSTEM.SOLV>
0

>  <SCORE.SYSTEM.norm>
0

>  <SCORE.heavy>
22

>  <SCORE.norm>
-0.602294

>  <RMSD>
8.905

$$$$
2et8_lig
 OpenBabel11021811433D
libRbt.so/2013.1/901 2013/11/27
 22 23  0  0  0  0  0  0  0  0999 V2000
   28.0830   12.9924   27.4883 N   0  0  0  0  0  0  0  0  0  0  0  0
   23.9171   15.5976   26.8062 N   0  0  0  0  0  0  0  0  0  0  0  0
   23.8172   18.7591   33.3652 N   0  0  0  0  0  0  0  0  0  0  0  0
   26.3745   15.9525   31.0443 O   0  0  0  0  0  0  0  0  0  0  0  0
   25.9655   15.0728   29.9681 C   0  0  2  0  0  0  0  0  0  0  0  0
   21.8049   14.5484   28.7374 N   0  0  0  0  0  0  0  0  0  0  0  0
   28.0581   13.7396   30.1862 O   0  0  0  0  0  0  0  0  0  0  0  0
   27.2446   14.4771   29.2652 C   0  0  1  0  0  0  0  0  0  0  0  0
   24.0216   16.3741   29.5455 O   0  0  0  0  0  0  0  0  0  0  0  0
   26.8498   13.5440   28.1470 C   0  0  1  0  0  0  0  0  0  0  0  0
   23.2393   16.4305   31.7105 O   0  0  0  0  0  0  0  0  0  0  0  0
   25.9838   14.3147   27.1243 C   0  0  0  0  0  0  0  0  0  0  0  0
   20.4055   18.5905   30.9199 O   0  0  0  0  0  0  0  0  0  0  0  0
   24.7297   14.8623   27.8663 C   0  0  1  0  0  0  0  0  0  0  0  0
   19.7242   16.3151   29.4381 O   0  0  0  0  0  0  0  0  0  0  0  0
   25.1257   15.8768   28.8978 C   0  0  2  0  0  0  0  0  0  0  0  0
   23.3004   15.5885   30.4367 C   0  0  1  0  0  0  0  0  0  0  0  0
   22.4930   17.7135   31.5311 C   0  0  2  0  0  0  0  0  0  0  0  0
   22.4426   18.5020   32.8562 C   0  0  0  0  0  0  0  0  0  0  0  0
   21.0920   17.3985   31.0992 C   0  0  2  0  0  0  0  0  0  0  0  0
   21.0747   16.6181   29.8169 C   0  0  1  0  0  0  0  0  0  0  0  0
   21.8237   15.3454   30.0163 C   0  0  1  0  0  0  0  0  0  0  0  0
  5  4  1  1  0  0  0
  5  8  1  0  0  0  0
  5 16  1  0  0  0  0
  8  7  1  1  0  0  0
  8 10  1  0  0  0  0
 10  1  1  6  0  0  0
 10 12  1  0  0  0  0
 11 18  1  0  0  0  0
 12 14  1  0  0  0  0
 14  2  1  6  0  0  0
 14 16  1  0  0  0  0
 16  9  1  1  0  0  0
 17  9  1  6  0  0  0
 17 11  1  0  0  0  0
 17 22  1  0  0  0  0
 18 19  1  1  0  0  0
 18 20  1  0  0  0  0
 19  3  1  0  0  0  0
 20 13  1  6  0  0  0
 20 21  1  0  0  0  0
 21 15  1  1  0  0  0
 21 22  1  0  0  0  0
 22  6  1  6  0  0  0
M  END
>  <CHROM.1>
-43.31127566,126.90832273,56.96616369,23.96762745,15.86733705,29.85915627
0.62586218,0.25965881,-2.14047382

>  <Name>
2et8_lig

>  <RI>
0

>  <Rbt.Current_Directory>
/home/itssahil/PROJECTS/Mol_Feturizer/New_Systems/rnas/2et8

>  <Rbt.Executable>
rbdock ($Id: //depot/dev/client3/rdock/2013.1/src/exe/rbdock.cxx#4 $)

>  <Rbt.Library>
libRbt.so (2013.1, Build901 2013/11/27)

>  <Rbt.Parameter_File>
/export/apps/rDock/src/rDock_2013.1_src/data/scripts/dock_solv.prm

>  <Rbt.Receptor>
prm/blind_docking_100.prm

>  <SCORE>
-13.1976

>  <SCORE.INTER>
-18.1165

>  <SCORE.INTER.CONST>
1

>  <SCORE.INTER.POLAR>
-1.00536

>  <SCORE.INTER.ROT>
3

>  <SCORE.INTER.SOLV>
22.6501

>  <SCORE.INTER.VDW>
-21.8765

>  <SCORE.INTER.norm>
-0.823476

>  <SCORE.INTRA>
3.53002

>  <SCORE.INTRA.DIHEDRAL>
3.28526

>  <SCORE.INTRA.DIHEDRAL.0>
4.99603

>  <SCORE.INTRA.POLAR>
0

>  <SCORE.INTRA.POLAR.0>
0

>  <SCORE.INTRA.REPUL>
0

>  <SCORE.INTRA.REPUL.0>
0

>  <SCORE.INTRA.SOLV>
2.65186

>  <SCORE.INTRA.SOLV.lig_0>
-74.884

>  <SCORE.INTRA.VDW>
0.561457

>  <SCORE.INTRA.VDW.0>
-0.858933

>  <SCORE.INTRA.norm>
0.160455

>  <SCORE.RESTR>
1.38886

>  <SCORE.RESTR.CAVITY>
1.38886

>  <SCORE.RESTR.norm>
0.0631299

>  <SCORE.SYSTEM>
0

>  <SCORE.SYSTEM.CONST>
0

>  <SCORE.SYSTEM.DIHEDRAL>
0

>  <SCORE.SYSTEM.SOLV>
0

>  <SCORE.SYSTEM.norm>
0

>  <SCORE.heavy>
22

>  <SCORE.norm>
-0.599891

>  <RMSD>
8.906

$$$$
2et8_lig
 OpenBabel11021811433D
libRbt.so/2013.1/901 2013/11/27
 22 23  0  0  0  0  0  0  0  0999 V2000
   28.1472   13.0015   27.5027 N   0  0  0  0  0  0  0  0  0  0  0  0
   23.9249   15.4775   26.6970 N   0  0  0  0  0  0  0  0  0  0  0  0
   23.9975   18.5667   33.3187 N   0  0  0  0  0  0  0  0  0  0  0  0
   26.2809   15.9601   30.9798 O   0  0  0  0  0  0  0  0  0  0  0  0
   25.9198   15.0545   29.9080 C   0  0  2  0  0  0  0  0  0  0  0  0
   21.6403   14.5586   28.6806 N   0  0  0  0  0  0  0  0  0  0  0  0
   28.0440   13.7844   30.1886 O   0  0  0  0  0  0  0  0  0  0  0  0
   27.2298   14.4858   29.2404 C   0  0  1  0  0  0  0  0  0  0  0  0
   23.9494   16.2940   29.4265 O   0  0  0  0  0  0  0  0  0  0  0  0
   26.8852   13.5267   28.1277 C   0  0  1  0  0  0  0  0  0  0  0  0
   23.2703   16.3202   31.6266 O   0  0  0  0  0  0  0  0  0  0  0  0
   26.0197   14.2584   27.0763 C   0  0  0  0  0  0  0  0  0  0  0  0
   20.4737   18.5860   31.0214 O   0  0  0  0  0  0  0  0  0  0  0  0
   24.7352   14.7802   27.7842 C   0  0  1  0  0  0  0  0  0  0  0  0
   19.6520   16.3706   29.5199 O   0  0  0  0  0  0  0  0  0  0  0  0
   25.0806   15.8195   28.8091 C   0  0  2  0  0  0  0  0  0  0  0  0
   23.2454   15.5090   30.3319 C   0  0  1  0  0  0  0  0  0  0  0  0
   22.5580   17.6298   31.5129 C   0  0  2  0  0  0  0  0  0  0  0  0
   22.5942   18.3860   32.8572 C   0  0  0  0  0  0  0  0  0  0  0  0
   21.1291   17.3692   31.1400 C   0  0  2  0  0  0  0  0  0  0  0  0
   21.0275   16.6221   29.8419 C   0  0  1  0  0  0  0  0  0  0  0  0
   21.7438   15.3223   29.9757 C   0  0  1  0  0  0  0  0  0  0  0  0
  5  4  1  1  0  0  0
  5  8  1  0  0  0  0
  5 16  1  0  0  0  0
  8  7  1  1  0  0  0
  8 10  1  0  0  0  0
 10  1  1  6  0  0  0
 10 12  1  0  0  0  0
 11 18  1  0  0  0  0
 12 14  1  0  0  0  0
 14  2  1  6  0  0  0
 14 16  1  0  0  0  0
 16  9  1  1  0  0  0
 17  9  1  6  0  0  0
 17 11  1  0  0  0  0
 17 22  1  0  0  0  0
 18 19  1  1  0  0  0
 18 20  1  0  0  0  0
 19  3  1  0  0  0  0
 20 13  1  6  0  0  0
 20 21  1  0  0  0  0
 21 15  1  1  0  0  0
 21 22  1  0  0  0  0
 22  6  1  6  0  0  0
M  END
>  <CHROM.1>
-42.14800801,120.77581187,55.97706223,23.96610630,15.82596304,29.82821160
0.62159725,0.25213981,-2.13286985

>  <Name>
2et8_lig

>  <RI>
0

>  <Rbt.Current_Directory>
/home/itssahil/PROJECTS/Mol_Feturizer/New_Systems/rnas/2et8

>  <Rbt.Executable>
rbdock ($Id: //depot/dev/client3/rdock/2013.1/src/exe/rbdock.cxx#4 $)

>  <Rbt.Library>
libRbt.so (2013.1, Build901 2013/11/27)

>  <Rbt.Parameter_File>
/export/apps/rDock/src/rDock_2013.1_src/data/scripts/dock_solv.prm

>  <Rbt.Receptor>
prm/blind_docking_80.prm

>  <SCORE>
-13.0557

>  <SCORE.INTER>
-17.6393

>  <SCORE.INTER.CONST>
1

>  <SCORE.INTER.POLAR>
-1.0596

>  <SCORE.INTER.ROT>
3

>  <SCORE.INTER.SOLV>
22.4817

>  <SCORE.INTER.VDW>
-21.3214

>  <SCORE.INTER.norm>
-0.801786

>  <SCORE.INTRA>
3.52796

>  <SCORE.INTRA.DIHEDRAL>
3.70182

>  <SCORE.INTRA.DIHEDRAL.0>
4.99603

>  <SCORE.INTRA.POLAR>
0

>  <SCORE.INTRA.POLAR.0>
0

>  <SCORE.INTRA.REPUL>
0

>  <SCORE.INTRA.REPUL.0>
0

>  <SCORE.INTRA.SOLV>
2.2202

>  <SCORE.INTRA.SOLV.lig_0>
-74.884

>  <SCORE.INTRA.VDW>
0.566947

>  <SCORE.INTRA.VDW.0>
-0.858933

>  <SCORE.INTRA.norm>
0.160362

>  <SCORE.RESTR>
1.05567

>  <SCORE.RESTR.CAVITY>
1.05567

>  <SCORE.RESTR.norm>
0.0479851

>  <SCORE.SYSTEM>
0

>  <SCORE.SYSTEM.CONST>
0

>  <SCORE.SYSTEM.DIHEDRAL>
0

>  <SCORE.SYSTEM.SOLV>
0

>  <SCORE.SYSTEM.norm>
0

>  <SCORE.heavy>
22

>  <SCORE.norm>
-0.593439

>  <RMSD>
8.909

$$$$
2et8_lig
 OpenBabel11021811433D
libRbt.so/2013.1/901 2013/11/27
 22 23  0  0  0  0  0  0  0  0999 V2000
   28.0503   12.9965   27.4589 N   0  0  0  0  0  0  0  0  0  0  0  0
   23.9060   15.6486   26.8274 N   0  0  0  0  0  0  0  0  0  0  0  0
   23.7789   18.7798   33.3930 N   0  0  0  0  0  0  0  0  0  0  0  0
   26.3957   15.9434   31.0512 O   0  0  0  0  0  0  0  0  0  0  0  0
   25.9707   15.0769   29.9705 C   0  0  2  0  0  0  0  0  0  0  0  0
   21.8329   14.5783   28.7237 N   0  0  0  0  0  0  0  0  0  0  0  0
   28.0513   13.7211   30.1631 O   0  0  0  0  0  0  0  0  0  0  0  0
   27.2389   14.4744   29.2539 C   0  0  1  0  0  0  0  0  0  0  0  0
   24.0370   16.4009   29.5723 O   0  0  0  0  0  0  0  0  0  0  0  0
   26.8272   13.5547   28.1307 C   0  0  1  0  0  0  0  0  0  0  0  0
   23.2249   16.4449   31.7266 O   0  0  0  0  0  0  0  0  0  0  0  0
   25.9619   14.3426   27.1204 C   0  0  0  0  0  0  0  0  0  0  0  0
   20.4008   18.6076   30.9088 O   0  0  0  0  0  0  0  0  0  0  0  0
   24.7184   14.8964   27.8757 C   0  0  1  0  0  0  0  0  0  0  0  0
   19.7415   16.3399   29.4053 O   0  0  0  0  0  0  0  0  0  0  0  0
   25.1317   15.8981   28.9128 C   0  0  2  0  0  0  0  0  0  0  0  0
   23.3041   15.6100   30.4492 C   0  0  1  0  0  0  0  0  0  0  0  0
   22.4803   17.7285   31.5440 C   0  0  2  0  0  0  0  0  0  0  0  0
   22.4111   18.5097   32.8726 C   0  0  0  0  0  0  0  0  0  0  0  0
   21.0855   17.4150   31.0910 C   0  0  2  0  0  0  0  0  0  0  0  0
   21.0864   16.6417   29.8044 C   0  0  1  0  0  0  0  0  0  0  0  0
   21.8335   15.3684   30.0071 C   0  0  1  0  0  0  0  0  0  0  0  0
  5  4  1  1  0  0  0
  5  8  1  0  0  0  0
  5 16  1  0  0  0  0
  8  7  1  1  0  0  0
  8 10  1  0  0  0  0
 10  1  1  6  0  0  0
 10 12  1  0  0  0  0
 11 18  1  0  0  0  0
 12 14  1  0  0  0  0
 14  2  1  6  0  0  0
 14 16  1  0  0  0  0
 16  9  1  1  0  0  0
 17  9  1  6  0  0  0
 17 11  1  0  0  0  0
 17 22  1  0  0  0  0
 18 19  1  1  0  0  0
 18 20  1  0  0  0  0
 19  3  1  0  0  0  0
 20 13  1  6  0  0  0
 20 21  1  0  0  0  0
 21 15  1  1  0  0  0
 21 22  1  0  0  0  0
 22  6  1  6  0  0  0
M  END
>  <CHROM.1>
-44.12713514,128.47176337,57.68433937,23.96328016,15.88357823,29.85886661
0.62813525,0.26599888,-2.13445242

>  <Name>
2et8_lig

>  <RI>
0

>  <Rbt.Current_Directory>
/home/itssahil/PROJECTS/Mol_Feturizer/New_Systems/rnas/2et8

>  <Rbt.Executable>
rbdock ($Id: //depot/dev/client3/rdock/2013.1/src/exe/rbdock.cxx#4 $)

>  <Rbt.Library>
libRbt.so (2013.1, Build901 2013/11/27)

>  <Rbt.Parameter_File>
/export/apps/rDock/src/rDock_2013.1_src/data/scripts/dock_solv.prm

>  <Rbt.Receptor>
prm/blind_docking_100.prm

>  <SCORE>
-13.2027

>  <SCORE.INTER>
-18.1023

>  <SCORE.INTER.CONST>
1

>  <SCORE.INTER.POLAR>
-0.984874

>  <SCORE.INTER.ROT>
3

>  <SCORE.INTER.SOLV>
22.6626

>  <SCORE.INTER.VDW>
-21.9395

>  <SCORE.INTER.norm>
-0.822832

>  <SCORE.INTRA>
3.46852

>  <SCORE.INTRA.DIHEDRAL>
3.04656

>  <SCORE.INTRA.DIHEDRAL.0>
4.99603

>  <SCORE.INTRA.POLAR>
0

>  <SCORE.INTRA.POLAR.0>
0

>  <SCORE.INTRA.REPUL>
0

>  <SCORE.INTRA.REPUL.0>
0

>  <SCORE.INTRA.SOLV>
2.80834

>  <SCORE.INTRA.SOLV.lig_0>
-74.884

>  <SCORE.INTRA.VDW>
0.541064

>  <SCORE.INTRA.VDW.0>
-0.858933

>  <SCORE.INTRA.norm>
0.15766

>  <SCORE.RESTR>
1.43108

>  <SCORE.RESTR.CAVITY>
1.43108

>  <SCORE.RESTR.norm>
0.0650491

>  <SCORE.SYSTEM>
0

>  <SCORE.SYSTEM.CONST>
0

>  <SCORE.SYSTEM.DIHEDRAL>
0

>  <SCORE.SYSTEM.SOLV>
0

>  <SCORE.SYSTEM.norm>
0

>  <SCORE.heavy>
22

>  <SCORE.norm>
-0.600123

>  <RMSD>
8.910

$$$$
2et8_lig
 OpenBabel11021811433D
libRbt.so/2013.1/901 2013/11/27
 22 23  0  0  0  0  0  0  0  0999 V2000
   28.0869   13.0007   27.4863 N   0  0  0  0  0  0  0  0  0  0  0  0
   23.9112   15.5875   26.7942 N   0  0  0  0  0  0  0  0  0  0  0  0
   23.8088   18.8030   33.3244 N   0  0  0  0  0  0  0  0  0  0  0  0
   26.3681   15.9692   31.0302 O   0  0  0  0  0  0  0  0  0  0  0  0
   25.9622   15.0835   29.9578 C   0  0  2  0  0  0  0  0  0  0  0  0
   21.7994   14.5439   28.7288 N   0  0  0  0  0  0  0  0  0  0  0  0
   28.0598   13.7590   30.1810 O   0  0  0  0  0  0  0  0  0  0  0  0
   27.2434   14.4896   29.2571 C   0  0  1  0  0  0  0  0  0  0  0  0
   24.0134   16.3757   29.5302 O   0  0  0  0  0  0  0  0  0  0  0  0
   26.8518   13.5504   28.1429 C   0  0  1  0  0  0  0  0  0  0  0  0
   23.2333   16.4357   31.6959 O   0  0  0  0  0  0  0  0  0  0  0  0
   25.9827   14.3136   27.1172 C   0  0  0  0  0  0  0  0  0  0  0  0
   20.3945   18.5884   30.9032 O   0  0  0  0  0  0  0  0  0  0  0  0
   24.7267   14.8596   27.8572 C   0  0  1  0  0  0  0  0  0  0  0  0
   19.7160   16.3082   29.4275 O   0  0  0  0  0  0  0  0  0  0  0  0
   25.1192   15.8799   28.8843 C   0  0  2  0  0  0  0  0  0  0  0  0
   23.2946   15.5909   30.4241 C   0  0  1  0  0  0  0  0  0  0  0  0
   22.4843   17.7169   31.5143 C   0  0  2  0  0  0  0  0  0  0  0  0
   22.4337   18.5084   32.8376 C   0  0  0  0  0  0  0  0  0  0  0  0
   21.0834   17.3982   31.0846 C   0  0  2  0  0  0  0  0  0  0  0  0
   21.0663   16.6147   29.8042 C   0  0  1  0  0  0  0  0  0  0  0  0
   21.8180   15.3440   30.0058 C   0  0  1  0  0  0  0  0  0  0  0  0
  5  4  1  1  0  0  0
  5  8  1  0  0  0  0
  5 16  1  0  0  0  0
  8  7  1  1  0  0  0
  8 10  1  0  0  0  0
 10  1  1  6  0  0  0
 10 12  1  0  0  0  0
 11 18  1  0  0  0  0
 12 14  1  0  0  0  0
 14  2  1  6  0  0  0
 14 16  1  0  0  0  0
 16  9  1  1  0  0  0
 17  9  1  6  0  0  0
 17 11  1  0  0  0  0
 17 22  1  0  0  0  0
 18 19  1  1  0  0  0
 18 20  1  0  0  0  0
 19  3  1  0  0  0  0
 20 13  1  6  0  0  0
 20 21  1  0  0  0  0
 21 15  1  1  0  0  0
 21 22  1  0  0  0  0
 22  6  1  6  0  0  0
M  END
>  <CHROM.1>
-43.36585884,126.78987660,58.57632029,23.96243201,15.87229760,29.84646727
0.62507718,0.25594108,-2.14579480

>  <Name>
2et8_lig

>  <RI>
0

>  <Rbt.Current_Directory>
/home/itssahil/PROJECTS/Mol_Feturizer/New_Systems/rnas/2et8

>  <Rbt.Executable>
rbdock ($Id: //depot/dev/client3/rdock/2013.1/src/exe/rbdock.cxx#4 $)

>  <Rbt.Library>
libRbt.so (2013.1, Build901 2013/11/27)

>  <Rbt.Parameter_File>
/export/apps/rDock/src/rDock_2013.1_src/data/scripts/dock_solv.prm

>  <Rbt.Receptor>
prm/blind_docking_100.prm

>  <SCORE>
-13.1365

>  <SCORE.INTER>
-18.001

>  <SCORE.INTER.CONST>
1

>  <SCORE.INTER.POLAR>
-1.03344

>  <SCORE.INTER.ROT>
3

>  <SCORE.INTER.SOLV>
22.7727

>  <SCORE.INTER.VDW>
-21.7468

>  <SCORE.INTER.norm>
-0.818227

>  <SCORE.INTRA>
3.50006

>  <SCORE.INTRA.DIHEDRAL>
3.25969

>  <SCORE.INTRA.DIHEDRAL.0>
4.99603

>  <SCORE.INTRA.POLAR>
0

>  <SCORE.INTRA.POLAR.0>
0

>  <SCORE.INTRA.REPUL>
0

>  <SCORE.INTRA.REPUL.0>
0

>  <SCORE.INTRA.SOLV>
2.63162

>  <SCORE.INTRA.SOLV.lig_0>
-74.884

>  <SCORE.INTRA.VDW>
0.554409

>  <SCORE.INTRA.VDW.0>
-0.858933

>  <SCORE.INTRA.norm>
0.159094

>  <SCORE.RESTR>
1.3644

>  <SCORE.RESTR.CAVITY>
1.3644

>  <SCORE.RESTR.norm>
0.0620183

>  <SCORE.SYSTEM>
0

>  <SCORE.SYSTEM.CONST>
0

>  <SCORE.SYSTEM.DIHEDRAL>
0

>  <SCORE.SYSTEM.SOLV>
0

>  <SCORE.SYSTEM.norm>
0

>  <SCORE.heavy>
22

>  <SCORE.norm>
-0.597115

>  <RMSD>
8.917

$$$$
2et8_lig
 OpenBabel11021811433D
libRbt.so/2013.1/901 2013/11/27
 22 23  0  0  0  0  0  0  0  0999 V2000
   28.0877   13.0009   27.4837 N   0  0  0  0  0  0  0  0  0  0  0  0
   23.9099   15.5856   26.7954 N   0  0  0  0  0  0  0  0  0  0  0  0
   23.8048   18.7845   33.3358 N   0  0  0  0  0  0  0  0  0  0  0  0
   26.3724   15.9713   31.0278 O   0  0  0  0  0  0  0  0  0  0  0  0
   25.9654   15.0847   29.9566 C   0  0  2  0  0  0  0  0  0  0  0  0
   21.8034   14.5436   28.7250 N   0  0  0  0  0  0  0  0  0  0  0  0
   28.0638   13.7612   30.1780 O   0  0  0  0  0  0  0  0  0  0  0  0
   27.2459   14.4908   29.2546 C   0  0  1  0  0  0  0  0  0  0  0  0
   24.0156   16.3759   29.5307 O   0  0  0  0  0  0  0  0  0  0  0  0
   26.8532   13.5506   28.1416 C   0  0  1  0  0  0  0  0  0  0  0  0
   23.2325   16.4340   31.6954 O   0  0  0  0  0  0  0  0  0  0  0  0
   25.9824   14.3128   27.1165 C   0  0  0  0  0  0  0  0  0  0  0  0
   20.3938   18.5860   30.9004 O   0  0  0  0  0  0  0  0  0  0  0  0
   24.7272   14.8588   27.8578 C   0  0  1  0  0  0  0  0  0  0  0  0
   19.7183   16.3065   29.4222 O   0  0  0  0  0  0  0  0  0  0  0  0
   25.1207   15.8800   28.8837 C   0  0  2  0  0  0  0  0  0  0  0  0
   23.2959   15.5901   30.4230 C   0  0  1  0  0  0  0  0  0  0  0  0
   22.4832   17.7150   31.5137 C   0  0  2  0  0  0  0  0  0  0  0  0
   22.4305   18.5056   32.8375 C   0  0  0  0  0  0  0  0  0  0  0  0
   21.0830   17.3960   31.0818 C   0  0  2  0  0  0  0  0  0  0  0  0
   21.0679   16.6134   29.8009 C   0  0  1  0  0  0  0  0  0  0  0  0
   21.8199   15.3428   30.0026 C   0  0  1  0  0  0  0  0  0  0  0  0
  5  4  1  1  0  0  0
  5  8  1  0  0  0  0
  5 16  1  0  0  0  0
  8  7  1  1  0  0  0
  8 10  1  0  0  0  0
 10  1  1  6  0  0  0
 10 12  1  0  0  0  0
 11 18  1  0  0  0  0
 12 14  1  0  0  0  0
 14  2  1  6  0  0  0
 14 16  1  0  0  0  0
 16  9  1  1  0  0  0
 17  9  1  6  0  0  0
 17 11  1  0  0  0  0
 17 22  1  0  0  0  0
 18 19  1  1  0  0  0
 18 20  1  0  0  0  0
 19  3  1  0  0  0  0
 20 13  1  6  0  0  0
 20 21  1  0  0  0  0
 21 15  1  1  0  0  0
 21 22  1  0  0  0  0
 22  6  1  6  0  0  0
M  END
>  <CHROM.1>
-43.55991278,126.93566210,57.81288740,23.96335999,15.87092023,29.84534472
0.62433777,0.25624038,-2.14429402

>  <Name>
2et8_lig

>  <RI>
0

>  <Rbt.Current_Directory>
/home/itssahil/PROJECTS/Mol_Feturizer/New_Systems/rnas/2et8

>  <Rbt.Executable>
rbdock ($Id: //depot/dev/client3/rdock/2013.1/src/exe/rbdock.cxx#4 $)

>  <Rbt.Library>
libRbt.so (2013.1, Build901 2013/11/27)

>  <Rbt.Parameter_File>
/export/apps/rDock/src/rDock_2013.1_src/data/scripts/dock_solv.prm

>  <Rbt.Receptor>
prm/blind_docking_100.prm

>  <SCORE>
-13.1433

>  <SCORE.INTER>
-18.004

>  <SCORE.INTER.CONST>
1

>  <SCORE.INTER.POLAR>
-1.0379

>  <SCORE.INTER.ROT>
3

>  <SCORE.INTER.SOLV>
22.7204

>  <SCORE.INTER.VDW>
-21.7165

>  <SCORE.INTER.norm>
-0.818365

>  <SCORE.INTRA>
3.49294

>  <SCORE.INTRA.DIHEDRAL>
3.23305

>  <SCORE.INTRA.DIHEDRAL.0>
4.99603

>  <SCORE.INTRA.POLAR>
0

>  <SCORE.INTRA.POLAR.0>
0

>  <SCORE.INTRA.REPUL>
0

>  <SCORE.INTRA.REPUL.0>
0

>  <SCORE.INTRA.SOLV>
2.65867

>  <SCORE.INTRA.SOLV.lig_0>
-74.884

>  <SCORE.INTRA.VDW>
0.547081

>  <SCORE.INTRA.VDW.0>
-0.858933

>  <SCORE.INTRA.norm>
0.15877

>  <SCORE.RESTR>
1.36775

>  <SCORE.RESTR.CAVITY>
1.36775

>  <SCORE.RESTR.norm>
0.0621704

>  <SCORE.SYSTEM>
0

>  <SCORE.SYSTEM.CONST>
0

>  <SCORE.SYSTEM.DIHEDRAL>
0

>  <SCORE.SYSTEM.SOLV>
0

>  <SCORE.SYSTEM.norm>
0

>  <SCORE.heavy>
22

>  <SCORE.norm>
-0.597424

>  <RMSD>
8.917

$$$$
2et8_lig
 OpenBabel11021811433D
libRbt.so/2013.1/901 2013/11/27
 22 23  0  0  0  0  0  0  0  0999 V2000
   28.0861   13.0016   27.4810 N   0  0  0  0  0  0  0  0  0  0  0  0
   23.9073   15.5852   26.7950 N   0  0  0  0  0  0  0  0  0  0  0  0
   23.7692   18.8177   33.3114 N   0  0  0  0  0  0  0  0  0  0  0  0
   26.3668   15.9642   31.0297 O   0  0  0  0  0  0  0  0  0  0  0  0
   25.9611   15.0794   29.9565 C   0  0  2  0  0  0  0  0  0  0  0  0
   21.8131   14.5220   28.7228 N   0  0  0  0  0  0  0  0  0  0  0  0
   28.0601   13.7566   30.1767 O   0  0  0  0  0  0  0  0  0  0  0  0
   27.2423   14.4876   29.2542 C   0  0  1  0  0  0  0  0  0  0  0  0
   24.0107   16.3702   29.5319 O   0  0  0  0  0  0  0  0  0  0  0  0
   26.8508   13.5493   28.1392 C   0  0  1  0  0  0  0  0  0  0  0  0
   23.2182   16.4305   31.6931 O   0  0  0  0  0  0  0  0  0  0  0  0
   25.9803   14.3129   27.1150 C   0  0  0  0  0  0  0  0  0  0  0  0
   20.3699   18.5627   30.8793 O   0  0  0  0  0  0  0  0  0  0  0  0
   24.7243   14.8568   27.8565 C   0  0  1  0  0  0  0  0  0  0  0  0
   19.7144   16.2745   29.4055 O   0  0  0  0  0  0  0  0  0  0  0  0
   25.1165   15.8762   28.8846 C   0  0  2  0  0  0  0  0  0  0  0  0
   23.2921   15.5829   30.4237 C   0  0  1  0  0  0  0  0  0  0  0  0
   22.4619   17.7063   31.5041 C   0  0  2  0  0  0  0  0  0  0  0  0
   22.3989   18.5007   32.8251 C   0  0  0  0  0  0  0  0  0  0  0  0
   21.0655   17.3774   31.0674 C   0  0  2  0  0  0  0  0  0  0  0  0
   21.0606   16.5907   29.7889 C   0  0  1  0  0  0  0  0  0  0  0  0
   21.8194   15.3254   29.9978 C   0  0  1  0  0  0  0  0  0  0  0  0
  5  4  1  1  0  0  0
  5  8  1  0  0  0  0
  5 16  1  0  0  0  0
  8  7  1  1  0  0  0
  8 10  1  0  0  0  0
 10  1  1  6  0  0  0
 10 12  1  0  0  0  0
 11 18  1  0  0  0  0
 12 14  1  0  0  0  0
 14  2  1  6  0  0  0
 14 16  1  0  0  0  0
 16  9  1  1  0  0  0
 17  9  1  6  0  0  0
 17 11  1  0  0  0  0
 17 22  1  0  0  0  0
 18 19  1  1  0  0  0
 18 20  1  0  0  0  0
 19  3  1  0  0  0  0
 20 13  1  6  0  0  0
 20 21  1  0  0  0  0
 21 15  1  1  0  0  0
 21 22  1  0  0  0  0
 22  6  1  6  0  0  0
M  END
>  <CHROM.1>
-43.46774958,127.35641801,59.16646717,23.95472130,15.86352531,29.83956545
0.62261408,0.25399151,-2.14666568

>  <Name>
2et8_lig

>  <RI>
0

>  <Rbt.Current_Directory>
/home/itssahil/PROJECTS/Mol_Feturizer/New_Systems/rnas/2et8

>  <Rbt.Executable>
rbdock ($Id: //depot/dev/client3/rdock/2013.1/src/exe/rbdock.cxx#4 $)

>  <Rbt.Library>
libRbt.so (2013.1, Build901 2013/11/27)

>  <Rbt.Parameter_File>
/export/apps/rDock/src/rDock_2013.1_src/data/scripts/dock_solv.prm

>  <Rbt.Receptor>
prm/blind_docking_100.prm

>  <SCORE>
-13.1053

>  <SCORE.INTER>
-17.9582

>  <SCORE.INTER.CONST>
1

>  <SCORE.INTER.POLAR>
-1.03041

>  <SCORE.INTER.ROT>
3

>  <SCORE.INTER.SOLV>
22.7397

>  <SCORE.INTER.VDW>
-21.7173

>  <SCORE.INTER.norm>
-0.81628

>  <SCORE.INTRA>
3.49527

>  <SCORE.INTRA.DIHEDRAL>
3.20303

>  <SCORE.INTRA.DIHEDRAL.0>
4.99603

>  <SCORE.INTRA.POLAR>
0

>  <SCORE.INTRA.POLAR.0>
0

>  <SCORE.INTRA.REPUL>
0

>  <SCORE.INTRA.REPUL.0>
0

>  <SCORE.INTRA.SOLV>
2.67662

>  <SCORE.INTRA.SOLV.lig_0>
-74.884

>  <SCORE.INTRA.VDW>
0.555444

>  <SCORE.INTRA.VDW.0>
-0.858933

>  <SCORE.INTRA.norm>
0.158876

>  <SCORE.RESTR>
1.35758

>  <SCORE.RESTR.CAVITY>
1.35758

>  <SCORE.RESTR.norm>
0.0617083

>  <SCORE.SYSTEM>
0

>  <SCORE.SYSTEM.CONST>
0

>  <SCORE.SYSTEM.DIHEDRAL>
0

>  <SCORE.SYSTEM.SOLV>
0

>  <SCORE.SYSTEM.norm>
0

>  <SCORE.heavy>
22

>  <SCORE.norm>
-0.595696

>  <RMSD>
8.920

$$$$
2et8_lig
 OpenBabel11021811433D
libRbt.so/2013.1/901 2013/11/27
 22 23  0  0  0  0  0  0  0  0999 V2000
   28.0835   12.9953   27.4826 N   0  0  0  0  0  0  0  0  0  0  0  0
   23.9118   15.5915   26.8011 N   0  0  0  0  0  0  0  0  0  0  0  0
   23.7810   18.7837   33.3425 N   0  0  0  0  0  0  0  0  0  0  0  0
   26.3789   15.9655   31.0319 O   0  0  0  0  0  0  0  0  0  0  0  0
   25.9688   15.0813   29.9599 C   0  0  2  0  0  0  0  0  0  0  0  0
   21.8177   14.5435   28.7148 N   0  0  0  0  0  0  0  0  0  0  0  0
   28.0639   13.7521   30.1778 O   0  0  0  0  0  0  0  0  0  0  0  0
   27.2471   14.4850   29.2561 C   0  0  1  0  0  0  0  0  0  0  0  0
   24.0218   16.3780   29.5373 O   0  0  0  0  0  0  0  0  0  0  0  0
   26.8510   13.5473   28.1422 C   0  0  1  0  0  0  0  0  0  0  0  0
   23.2234   16.4338   31.6964 O   0  0  0  0  0  0  0  0  0  0  0  0
   25.9813   14.3130   27.1188 C   0  0  0  0  0  0  0  0  0  0  0  0
   20.3877   18.5827   30.8827 O   0  0  0  0  0  0  0  0  0  0  0  0
   24.7281   14.8613   27.8619 C   0  0  1  0  0  0  0  0  0  0  0  0
   19.7255   16.3033   29.3983 O   0  0  0  0  0  0  0  0  0  0  0  0
   25.1251   15.8801   28.8887 C   0  0  2  0  0  0  0  0  0  0  0  0
   23.2969   15.5907   30.4240 C   0  0  1  0  0  0  0  0  0  0  0  0
   22.4738   17.7139   31.5102 C   0  0  2  0  0  0  0  0  0  0  0  0
   22.4107   18.5036   32.8341 C   0  0  0  0  0  0  0  0  0  0  0  0
   21.0771   17.3934   31.0683 C   0  0  2  0  0  0  0  0  0  0  0  0
   21.0721   16.6116   29.7868 C   0  0  1  0  0  0  0  0  0  0  0  0
   21.8242   15.3419   29.9930 C   0  0  1  0  0  0  0  0  0  0  0  0
  5  4  1  1  0  0  0
  5  8  1  0  0  0  0
  5 16  1  0  0  0  0
  8  7  1  1  0  0  0
  8 10  1  0  0  0  0
 10  1  1  6  0  0  0
 10 12  1  0  0  0  0
 11 18  1  0  0  0  0
 12 14  1  0  0  0  0
 14  2  1  6  0  0  0
 14 16  1  0  0  0  0
 16  9  1  1  0  0  0
 17  9  1  6  0  0  0
 17 11  1  0  0  0  0
 17 22  1  0  0  0  0
 18 19  1  1  0  0  0
 18 20  1  0  0  0  0
 19  3  1  0  0  0  0
 20 13  1  6  0  0  0
 20 21  1  0  0  0  0
 21 15  1  1  0  0  0
 21 22  1  0  0  0  0
 22  6  1  6  0  0  0
M  END
>  <CHROM.1>
-43.89611336,127.52534351,57.80752067,23.96220431,15.86915076,29.84273120
0.62278920,0.25887194,-2.14262517

>  <Name>
2et8_lig

>  <RI>
0

>  <Rbt.Current_Directory>
/home/itssahil/PROJECTS/Mol_Feturizer/New_Systems/rnas/2et8

>  <Rbt.Executable>
rbdock ($Id: //depot/dev/client3/rdock/2013.1/src/exe/rbdock.cxx#4 $)

>  <Rbt.Library>
libRbt.so (2013.1, Build901 2013/11/27)

>  <Rbt.Parameter_File>
/export/apps/rDock/src/rDock_2013.1_src/data/scripts/dock_solv.prm

>  <Rbt.Receptor>
prm/blind_docking_100.prm

>  <SCORE>
-13.1496

>  <SCORE.INTER>
-17.9899

>  <SCORE.INTER.CONST>
1

>  <SCORE.INTER.POLAR>
-1.02687

>  <SCORE.INTER.ROT>
3

>  <SCORE.INTER.SOLV>
22.7018

>  <SCORE.INTER.VDW>
-21.7376

>  <SCORE.INTER.norm>
-0.817721

>  <SCORE.INTRA>
3.47176

>  <SCORE.INTRA.DIHEDRAL>
3.14678

>  <SCORE.INTRA.DIHEDRAL.0>
4.99603

>  <SCORE.INTRA.POLAR>
0

>  <SCORE.INTRA.POLAR.0>
0

>  <SCORE.INTRA.REPUL>
0

>  <SCORE.INTRA.REPUL.0>
0

>  <SCORE.INTRA.SOLV>
2.72145

>  <SCORE.INTRA.SOLV.lig_0>
-74.884

>  <SCORE.INTRA.VDW>
0.537644

>  <SCORE.INTRA.VDW.0>
-0.858933

>  <SCORE.INTRA.norm>
0.157807

>  <SCORE.RESTR>
1.36846

>  <SCORE.RESTR.CAVITY>
1.36846

>  <SCORE.RESTR.norm>
0.0622028

>  <SCORE.SYSTEM>
0

>  <SCORE.SYSTEM.CONST>
0

>  <SCORE.SYSTEM.DIHEDRAL>
0

>  <SCORE.SYSTEM.SOLV>
0

>  <SCORE.SYSTEM.norm>
0

>  <SCORE.heavy>
22

>  <SCORE.norm>
-0.597711

>  <RMSD>
8.920

$$$$
2et8_lig
 OpenBabel11021811433D
libRbt.so/2013.1/901 2013/11/27
 22 23  0  0  0  0  0  0  0  0999 V2000
   27.9980   12.9078   27.5786 N   0  0  0  0  0  0  0  0  0  0  0  0
   23.9026   15.6427   26.9824 N   0  0  0  0  0  0  0  0  0  0  0  0
   21.7814   19.9878   32.5816 N   0  0  0  0  0  0  0  0  0  0  0  0
   26.4861   15.9575   31.1480 O   0  0  0  0  0  0  0  0  0  0  0  0
   26.0190   15.0813   30.0927 C   0  0  2  0  0  0  0  0  0  0  0  0
   21.9589   14.5736   28.8201 N   0  0  0  0  0  0  0  0  0  0  0  0
   28.0719   13.6817   30.2681 O   0  0  0  0  0  0  0  0  0  0  0  0
   27.2580   14.4367   29.3617 C   0  0  1  0  0  0  0  0  0  0  0  0
   24.1080   16.4420   29.7094 O   0  0  0  0  0  0  0  0  0  0  0  0
   26.8021   13.5063   28.2647 C   0  0  1  0  0  0  0  0  0  0  0  0
   23.2015   16.5416   31.8238 O   0  0  0  0  0  0  0  0  0  0  0  0
   25.9340   14.2953   27.2578 C   0  0  0  0  0  0  0  0  0  0  0  0
   20.3978   18.6513   30.8190 O   0  0  0  0  0  0  0  0  0  0  0  0
   24.7195   14.8913   28.0278 C   0  0  1  0  0  0  0  0  0  0  0  0
   19.8247   16.3339   29.3566 O   0  0  0  0  0  0  0  0  0  0  0  0
   25.1769   15.9021   29.0372 C   0  0  2  0  0  0  0  0  0  0  0  0
   23.3440   15.6701   30.5766 C   0  0  1  0  0  0  0  0  0  0  0  0
   22.4547   17.8118   31.5705 C   0  0  2  0  0  0  0  0  0  0  0  0
   22.3204   18.6311   32.8708 C   0  0  0  0  0  0  0  0  0  0  0  0
   21.0840   17.4715   31.0665 C   0  0  2  0  0  0  0  0  0  0  0  0
   21.1481   16.6605   29.8049 C   0  0  1  0  0  0  0  0  0  0  0  0
   21.8963   15.4011   30.0781 C   0  0  1  0  0  0  0  0  0  0  0  0
  5  4  1  1  0  0  0
  5  8  1  0  0  0  0
  5 16  1  0  0  0  0
  8  7  1  1  0  0  0
  8 10  1  0  0  0  0
 10  1  1  6  0  0  0
 10 12  1  0  0  0  0
 11 18  1  0  0  0  0
 12 14  1  0  0  0  0
 14  2  1  6  0  0  0
 14 16  1  0  0  0  0
 16  9  1  1  0  0  0
 17  9  1  6  0  0  0
 17 11  1  0  0  0  0
 17 22  1  0  0  0  0
 18 19  1  1  0  0  0
 18 20  1  0  0  0  0
 19  3  1  0  0  0  0
 20 13  1  6  0  0  0
 20 21  1  0  0  0  0
 21 15  1  1  0  0  0
 21 22  1  0  0  0  0
 22  6  1  6  0  0  0
M  END
>  <CHROM.1>
-46.65264011,133.34982248,170.64477025,23.89272152,15.95181373,29.89576508
0.63455055,0.28523828,-2.19178876

>  <Name>
2et8_lig

>  <RI>
224

>  <Rbt.Current_Directory>
/home/itssahil/PROJECTS/Mol_Feturizer/New_Systems/rnas/2et8

>  <Rbt.Executable>
rbdock ($Id: //depot/dev/client3/rdock/2013.1/src/exe/rbdock.cxx#4 $)

>  <Rbt.Library>
libRbt.so (2013.1, Build901 2013/11/27)

>  <Rbt.Parameter_File>
/export/apps/rDock/src/rDock_2013.1_src/data/scripts/dock_solv.prm

>  <Rbt.Receptor>
prm/blind_docking_60.prm

>  <SCORE>
-12.017

>  <SCORE.INTER>
-17.664

>  <SCORE.INTER.CONST>
1

>  <SCORE.INTER.POLAR>
-0.959033

>  <SCORE.INTER.ROT>
3

>  <SCORE.INTER.SOLV>
21.941

>  <SCORE.INTER.VDW>
-21.4929

>  <SCORE.INTER.norm>
-0.80291

>  <SCORE.INTRA>
4.4125

>  <SCORE.INTRA.DIHEDRAL>
2.53264

>  <SCORE.INTRA.DIHEDRAL.0>
4.99603

>  <SCORE.INTRA.POLAR>
0

>  <SCORE.INTRA.POLAR.0>
0

>  <SCORE.INTRA.REPUL>
0

>  <SCORE.INTRA.REPUL.0>
0

>  <SCORE.INTRA.SOLV>
4.50819

>  <SCORE.INTRA.SOLV.lig_0>
-74.884

>  <SCORE.INTRA.VDW>
0.892088

>  <SCORE.INTRA.VDW.0>
-0.858933

>  <SCORE.INTRA.norm>
0.200568

>  <SCORE.RESTR>
1.23448

>  <SCORE.RESTR.CAVITY>
1.23448

>  <SCORE.RESTR.norm>
0.0561127

>  <SCORE.SYSTEM>
0

>  <SCORE.SYSTEM.CONST>
0

>  <SCORE.SYSTEM.DIHEDRAL>
0

>  <SCORE.SYSTEM.SOLV>
0

>  <SCORE.SYSTEM.norm>
0

>  <SCORE.heavy>
22

>  <SCORE.norm>
-0.54623

>  <RMSD>
8.950

$$$$
2et8_lig
 OpenBabel11021811433D
libRbt.so/2013.1/901 2013/11/27
 22 23  0  0  0  0  0  0  0  0999 V2000
   27.9964   12.7286   26.9359 N   0  0  0  0  0  0  0  0  0  0  0  0
   24.4342   16.1810   26.9344 N   0  0  0  0  0  0  0  0  0  0  0  0
   22.3637   17.3334   34.1509 N   0  0  0  0  0  0  0  0  0  0  0  0
   26.8474   15.1377   31.0835 O   0  0  0  0  0  0  0  0  0  0  0  0
   26.2904   14.6048   29.8566 C   0  0  2  0  0  0  0  0  0  0  0  0
   22.3492   14.7917   28.6382 N   0  0  0  0  0  0  0  0  0  0  0  0
   28.0768   12.8736   29.7306 O   0  0  0  0  0  0  0  0  0  0  0  0
   27.4384   13.9347   29.0091 C   0  0  1  0  0  0  0  0  0  0  0  0
   24.6467   16.3199   29.7722 O   0  0  0  0  0  0  0  0  0  0  0  0
   26.8854   13.3569   27.7296 C   0  0  1  0  0  0  0  0  0  0  0  0
   23.7150   16.2366   31.8764 O   0  0  0  0  0  0  0  0  0  0  0  0
   26.2036   14.4817   26.9173 C   0  0  0  0  0  0  0  0  0  0  0  0
   21.1394   18.7131   31.1320 O   0  0  0  0  0  0  0  0  0  0  0  0
   25.0701   15.0925   27.7922 C   0  0  1  0  0  0  0  0  0  0  0  0
   20.3792   16.6645   29.3820 O   0  0  0  0  0  0  0  0  0  0  0  0
   25.6416   15.7665   29.0042 C   0  0  2  0  0  0  0  0  0  0  0  0
   23.7982   15.5205   30.5290 C   0  0  1  0  0  0  0  0  0  0  0  0
   23.0949   17.5938   31.7828 C   0  0  2  0  0  0  0  0  0  0  0  0
   23.0140   18.2509   33.1763 C   0  0  0  0  0  0  0  0  0  0  0  0
   21.7078   17.4517   31.2310 C   0  0  2  0  0  0  0  0  0  0  0  0
   21.7189   16.8046   29.8765 C   0  0  1  0  0  0  0  0  0  0  0  0
   22.3411   15.4555   29.9912 C   0  0  1  0  0  0  0  0  0  0  0  0
  5  4  1  1  0  0  0
  5  8  1  0  0  0  0
  5 16  1  0  0  0  0
  8  7  1  1  0  0  0
  8 10  1  0  0  0  0
 10  1  1  6  0  0  0
 10 12  1  0  0  0  0
 11 18  1  0  0  0  0
 12 14  1  0  0  0  0
 14  2  1  6  0  0  0
 14 16  1  0  0  0  0
 16  9  1  1  0  0  0
 17  9  1  6  0  0  0
 17 11  1  0  0  0  0
 17 22  1  0  0  0  0
 18 19  1  1  0  0  0
 18 20  1  0  0  0  0
 19  3  1  0  0  0  0
 20 13  1  6  0  0  0
 20 21  1  0  0  0  0
 21 15  1  1  0  0  0
 21 22  1  0  0  0  0
 22  6  1  6  0  0  0
M  END
>  <CHROM.1>
-41.25831287,135.78369525,-51.68212492,24.31543485,15.71103704,29.87273871
0.64961095,0.44609984,-1.88268798

>  <Name>
2et8_lig

>  <RI>
0

>  <Rbt.Current_Directory>
/home/itssahil/PROJECTS/Mol_Feturizer/New_Systems/rnas/2et8

>  <Rbt.Executable>
rbdock ($Id: //depot/dev/client3/rdock/2013.1/src/exe/rbdock.cxx#4 $)

>  <Rbt.Library>
libRbt.so (2013.1, Build901 2013/11/27)

>  <Rbt.Parameter_File>
/export/apps/rDock/src/rDock_2013.1_src/data/scripts/dock_solv.prm

>  <Rbt.Receptor>
prm/blind_docking_80.prm

>  <SCORE>
-10.1557

>  <SCORE.INTER>
-15.9199

>  <SCORE.INTER.CONST>
1

>  <SCORE.INTER.POLAR>
-0.545712

>  <SCORE.INTER.ROT>
3

>  <SCORE.INTER.SOLV>
19.5168

>  <SCORE.INTER.VDW>
-20.8998

>  <SCORE.INTER.norm>
-0.723632

>  <SCORE.INTRA>
4.62898

>  <SCORE.INTRA.DIHEDRAL>
2.89435

>  <SCORE.INTRA.DIHEDRAL.0>
4.99603

>  <SCORE.INTRA.POLAR>
0

>  <SCORE.INTRA.POLAR.0>
0

>  <SCORE.INTRA.REPUL>
0

>  <SCORE.INTRA.REPUL.0>
0

>  <SCORE.INTRA.SOLV>
4.62597

>  <SCORE.INTRA.SOLV.lig_0>
-74.884

>  <SCORE.INTRA.VDW>
0.868818

>  <SCORE.INTRA.VDW.0>
-0.858933

>  <SCORE.INTRA.norm>
0.210408

>  <SCORE.RESTR>
1.13524

>  <SCORE.RESTR.CAVITY>
1.13524

>  <SCORE.RESTR.norm>
0.0516017

>  <SCORE.SYSTEM>
0

>  <SCORE.SYSTEM.CONST>
0

>  <SCORE.SYSTEM.DIHEDRAL>
0

>  <SCORE.SYSTEM.SOLV>
0

>  <SCORE.SYSTEM.norm>
0

>  <SCORE.heavy>
22

>  <SCORE.norm>
-0.461622

>  <RMSD>
8.968

$$$$
2et8_lig
 OpenBabel11021811433D
libRbt.so/2013.1/901 2013/11/27
 22 23  0  0  0  0  0  0  0  0999 V2000
   28.0752   12.9943   27.4772 N   0  0  0  0  0  0  0  0  0  0  0  0
   23.9321   15.6434   26.8251 N   0  0  0  0  0  0  0  0  0  0  0  0
   21.9026   19.9418   32.5694 N   0  0  0  0  0  0  0  0  0  0  0  0
   26.4030   15.9433   31.0596 O   0  0  0  0  0  0  0  0  0  0  0  0
   25.9833   15.0756   29.9778 C   0  0  2  0  0  0  0  0  0  0  0  0
   21.8626   14.5183   28.8089 N   0  0  0  0  0  0  0  0  0  0  0  0
   28.0638   13.7213   30.1807 O   0  0  0  0  0  0  0  0  0  0  0  0
   27.2550   14.4733   29.2672 C   0  0  1  0  0  0  0  0  0  0  0  0
   24.0506   16.3981   29.5699 O   0  0  0  0  0  0  0  0  0  0  0  0
   26.8488   13.5524   28.1431 C   0  0  1  0  0  0  0  0  0  0  0  0
   23.2697   16.4939   31.7340 O   0  0  0  0  0  0  0  0  0  0  0  0
   25.9875   14.3389   27.1283 C   0  0  0  0  0  0  0  0  0  0  0  0
   20.4008   18.5886   30.8958 O   0  0  0  0  0  0  0  0  0  0  0  0
   24.7404   14.8925   27.8776 C   0  0  1  0  0  0  0  0  0  0  0  0
   19.7546   16.2677   29.4700 O   0  0  0  0  0  0  0  0  0  0  0  0
   25.1485   15.8954   28.9157 C   0  0  2  0  0  0  0  0  0  0  0  0
   23.3430   15.6227   30.4807 C   0  0  1  0  0  0  0  0  0  0  0  0
   22.5028   17.7601   31.5250 C   0  0  2  0  0  0  0  0  0  0  0  0
   22.4410   18.5793   32.8309 C   0  0  0  0  0  0  0  0  0  0  0  0
   21.1065   17.4125   31.1027 C   0  0  2  0  0  0  0  0  0  0  0  0
   21.1004   16.6014   29.8396 C   0  0  1  0  0  0  0  0  0  0  0  0
   21.8699   15.3460   30.0683 C   0  0  1  0  0  0  0  0  0  0  0  0
  5  4  1  1  0  0  0
  5  8  1  0  0  0  0
  5 16  1  0  0  0  0
  8  7  1  1  0  0  0
  8 10  1  0  0  0  0
 10  1  1  6  0  0  0
 10 12  1  0  0  0  0
 11 18  1  0  0  0  0
 12 14  1  0  0  0  0
 14  2  1  6  0  0  0
 14 16  1  0  0  0  0
 16  9  1  1  0  0  0
 17  9  1  6  0  0  0
 17 11  1  0  0  0  0
 17 22  1  0  0  0  0
 18 19  1  1  0  0  0
 18 20  1  0  0  0  0
 19  3  1  0  0  0  0
 20 13  1  6  0  0  0
 20 21  1  0  0  0  0
 21 15  1  1  0  0  0
 21 22  1  0  0  0  0
 22  6  1  6  0  0  0
M  END
>  <CHROM.1>
-41.77834555,128.02987523,169.58946825,23.89875639,15.93230861,29.83564142
0.64260779,0.25893497,-2.18879821

>  <Name>
2et8_lig

>  <RI>
0

>  <Rbt.Current_Directory>
/home/itssahil/PROJECTS/Mol_Feturizer/New_Systems/rnas/2et8

>  <Rbt.Executable>
rbdock ($Id: //depot/dev/client3/rdock/2013.1/src/exe/rbdock.cxx#4 $)

>  <Rbt.Library>
libRbt.so (2013.1, Build901 2013/11/27)

>  <Rbt.Parameter_File>
/export/apps/rDock/src/rDock_2013.1_src/data/scripts/dock_solv.prm

>  <Rbt.Receptor>
prm/blind_docking_80.prm

>  <SCORE>
-12.9968

>  <SCORE.INTER>
-18.5483

>  <SCORE.INTER.CONST>
1

>  <SCORE.INTER.POLAR>
-0.978219

>  <SCORE.INTER.ROT>
3

>  <SCORE.INTER.SOLV>
21.5974

>  <SCORE.INTER.VDW>
-21.9039

>  <SCORE.INTER.norm>
-0.843105

>  <SCORE.INTRA>
4.7714

>  <SCORE.INTRA.DIHEDRAL>
3.77625

>  <SCORE.INTRA.DIHEDRAL.0>
4.99603

>  <SCORE.INTRA.POLAR>
0

>  <SCORE.INTRA.POLAR.0>
0

>  <SCORE.INTRA.REPUL>
0

>  <SCORE.INTRA.REPUL.0>
0

>  <SCORE.INTRA.SOLV>
3.83271

>  <SCORE.INTRA.SOLV.lig_0>
-74.884

>  <SCORE.INTRA.VDW>
0.96692

>  <SCORE.INTRA.VDW.0>
-0.858933

>  <SCORE.INTRA.norm>
0.216882

>  <SCORE.RESTR>
0.780094

>  <SCORE.RESTR.CAVITY>
0.780094

>  <SCORE.RESTR.norm>
0.0354588

>  <SCORE.SYSTEM>
0

>  <SCORE.SYSTEM.CONST>
0

>  <SCORE.SYSTEM.DIHEDRAL>
0

>  <SCORE.SYSTEM.SOLV>
0

>  <SCORE.SYSTEM.norm>
0

>  <SCORE.heavy>
22

>  <SCORE.norm>
-0.590765

>  <RMSD>
8.980

$$$$
2et8_lig
 OpenBabel11021811433D
libRbt.so/2013.1/901 2013/11/27
 22 23  0  0  0  0  0  0  0  0999 V2000
   28.0861   13.0031   27.4873 N   0  0  0  0  0  0  0  0  0  0  0  0
   23.9094   15.5902   26.8023 N   0  0  0  0  0  0  0  0  0  0  0  0
   21.8686   19.8985   32.5904 N   0  0  0  0  0  0  0  0  0  0  0  0
   26.3798   15.9806   31.0297 O   0  0  0  0  0  0  0  0  0  0  0  0
   25.9701   15.0925   29.9606 C   0  0  2  0  0  0  0  0  0  0  0  0
   21.8133   14.5299   28.7696 N   0  0  0  0  0  0  0  0  0  0  0  0
   28.0678   13.7676   30.1803 O   0  0  0  0  0  0  0  0  0  0  0  0
   27.2488   14.4965   29.2573 C   0  0  1  0  0  0  0  0  0  0  0  0
   24.0206   16.3847   29.5362 O   0  0  0  0  0  0  0  0  0  0  0  0
   26.8533   13.5548   28.1465 C   0  0  1  0  0  0  0  0  0  0  0  0
   23.2523   16.4661   31.7054 O   0  0  0  0  0  0  0  0  0  0  0  0
   25.9813   14.3161   27.1217 C   0  0  0  0  0  0  0  0  0  0  0  0
   20.3959   18.5918   30.9030 O   0  0  0  0  0  0  0  0  0  0  0  0
   24.7279   14.8644   27.8645 C   0  0  1  0  0  0  0  0  0  0  0  0
   19.7231   16.2899   29.4589 O   0  0  0  0  0  0  0  0  0  0  0  0
   25.1241   15.8868   28.8880 C   0  0  2  0  0  0  0  0  0  0  0  0
   23.3116   15.6063   30.4435 C   0  0  1  0  0  0  0  0  0  0  0  0
   22.4945   17.7405   31.5127 C   0  0  2  0  0  0  0  0  0  0  0  0
   22.4465   18.5476   32.8266 C   0  0  0  0  0  0  0  0  0  0  0  0
   21.0931   17.4081   31.0948 C   0  0  2  0  0  0  0  0  0  0  0  0
   21.0736   16.6091   29.8241 C   0  0  1  0  0  0  0  0  0  0  0  0
   21.8342   15.3455   30.0367 C   0  0  1  0  0  0  0  0  0  0  0  0
  5  4  1  1  0  0  0
  5  8  1  0  0  0  0
  5 16  1  0  0  0  0
  8  7  1  1  0  0  0
  8 10  1  0  0  0  0
 10  1  1  6  0  0  0
 10 12  1  0  0  0  0
 11 18  1  0  0  0  0
 12 14  1  0  0  0  0
 14  2  1  6  0  0  0
 14 16  1  0  0  0  0
 16  9  1  1  0  0  0
 17  9  1  6  0  0  0
 17 11  1  0  0  0  0
 17 22  1  0  0  0  0
 18 19  1  1  0  0  0
 18 20  1  0  0  0  0
 19  3  1  0  0  0  0
 20 13  1  6  0  0  0
 20 21  1  0  0  0  0
 21 15  1  1  0  0  0
 21 22  1  0  0  0  0
 22  6  1  6  0  0  0
M  END
>  <CHROM.1>
-42.75522816,126.92306873,171.78108572,23.88208323,15.92875768,29.82167869
0.63919051,0.25534156,-2.18782882

>  <Name>
2et8_lig

>  <RI>
0

>  <Rbt.Current_Directory>
/home/itssahil/PROJECTS/Mol_Feturizer/New_Systems/rnas/2et8

>  <Rbt.Executable>
rbdock ($Id: //depot/dev/client3/rdock/2013.1/src/exe/rbdock.cxx#4 $)

>  <Rbt.Library>
libRbt.so (2013.1, Build901 2013/11/27)

>  <Rbt.Parameter_File>
/export/apps/rDock/src/rDock_2013.1_src/data/scripts/dock_solv.prm

>  <Rbt.Receptor>
prm/blind_docking_80.prm

>  <SCORE>
-13.1305

>  <SCORE.INTER>
-18.6215

>  <SCORE.INTER.CONST>
1

>  <SCORE.INTER.POLAR>
-1.04785

>  <SCORE.INTER.ROT>
3

>  <SCORE.INTER.SOLV>
21.3749

>  <SCORE.INTER.VDW>
-21.6465

>  <SCORE.INTER.norm>
-0.846432

>  <SCORE.INTRA>
4.68793

>  <SCORE.INTRA.DIHEDRAL>
3.56958

>  <SCORE.INTRA.DIHEDRAL.0>
4.99603

>  <SCORE.INTRA.POLAR>
0

>  <SCORE.INTRA.POLAR.0>
0

>  <SCORE.INTRA.REPUL>
0

>  <SCORE.INTRA.REPUL.0>
0

>  <SCORE.INTRA.SOLV>
3.84632

>  <SCORE.INTRA.SOLV.lig_0>
-74.884

>  <SCORE.INTRA.VDW>
0.979977

>  <SCORE.INTRA.VDW.0>
-0.858933

>  <SCORE.INTRA.norm>
0.213088

>  <SCORE.RESTR>
0.803073

>  <SCORE.RESTR.CAVITY>
0.803073

>  <SCORE.RESTR.norm>
0.0365033

>  <SCORE.SYSTEM>
0

>  <SCORE.SYSTEM.CONST>
0

>  <SCORE.SYSTEM.DIHEDRAL>
0

>  <SCORE.SYSTEM.SOLV>
0

>  <SCORE.SYSTEM.norm>
0

>  <SCORE.heavy>
22

>  <SCORE.norm>
-0.596841

>  <RMSD>
8.983

$$$$
2et8_lig
 OpenBabel11021811433D
libRbt.so/2013.1/901 2013/11/27
 22 23  0  0  0  0  0  0  0  0999 V2000
   28.0409   12.9917   27.4470 N   0  0  0  0  0  0  0  0  0  0  0  0
   23.9324   15.7159   26.8937 N   0  0  0  0  0  0  0  0  0  0  0  0
   21.8216   19.9468   32.5849 N   0  0  0  0  0  0  0  0  0  0  0  0
   26.4843   15.9361   31.0849 O   0  0  0  0  0  0  0  0  0  0  0  0
   26.0303   15.0853   30.0034 C   0  0  2  0  0  0  0  0  0  0  0  0
   21.9695   14.5563   28.7815 N   0  0  0  0  0  0  0  0  0  0  0  0
   28.0908   13.6944   30.1565 O   0  0  0  0  0  0  0  0  0  0  0  0
   27.2786   14.4681   29.2646 C   0  0  1  0  0  0  0  0  0  0  0  0
   24.1133   16.4438   29.6424 O   0  0  0  0  0  0  0  0  0  0  0  0
   26.8364   13.5643   28.1400 C   0  0  1  0  0  0  0  0  0  0  0  0
   23.2481   16.5165   31.7751 O   0  0  0  0  0  0  0  0  0  0  0  0
   25.9704   14.3743   27.1481 C   0  0  0  0  0  0  0  0  0  0  0  0
   20.3999   18.5996   30.8426 O   0  0  0  0  0  0  0  0  0  0  0  0
   24.7467   14.9421   27.9248 C   0  0  1  0  0  0  0  0  0  0  0  0
   19.8254   16.2865   29.3739 O   0  0  0  0  0  0  0  0  0  0  0  0
   25.1904   15.9287   28.9639 C   0  0  2  0  0  0  0  0  0  0  0  0
   23.3760   15.6563   30.5186 C   0  0  1  0  0  0  0  0  0  0  0  0
   22.4813   17.7795   31.5465 C   0  0  2  0  0  0  0  0  0  0  0  0
   22.3632   18.5874   32.8556 C   0  0  0  0  0  0  0  0  0  0  0  0
   21.1049   17.4264   31.0673 C   0  0  2  0  0  0  0  0  0  0  0  0
   21.1535   16.6258   29.7984 C   0  0  1  0  0  0  0  0  0  0  0  0
   21.9221   15.3735   30.0469 C   0  0  1  0  0  0  0  0  0  0  0  0
  5  4  1  1  0  0  0
  5  8  1  0  0  0  0
  5 16  1  0  0  0  0
  8  7  1  1  0  0  0
  8 10  1  0  0  0  0
 10  1  1  6  0  0  0
 10 12  1  0  0  0  0
 11 18  1  0  0  0  0
 12 14  1  0  0  0  0
 14  2  1  6  0  0  0
 14 16  1  0  0  0  0
 16  9  1  1  0  0  0
 17  9  1  6  0  0  0
 17 11  1  0  0  0  0
 17 22  1  0  0  0  0
 18 19  1  1  0  0  0
 18 20  1  0  0  0  0
 19  3  1  0  0  0  0
 20 13  1  6  0  0  0
 20 21  1  0  0  0  0
 21 15  1  1  0  0  0
 21 22  1  0  0  0  0
 22  6  1  6  0  0  0
M  END
>  <CHROM.1>
-44.41373853,132.11683382,169.79092762,23.91470233,15.95184008,29.84027419
0.63758555,0.27264135,-2.17693561

>  <Name>
2et8_lig

>  <RI>
0

>  <Rbt.Current_Directory>
/home/itssahil/PROJECTS/Mol_Feturizer/New_Systems/rnas/2et8

>  <Rbt.Executable>
rbdock ($Id: //depot/dev/client3/rdock/2013.1/src/exe/rbdock.cxx#4 $)

>  <Rbt.Library>
libRbt.so (2013.1, Build901 2013/11/27)

>  <Rbt.Parameter_File>
/export/apps/rDock/src/rDock_2013.1_src/data/scripts/dock_solv.prm

>  <Rbt.Receptor>
prm/blind_docking_80.prm

>  <SCORE>
-12.9649

>  <SCORE.INTER>
-18.3031

>  <SCORE.INTER.CONST>
1

>  <SCORE.INTER.POLAR>
-0.956921

>  <SCORE.INTER.ROT>
3

>  <SCORE.INTER.SOLV>
21.6898

>  <SCORE.INTER.VDW>
-21.8423

>  <SCORE.INTER.norm>
-0.831958

>  <SCORE.INTRA>
4.56564

>  <SCORE.INTRA.DIHEDRAL>
3.0116

>  <SCORE.INTRA.DIHEDRAL.0>
4.99603

>  <SCORE.INTRA.POLAR>
0

>  <SCORE.INTRA.POLAR.0>
0

>  <SCORE.INTRA.REPUL>
0

>  <SCORE.INTRA.REPUL.0>
0

>  <SCORE.INTRA.SOLV>
4.28242

>  <SCORE.INTRA.SOLV.lig_0>
-74.884

>  <SCORE.INTRA.VDW>
0.918634

>  <SCORE.INTRA.VDW.0>
-0.858933

>  <SCORE.INTRA.norm>
0.207529

>  <SCORE.RESTR>
0.772511

>  <SCORE.RESTR.CAVITY>
0.772511

>  <SCORE.RESTR.norm>
0.0351142

>  <SCORE.SYSTEM>
0

>  <SCORE.SYSTEM.CONST>
0

>  <SCORE.SYSTEM.DIHEDRAL>
0

>  <SCORE.SYSTEM.SOLV>
0

>  <SCORE.SYSTEM.norm>
0

>  <SCORE.heavy>
22

>  <SCORE.norm>
-0.589315

>  <RMSD>
8.987

$$$$
2et8_lig
 OpenBabel11021811433D
libRbt.so/2013.1/901 2013/11/27
 22 23  0  0  0  0  0  0  0  0999 V2000
   28.1248   12.9975   27.4887 N   0  0  0  0  0  0  0  0  0  0  0  0
   23.9351   15.5573   26.7804 N   0  0  0  0  0  0  0  0  0  0  0  0
   21.8254   19.8341   32.5912 N   0  0  0  0  0  0  0  0  0  0  0  0
   26.3782   15.9621   31.0223 O   0  0  0  0  0  0  0  0  0  0  0  0
   25.9806   15.0719   29.9505 C   0  0  2  0  0  0  0  0  0  0  0  0
   21.8202   14.4953   28.7447 N   0  0  0  0  0  0  0  0  0  0  0  0
   28.0857   13.7607   30.1820 O   0  0  0  0  0  0  0  0  0  0  0  0
   27.2673   14.4845   29.2544 C   0  0  1  0  0  0  0  0  0  0  0  0
   24.0251   16.3513   29.5152 O   0  0  0  0  0  0  0  0  0  0  0  0
   26.8845   13.5408   28.1410 C   0  0  1  0  0  0  0  0  0  0  0  0
   23.2584   16.4250   31.6852 O   0  0  0  0  0  0  0  0  0  0  0  0
   26.0135   14.2968   27.1114 C   0  0  0  0  0  0  0  0  0  0  0  0
   20.3980   18.5486   30.8914 O   0  0  0  0  0  0  0  0  0  0  0  0
   24.7522   14.8365   27.8470 C   0  0  1  0  0  0  0  0  0  0  0  0
   19.7278   16.2499   29.4408 O   0  0  0  0  0  0  0  0  0  0  0  0
   25.1357   15.8610   28.8732 C   0  0  2  0  0  0  0  0  0  0  0  0
   23.3181   15.5691   30.4207 C   0  0  1  0  0  0  0  0  0  0  0  0
   22.4984   17.6987   31.4969 C   0  0  2  0  0  0  0  0  0  0  0  0
   22.4501   18.5018   32.8133 C   0  0  0  0  0  0  0  0  0  0  0  0
   21.0973   17.3654   31.0791 C   0  0  2  0  0  0  0  0  0  0  0  0
   21.0780   16.5702   29.8060 C   0  0  1  0  0  0  0  0  0  0  0  0
   21.8407   15.3071   30.0142 C   0  0  1  0  0  0  0  0  0  0  0  0
  5  4  1  1  0  0  0
  5  8  1  0  0  0  0
  5 16  1  0  0  0  0
  8  7  1  1  0  0  0
  8 10  1  0  0  0  0
 10  1  1  6  0  0  0
 10 12  1  0  0  0  0
 11 18  1  0  0  0  0
 12 14  1  0  0  0  0
 14  2  1  6  0  0  0
 14 16  1  0  0  0  0
 16  9  1  1  0  0  0
 17  9  1  6  0  0  0
 17 11  1  0  0  0  0
 17 22  1  0  0  0  0
 18 19  1  1  0  0  0
 18 20  1  0  0  0  0
 19  3  1  0  0  0  0
 20 13  1  6  0  0  0
 20 21  1  0  0  0  0
 21 15  1  1  0  0  0
 21 22  1  0  0  0  0
 22  6  1  6  0  0  0
M  END
>  <CHROM.1>
-42.58296451,126.35922398,173.79891649,23.89180797,15.89761138,29.80854031
0.63318156,0.25391278,-2.18273752

>  <Name>
2et8_lig

>  <RI>
0

>  <Rbt.Current_Directory>
/home/itssahil/PROJECTS/Mol_Feturizer/New_Systems/rnas/2et8

>  <Rbt.Executable>
rbdock ($Id: //depot/dev/client3/rdock/2013.1/src/exe/rbdock.cxx#4 $)

>  <Rbt.Library>
libRbt.so (2013.1, Build901 2013/11/27)

>  <Rbt.Parameter_File>
/export/apps/rDock/src/rDock_2013.1_src/data/scripts/dock_solv.prm

>  <Rbt.Receptor>
prm/blind_docking_100.prm

>  <SCORE>
-12.3778

>  <SCORE.INTER>
-18.531

>  <SCORE.INTER.CONST>
1

>  <SCORE.INTER.POLAR>
-1.03178

>  <SCORE.INTER.ROT>
3

>  <SCORE.INTER.SOLV>
21.1113

>  <SCORE.INTER.VDW>
-21.5518

>  <SCORE.INTER.norm>
-0.842317

>  <SCORE.INTRA>
4.75574

>  <SCORE.INTRA.DIHEDRAL>
3.52739

>  <SCORE.INTRA.DIHEDRAL.0>
4.99603

>  <SCORE.INTRA.POLAR>
0

>  <SCORE.INTRA.POLAR.0>
0

>  <SCORE.INTRA.REPUL>
0

>  <SCORE.INTRA.REPUL.0>
0

>  <SCORE.INTRA.SOLV>
3.84142

>  <SCORE.INTRA.SOLV.lig_0>
-74.884

>  <SCORE.INTRA.VDW>
1.07134

>  <SCORE.INTRA.VDW.0>
-0.858933

>  <SCORE.INTRA.norm>
0.21617

>  <SCORE.RESTR>
1.39743

>  <SCORE.RESTR.CAVITY>
1.39743

>  <SCORE.RESTR.norm>
0.0635196

>  <SCORE.SYSTEM>
0

>  <SCORE.SYSTEM.CONST>
0

>  <SCORE.SYSTEM.DIHEDRAL>
0

>  <SCORE.SYSTEM.SOLV>
0

>  <SCORE.SYSTEM.norm>
0

>  <SCORE.heavy>
22

>  <SCORE.norm>
-0.562628

>  <RMSD>
8.989

$$$$
2et8_lig
 OpenBabel11021811433D
libRbt.so/2013.1/901 2013/11/27
 22 23  0  0  0  0  0  0  0  0999 V2000
   28.1223   12.9862   26.8229 N   0  0  0  0  0  0  0  0  0  0  0  0
   23.8601   15.5128   27.0629 N   0  0  0  0  0  0  0  0  0  0  0  0
   19.4477   17.4408   29.2045 N   0  0  0  0  0  0  0  0  0  0  0  0
   26.6559   15.0183   31.0710 O   0  0  0  0  0  0  0  0  0  0  0  0
   26.1768   14.3828   29.8602 C   0  0  2  0  0  0  0  0  0  0  0  0
   24.6791   15.6495   32.8308 N   0  0  0  0  0  0  0  0  0  0  0  0
   28.3078   13.1172   29.6132 O   0  0  0  0  0  0  0  0  0  0  0  0
   27.4047   14.0076   28.9457 C   0  0  1  0  0  0  0  0  0  0  0  0
   24.1775   15.6682   29.8900 O   0  0  0  0  0  0  0  0  0  0  0  0
   26.9373   13.3299   27.6811 C   0  0  1  0  0  0  0  0  0  0  0  0
   23.1409   17.7190   30.0397 O   0  0  0  0  0  0  0  0  0  0  0  0
   25.9726   14.2731   26.9262 C   0  0  0  0  0  0  0  0  0  0  0  0
   20.1058   16.3795   31.5613 O   0  0  0  0  0  0  0  0  0  0  0  0
   24.7739   14.5937   27.8662 C   0  0  1  0  0  0  0  0  0  0  0  0
   21.9653   15.8056   33.5738 O   0  0  0  0  0  0  0  0  0  0  0  0
   25.2336   15.3699   29.0645 C   0  0  2  0  0  0  0  0  0  0  0  0
   24.1883   16.8103   30.6819 C   0  0  1  0  0  0  0  0  0  0  0  0
   21.7599   17.1481   30.0869 C   0  0  2  0  0  0  0  0  0  0  0  0
   20.7475   18.1227   29.4502 C   0  0  0  0  0  0  0  0  0  0  0  0
   21.3817   16.9221   31.5204 C   0  0  2  0  0  0  0  0  0  0  0  0
   22.3402   15.9884   32.2008 C   0  0  1  0  0  0  0  0  0  0  0  0
   23.7090   16.5743   32.1418 C   0  0  1  0  0  0  0  0  0  0  0  0
  5  4  1  1  0  0  0
  5  8  1  0  0  0  0
  5 16  1  0  0  0  0
  8  7  1  1  0  0  0
  8 10  1  0  0  0  0
 10  1  1  6  0  0  0
 10 12  1  0  0  0  0
 11 18  1  0  0  0  0
 12 14  1  0  0  0  0
 14  2  1  6  0  0  0
 14 16  1  0  0  0  0
 16  9  1  1  0  0  0
 17  9  1  6  0  0  0
 17 11  1  0  0  0  0
 17 22  1  0  0  0  0
 18 19  1  1  0  0  0
 18 20  1  0  0  0  0
 19  3  1  0  0  0  0
 20 13  1  6  0  0  0
 20 21  1  0  0  0  0
 21 15  1  1  0  0  0
 21 22  1  0  0  0  0
 22  6  1  6  0  0  0
M  END
>  <CHROM.1>
94.99493644,109.54245798,166.69271867,24.12916129,15.58638845,29.95058819
0.42130726,0.47675458,-1.61936277

>  <Name>
2et8_lig

>  <RI>
0

>  <Rbt.Current_Directory>
/home/itssahil/PROJECTS/Mol_Feturizer/New_Systems/rnas/2et8

>  <Rbt.Executable>
rbdock ($Id: //depot/dev/client3/rdock/2013.1/src/exe/rbdock.cxx#4 $)

>  <Rbt.Library>
libRbt.so (2013.1, Build901 2013/11/27)

>  <Rbt.Parameter_File>
/export/apps/rDock/src/rDock_2013.1_src/data/scripts/dock_solv.prm

>  <Rbt.Receptor>
prm/blind_docking_100.prm

>  <SCORE>
-5.1704

>  <SCORE.INTER>
-9.81805

>  <SCORE.INTER.CONST>
1

>  <SCORE.INTER.POLAR>
-0.406577

>  <SCORE.INTER.ROT>
3

>  <SCORE.INTER.SOLV>
23.3208

>  <SCORE.INTER.VDW>
-18.5637

>  <SCORE.INTER.norm>
-0.446275

>  <SCORE.INTRA>
3.71542

>  <SCORE.INTRA.DIHEDRAL>
6.72157

>  <SCORE.INTRA.DIHEDRAL.0>
4.99603

>  <SCORE.INTRA.POLAR>
0

>  <SCORE.INTRA.POLAR.0>
0

>  <SCORE.INTRA.REPUL>
0

>  <SCORE.INTRA.REPUL.0>
0

>  <SCORE.INTRA.SOLV>
2.28158

>  <SCORE.INTRA.SOLV.lig_0>
-74.884

>  <SCORE.INTRA.VDW>
-0.786155

>  <SCORE.INTRA.VDW.0>
-0.858933

>  <SCORE.INTRA.norm>
0.168883

>  <SCORE.RESTR>
0.932223

>  <SCORE.RESTR.CAVITY>
0.932223

>  <SCORE.RESTR.norm>
0.0423738

>  <SCORE.SYSTEM>
0

>  <SCORE.SYSTEM.CONST>
0

>  <SCORE.SYSTEM.DIHEDRAL>
0

>  <SCORE.SYSTEM.SOLV>
0

>  <SCORE.SYSTEM.norm>
0

>  <SCORE.heavy>
22

>  <SCORE.norm>
-0.235018

>  <RMSD>
8.991

$$$$
2et8_lig
 OpenBabel11021811433D
libRbt.so/2013.1/901 2013/11/27
 22 23  0  0  0  0  0  0  0  0999 V2000
   17.4037   10.7629   31.5987 N   0  0  0  0  0  0  0  0  0  0  0  0
   16.1933   15.4682   30.5973 N   0  0  0  0  0  0  0  0  0  0  0  0
   21.0642   20.0933   34.2606 N   0  0  0  0  0  0  0  0  0  0  0  0
   20.5938   14.4131   32.5075 O   0  0  0  0  0  0  0  0  0  0  0  0
   19.1841   14.0784   32.4926 C   0  0  2  0  0  0  0  0  0  0  0  0
   19.4616   16.3711   29.0453 N   0  0  0  0  0  0  0  0  0  0  0  0
   19.6910   11.6789   32.9280 O   0  0  0  0  0  0  0  0  0  0  0  0
   19.0080   12.5773   32.0445 C   0  0  1  0  0  0  0  0  0  0  0  0
   18.5880   16.3011   31.8969 O   0  0  0  0  0  0  0  0  0  0  0  0
   17.5485   12.1944   32.0332 C   0  0  1  0  0  0  0  0  0  0  0  0
   18.4431   18.5986   31.9505 O   0  0  0  0  0  0  0  0  0  0  0  0
   16.7841   13.1354   31.0739 C   0  0  0  0  0  0  0  0  0  0  0  0
   22.0578   19.0978   32.0260 O   0  0  0  0  0  0  0  0  0  0  0  0
   16.9761   14.5971   31.5737 C   0  0  1  0  0  0  0  0  0  0  0  0
   21.7719   17.9184   29.5032 O   0  0  0  0  0  0  0  0  0  0  0  0
   18.4153   15.0070   31.4710 C   0  0  2  0  0  0  0  0  0  0  0  0
   18.3590   17.3726   31.0421 C   0  0  1  0  0  0  0  0  0  0  0  0
   19.7954   18.7863   32.5598 C   0  0  2  0  0  0  0  0  0  0  0  0
   19.8230   20.0527   33.4405 C   0  0  0  0  0  0  0  0  0  0  0  0
   20.8021   18.9378   31.4587 C   0  0  2  0  0  0  0  0  0  0  0  0
   20.8143   17.7380   30.5566 C   0  0  1  0  0  0  0  0  0  0  0  0
   19.4590   17.5679   29.9612 C   0  0  1  0  0  0  0  0  0  0  0  0
  5  4  1  6  0  0  0
  5  8  1  0  0  0  0
  5 16  1  0  0  0  0
  8  7  1  1  0  0  0
  8 10  1  0  0  0  0
 10  1  1  6  0  0  0
 10 12  1  0  0  0  0
 11 18  1  0  0  0  0
 12 14  1  0  0  0  0
 14  2  1  6  0  0  0
 14 16  1  0  0  0  0
 16  9  1  1  0  0  0
 17  9  1  1  0  0  0
 17 11  1  0  0  0  0
 17 22  1  0  0  0  0
 18 19  1  1  0  0  0
 18 20  1  0  0  0  0
 19  3  1  0  0  0  0
 20 13  1  1  0  0  0
 20 21  1  0  0  0  0
 21 15  1  6  0  0  0
 21 22  1  0  0  0  0
 22  6  1  6  0  0  0
M  END
>  <CHROM.1>
162.19690647,171.28485665,168.49137108,19.23594970,16.05040154,31.64753220
-2.04855793,-0.61865385,-0.26570415

>  <Name>
2et8_lig

>  <RI>
2.82936e+07

>  <Rbt.Current_Directory>
/home/itssahil/PROJECTS/Mol_Feturizer/New_Systems/rnas/2et8

>  <Rbt.Executable>
rbdock ($Id: //depot/dev/client3/rdock/2013.1/src/exe/rbdock.cxx#4 $)

>  <Rbt.Library>
libRbt.so (2013.1, Build901 2013/11/27)

>  <Rbt.Parameter_File>
/export/apps/rDock/src/rDock_2013.1_src/data/scripts/dock_solv.prm

>  <Rbt.Receptor>
prm/pocket_docking_8.prm

>  <SCORE>
-9.44972

>  <SCORE.INTER>
-9.22715

>  <SCORE.INTER.CONST>
1

>  <SCORE.INTER.POLAR>
-1.70091

>  <SCORE.INTER.ROT>
3

>  <SCORE.INTER.SOLV>
7.57095

>  <SCORE.INTER.VDW>
-8.6054

>  <SCORE.INTER.norm>
-0.419416

>  <SCORE.INTRA>
-0.222564

>  <SCORE.INTRA.DIHEDRAL>
-2.56873

>  <SCORE.INTRA.DIHEDRAL.0>
4.99603

>  <SCORE.INTRA.POLAR>
0

>  <SCORE.INTRA.POLAR.0>
0

>  <SCORE.INTRA.REPUL>
0

>  <SCORE.INTRA.REPUL.0>
0

>  <SCORE.INTRA.SOLV>
3.08015

>  <SCORE.INTRA.SOLV.lig_0>
-74.884

>  <SCORE.INTRA.VDW>
-0.478279

>  <SCORE.INTRA.VDW.0>
-0.858933

>  <SCORE.INTRA.norm>
-0.0101165

>  <SCORE.RESTR>
0

>  <SCORE.RESTR.CAVITY>
0

>  <SCORE.RESTR.norm>
0

>  <SCORE.SYSTEM>
0

>  <SCORE.SYSTEM.CONST>
0

>  <SCORE.SYSTEM.DIHEDRAL>
0

>  <SCORE.SYSTEM.SOLV>
0

>  <SCORE.SYSTEM.norm>
0

>  <SCORE.heavy>
22

>  <SCORE.norm>
-0.429533

>  <RMSD>
8.992

$$$$
2et8_lig
 OpenBabel11021811433D
libRbt.so/2013.1/901 2013/11/27
 22 23  0  0  0  0  0  0  0  0999 V2000
   28.1190   12.9995   27.4879 N   0  0  0  0  0  0  0  0  0  0  0  0
   23.9301   15.5606   26.7798 N   0  0  0  0  0  0  0  0  0  0  0  0
   21.8296   19.8406   32.5888 N   0  0  0  0  0  0  0  0  0  0  0  0
   26.3771   15.9700   31.0189 O   0  0  0  0  0  0  0  0  0  0  0  0
   25.9782   15.0785   29.9487 C   0  0  2  0  0  0  0  0  0  0  0  0
   21.8178   14.5091   28.7274 N   0  0  0  0  0  0  0  0  0  0  0  0
   28.0827   13.7665   30.1801 O   0  0  0  0  0  0  0  0  0  0  0  0
   27.2639   14.4895   29.2523 C   0  0  1  0  0  0  0  0  0  0  0  0
   24.0229   16.3584   29.5134 O   0  0  0  0  0  0  0  0  0  0  0  0
   26.8796   13.5444   28.1405 C   0  0  1  0  0  0  0  0  0  0  0  0
   23.2471   16.4263   31.6804 O   0  0  0  0  0  0  0  0  0  0  0  0
   26.0081   14.2994   27.1107 C   0  0  0  0  0  0  0  0  0  0  0  0
   20.3942   18.5579   30.8815 O   0  0  0  0  0  0  0  0  0  0  0  0
   24.7478   14.8408   27.8466 C   0  0  1  0  0  0  0  0  0  0  0  0
   19.7258   16.2653   29.4205 O   0  0  0  0  0  0  0  0  0  0  0  0
   25.1327   15.8666   28.8711 C   0  0  2  0  0  0  0  0  0  0  0  0
   23.3107   15.5745   30.4133 C   0  0  1  0  0  0  0  0  0  0  0  0
   22.4904   17.7021   31.4930 C   0  0  2  0  0  0  0  0  0  0  0  0
   22.4381   18.5009   32.8119 C   0  0  0  0  0  0  0  0  0  0  0  0
   21.0904   17.3728   31.0682 C   0  0  2  0  0  0  0  0  0  0  0  0
   21.0750   16.5818   29.7924 C   0  0  1  0  0  0  0  0  0  0  0  0
   21.8345   15.3167   29.9997 C   0  0  1  0  0  0  0  0  0  0  0  0
  5  4  1  1  0  0  0
  5  8  1  0  0  0  0
  5 16  1  0  0  0  0
  8  7  1  1  0  0  0
  8 10  1  0  0  0  0
 10  1  1  6  0  0  0
 10 12  1  0  0  0  0
 11 18  1  0  0  0  0
 12 14  1  0  0  0  0
 14  2  1  6  0  0  0
 14 16  1  0  0  0  0
 16  9  1  1  0  0  0
 17  9  1  6  0  0  0
 17 11  1  0  0  0  0
 17 22  1  0  0  0  0
 18 19  1  1  0  0  0
 18 20  1  0  0  0  0
 19  3  1  0  0  0  0
 20 13  1  6  0  0  0
 20 21  1  0  0  0  0
 21 15  1  1  0  0  0
 21 22  1  0  0  0  0
 22  6  1  6  0  0  0
M  END
>  <CHROM.1>
-43.05576008,126.58059077,173.21289998,23.88733852,15.90387904,29.80290777
0.63210944,0.25576396,-2.18185433

>  <Name>
2et8_lig

>  <RI>
0

>  <Rbt.Current_Directory>
/home/itssahil/PROJECTS/Mol_Feturizer/New_Systems/rnas/2et8

>  <Rbt.Executable>
rbdock ($Id: //depot/dev/client3/rdock/2013.1/src/exe/rbdock.cxx#4 $)

>  <Rbt.Library>
libRbt.so (2013.1, Build901 2013/11/27)

>  <Rbt.Parameter_File>
/export/apps/rDock/src/rDock_2013.1_src/data/scripts/dock_solv.prm

>  <Rbt.Receptor>
prm/blind_docking_100.prm

>  <SCORE>
-12.4245

>  <SCORE.INTER>
-18.5172

>  <SCORE.INTER.CONST>
1

>  <SCORE.INTER.POLAR>
-1.04155

>  <SCORE.INTER.ROT>
3

>  <SCORE.INTER.SOLV>
21.1763

>  <SCORE.INTER.VDW>
-21.5318

>  <SCORE.INTER.norm>
-0.841693

>  <SCORE.INTRA>
4.69079

>  <SCORE.INTRA.DIHEDRAL>
3.47309

>  <SCORE.INTRA.DIHEDRAL.0>
4.99603

>  <SCORE.INTRA.POLAR>
0

>  <SCORE.INTRA.POLAR.0>
0

>  <SCORE.INTRA.REPUL>
0

>  <SCORE.INTRA.REPUL.0>
0

>  <SCORE.INTRA.SOLV>
3.86754

>  <SCORE.INTRA.SOLV.lig_0>
-74.884

>  <SCORE.INTRA.VDW>
1.02047

>  <SCORE.INTRA.VDW.0>
-0.858933

>  <SCORE.INTRA.norm>
0.213218

>  <SCORE.RESTR>
1.40196

>  <SCORE.RESTR.CAVITY>
1.40196

>  <SCORE.RESTR.norm>
0.0637253

>  <SCORE.SYSTEM>
0

>  <SCORE.SYSTEM.CONST>
0

>  <SCORE.SYSTEM.DIHEDRAL>
0

>  <SCORE.SYSTEM.SOLV>
0

>  <SCORE.SYSTEM.norm>
0

>  <SCORE.heavy>
22

>  <SCORE.norm>
-0.56475

>  <RMSD>
8.994

$$$$
2et8_lig
 OpenBabel11021811433D
libRbt.so/2013.1/901 2013/11/27
 22 23  0  0  0  0  0  0  0  0999 V2000
   28.0682   12.9954   27.4682 N   0  0  0  0  0  0  0  0  0  0  0  0
   23.9513   15.6986   26.8753 N   0  0  0  0  0  0  0  0  0  0  0  0
   21.7571   19.9376   32.5467 N   0  0  0  0  0  0  0  0  0  0  0  0
   26.4763   15.9518   31.0809 O   0  0  0  0  0  0  0  0  0  0  0  0
   26.0327   15.0935   30.0011 C   0  0  2  0  0  0  0  0  0  0  0  0
   21.9747   14.5399   28.7756 N   0  0  0  0  0  0  0  0  0  0  0  0
   28.0983   13.7124   30.1742 O   0  0  0  0  0  0  0  0  0  0  0  0
   27.2882   14.4779   29.2732 C   0  0  1  0  0  0  0  0  0  0  0  0
   24.1121   16.4416   29.6211 O   0  0  0  0  0  0  0  0  0  0  0  0
   26.8569   13.5663   28.1507 C   0  0  1  0  0  0  0  0  0  0  0  0
   23.2477   16.5271   31.7538 O   0  0  0  0  0  0  0  0  0  0  0  0
   25.9935   14.3673   27.1492 C   0  0  0  0  0  0  0  0  0  0  0  0
   20.3914   18.5927   30.8073 O   0  0  0  0  0  0  0  0  0  0  0  0
   24.7625   14.9338   27.9154 C   0  0  1  0  0  0  0  0  0  0  0  0
   19.8246   16.2667   29.3563 O   0  0  0  0  0  0  0  0  0  0  0  0
   25.1956   15.9277   28.9520 C   0  0  2  0  0  0  0  0  0  0  0  0
   23.3782   15.6580   30.5037 C   0  0  1  0  0  0  0  0  0  0  0  0
   22.4762   17.7855   31.5162 C   0  0  2  0  0  0  0  0  0  0  0  0
   22.3558   18.6027   32.8193 C   0  0  0  0  0  0  0  0  0  0  0  0
   21.1009   17.4238   31.0404 C   0  0  2  0  0  0  0  0  0  0  0  0
   21.1517   16.6139   29.7775 C   0  0  1  0  0  0  0  0  0  0  0  0
   21.9250   15.3664   30.0349 C   0  0  1  0  0  0  0  0  0  0  0  0
  5  4  1  1  0  0  0
  5  8  1  0  0  0  0
  5 16  1  0  0  0  0
  8  7  1  1  0  0  0
  8 10  1  0  0  0  0
 10  1  1  6  0  0  0
 10 12  1  0  0  0  0
 11 18  1  0  0  0  0
 12 14  1  0  0  0  0
 14  2  1  6  0  0  0
 14 16  1  0  0  0  0
 16  9  1  1  0  0  0
 17  9  1  6  0  0  0
 17 11  1  0  0  0  0
 17 22  1  0  0  0  0
 18 19  1  1  0  0  0
 18 20  1  0  0  0  0
 19  3  1  0  0  0  0
 20 13  1  6  0  0  0
 20 21  1  0  0  0  0
 21 15  1  1  0  0  0
 21 22  1  0  0  0  0
 22  6  1  6  0  0  0
M  END
>  <CHROM.1>
-43.98426881,131.71977382,172.11008199,23.91622760,15.95108779,29.82801342
0.63190226,0.27165346,-2.17963548

>  <Name>
2et8_lig

>  <RI>
0

>  <Rbt.Current_Directory>
/home/itssahil/PROJECTS/Mol_Feturizer/New_Systems/rnas/2et8

>  <Rbt.Executable>
rbdock ($Id: //depot/dev/client3/rdock/2013.1/src/exe/rbdock.cxx#4 $)

>  <Rbt.Library>
libRbt.so (2013.1, Build901 2013/11/27)

>  <Rbt.Parameter_File>
/export/apps/rDock/src/rDock_2013.1_src/data/scripts/dock_solv.prm

>  <Rbt.Receptor>
prm/blind_docking_80.prm

>  <SCORE>
-12.849

>  <SCORE.INTER>
-18.2367

>  <SCORE.INTER.CONST>
1

>  <SCORE.INTER.POLAR>
-0.973001

>  <SCORE.INTER.ROT>
3

>  <SCORE.INTER.SOLV>
21.6473

>  <SCORE.INTER.VDW>
-21.7302

>  <SCORE.INTER.norm>
-0.828939

>  <SCORE.INTRA>
4.64131

>  <SCORE.INTRA.DIHEDRAL>
2.96634

>  <SCORE.INTRA.DIHEDRAL.0>
4.99603

>  <SCORE.INTRA.POLAR>
0

>  <SCORE.INTRA.POLAR.0>
0

>  <SCORE.INTRA.REPUL>
0

>  <SCORE.INTRA.REPUL.0>
0

>  <SCORE.INTRA.SOLV>
4.28625

>  <SCORE.INTRA.SOLV.lig_0>
-74.884

>  <SCORE.INTRA.VDW>
1.01501

>  <SCORE.INTRA.VDW.0>
-0.858933

>  <SCORE.INTRA.norm>
0.210969

>  <SCORE.RESTR>
0.746367

>  <SCORE.RESTR.CAVITY>
0.746367

>  <SCORE.RESTR.norm>
0.0339258

>  <SCORE.SYSTEM>
0

>  <SCORE.SYSTEM.CONST>
0

>  <SCORE.SYSTEM.DIHEDRAL>
0

>  <SCORE.SYSTEM.SOLV>
0

>  <SCORE.SYSTEM.norm>
0

>  <SCORE.heavy>
22

>  <SCORE.norm>
-0.584045

>  <RMSD>
8.999

$$$$
2et8_lig
 OpenBabel11021811433D
libRbt.so/2013.1/901 2013/11/27
 22 23  0  0  0  0  0  0  0  0999 V2000
   20.3520   18.5505   32.4999 N   0  0  0  0  0  0  0  0  0  0  0  0
   21.7815   14.8589   29.5105 N   0  0  0  0  0  0  0  0  0  0  0  0
   28.3478   12.9965   29.9405 N   0  0  0  0  0  0  0  0  0  0  0  0
   24.9299   16.7365   32.7798 O   0  0  0  0  0  0  0  0  0  0  0  0
   23.8472   17.0223   31.8603 C   0  0  2  0  0  0  0  0  0  0  0  0
   23.5630   17.1771   28.4343 N   0  0  0  0  0  0  0  0  0  0  0  0
   23.0096   18.8535   33.3263 O   0  0  0  0  0  0  0  0  0  0  0  0
   22.6361   17.6432   32.6557 C   0  0  1  0  0  0  0  0  0  0  0  0
   24.4428   15.1856   30.4739 O   0  0  0  0  0  0  0  0  0  0  0  0
   21.4963   17.9653   31.7208 C   0  0  1  0  0  0  0  0  0  0  0  0
   26.5787   15.1885   29.6133 O   0  0  0  0  0  0  0  0  0  0  0  0
   21.0565   16.6745   30.9926 C   0  0  0  0  0  0  0  0  0  0  0  0
   25.6815   13.2537   26.6514 O   0  0  0  0  0  0  0  0  0  0  0  0
   22.2821   16.1174   30.2110 C   0  0  1  0  0  0  0  0  0  0  0  0
   24.1841   15.5757   26.2003 O   0  0  0  0  0  0  0  0  0  0  0  0
   23.3648   15.6916   31.1577 C   0  0  2  0  0  0  0  0  0  0  0  0
   25.3106   16.0240   29.7842 C   0  0  1  0  0  0  0  0  0  0  0  0
   26.3689   13.9669   28.7773 C   0  0  2  0  0  0  0  0  0  0  0  0
   27.6889   13.1839   28.6193 C   0  0  0  0  0  0  0  0  0  0  0  0
   25.8888   14.3891   27.4208 C   0  0  2  0  0  0  0  0  0  0  0  0
   24.6093   15.1693   27.5091 C   0  0  1  0  0  0  0  0  0  0  0  0
   24.8392   16.3803   28.3464 C   0  0  1  0  0  0  0  0  0  0  0  0
  5  4  1  1  0  0  0
  5  8  1  0  0  0  0
  5 16  1  0  0  0  0
  8  7  1  6  0  0  0
  8 10  1  0  0  0  0
 10  1  1  1  0  0  0
 10 12  1  0  0  0  0
 11 18  1  0  0  0  0
 12 14  1  0  0  0  0
 14  2  1  1  0  0  0
 14 16  1  0  0  0  0
 16  9  1  6  0  0  0
 17  9  1  6  0  0  0
 17 11  1  0  0  0  0
 17 22  1  0  0  0  0
 18 19  1  6  0  0  0
 18 20  1  0  0  0  0
 19  3  1  0  0  0  0
 20 13  1  6  0  0  0
 20 21  1  0  0  0  0
 21 15  1  6  0  0  0
 21 22  1  0  0  0  0
 22  6  1  1  0  0  0
M  END
>  <CHROM.1>
-39.96570312,160.36433439,48.59629729,24.22130763,15.83765036,29.92723293
2.31846776,-0.44480818,1.21879325

>  <Name>
2et8_lig

>  <RI>
224

>  <Rbt.Current_Directory>
/home/itssahil/PROJECTS/Mol_Feturizer/New_Systems/rnas/2et8

>  <Rbt.Executable>
rbdock ($Id: //depot/dev/client3/rdock/2013.1/src/exe/rbdock.cxx#4 $)

>  <Rbt.Library>
libRbt.so (2013.1, Build901 2013/11/27)

>  <Rbt.Parameter_File>
/export/apps/rDock/src/rDock_2013.1_src/data/scripts/dock_solv.prm

>  <Rbt.Receptor>
prm/blind_docking_60.prm

>  <SCORE>
-2.34561

>  <SCORE.INTER>
-8.99451

>  <SCORE.INTER.CONST>
1

>  <SCORE.INTER.POLAR>
-0.669691

>  <SCORE.INTER.ROT>
3

>  <SCORE.INTER.SOLV>
24.457

>  <SCORE.INTER.VDW>
-17.5164

>  <SCORE.INTER.norm>
-0.408841

>  <SCORE.INTRA>
6.07467

>  <SCORE.INTRA.DIHEDRAL>
-0.895773

>  <SCORE.INTRA.DIHEDRAL.0>
4.99603

>  <SCORE.INTRA.POLAR>
0

>  <SCORE.INTRA.POLAR.0>
0

>  <SCORE.INTRA.REPUL>
0

>  <SCORE.INTRA.REPUL.0>
0

>  <SCORE.INTRA.SOLV>
5.23645

>  <SCORE.INTRA.SOLV.lig_0>
-74.884

>  <SCORE.INTRA.VDW>
3.90434

>  <SCORE.INTRA.VDW.0>
-0.858933

>  <SCORE.INTRA.norm>
0.276122

>  <SCORE.RESTR>
0.574224

>  <SCORE.RESTR.CAVITY>
0.574224

>  <SCORE.RESTR.norm>
0.0261011

>  <SCORE.SYSTEM>
0

>  <SCORE.SYSTEM.CONST>
0

>  <SCORE.SYSTEM.DIHEDRAL>
0

>  <SCORE.SYSTEM.SOLV>
0

>  <SCORE.SYSTEM.norm>
0

>  <SCORE.heavy>
22

>  <SCORE.norm>
-0.106619

>  <RMSD>
9.541

$$$$
2et8_lig
 OpenBabel11021811433D
libRbt.so/2013.1/901 2013/11/27
 22 23  0  0  0  0  0  0  0  0999 V2000
   20.3617   18.5476   32.5109 N   0  0  0  0  0  0  0  0  0  0  0  0
   21.7766   14.8526   29.5188 N   0  0  0  0  0  0  0  0  0  0  0  0
   28.4312   13.1448   29.8781 N   0  0  0  0  0  0  0  0  0  0  0  0
   24.9428   16.7381   32.7663 O   0  0  0  0  0  0  0  0  0  0  0  0
   23.8544   17.0215   31.8529 C   0  0  2  0  0  0  0  0  0  0  0  0
   23.5599   17.1817   28.4347 N   0  0  0  0  0  0  0  0  0  0  0  0
   23.0239   18.8543   33.3209 O   0  0  0  0  0  0  0  0  0  0  0  0
   22.6475   17.6426   32.6545 C   0  0  1  0  0  0  0  0  0  0  0  0
   24.4434   15.1831   30.4658 O   0  0  0  0  0  0  0  0  0  0  0  0
   21.5019   17.9622   31.7259 C   0  0  1  0  0  0  0  0  0  0  0  0
   26.5762   15.1845   29.5977 O   0  0  0  0  0  0  0  0  0  0  0  0
   21.0589   16.6698   31.0023 C   0  0  0  0  0  0  0  0  0  0  0  0
   25.6651   13.2594   26.6338 O   0  0  0  0  0  0  0  0  0  0  0  0
   22.2802   16.1126   30.2143 C   0  0  1  0  0  0  0  0  0  0  0  0
   24.1702   15.5852   26.1942 O   0  0  0  0  0  0  0  0  0  0  0  0
   23.3690   15.6893   31.1552 C   0  0  2  0  0  0  0  0  0  0  0  0
   25.3102   16.0218   29.7752 C   0  0  1  0  0  0  0  0  0  0  0  0
   26.3612   13.9655   28.7591 C   0  0  2  0  0  0  0  0  0  0  0  0
   27.6792   13.1806   28.5944 C   0  0  0  0  0  0  0  0  0  0  0  0
   25.8771   14.3923   27.4055 C   0  0  2  0  0  0  0  0  0  0  0  0
   24.5994   15.1745   27.5004 C   0  0  1  0  0  0  0  0  0  0  0  0
   24.8343   16.3829   28.3401 C   0  0  1  0  0  0  0  0  0  0  0  0
  5  4  1  1  0  0  0
  5  8  1  0  0  0  0
  5 16  1  0  0  0  0
  8  7  1  6  0  0  0
  8 10  1  0  0  0  0
 10  1  1  1  0  0  0
 10 12  1  0  0  0  0
 11 18  1  0  0  0  0
 12 14  1  0  0  0  0
 14  2  1  1  0  0  0
 14 16  1  0  0  0  0
 16  9  1  6  0  0  0
 17  9  1  6  0  0  0
 17 11  1  0  0  0  0
 17 22  1  0  0  0  0
 18 19  1  6  0  0  0
 18 20  1  0  0  0  0
 19  3  1  0  0  0  0
 20 13  1  6  0  0  0
 20 21  1  0  0  0  0
 21 15  1  6  0  0  0
 21 22  1  0  0  0  0
 22  6  1  1  0  0  0
M  END
>  <CHROM.1>
-39.63103781,160.33601744,41.06308064,24.22421595,15.84417643,29.91867475
2.31211760,-0.43075274,1.21101104

>  <Name>
2et8_lig

>  <RI>
224

>  <Rbt.Current_Directory>
/home/itssahil/PROJECTS/Mol_Feturizer/New_Systems/rnas/2et8

>  <Rbt.Executable>
rbdock ($Id: //depot/dev/client3/rdock/2013.1/src/exe/rbdock.cxx#4 $)

>  <Rbt.Library>
libRbt.so (2013.1, Build901 2013/11/27)

>  <Rbt.Parameter_File>
/export/apps/rDock/src/rDock_2013.1_src/data/scripts/dock_solv.prm

>  <Rbt.Receptor>
prm/blind_docking_60.prm

>  <SCORE>
-2.15776

>  <SCORE.INTER>
-9.1547

>  <SCORE.INTER.CONST>
1

>  <SCORE.INTER.POLAR>
-0.696453

>  <SCORE.INTER.ROT>
3

>  <SCORE.INTER.SOLV>
24.3463

>  <SCORE.INTER.VDW>
-17.4971

>  <SCORE.INTER.norm>
-0.416123

>  <SCORE.INTRA>
6.44241

>  <SCORE.INTRA.DIHEDRAL>
-0.101245

>  <SCORE.INTRA.DIHEDRAL.0>
4.99603

>  <SCORE.INTRA.POLAR>
0

>  <SCORE.INTRA.POLAR.0>
0

>  <SCORE.INTRA.REPUL>
0

>  <SCORE.INTRA.REPUL.0>
0

>  <SCORE.INTRA.SOLV>
5.28946

>  <SCORE.INTRA.SOLV.lig_0>
-74.884

>  <SCORE.INTRA.VDW>
3.8483

>  <SCORE.INTRA.VDW.0>
-0.858933

>  <SCORE.INTRA.norm>
0.292837

>  <SCORE.RESTR>
0.554535

>  <SCORE.RESTR.CAVITY>
0.554535

>  <SCORE.RESTR.norm>
0.0252061

>  <SCORE.SYSTEM>
0

>  <SCORE.SYSTEM.CONST>
0

>  <SCORE.SYSTEM.DIHEDRAL>
0

>  <SCORE.SYSTEM.SOLV>
0

>  <SCORE.SYSTEM.norm>
0

>  <SCORE.heavy>
22

>  <SCORE.norm>
-0.0980798

>  <RMSD>
9.551

$$$$
2et8_lig
 OpenBabel11021811433D
libRbt.so/2013.1/901 2013/11/27
 22 23  0  0  0  0  0  0  0  0999 V2000
   21.3506   19.0011   33.0336 N   0  0  0  0  0  0  0  0  0  0  0  0
   20.7262   15.6602   29.4202 N   0  0  0  0  0  0  0  0  0  0  0  0
   27.7606   15.4848   31.1078 N   0  0  0  0  0  0  0  0  0  0  0  0
   25.0222   15.9542   31.7834 O   0  0  0  0  0  0  0  0  0  0  0  0
   23.8945   16.6941   31.2538 C   0  0  2  0  0  0  0  0  0  0  0  0
   22.8454   14.6003   26.7105 N   0  0  0  0  0  0  0  0  0  0  0  0
   24.0826   18.3905   33.0679 O   0  0  0  0  0  0  0  0  0  0  0  0
   23.1858   17.4759   32.4249 C   0  0  1  0  0  0  0  0  0  0  0  0
   23.5034   15.0461   29.5860 O   0  0  0  0  0  0  0  0  0  0  0  0
   22.0138   18.2687   31.9009 C   0  0  1  0  0  0  0  0  0  0  0  0
   25.5158   16.0101   29.0171 O   0  0  0  0  0  0  0  0  0  0  0  0
   21.0162   17.3073   31.2150 C   0  0  0  0  0  0  0  0  0  0  0  0
   27.0888   12.8432   28.1127 O   0  0  0  0  0  0  0  0  0  0  0  0
   21.7620   16.5790   30.0588 C   0  0  1  0  0  0  0  0  0  0  0  0
   25.0821   12.9750   26.1652 O   0  0  0  0  0  0  0  0  0  0  0  0
   22.8516   15.7024   30.6010 C   0  0  2  0  0  0  0  0  0  0  0  0
   24.0882   15.7485   28.5389 C   0  0  1  0  0  0  0  0  0  0  0  0
   26.3062   14.7572   29.2194 C   0  0  2  0  0  0  0  0  0  0  0  0
   27.7429   15.0890   29.6733 C   0  0  0  0  0  0  0  0  0  0  0  0
   26.3670   14.0119   27.9195 C   0  0  2  0  0  0  0  0  0  0  0  0
   24.9942   13.6701   27.4175 C   0  0  1  0  0  0  0  0  0  0  0  0
   24.2233   14.9305   27.2239 C   0  0  1  0  0  0  0  0  0  0  0  0
  5  4  1  1  0  0  0
  5  8  1  0  0  0  0
  5 16  1  0  0  0  0
  8  7  1  6  0  0  0
  8 10  1  0  0  0  0
 10  1  1  1  0  0  0
 10 12  1  0  0  0  0
 11 18  1  0  0  0  0
 12 14  1  0  0  0  0
 14  2  1  1  0  0  0
 14 16  1  0  0  0  0
 16  9  1  6  0  0  0
 17  9  1  1  0  0  0
 17 11  1  0  0  0  0
 17 22  1  0  0  0  0
 18 19  1  6  0  0  0
 18 20  1  0  0  0  0
 19  3  1  0  0  0  0
 20 13  1  1  0  0  0
 20 21  1  0  0  0  0
 21 15  1  6  0  0  0
 21 22  1  0  0  0  0
 22  6  1  1  0  0  0
M  END
>  <CHROM.1>
-58.03576132,90.32509521,76.13053438,24.19603189,15.71436553,29.79110215
2.15172129,-0.22515344,0.97919444

>  <Name>
2et8_lig

>  <RI>
224

>  <Rbt.Current_Directory>
/home/itssahil/PROJECTS/Mol_Feturizer/New_Systems/rnas/2et8

>  <Rbt.Executable>
rbdock ($Id: //depot/dev/client3/rdock/2013.1/src/exe/rbdock.cxx#4 $)

>  <Rbt.Library>
libRbt.so (2013.1, Build901 2013/11/27)

>  <Rbt.Parameter_File>
/export/apps/rDock/src/rDock_2013.1_src/data/scripts/dock_solv.prm

>  <Rbt.Receptor>
prm/blind_docking_60.prm

>  <SCORE>
14.7043

>  <SCORE.INTER>
13.1475

>  <SCORE.INTER.CONST>
1

>  <SCORE.INTER.POLAR>
-0.435214

>  <SCORE.INTER.ROT>
3

>  <SCORE.INTER.SOLV>
29.6527

>  <SCORE.INTER.VDW>
-5.26856

>  <SCORE.INTER.norm>
0.597611

>  <SCORE.INTRA>
1.15677

>  <SCORE.INTRA.DIHEDRAL>
-0.317514

>  <SCORE.INTRA.DIHEDRAL.0>
4.99603

>  <SCORE.INTRA.POLAR>
0

>  <SCORE.INTRA.POLAR.0>
0

>  <SCORE.INTRA.REPUL>
0

>  <SCORE.INTRA.REPUL.0>
0

>  <SCORE.INTRA.SOLV>
2.46051

>  <SCORE.INTRA.SOLV.lig_0>
-74.884

>  <SCORE.INTRA.VDW>
0.0852711

>  <SCORE.INTRA.VDW.0>
-0.858933

>  <SCORE.INTRA.norm>
0.0525803

>  <SCORE.RESTR>
0.400052

>  <SCORE.RESTR.CAVITY>
0.400052

>  <SCORE.RESTR.norm>
0.0181842

>  <SCORE.SYSTEM>
0

>  <SCORE.SYSTEM.CONST>
0

>  <SCORE.SYSTEM.DIHEDRAL>
0

>  <SCORE.SYSTEM.SOLV>
0

>  <SCORE.SYSTEM.norm>
0

>  <SCORE.heavy>
22

>  <SCORE.norm>
0.668376

>  <RMSD>
9.632

$$$$
2et8_lig
 OpenBabel11021811433D
libRbt.so/2013.1/901 2013/11/27
 22 23  0  0  0  0  0  0  0  0999 V2000
   20.1171   17.1091   32.3562 N   0  0  0  0  0  0  0  0  0  0  0  0
   24.9374   16.2280   33.1281 N   0  0  0  0  0  0  0  0  0  0  0  0
   23.7709   13.2849   26.4869 N   0  0  0  0  0  0  0  0  0  0  0  0
   23.3288   17.3288   28.6196 O   0  0  0  0  0  0  0  0  0  0  0  0
   23.0346   16.6408   29.8603 C   0  0  2  0  0  0  0  0  0  0  0  0
   27.9508   14.8821   30.5774 N   0  0  0  0  0  0  0  0  0  0  0  0
   20.5988   17.0904   29.5985 O   0  0  0  0  0  0  0  0  0  0  0  0
   21.7147   17.2333   30.4864 C   0  0  1  0  0  0  0  0  0  0  0  0
   25.3454   16.3103   30.3095 O   0  0  0  0  0  0  0  0  0  0  0  0
   21.3742   16.5256   31.7748 C   0  0  1  0  0  0  0  0  0  0  0  0
   24.4654   14.5606   29.0985 O   0  0  0  0  0  0  0  0  0  0  0  0
   22.5531   16.6757   32.7636 C   0  0  0  0  0  0  0  0  0  0  0  0
   26.3504   15.3476   26.0739 O   0  0  0  0  0  0  0  0  0  0  0  0
   23.8208   16.0589   32.1036 C   0  0  1  0  0  0  0  0  0  0  0  0
   28.4472   14.6938   27.8098 O   0  0  0  0  0  0  0  0  0  0  0  0
   24.2186   16.8416   30.8875 C   0  0  2  0  0  0  0  0  0  0  0  0
   25.4949   14.9363   30.1634 C   0  0  1  0  0  0  0  0  0  0  0  0
   24.7384   15.1897   27.7699 C   0  0  2  0  0  0  0  0  0  0  0  0
   23.6832   14.7498   26.7339 C   0  0  0  0  0  0  0  0  0  0  0  0
   26.0934   14.7518   27.2999 C   0  0  2  0  0  0  0  0  0  0  0  0
   27.1658   15.1412   28.2755 C   0  0  1  0  0  0  0  0  0  0  0  0
   26.8748   14.5058   29.5916 C   0  0  1  0  0  0  0  0  0  0  0  0
  5  4  1  6  0  0  0
  5  8  1  0  0  0  0
  5 16  1  0  0  0  0
  8  7  1  6  0  0  0
  8 10  1  0  0  0  0
 10  1  1  1  0  0  0
 10 12  1  0  0  0  0
 11 18  1  0  0  0  0
 12 14  1  0  0  0  0
 14  2  1  1  0  0  0
 14 16  1  0  0  0  0
 16  9  1  6  0  0  0
 17  9  1  6  0  0  0
 17 11  1  0  0  0  0
 17 22  1  0  0  0  0
 18 19  1  6  0  0  0
 18 20  1  0  0  0  0
 19  3  1  0  0  0  0
 20 13  1  6  0  0  0
 20 21  1  0  0  0  0
 21 15  1  6  0  0  0
 21 22  1  0  0  0  0
 22  6  1  1  0  0  0
M  END
>  <CHROM.1>
-71.23501403,69.58902183,-64.31469733,24.37930796,15.73561486,29.57953325
2.44029438,-0.24519303,1.33358786

>  <Name>
2et8_lig

>  <RI>
224

>  <Rbt.Current_Directory>
/home/itssahil/PROJECTS/Mol_Feturizer/New_Systems/rnas/2et8

>  <Rbt.Executable>
rbdock ($Id: //depot/dev/client3/rdock/2013.1/src/exe/rbdock.cxx#4 $)

>  <Rbt.Library>
libRbt.so (2013.1, Build901 2013/11/27)

>  <Rbt.Parameter_File>
/export/apps/rDock/src/rDock_2013.1_src/data/scripts/dock_solv.prm

>  <Rbt.Receptor>
prm/blind_docking_60.prm

>  <SCORE>
4.39296

>  <SCORE.INTER>
0.787874

>  <SCORE.INTER.CONST>
1

>  <SCORE.INTER.POLAR>
-0.713526

>  <SCORE.INTER.ROT>
3

>  <SCORE.INTER.SOLV>
30.4445

>  <SCORE.INTER.VDW>
-12.8445

>  <SCORE.INTER.norm>
0.0358124

>  <SCORE.INTRA>
0.903908

>  <SCORE.INTRA.DIHEDRAL>
-3.71405

>  <SCORE.INTRA.DIHEDRAL.0>
4.99603

>  <SCORE.INTRA.POLAR>
0

>  <SCORE.INTRA.POLAR.0>
0

>  <SCORE.INTRA.REPUL>
0

>  <SCORE.INTRA.REPUL.0>
0

>  <SCORE.INTRA.SOLV>
1.81964

>  <SCORE.INTRA.SOLV.lig_0>
-74.884

>  <SCORE.INTRA.VDW>
1.85111

>  <SCORE.INTRA.VDW.0>
-0.858933

>  <SCORE.INTRA.norm>
0.0410867

>  <SCORE.RESTR>
2.70118

>  <SCORE.RESTR.CAVITY>
2.70118

>  <SCORE.RESTR.norm>
0.122781

>  <SCORE.SYSTEM>
0

>  <SCORE.SYSTEM.CONST>
0

>  <SCORE.SYSTEM.DIHEDRAL>
0

>  <SCORE.SYSTEM.SOLV>
0

>  <SCORE.SYSTEM.norm>
0

>  <SCORE.heavy>
22

>  <SCORE.norm>
0.19968

>  <RMSD>
9.916

$$$$
2et8_lig
 OpenBabel11021811433D
libRbt.so/2013.1/901 2013/11/27
 22 23  0  0  0  0  0  0  0  0999 V2000
   20.4032   18.3379   31.8192 N   0  0  0  0  0  0  0  0  0  0  0  0
   22.1667   14.7809   28.8450 N   0  0  0  0  0  0  0  0  0  0  0  0
   28.7499   12.0701   29.0477 N   0  0  0  0  0  0  0  0  0  0  0  0
   24.9359   16.5202   32.5101 O   0  0  0  0  0  0  0  0  0  0  0  0
   23.9560   16.8439   31.4930 C   0  0  2  0  0  0  0  0  0  0  0  0
   23.9927   16.3427   27.4995 N   0  0  0  0  0  0  0  0  0  0  0  0
   22.9553   18.6089   32.9377 O   0  0  0  0  0  0  0  0  0  0  0  0
   22.6630   17.4281   32.1798 C   0  0  1  0  0  0  0  0  0  0  0  0
   24.7077   15.0696   30.1010 O   0  0  0  0  0  0  0  0  0  0  0  0
   21.6278   17.7886   31.1428 C   0  0  1  0  0  0  0  0  0  0  0  0
   26.9511   15.3668   29.6754 O   0  0  0  0  0  0  0  0  0  0  0  0
   21.2763   16.5297   30.3172 C   0  0  0  0  0  0  0  0  0  0  0  0
   27.1107   12.7043   27.1841 O   0  0  0  0  0  0  0  0  0  0  0  0
   22.5818   16.0086   29.6483 C   0  0  1  0  0  0  0  0  0  0  0  0
   25.3803   14.4877   25.8949 O   0  0  0  0  0  0  0  0  0  0  0  0
   23.5596   15.5440   30.6865 C   0  0  2  0  0  0  0  0  0  0  0  0
   25.5532   15.9162   29.3940 C   0  0  1  0  0  0  0  0  0  0  0  0
   27.1544   13.9817   29.1505 C   0  0  2  0  0  0  0  0  0  0  0  0
   28.5900   13.4966   29.4405 C   0  0  0  0  0  0  0  0  0  0  0  0
   26.9353   13.9927   27.6670 C   0  0  2  0  0  0  0  0  0  0  0  0
   25.5551   14.4696   27.3190 C   0  0  1  0  0  0  0  0  0  0  0  0
   25.3725   15.8493   27.8514 C   0  0  1  0  0  0  0  0  0  0  0  0
  5  4  1  1  0  0  0
  5  8  1  0  0  0  0
  5 16  1  0  0  0  0
  8  7  1  6  0  0  0
  8 10  1  0  0  0  0
 10  1  1  1  0  0  0
 10 12  1  0  0  0  0
 11 18  1  0  0  0  0
 12 14  1  0  0  0  0
 14  2  1  6  0  0  0
 14 16  1  0  0  0  0
 16  9  1  6  0  0  0
 17  9  1  1  0  0  0
 17 11  1  0  0  0  0
 17 22  1  0  0  0  0
 18 19  1  6  0  0  0
 18 20  1  0  0  0  0
 19  3  1  0  0  0  0
 20 13  1  1  0  0  0
 20 21  1  0  0  0  0
 21 15  1  6  0  0  0
 21 22  1  0  0  0  0
 22  6  1  1  0  0  0
M  END
>  <CHROM.1>
-48.38616613,145.47225220,174.04868772,24.67605401,15.54075886,29.63015473
2.43971478,-0.42811808,1.19632856

>  <Name>
2et8_lig

>  <RI>
0

>  <Rbt.Current_Directory>
/home/itssahil/PROJECTS/Mol_Feturizer/New_Systems/rnas/2et8

>  <Rbt.Executable>
rbdock ($Id: //depot/dev/client3/rdock/2013.1/src/exe/rbdock.cxx#4 $)

>  <Rbt.Library>
libRbt.so (2013.1, Build901 2013/11/27)

>  <Rbt.Parameter_File>
/export/apps/rDock/src/rDock_2013.1_src/data/scripts/dock_solv.prm

>  <Rbt.Receptor>
prm/blind_docking_100.prm

>  <SCORE>
-3.81754

>  <SCORE.INTER>
-10.2022

>  <SCORE.INTER.CONST>
1

>  <SCORE.INTER.POLAR>
0

>  <SCORE.INTER.ROT>
3

>  <SCORE.INTER.SOLV>
21.7718

>  <SCORE.INTER.VDW>
-19.6588

>  <SCORE.INTER.norm>
-0.463737

>  <SCORE.INTRA>
4.99231

>  <SCORE.INTRA.DIHEDRAL>
0.292012

>  <SCORE.INTRA.DIHEDRAL.0>
4.99603

>  <SCORE.INTRA.POLAR>
0

>  <SCORE.INTRA.POLAR.0>
0

>  <SCORE.INTRA.REPUL>
0

>  <SCORE.INTRA.REPUL.0>
0

>  <SCORE.INTRA.SOLV>
5.59117

>  <SCORE.INTRA.SOLV.lig_0>
-74.884

>  <SCORE.INTRA.VDW>
2.05072

>  <SCORE.INTRA.VDW.0>
-0.858933

>  <SCORE.INTRA.norm>
0.226923

>  <SCORE.RESTR>
1.39237

>  <SCORE.RESTR.CAVITY>
1.39237

>  <SCORE.RESTR.norm>
0.0632895

>  <SCORE.SYSTEM>
0

>  <SCORE.SYSTEM.CONST>
0

>  <SCORE.SYSTEM.DIHEDRAL>
0

>  <SCORE.SYSTEM.SOLV>
0

>  <SCORE.SYSTEM.norm>
0

>  <SCORE.heavy>
22

>  <SCORE.norm>
-0.173525

>  <RMSD>
9.922

$$$$
2et8_lig
 OpenBabel11021811433D
libRbt.so/2013.1/901 2013/11/27
 22 23  0  0  0  0  0  0  0  0999 V2000
   22.9564   16.8410   34.3521 N   0  0  0  0  0  0  0  0  0  0  0  0
   26.5789   15.4102   31.2801 N   0  0  0  0  0  0  0  0  0  0  0  0
   28.9612   12.5019   29.3398 N   0  0  0  0  0  0  0  0  0  0  0  0
   22.1820   16.6630   29.4844 O   0  0  0  0  0  0  0  0  0  0  0  0
   22.8917   16.0215   30.5726 C   0  0  2  0  0  0  0  0  0  0  0  0
   24.0439   15.5123   26.2324 N   0  0  0  0  0  0  0  0  0  0  0  0
   21.1593   16.7496   32.2074 O   0  0  0  0  0  0  0  0  0  0  0  0
   22.5638   16.7672   31.9222 C   0  0  1  0  0  0  0  0  0  0  0  0
   24.6952   15.4273   29.1425 O   0  0  0  0  0  0  0  0  0  0  0  0
   23.2787   16.1118   33.0781 C   0  0  1  0  0  0  0  0  0  0  0  0
   26.9400   15.6656   28.6878 O   0  0  0  0  0  0  0  0  0  0  0  0
   24.8011   16.1299   32.8097 C   0  0  0  0  0  0  0  0  0  0  0  0
   27.3368   12.2457   27.4760 O   0  0  0  0  0  0  0  0  0  0  0  0
   25.0679   15.3658   31.4799 C   0  0  1  0  0  0  0  0  0  0  0  0
   25.5879   13.2592   25.5390 O   0  0  0  0  0  0  0  0  0  0  0  0
   24.4503   16.0895   30.3204 C   0  0  2  0  0  0  0  0  0  0  0  0
   25.5329   15.9715   28.1762 C   0  0  1  0  0  0  0  0  0  0  0  0
   27.2307   14.2011   28.7666 C   0  0  2  0  0  0  0  0  0  0  0  0
   28.6720   13.9596   29.2612 C   0  0  0  0  0  0  0  0  0  0  0  0
   27.0803   13.6067   27.3980 C   0  0  2  0  0  0  0  0  0  0  0  0
   25.6973   13.8208   26.8550 C   0  0  1  0  0  0  0  0  0  0  0  0
   25.4271   15.2846   26.7857 C   0  0  1  0  0  0  0  0  0  0  0  0
  5  4  1  6  0  0  0
  5  8  1  0  0  0  0
  5 16  1  0  0  0  0
  8  7  1  1  0  0  0
  8 10  1  0  0  0  0
 10  1  1  1  0  0  0
 10 12  1  0  0  0  0
 11 18  1  0  0  0  0
 12 14  1  0  0  0  0
 14  2  1  6  0  0  0
 14 16  1  0  0  0  0
 16  9  1  6  0  0  0
 17  9  1  1  0  0  0
 17 11  1  0  0  0  0
 17 22  1  0  0  0  0
 18 19  1  6  0  0  0
 18 20  1  0  0  0  0
 19  3  1  0  0  0  0
 20 13  1  1  0  0  0
 20 21  1  0  0  0  0
 21 15  1  6  0  0  0
 21 22  1  0  0  0  0
 22  6  1  1  0  0  0
M  END
>  <CHROM.1>
134.22931906,79.46910528,179.98884764,25.13076129,15.15253391,29.56822283
-2.27608727,0.44267146,-1.75465076

>  <Name>
2et8_lig

>  <RI>
224

>  <Rbt.Current_Directory>
/home/itssahil/PROJECTS/Mol_Feturizer/New_Systems/rnas/2et8

>  <Rbt.Executable>
rbdock ($Id: //depot/dev/client3/rdock/2013.1/src/exe/rbdock.cxx#4 $)

>  <Rbt.Library>
libRbt.so (2013.1, Build901 2013/11/27)

>  <Rbt.Parameter_File>
/export/apps/rDock/src/rDock_2013.1_src/data/scripts/dock_solv.prm

>  <Rbt.Receptor>
prm/blind_docking_60.prm

>  <SCORE>
-0.255504

>  <SCORE.INTER>
-5.83407

>  <SCORE.INTER.CONST>
1

>  <SCORE.INTER.POLAR>
-0.723369

>  <SCORE.INTER.ROT>
3

>  <SCORE.INTER.SOLV>
25.0737

>  <SCORE.INTER.VDW>
-15.4361

>  <SCORE.INTER.norm>
-0.265185

>  <SCORE.INTRA>
3.25397

>  <SCORE.INTRA.DIHEDRAL>
2.92854

>  <SCORE.INTRA.DIHEDRAL.0>
4.99603

>  <SCORE.INTRA.POLAR>
0

>  <SCORE.INTRA.POLAR.0>
0

>  <SCORE.INTRA.REPUL>
0

>  <SCORE.INTRA.REPUL.0>
0

>  <SCORE.INTRA.SOLV>
3.81754

>  <SCORE.INTRA.SOLV.lig_0>
-74.884

>  <SCORE.INTRA.VDW>
-0.119067

>  <SCORE.INTRA.VDW.0>
-0.858933

>  <SCORE.INTRA.norm>
0.147908

>  <SCORE.RESTR>
2.32459

>  <SCORE.RESTR.CAVITY>
2.32459

>  <SCORE.RESTR.norm>
0.105663

>  <SCORE.SYSTEM>
0

>  <SCORE.SYSTEM.CONST>
0

>  <SCORE.SYSTEM.DIHEDRAL>
0

>  <SCORE.SYSTEM.SOLV>
0

>  <SCORE.SYSTEM.norm>
0

>  <SCORE.heavy>
22

>  <SCORE.norm>
-0.0116138

>  <RMSD>
9.956

$$$$
2et8_lig
 OpenBabel11021811433D
libRbt.so/2013.1/901 2013/11/27
 22 23  0  0  0  0  0  0  0  0999 V2000
   22.9523   16.8952   34.3348 N   0  0  0  0  0  0  0  0  0  0  0  0
   26.5314   15.3493   31.2677 N   0  0  0  0  0  0  0  0  0  0  0  0
   28.9403   12.5527   29.3355 N   0  0  0  0  0  0  0  0  0  0  0  0
   22.1985   16.7952   29.4616 O   0  0  0  0  0  0  0  0  0  0  0  0
   22.8758   16.1152   30.5471 C   0  0  2  0  0  0  0  0  0  0  0  0
   24.0093   15.5169   26.2101 N   0  0  0  0  0  0  0  0  0  0  0  0
   21.1650   16.8968   32.1800 O   0  0  0  0  0  0  0  0  0  0  0  0
   22.5706   16.8605   31.9023 C   0  0  1  0  0  0  0  0  0  0  0  0
   24.6619   15.4627   29.1207 O   0  0  0  0  0  0  0  0  0  0  0  0
   23.2522   16.1658   33.0554 C   0  0  1  0  0  0  0  0  0  0  0  0
   26.9057   15.7034   28.6627 O   0  0  0  0  0  0  0  0  0  0  0  0
   24.7755   16.1253   32.7951 C   0  0  0  0  0  0  0  0  0  0  0  0
   27.3127   12.2729   27.4847 O   0  0  0  0  0  0  0  0  0  0  0  0
   25.0188   15.3639   31.4593 C   0  0  1  0  0  0  0  0  0  0  0  0
   25.5600   13.2617   25.5385 O   0  0  0  0  0  0  0  0  0  0  0  0
   24.4372   16.1229   30.3037 C   0  0  2  0  0  0  0  0  0  0  0  0
   25.4975   15.9999   28.1487 C   0  0  1  0  0  0  0  0  0  0  0  0
   27.2010   14.2407   28.7559 C   0  0  2  0  0  0  0  0  0  0  0  0
   28.6432   14.0085   29.2523 C   0  0  0  0  0  0  0  0  0  0  0  0
   27.0519   13.6322   27.3934 C   0  0  2  0  0  0  0  0  0  0  0  0
   25.6681   13.8367   26.8488 C   0  0  1  0  0  0  0  0  0  0  0  0
   25.3934   15.2989   26.7651 C   0  0  1  0  0  0  0  0  0  0  0  0
  5  4  1  6  0  0  0
  5  8  1  0  0  0  0
  5 16  1  0  0  0  0
  8  7  1  1  0  0  0
  8 10  1  0  0  0  0
 10  1  1  1  0  0  0
 10 12  1  0  0  0  0
 11 18  1  0  0  0  0
 12 14  1  0  0  0  0
 14  2  1  6  0  0  0
 14 16  1  0  0  0  0
 16  9  1  6  0  0  0
 17  9  1  1  0  0  0
 17 11  1  0  0  0  0
 17 22  1  0  0  0  0
 18 19  1  6  0  0  0
 18 20  1  0  0  0  0
 19  3  1  0  0  0  0
 20 13  1  1  0  0  0
 20 21  1  0  0  0  0
 21 15  1  6  0  0  0
 21 22  1  0  0  0  0
 22  6  1  1  0  0  0
M  END
>  <CHROM.1>
132.44676921,78.10884522,-179.58492843,25.10778347,15.19307118,29.55270801
-2.27817330,0.45653746,-1.75352771

>  <Name>
2et8_lig

>  <RI>
224

>  <Rbt.Current_Directory>
/home/itssahil/PROJECTS/Mol_Feturizer/New_Systems/rnas/2et8

>  <Rbt.Executable>
rbdock ($Id: //depot/dev/client3/rdock/2013.1/src/exe/rbdock.cxx#4 $)

>  <Rbt.Library>
libRbt.so (2013.1, Build901 2013/11/27)

>  <Rbt.Parameter_File>
/export/apps/rDock/src/rDock_2013.1_src/data/scripts/dock_solv.prm

>  <Rbt.Receptor>
prm/blind_docking_60.prm

>  <SCORE>
-0.020111

>  <SCORE.INTER>
-5.65769

>  <SCORE.INTER.CONST>
1

>  <SCORE.INTER.POLAR>
-0.742356

>  <SCORE.INTER.ROT>
3

>  <SCORE.INTER.SOLV>
25.0533

>  <SCORE.INTER.VDW>
-15.2484

>  <SCORE.INTER.norm>
-0.257168

>  <SCORE.INTRA>
3.36916

>  <SCORE.INTRA.DIHEDRAL>
2.93018

>  <SCORE.INTRA.DIHEDRAL.0>
4.99603

>  <SCORE.INTRA.POLAR>
0

>  <SCORE.INTRA.POLAR.0>
0

>  <SCORE.INTRA.REPUL>
0

>  <SCORE.INTRA.REPUL.0>
0

>  <SCORE.INTRA.SOLV>
3.91936

>  <SCORE.INTRA.SOLV.lig_0>
-74.884

>  <SCORE.INTRA.VDW>
-0.0556096

>  <SCORE.INTRA.VDW.0>
-0.858933

>  <SCORE.INTRA.norm>
0.153144

>  <SCORE.RESTR>
2.26842

>  <SCORE.RESTR.CAVITY>
2.26842

>  <SCORE.RESTR.norm>
0.10311

>  <SCORE.SYSTEM>
0

>  <SCORE.SYSTEM.CONST>
0

>  <SCORE.SYSTEM.DIHEDRAL>
0

>  <SCORE.SYSTEM.SOLV>
0

>  <SCORE.SYSTEM.norm>
0

>  <SCORE.heavy>
22

>  <SCORE.norm>
-0.000914136

>  <RMSD>
9.958

$$$$
2et8_lig
 OpenBabel11021811433D
libRbt.so/2013.1/901 2013/11/27
 22 23  0  0  0  0  0  0  0  0999 V2000
   22.8206   17.8270   33.9586 N   0  0  0  0  0  0  0  0  0  0  0  0
   21.6085   16.0955   29.4708 N   0  0  0  0  0  0  0  0  0  0  0  0
   28.6077   14.2947   30.2640 N   0  0  0  0  0  0  0  0  0  0  0  0
   25.9269   14.9021   31.4843 O   0  0  0  0  0  0  0  0  0  0  0  0
   24.9282   15.9391   31.3214 C   0  0  2  0  0  0  0  0  0  0  0  0
   23.7564   16.1796   26.5010 N   0  0  0  0  0  0  0  0  0  0  0  0
   25.4161   16.8448   33.5898 O   0  0  0  0  0  0  0  0  0  0  0  0
   24.3731   16.3573   32.7363 C   0  0  1  0  0  0  0  0  0  0  0  0
   24.2500   15.0572   29.2207 O   0  0  0  0  0  0  0  0  0  0  0  0
   23.3394   17.4480   32.5999 C   0  0  1  0  0  0  0  0  0  0  0  0
   26.5150   15.4067   28.9974 O   0  0  0  0  0  0  0  0  0  0  0  0
   22.1887   16.9471   31.6971 C   0  0  0  0  0  0  0  0  0  0  0  0
   26.9904   12.6338   26.6722 O   0  0  0  0  0  0  0  0  0  0  0  0
   22.7893   16.5678   30.3120 C   0  0  1  0  0  0  0  0  0  0  0  0
   25.3446   14.2956   25.1336 O   0  0  0  0  0  0  0  0  0  0  0  0
   23.7283   15.4054   30.4424 C   0  0  2  0  0  0  0  0  0  0  0  0
   25.1364   15.8959   28.5556 C   0  0  1  0  0  0  0  0  0  0  0  0
   26.8069   14.0053   28.5658 C   0  0  2  0  0  0  0  0  0  0  0  0
   28.2203   13.5817   29.0165 C   0  0  0  0  0  0  0  0  0  0  0  0
   26.7330   13.9377   27.0696 C   0  0  2  0  0  0  0  0  0  0  0  0
   25.3805   14.3519   26.5670 C   0  0  1  0  0  0  0  0  0  0  0  0
   25.1086   15.7490   27.0083 C   0  0  1  0  0  0  0  0  0  0  0  0
  5  4  1  1  0  0  0
  5  8  1  0  0  0  0
  5 16  1  0  0  0  0
  8  7  1  1  0  0  0
  8 10  1  0  0  0  0
 10  1  1  1  0  0  0
 10 12  1  0  0  0  0
 11 18  1  0  0  0  0
 12 14  1  0  0  0  0
 14  2  1  6  0  0  0
 14 16  1  0  0  0  0
 16  9  1  6  0  0  0
 17  9  1  1  0  0  0
 17 11  1  0  0  0  0
 17 22  1  0  0  0  0
 18 19  1  6  0  0  0
 18 20  1  0  0  0  0
 19  3  1  0  0  0  0
 20 13  1  1  0  0  0
 20 21  1  0  0  0  0
 21 15  1  6  0  0  0
 21 22  1  0  0  0  0
 22  6  1  1  0  0  0
M  END
>  <CHROM.1>
-45.72610113,92.83353035,29.31695250,25.03250027,15.41544729,29.58594904
2.04991085,-0.43064815,1.31306541

>  <Name>
2et8_lig

>  <RI>
0

>  <Rbt.Current_Directory>
/home/itssahil/PROJECTS/Mol_Feturizer/New_Systems/rnas/2et8

>  <Rbt.Executable>
rbdock ($Id: //depot/dev/client3/rdock/2013.1/src/exe/rbdock.cxx#4 $)

>  <Rbt.Library>
libRbt.so (2013.1, Build901 2013/11/27)

>  <Rbt.Parameter_File>
/export/apps/rDock/src/rDock_2013.1_src/data/scripts/dock_solv.prm

>  <Rbt.Receptor>
prm/blind_docking_100.prm

>  <SCORE>
-1.09863

>  <SCORE.INTER>
-7.15912

>  <SCORE.INTER.CONST>
1

>  <SCORE.INTER.POLAR>
-0.880971

>  <SCORE.INTER.ROT>
3

>  <SCORE.INTER.SOLV>
26.719

>  <SCORE.INTER.VDW>
-16.3425

>  <SCORE.INTER.norm>
-0.325415

>  <SCORE.INTRA>
3.44016

>  <SCORE.INTRA.DIHEDRAL>
2.89438

>  <SCORE.INTRA.DIHEDRAL.0>
4.99603

>  <SCORE.INTRA.POLAR>
0

>  <SCORE.INTRA.POLAR.0>
0

>  <SCORE.INTRA.REPUL>
0

>  <SCORE.INTRA.REPUL.0>
0

>  <SCORE.INTRA.SOLV>
2.4775

>  <SCORE.INTRA.SOLV.lig_0>
-74.884

>  <SCORE.INTRA.VDW>
0.754225

>  <SCORE.INTRA.VDW.0>
-0.858933

>  <SCORE.INTRA.norm>
0.156371

>  <SCORE.RESTR>
2.62032

>  <SCORE.RESTR.CAVITY>
2.62032

>  <SCORE.RESTR.norm>
0.119106

>  <SCORE.SYSTEM>
0

>  <SCORE.SYSTEM.CONST>
0

>  <SCORE.SYSTEM.DIHEDRAL>
0

>  <SCORE.SYSTEM.SOLV>
0

>  <SCORE.SYSTEM.norm>
0

>  <SCORE.heavy>
22

>  <SCORE.norm>
-0.0499379

>  <RMSD>
10.007

$$$$
2et8_lig
 OpenBabel11021811433D
libRbt.so/2013.1/901 2013/11/27
 22 23  0  0  0  0  0  0  0  0999 V2000
   22.9978   16.7037   34.2794 N   0  0  0  0  0  0  0  0  0  0  0  0
   26.5277   15.2622   31.1061 N   0  0  0  0  0  0  0  0  0  0  0  0
   28.7410   14.0367   30.1976 N   0  0  0  0  0  0  0  0  0  0  0  0
   22.2115   16.8845   29.4137 O   0  0  0  0  0  0  0  0  0  0  0  0
   22.8827   16.1338   30.4554 C   0  0  2  0  0  0  0  0  0  0  0  0
   23.8699   15.9461   26.1326 N   0  0  0  0  0  0  0  0  0  0  0  0
   21.1973   16.8562   32.1411 O   0  0  0  0  0  0  0  0  0  0  0  0
   22.6001   16.8093   31.8514 C   0  0  1  0  0  0  0  0  0  0  0  0
   24.6471   15.5275   28.9823 O   0  0  0  0  0  0  0  0  0  0  0  0
   23.2758   16.0400   32.9598 C   0  0  1  0  0  0  0  0  0  0  0  0
   26.8797   15.6594   28.4343 O   0  0  0  0  0  0  0  0  0  0  0  0
   24.7965   15.9857   32.6865 C   0  0  0  0  0  0  0  0  0  0  0  0
   26.9739   12.3589   26.8791 O   0  0  0  0  0  0  0  0  0  0  0  0
   25.0169   15.2942   31.3093 C   0  0  1  0  0  0  0  0  0  0  0  0
   25.2147   13.6753   25.1443 O   0  0  0  0  0  0  0  0  0  0  0  0
   24.4424   16.1260   30.2012 C   0  0  2  0  0  0  0  0  0  0  0  0
   25.4761   16.1082   28.0299 C   0  0  1  0  0  0  0  0  0  0  0  0
   27.0680   14.1783   28.3560 C   0  0  2  0  0  0  0  0  0  0  0  0
   28.5096   13.7928   28.7479 C   0  0  0  0  0  0  0  0  0  0  0  0
   26.8123   13.7349   26.9464 C   0  0  2  0  0  0  0  0  0  0  0  0
   25.4246   14.0941   26.5006 C   0  0  1  0  0  0  0  0  0  0  0  0
   25.2573   15.5723   26.5872 C   0  0  1  0  0  0  0  0  0  0  0  0
  5  4  1  6  0  0  0
  5  8  1  0  0  0  0
  5 16  1  0  0  0  0
  8  7  1  1  0  0  0
  8 10  1  0  0  0  0
 10  1  1  1  0  0  0
 10 12  1  0  0  0  0
 11 18  1  0  0  0  0
 12 14  1  0  0  0  0
 14  2  1  6  0  0  0
 14 16  1  0  0  0  0
 16  9  1  6  0  0  0
 17  9  1  1  0  0  0
 17 11  1  0  0  0  0
 17 22  1  0  0  0  0
 18 19  1  6  0  0  0
 18 20  1  0  0  0  0
 19  3  1  0  0  0  0
 20 13  1  1  0  0  0
 20 21  1  0  0  0  0
 21 15  1  6  0  0  0
 21 22  1  0  0  0  0
 22  6  1  1  0  0  0
M  END
>  <CHROM.1>
131.80245827,83.40230059,68.75203870,25.02445048,15.29921365,29.39247701
-2.19029333,0.41849131,-1.73265042

>  <Name>
2et8_lig

>  <RI>
0

>  <Rbt.Current_Directory>
/home/itssahil/PROJECTS/Mol_Feturizer/New_Systems/rnas/2et8

>  <Rbt.Executable>
rbdock ($Id: //depot/dev/client3/rdock/2013.1/src/exe/rbdock.cxx#4 $)

>  <Rbt.Library>
libRbt.so (2013.1, Build901 2013/11/27)

>  <Rbt.Parameter_File>
/export/apps/rDock/src/rDock_2013.1_src/data/scripts/dock_solv.prm

>  <Rbt.Receptor>
prm/blind_docking_100.prm

>  <SCORE>
-0.646108

>  <SCORE.INTER>
-5.83491

>  <SCORE.INTER.CONST>
1

>  <SCORE.INTER.POLAR>
-1.52854

>  <SCORE.INTER.ROT>
3

>  <SCORE.INTER.SOLV>
29.6547

>  <SCORE.INTER.VDW>
-14.2797

>  <SCORE.INTER.norm>
-0.265223

>  <SCORE.INTRA>
3.0227

>  <SCORE.INTRA.DIHEDRAL>
4.13295

>  <SCORE.INTRA.DIHEDRAL.0>
4.99603

>  <SCORE.INTRA.POLAR>
0

>  <SCORE.INTRA.POLAR.0>
0

>  <SCORE.INTRA.REPUL>
0

>  <SCORE.INTRA.REPUL.0>
0

>  <SCORE.INTRA.SOLV>
4.34593

>  <SCORE.INTRA.SOLV.lig_0>
-74.884

>  <SCORE.INTRA.VDW>
-1.21673

>  <SCORE.INTRA.VDW.0>
-0.858933

>  <SCORE.INTRA.norm>
0.137396

>  <SCORE.RESTR>
2.16609

>  <SCORE.RESTR.CAVITY>
2.16609

>  <SCORE.RESTR.norm>
0.0984588

>  <SCORE.SYSTEM>
0

>  <SCORE.SYSTEM.CONST>
0

>  <SCORE.SYSTEM.DIHEDRAL>
0

>  <SCORE.SYSTEM.SOLV>
0

>  <SCORE.SYSTEM.norm>
0

>  <SCORE.heavy>
22

>  <SCORE.norm>
-0.0293685

>  <RMSD>
10.076

$$$$
2et8_lig
 OpenBabel11021811433D
libRbt.so/2013.1/901 2013/11/27
 22 23  0  0  0  0  0  0  0  0999 V2000
   22.9996   16.7211   34.2746 N   0  0  0  0  0  0  0  0  0  0  0  0
   26.5530   15.2982   31.1191 N   0  0  0  0  0  0  0  0  0  0  0  0
   28.7680   14.0053   30.1839 N   0  0  0  0  0  0  0  0  0  0  0  0
   22.2138   16.8363   29.4068 O   0  0  0  0  0  0  0  0  0  0  0  0
   22.8956   16.1073   30.4571 C   0  0  2  0  0  0  0  0  0  0  0  0
   23.8705   15.9263   26.1475 N   0  0  0  0  0  0  0  0  0  0  0  0
   21.1984   16.8228   32.1338 O   0  0  0  0  0  0  0  0  0  0  0  0
   22.6020   16.7939   31.8454 C   0  0  1  0  0  0  0  0  0  0  0  0
   24.6699   15.5116   28.9916 O   0  0  0  0  0  0  0  0  0  0  0  0
   23.2885   16.0472   32.9626 C   0  0  1  0  0  0  0  0  0  0  0  0
   26.8980   15.6507   28.4273 O   0  0  0  0  0  0  0  0  0  0  0  0
   24.8099   16.0128   32.6906 C   0  0  0  0  0  0  0  0  0  0  0  0
   26.9919   12.3498   26.8728 O   0  0  0  0  0  0  0  0  0  0  0  0
   25.0417   15.3096   31.3212 C   0  0  1  0  0  0  0  0  0  0  0  0
   25.2157   13.6595   25.1504 O   0  0  0  0  0  0  0  0  0  0  0  0
   24.4554   16.1203   30.2037 C   0  0  2  0  0  0  0  0  0  0  0  0
   25.4900   16.0947   28.0330 C   0  0  1  0  0  0  0  0  0  0  0  0
   27.0907   14.1702   28.3482 C   0  0  2  0  0  0  0  0  0  0  0  0
   28.5363   13.7897   28.7298 C   0  0  0  0  0  0  0  0  0  0  0  0
   26.8262   13.7253   26.9408 C   0  0  2  0  0  0  0  0  0  0  0  0
   25.4341   14.0797   26.5049 C   0  0  1  0  0  0  0  0  0  0  0  0
   25.2625   15.5573   26.5921 C   0  0  1  0  0  0  0  0  0  0  0  0
  5  4  1  6  0  0  0
  5  8  1  0  0  0  0
  5 16  1  0  0  0  0
  8  7  1  1  0  0  0
  8 10  1  0  0  0  0
 10  1  1  1  0  0  0
 10 12  1  0  0  0  0
 11 18  1  0  0  0  0
 12 14  1  0  0  0  0
 14  2  1  6  0  0  0
 14 16  1  0  0  0  0
 16  9  1  6  0  0  0
 17  9  1  1  0  0  0
 17 11  1  0  0  0  0
 17 22  1  0  0  0  0
 18 19  1  6  0  0  0
 18 20  1  0  0  0  0
 19  3  1  0  0  0  0
 20 13  1  1  0  0  0
 20 21  1  0  0  0  0
 21 15  1  6  0  0  0
 21 22  1  0  0  0  0
 22  6  1  1  0  0  0
M  END
>  <CHROM.1>
131.76284110,84.43462020,70.05785731,25.03747470,15.29004112,29.39214391
-2.18968370,0.41103409,-1.73910602

>  <Name>
2et8_lig

>  <RI>
0

>  <Rbt.Current_Directory>
/home/itssahil/PROJECTS/Mol_Feturizer/New_Systems/rnas/2et8

>  <Rbt.Executable>
rbdock ($Id: //depot/dev/client3/rdock/2013.1/src/exe/rbdock.cxx#4 $)

>  <Rbt.Library>
libRbt.so (2013.1, Build901 2013/11/27)

>  <Rbt.Parameter_File>
/export/apps/rDock/src/rDock_2013.1_src/data/scripts/dock_solv.prm

>  <Rbt.Receptor>
prm/blind_docking_100.prm

>  <SCORE>
-0.774054

>  <SCORE.INTER>
-6.00126

>  <SCORE.INTER.CONST>
1

>  <SCORE.INTER.POLAR>
-1.50085

>  <SCORE.INTER.ROT>
3

>  <SCORE.INTER.SOLV>
29.5897

>  <SCORE.INTER.VDW>
-14.4612

>  <SCORE.INTER.norm>
-0.272784

>  <SCORE.INTRA>
3.02625

>  <SCORE.INTRA.DIHEDRAL>
4.4031

>  <SCORE.INTRA.DIHEDRAL.0>
4.99603

>  <SCORE.INTRA.POLAR>
0

>  <SCORE.INTRA.POLAR.0>
0

>  <SCORE.INTRA.REPUL>
0

>  <SCORE.INTRA.REPUL.0>
0

>  <SCORE.INTRA.SOLV>
4.24448

>  <SCORE.INTRA.SOLV.lig_0>
-74.884

>  <SCORE.INTRA.VDW>
-1.29754

>  <SCORE.INTRA.VDW.0>
-0.858933

>  <SCORE.INTRA.norm>
0.137557

>  <SCORE.RESTR>
2.20095

>  <SCORE.RESTR.CAVITY>
2.20095

>  <SCORE.RESTR.norm>
0.100043

>  <SCORE.SYSTEM>
0

>  <SCORE.SYSTEM.CONST>
0

>  <SCORE.SYSTEM.DIHEDRAL>
0

>  <SCORE.SYSTEM.SOLV>
0

>  <SCORE.SYSTEM.norm>
0

>  <SCORE.heavy>
22

>  <SCORE.norm>
-0.0351843

>  <RMSD>
10.080

$$$$
2et8_lig
 OpenBabel11021811433D
libRbt.so/2013.1/901 2013/11/27
 22 23  0  0  0  0  0  0  0  0999 V2000
   23.3180   17.0737   34.1820 N   0  0  0  0  0  0  0  0  0  0  0  0
   26.4240   14.9869   30.9255 N   0  0  0  0  0  0  0  0  0  0  0  0
   28.4032   13.4201   29.7755 N   0  0  0  0  0  0  0  0  0  0  0  0
   22.4759   17.4388   29.3360 O   0  0  0  0  0  0  0  0  0  0  0  0
   23.0088   16.5636   30.3604 C   0  0  2  0  0  0  0  0  0  0  0  0
   23.8319   16.3208   26.0431 N   0  0  0  0  0  0  0  0  0  0  0  0
   21.5362   17.5923   32.0859 O   0  0  0  0  0  0  0  0  0  0  0  0
   22.8956   17.2720   31.7641 C   0  0  1  0  0  0  0  0  0  0  0  0
   24.5863   15.6317   28.8459 O   0  0  0  0  0  0  0  0  0  0  0  0
   23.4307   16.3773   32.8549 C   0  0  1  0  0  0  0  0  0  0  0  0
   26.7702   15.2703   28.2115 O   0  0  0  0  0  0  0  0  0  0  0  0
   24.9044   16.0264   32.5467 C   0  0  0  0  0  0  0  0  0  0  0  0
   26.0525   12.0947   26.5617 O   0  0  0  0  0  0  0  0  0  0  0  0
   24.9540   15.3144   31.1633 C   0  0  1  0  0  0  0  0  0  0  0  0
   24.5859   13.8407   24.9376 O   0  0  0  0  0  0  0  0  0  0  0  0
   24.5304   16.2505   30.0706 C   0  0  2  0  0  0  0  0  0  0  0  0
   25.4944   16.0423   27.8773 C   0  0  1  0  0  0  0  0  0  0  0  0
   26.6107   13.7892   28.0840 C   0  0  2  0  0  0  0  0  0  0  0  0
   27.9374   13.0706   28.4060 C   0  0  0  0  0  0  0  0  0  0  0  0
   26.2134   13.4678   26.6742 C   0  0  2  0  0  0  0  0  0  0  0  0
   24.9313   14.1505   26.2954 C   0  0  1  0  0  0  0  0  0  0  0  0
   25.1107   15.6236   26.4302 C   0  0  1  0  0  0  0  0  0  0  0  0
  5  4  1  6  0  0  0
  5  8  1  0  0  0  0
  5 16  1  0  0  0  0
  8  7  1  1  0  0  0
  8 10  1  0  0  0  0
 10  1  1  1  0  0  0
 10 12  1  0  0  0  0
 11 18  1  0  0  0  0
 12 14  1  0  0  0  0
 14  2  1  6  0  0  0
 14 16  1  0  0  0  0
 16  9  1  6  0  0  0
 17  9  1  1  0  0  0
 17 11  1  0  0  0  0
 17 22  1  0  0  0  0
 18 19  1  6  0  0  0
 18 20  1  0  0  0  0
 19  3  1  0  0  0  0
 20 13  1  1  0  0  0
 20 21  1  0  0  0  0
 21 15  1  6  0  0  0
 21 22  1  0  0  0  0
 22  6  1  1  0  0  0
M  END
>  <CHROM.1>
131.95218756,85.93320905,57.69381172,24.89349237,15.34040530,29.21456420
-2.11057222,0.60987733,-1.76264975

>  <Name>
2et8_lig

>  <RI>
0

>  <Rbt.Current_Directory>
/home/itssahil/PROJECTS/Mol_Feturizer/New_Systems/rnas/2et8

>  <Rbt.Executable>
rbdock ($Id: //depot/dev/client3/rdock/2013.1/src/exe/rbdock.cxx#4 $)

>  <Rbt.Library>
libRbt.so (2013.1, Build901 2013/11/27)

>  <Rbt.Parameter_File>
/export/apps/rDock/src/rDock_2013.1_src/data/scripts/dock_solv.prm

>  <Rbt.Receptor>
prm/blind_docking_100.prm

>  <SCORE>
5.3776

>  <SCORE.INTER>
0.644834

>  <SCORE.INTER.CONST>
1

>  <SCORE.INTER.POLAR>
-1.75957

>  <SCORE.INTER.ROT>
3

>  <SCORE.INTER.SOLV>
28.6254

>  <SCORE.INTER.VDW>
-8.84666

>  <SCORE.INTER.norm>
0.0293107

>  <SCORE.INTRA>
2.89495

>  <SCORE.INTRA.DIHEDRAL>
4.30934

>  <SCORE.INTRA.DIHEDRAL.0>
4.99603

>  <SCORE.INTRA.POLAR>
0

>  <SCORE.INTRA.POLAR.0>
0

>  <SCORE.INTRA.REPUL>
0

>  <SCORE.INTRA.REPUL.0>
0

>  <SCORE.INTRA.SOLV>
4.18525

>  <SCORE.INTRA.SOLV.lig_0>
-74.884

>  <SCORE.INTRA.VDW>
-1.35235

>  <SCORE.INTRA.VDW.0>
-0.858933

>  <SCORE.INTRA.norm>
0.131589

>  <SCORE.RESTR>
1.83781

>  <SCORE.RESTR.CAVITY>
1.83781

>  <SCORE.RESTR.norm>
0.083537

>  <SCORE.SYSTEM>
0

>  <SCORE.SYSTEM.CONST>
0

>  <SCORE.SYSTEM.DIHEDRAL>
0

>  <SCORE.SYSTEM.SOLV>
0

>  <SCORE.SYSTEM.norm>
0

>  <SCORE.heavy>
22

>  <SCORE.norm>
0.244436

>  <RMSD>
10.084

$$$$
2et8_lig
 OpenBabel11021811433D
libRbt.so/2013.1/901 2013/11/27
 22 23  0  0  0  0  0  0  0  0999 V2000
   20.7232   18.2372   31.9943 N   0  0  0  0  0  0  0  0  0  0  0  0
   22.0010   14.7195   28.7384 N   0  0  0  0  0  0  0  0  0  0  0  0
   29.0842   13.9959   30.1460 N   0  0  0  0  0  0  0  0  0  0  0  0
   25.2653   16.3154   32.0436 O   0  0  0  0  0  0  0  0  0  0  0  0
   24.1681   16.6825   31.1715 C   0  0  2  0  0  0  0  0  0  0  0  0
   23.7683   16.0426   27.0459 N   0  0  0  0  0  0  0  0  0  0  0  0
   23.4053   18.4312   32.7728 O   0  0  0  0  0  0  0  0  0  0  0  0
   22.9897   17.2751   32.0349 C   0  0  1  0  0  0  0  0  0  0  0  0
   24.6906   14.9282   29.6550 O   0  0  0  0  0  0  0  0  0  0  0  0
   21.8359   17.6806   31.1510 C   0  0  1  0  0  0  0  0  0  0  0  0
   26.8897   15.2997   29.0817 O   0  0  0  0  0  0  0  0  0  0  0  0
   21.3509   16.4492   30.3521 C   0  0  0  0  0  0  0  0  0  0  0  0
   27.0245   12.5291   26.7096 O   0  0  0  0  0  0  0  0  0  0  0  0
   22.5454   15.9191   29.5062 C   0  0  1  0  0  0  0  0  0  0  0  0
   25.1427   14.1728   25.4469 O   0  0  0  0  0  0  0  0  0  0  0  0
   23.6402   15.4105   30.3965 C   0  0  2  0  0  0  0  0  0  0  0  0
   25.4543   15.7748   28.8603 C   0  0  1  0  0  0  0  0  0  0  0  0
   27.1247   13.9008   28.6093 C   0  0  2  0  0  0  0  0  0  0  0  0
   28.5952   13.4917   28.8341 C   0  0  0  0  0  0  0  0  0  0  0  0
   26.8192   13.8307   27.1428 C   0  0  2  0  0  0  0  0  0  0  0  0
   25.4009   14.2310   26.8573 C   0  0  1  0  0  0  0  0  0  0  0  0
   25.1873   15.6259   27.3361 C   0  0  1  0  0  0  0  0  0  0  0  0
  5  4  1  1  0  0  0
  5  8  1  0  0  0  0
  5 16  1  0  0  0  0
  8  7  1  6  0  0  0
  8 10  1  0  0  0  0
 10  1  1  1  0  0  0
 10 12  1  0  0  0  0
 11 18  1  0  0  0  0
 12 14  1  0  0  0  0
 14  2  1  6  0  0  0
 14 16  1  0  0  0  0
 16  9  1  6  0  0  0
 17  9  1  1  0  0  0
 17 11  1  0  0  0  0
 17 22  1  0  0  0  0
 18 19  1  6  0  0  0
 18 20  1  0  0  0  0
 19  3  1  0  0  0  0
 20 13  1  1  0  0  0
 20 21  1  0  0  0  0
 21 15  1  6  0  0  0
 21 22  1  0  0  0  0
 22  6  1  1  0  0  0
M  END
>  <CHROM.1>
-48.44092088,138.63552548,40.35534250,24.71971851,15.48463633,29.35731470
2.34821787,-0.32651809,1.14135301

>  <Name>
2et8_lig

>  <RI>
0

>  <Rbt.Current_Directory>
/home/itssahil/PROJECTS/Mol_Feturizer/New_Systems/rnas/2et8

>  <Rbt.Executable>
rbdock ($Id: //depot/dev/client3/rdock/2013.1/src/exe/rbdock.cxx#4 $)

>  <Rbt.Library>
libRbt.so (2013.1, Build901 2013/11/27)

>  <Rbt.Parameter_File>
/export/apps/rDock/src/rDock_2013.1_src/data/scripts/dock_solv.prm

>  <Rbt.Receptor>
prm/blind_docking_100.prm

>  <SCORE>
1.56004

>  <SCORE.INTER>
-3.82015

>  <SCORE.INTER.CONST>
1

>  <SCORE.INTER.POLAR>
-0.487596

>  <SCORE.INTER.ROT>
3

>  <SCORE.INTER.SOLV>
26.7585

>  <SCORE.INTER.VDW>
-15.441

>  <SCORE.INTER.norm>
-0.173643

>  <SCORE.INTRA>
4.16129

>  <SCORE.INTRA.DIHEDRAL>
2.57939

>  <SCORE.INTRA.DIHEDRAL.0>
4.99603

>  <SCORE.INTRA.POLAR>
0

>  <SCORE.INTRA.POLAR.0>
0

>  <SCORE.INTRA.REPUL>
0

>  <SCORE.INTRA.REPUL.0>
0

>  <SCORE.INTRA.SOLV>
3.97581

>  <SCORE.INTRA.SOLV.lig_0>
-74.884

>  <SCORE.INTRA.VDW>
0.883685

>  <SCORE.INTRA.VDW.0>
-0.858933

>  <SCORE.INTRA.norm>
0.189149

>  <SCORE.RESTR>
1.2189

>  <SCORE.RESTR.CAVITY>
1.2189

>  <SCORE.RESTR.norm>
0.0554048

>  <SCORE.SYSTEM>
0

>  <SCORE.SYSTEM.CONST>
0

>  <SCORE.SYSTEM.DIHEDRAL>
0

>  <SCORE.SYSTEM.SOLV>
0

>  <SCORE.SYSTEM.norm>
0

>  <SCORE.heavy>
22

>  <SCORE.norm>
0.070911

>  <RMSD>
10.147

$$$$
2et8_lig
 OpenBabel11021811433D
libRbt.so/2013.1/901 2013/11/27
 22 23  0  0  0  0  0  0  0  0999 V2000
   20.2556   17.3608   32.3874 N   0  0  0  0  0  0  0  0  0  0  0  0
   25.0163   16.0740   32.9237 N   0  0  0  0  0  0  0  0  0  0  0  0
   24.3809   16.3582   25.6726 N   0  0  0  0  0  0  0  0  0  0  0  0
   23.2962   17.3522   28.5040 O   0  0  0  0  0  0  0  0  0  0  0  0
   23.0040   16.6780   29.7528 C   0  0  2  0  0  0  0  0  0  0  0  0
   26.7869   13.7841   31.1267 N   0  0  0  0  0  0  0  0  0  0  0  0
   20.6046   17.3313   29.6099 O   0  0  0  0  0  0  0  0  0  0  0  0
   21.7689   17.3715   30.4447 C   0  0  1  0  0  0  0  0  0  0  0  0
   25.2975   16.1518   30.0896 O   0  0  0  0  0  0  0  0  0  0  0  0
   21.4311   16.6810   31.7431 C   0  0  1  0  0  0  0  0  0  0  0  0
   24.9249   15.0879   28.0816 O   0  0  0  0  0  0  0  0  0  0  0  0
   22.6633   16.7222   32.6758 C   0  0  0  0  0  0  0  0  0  0  0  0
   28.3626   15.4847   26.9213 O   0  0  0  0  0  0  0  0  0  0  0  0
   23.8428   16.0091   31.9523 C   0  0  1  0  0  0  0  0  0  0  0  0
   28.7732   13.8114   29.1279 O   0  0  0  0  0  0  0  0  0  0  0  0
   24.2473   16.7689   30.7239 C   0  0  2  0  0  0  0  0  0  0  0  0
   25.1677   14.8677   29.5742 C   0  0  1  0  0  0  0  0  0  0  0  0
   26.0785   15.7396   27.3889 C   0  0  2  0  0  0  0  0  0  0  0  0
   25.7834   15.9077   25.8840 C   0  0  0  0  0  0  0  0  0  0  0  0
   27.2904   14.8716   27.5527 C   0  0  2  0  0  0  0  0  0  0  0  0
   27.6226   14.6595   29.0012 C   0  0  1  0  0  0  0  0  0  0  0  0
   26.4612   14.0111   29.6729 C   0  0  1  0  0  0  0  0  0  0  0  0
  5  4  1  6  0  0  0
  5  8  1  0  0  0  0
  5 16  1  0  0  0  0
  8  7  1  6  0  0  0
  8 10  1  0  0  0  0
 10  1  1  1  0  0  0
 10 12  1  0  0  0  0
 11 18  1  0  0  0  0
 12 14  1  0  0  0  0
 14  2  1  1  0  0  0
 14 16  1  0  0  0  0
 16  9  1  6  0  0  0
 17  9  1  1  0  0  0
 17 11  1  0  0  0  0
 17 22  1  0  0  0  0
 18 19  1  6  0  0  0
 18 20  1  0  0  0  0
 19  3  1  0  0  0  0
 20 13  1  6  0  0  0
 20 21  1  0  0  0  0
 21 15  1  6  0  0  0
 21 22  1  0  0  0  0
 22  6  1  1  0  0  0
M  END
>  <CHROM.1>
-51.98999037,99.64697634,41.79631350,24.70450472,15.87085887,29.54282641
-2.66649600,0.44638616,-1.42255907

>  <Name>
2et8_lig

>  <RI>
0

>  <Rbt.Current_Directory>
/home/itssahil/PROJECTS/Mol_Feturizer/New_Systems/rnas/2et8

>  <Rbt.Executable>
rbdock ($Id: //depot/dev/client3/rdock/2013.1/src/exe/rbdock.cxx#4 $)

>  <Rbt.Library>
libRbt.so (2013.1, Build901 2013/11/27)

>  <Rbt.Parameter_File>
/export/apps/rDock/src/rDock_2013.1_src/data/scripts/dock_solv.prm

>  <Rbt.Receptor>
prm/blind_docking_80.prm

>  <SCORE>
0.690177

>  <SCORE.INTER>
-3.08482

>  <SCORE.INTER.CONST>
1

>  <SCORE.INTER.POLAR>
-0.676599

>  <SCORE.INTER.ROT>
3

>  <SCORE.INTER.SOLV>
29.323

>  <SCORE.INTER.VDW>
-15.1756

>  <SCORE.INTER.norm>
-0.140219

>  <SCORE.INTRA>
2.29957

>  <SCORE.INTRA.DIHEDRAL>
1.82614

>  <SCORE.INTRA.DIHEDRAL.0>
4.99603

>  <SCORE.INTRA.POLAR>
0

>  <SCORE.INTRA.POLAR.0>
0

>  <SCORE.INTRA.REPUL>
0

>  <SCORE.INTRA.REPUL.0>
0

>  <SCORE.INTRA.SOLV>
2.59208

>  <SCORE.INTRA.SOLV.lig_0>
-74.884

>  <SCORE.INTRA.VDW>
0.0904648

>  <SCORE.INTRA.VDW.0>
-0.858933

>  <SCORE.INTRA.norm>
0.104526

>  <SCORE.RESTR>
1.47543

>  <SCORE.RESTR.CAVITY>
1.47543

>  <SCORE.RESTR.norm>
0.0670648

>  <SCORE.SYSTEM>
0

>  <SCORE.SYSTEM.CONST>
0

>  <SCORE.SYSTEM.DIHEDRAL>
0

>  <SCORE.SYSTEM.SOLV>
0

>  <SCORE.SYSTEM.norm>
0

>  <SCORE.heavy>
22

>  <SCORE.norm>
0.0313717

>  <RMSD>
10.180

$$$$
2et8_lig
 OpenBabel11021811433D
libRbt.so/2013.1/901 2013/11/27
 22 23  0  0  0  0  0  0  0  0999 V2000
   23.0032   16.9373   34.0985 N   0  0  0  0  0  0  0  0  0  0  0  0
   26.4122   15.0281   31.0421 N   0  0  0  0  0  0  0  0  0  0  0  0
   28.7468   13.8520   29.7903 N   0  0  0  0  0  0  0  0  0  0  0  0
   22.5136   17.3895   29.2116 O   0  0  0  0  0  0  0  0  0  0  0  0
   22.9976   16.5077   30.2545 C   0  0  2  0  0  0  0  0  0  0  0  0
   23.8519   16.2866   26.0570 N   0  0  0  0  0  0  0  0  0  0  0  0
   21.3666   17.4480   31.8854 O   0  0  0  0  0  0  0  0  0  0  0  0
   22.7562   17.1789   31.6603 C   0  0  1  0  0  0  0  0  0  0  0  0
   24.7142   15.6627   28.8440 O   0  0  0  0  0  0  0  0  0  0  0  0
   23.2381   16.2763   32.7693 C   0  0  1  0  0  0  0  0  0  0  0  0
   26.9258   15.6649   28.2027 O   0  0  0  0  0  0  0  0  0  0  0  0
   24.7417   15.9800   32.5658 C   0  0  0  0  0  0  0  0  0  0  0  0
   26.7133   12.4535   26.4813 O   0  0  0  0  0  0  0  0  0  0  0  0
   24.9183   15.3027   31.1753 C   0  0  1  0  0  0  0  0  0  0  0  0
   24.9846   13.9820   24.8962 O   0  0  0  0  0  0  0  0  0  0  0  0
   24.5463   16.2504   30.0737 C   0  0  2  0  0  0  0  0  0  0  0  0
   25.5432   16.2331   27.8853 C   0  0  1  0  0  0  0  0  0  0  0  0
   27.0017   14.1804   28.0417 C   0  0  2  0  0  0  0  0  0  0  0  0
   28.4262   13.6732   28.3481 C   0  0  0  0  0  0  0  0  0  0  0  0
   26.6559   13.8320   26.6248 C   0  0  2  0  0  0  0  0  0  0  0  0
   25.2809   14.3120   26.2609 C   0  0  1  0  0  0  0  0  0  0  0  0
   25.2259   15.7916   26.4290 C   0  0  1  0  0  0  0  0  0  0  0  0
  5  4  1  6  0  0  0
  5  8  1  0  0  0  0
  5 16  1  0  0  0  0
  8  7  1  1  0  0  0
  8 10  1  0  0  0  0
 10  1  1  1  0  0  0
 10 12  1  0  0  0  0
 11 18  1  0  0  0  0
 12 14  1  0  0  0  0
 14  2  1  6  0  0  0
 14 16  1  0  0  0  0
 16  9  1  6  0  0  0
 17  9  1  1  0  0  0
 17 11  1  0  0  0  0
 17 22  1  0  0  0  0
 18 19  1  6  0  0  0
 18 20  1  0  0  0  0
 19  3  1  0  0  0  0
 20 13  1  1  0  0  0
 20 21  1  0  0  0  0
 21 15  1  6  0  0  0
 21 22  1  0  0  0  0
 22  6  1  1  0  0  0
M  END
>  <CHROM.1>
122.97419967,87.12305315,67.42085728,25.01365363,15.45949286,29.17524846
-2.18924337,0.51708709,-1.70527023

>  <Name>
2et8_lig

>  <RI>
0

>  <Rbt.Current_Directory>
/home/itssahil/PROJECTS/Mol_Feturizer/New_Systems/rnas/2et8

>  <Rbt.Executable>
rbdock ($Id: //depot/dev/client3/rdock/2013.1/src/exe/rbdock.cxx#4 $)

>  <Rbt.Library>
libRbt.so (2013.1, Build901 2013/11/27)

>  <Rbt.Parameter_File>
/export/apps/rDock/src/rDock_2013.1_src/data/scripts/dock_solv.prm

>  <Rbt.Receptor>
prm/blind_docking_80.prm

>  <SCORE>
-2.34181

>  <SCORE.INTER>
-8.60904

>  <SCORE.INTER.CONST>
1

>  <SCORE.INTER.POLAR>
-1.6514

>  <SCORE.INTER.ROT>
3

>  <SCORE.INTER.SOLV>
29.0008

>  <SCORE.INTER.VDW>
-15.5016

>  <SCORE.INTER.norm>
-0.39132

>  <SCORE.INTRA>
3.04606

>  <SCORE.INTRA.DIHEDRAL>
5.32328

>  <SCORE.INTRA.DIHEDRAL.0>
4.99603

>  <SCORE.INTRA.POLAR>
0

>  <SCORE.INTRA.POLAR.0>
0

>  <SCORE.INTRA.REPUL>
0

>  <SCORE.INTRA.REPUL.0>
0

>  <SCORE.INTRA.SOLV>
3.73521

>  <SCORE.INTRA.SOLV.lig_0>
-74.884

>  <SCORE.INTRA.VDW>
-1.48318

>  <SCORE.INTRA.VDW.0>
-0.858933

>  <SCORE.INTRA.norm>
0.138457

>  <SCORE.RESTR>
3.22116

>  <SCORE.RESTR.CAVITY>
3.22116

>  <SCORE.RESTR.norm>
0.146416

>  <SCORE.SYSTEM>
0

>  <SCORE.SYSTEM.CONST>
0

>  <SCORE.SYSTEM.DIHEDRAL>
0

>  <SCORE.SYSTEM.SOLV>
0

>  <SCORE.SYSTEM.norm>
0

>  <SCORE.heavy>
22

>  <SCORE.norm>
-0.106446

>  <RMSD>
10.233

$$$$
2et8_lig
 OpenBabel11021811433D
libRbt.so/2013.1/901 2013/11/27
 22 23  0  0  0  0  0  0  0  0999 V2000
   21.2633   12.7510   30.0401 N   0  0  0  0  0  0  0  0  0  0  0  0
   19.5799    8.2809   28.7015 N   0  0  0  0  0  0  0  0  0  0  0  0
   21.3279    3.8080   29.8691 N   0  0  0  0  0  0  0  0  0  0  0  0
   18.4177   10.1314   33.1006 O   0  0  0  0  0  0  0  0  0  0  0  0
   19.4431   10.0172   32.0832 C   0  0  2  0  0  0  0  0  0  0  0  0
   16.1053    6.3001   31.6883 N   0  0  0  0  0  0  0  0  0  0  0  0
   20.3226   12.2814   32.6347 O   0  0  0  0  0  0  0  0  0  0  0  0
   19.8330   11.4560   31.5703 C   0  0  1  0  0  0  0  0  0  0  0  0
   18.5822    7.9275   31.3468 O   0  0  0  0  0  0  0  0  0  0  0  0
   20.9111   11.3703   30.5180 C   0  0  1  0  0  0  0  0  0  0  0  0
   19.5293    6.2846   30.0405 O   0  0  0  0  0  0  0  0  0  0  0  0
   20.4073   10.4990   29.3445 C   0  0  0  0  0  0  0  0  0  0  0  0
   20.1844    4.0475   32.8490 O   0  0  0  0  0  0  0  0  0  0  0  0
   20.0565    9.0891   29.9034 C   0  0  1  0  0  0  0  0  0  0  0  0
   17.3858    4.1009   32.8988 O   0  0  0  0  0  0  0  0  0  0  0  0
   18.9055    9.1709   30.8617 C   0  0  2  0  0  0  0  0  0  0  0  0
   18.2049    6.9007   30.4895 C   0  0  1  0  0  0  0  0  0  0  0  0
   20.3042    5.6747   31.1643 C   0  0  2  0  0  0  0  0  0  0  0  0
   21.6134    5.0467   30.6429 C   0  0  0  0  0  0  0  0  0  0  0  0
   19.4691    4.6024   31.7979 C   0  0  2  0  0  0  0  0  0  0  0  0
   18.1712    5.1508   32.3157 C   0  0  1  0  0  0  0  0  0  0  0  0
   17.4156    5.7543   31.1819 C   0  0  1  0  0  0  0  0  0  0  0  0
  5  4  1  1  0  0  0
  5  8  1  0  0  0  0
  5 16  1  0  0  0  0
  8  7  1  1  0  0  0
  8 10  1  0  0  0  0
 10  1  1  6  0  0  0
 10 12  1  0  0  0  0
 11 18  1  0  0  0  0
 12 14  1  0  0  0  0
 14  2  1  6  0  0  0
 14 16  1  0  0  0  0
 16  9  1  1  0  0  0
 17  9  1  1  0  0  0
 17 11  1  0  0  0  0
 17 22  1  0  0  0  0
 18 19  1  6  0  0  0
 18 20  1  0  0  0  0
 19  3  1  0  0  0  0
 20 13  1  1  0  0  0
 20 21  1  0  0  0  0
 21 15  1  6  0  0  0
 21 22  1  0  0  0  0
 22  6  1  1  0  0  0
M  END
>  <CHROM.1>
-173.40846443,85.28356335,-71.73907829,19.42018519,7.74009946,31.17535844
-1.35768890,-0.65814434,-3.09792708

>  <Name>
2et8_lig

>  <RI>
0

>  <Rbt.Current_Directory>
/home/itssahil/PROJECTS/Mol_Feturizer/New_Systems/rnas/2et8

>  <Rbt.Executable>
rbdock ($Id: //depot/dev/client3/rdock/2013.1/src/exe/rbdock.cxx#4 $)

>  <Rbt.Library>
libRbt.so (2013.1, Build901 2013/11/27)

>  <Rbt.Parameter_File>
/export/apps/rDock/src/rDock_2013.1_src/data/scripts/dock_solv.prm

>  <Rbt.Receptor>
prm/blind_docking_40.prm

>  <SCORE>
8.12276

>  <SCORE.INTER>
-2.08328

>  <SCORE.INTER.CONST>
1

>  <SCORE.INTER.POLAR>
-2.40075

>  <SCORE.INTER.ROT>
3

>  <SCORE.INTER.SOLV>
17.9356

>  <SCORE.INTER.VDW>
-4.96487

>  <SCORE.INTER.norm>
-0.0946945

>  <SCORE.INTRA>
2.83325

>  <SCORE.INTRA.DIHEDRAL>
-1.45794

>  <SCORE.INTRA.DIHEDRAL.0>
4.99603

>  <SCORE.INTRA.POLAR>
0

>  <SCORE.INTRA.POLAR.0>
0

>  <SCORE.INTRA.REPUL>
0

>  <SCORE.INTRA.REPUL.0>
0

>  <SCORE.INTRA.SOLV>
3.17756

>  <SCORE.INTRA.SOLV.lig_0>
-74.884

>  <SCORE.INTRA.VDW>
1.97344

>  <SCORE.INTRA.VDW.0>
-0.858933

>  <SCORE.INTRA.norm>
0.128784

>  <SCORE.RESTR>
7.37279

>  <SCORE.RESTR.CAVITY>
7.37279

>  <SCORE.RESTR.norm>
0.335127

>  <SCORE.SYSTEM>
0

>  <SCORE.SYSTEM.CONST>
0

>  <SCORE.SYSTEM.DIHEDRAL>
0

>  <SCORE.SYSTEM.SOLV>
0

>  <SCORE.SYSTEM.norm>
0

>  <SCORE.heavy>
22

>  <SCORE.norm>
0.369216

>  <RMSD>
10.291

$$$$
2et8_lig
 OpenBabel11021811433D
libRbt.so/2013.1/901 2013/11/27
 22 23  0  0  0  0  0  0  0  0999 V2000
   19.9922   12.7528   29.0780 N   0  0  0  0  0  0  0  0  0  0  0  0
   16.4020   10.1144   31.2591 N   0  0  0  0  0  0  0  0  0  0  0  0
   21.5572    4.4344   30.0829 N   0  0  0  0  0  0  0  0  0  0  0  0
   21.0504    8.5339   31.4034 O   0  0  0  0  0  0  0  0  0  0  0  0
   20.0376    9.2021   30.6115 C   0  0  2  0  0  0  0  0  0  0  0  0
   15.9465    6.1994   31.5535 N   0  0  0  0  0  0  0  0  0  0  0  0
   21.7585   10.6233   29.5057 O   0  0  0  0  0  0  0  0  0  0  0  0
   20.5324   10.6538   30.2471 C   0  0  1  0  0  0  0  0  0  0  0  0
   18.2924    8.0344   31.7256 O   0  0  0  0  0  0  0  0  0  0  0  0
   19.5027   11.3708   29.4089 C   0  0  1  0  0  0  0  0  0  0  0  0
   19.5378    6.6321   30.3895 O   0  0  0  0  0  0  0  0  0  0  0  0
   18.1695   11.4368   30.1888 C   0  0  0  0  0  0  0  0  0  0  0  0
   20.0317    4.1332   33.0034 O   0  0  0  0  0  0  0  0  0  0  0  0
   17.7198    9.9802   30.5040 C   0  0  1  0  0  0  0  0  0  0  0  0
   17.2554    3.9732   32.6816 O   0  0  0  0  0  0  0  0  0  0  0  0
   18.6921    9.3151   31.4325 C   0  0  2  0  0  0  0  0  0  0  0  0
   18.1181    7.0911   30.7199 C   0  0  1  0  0  0  0  0  0  0  0  0
   20.2168    5.9526   31.5351 C   0  0  2  0  0  0  0  0  0  0  0  0
   21.6315    5.4891   31.1302 C   0  0  0  0  0  0  0  0  0  0  0  0
   19.4074    4.7541   31.9315 C   0  0  2  0  0  0  0  0  0  0  0  0
   18.0113    5.1398   32.3259 C   0  0  1  0  0  0  0  0  0  0  0  0
   17.3532    5.8157   31.1724 C   0  0  1  0  0  0  0  0  0  0  0  0
  5  4  1  1  0  0  0
  5  8  1  0  0  0  0
  5 16  1  0  0  0  0
  8  7  1  6  0  0  0
  8 10  1  0  0  0  0
 10  1  1  1  0  0  0
 10 12  1  0  0  0  0
 11 18  1  0  0  0  0
 12 14  1  0  0  0  0
 14  2  1  1  0  0  0
 14 16  1  0  0  0  0
 16  9  1  6  0  0  0
 17  9  1  1  0  0  0
 17 11  1  0  0  0  0
 17 22  1  0  0  0  0
 18 19  1  6  0  0  0
 18 20  1  0  0  0  0
 19  3  1  0  0  0  0
 20 13  1  1  0  0  0
 20 21  1  0  0  0  0
 21 15  1  6  0  0  0
 21 22  1  0  0  0  0
 22  6  1  1  0  0  0
M  END
>  <CHROM.1>
-55.17693722,78.76204981,-65.48369387,19.17184046,7.76619992,31.01276876
-1.48019730,-0.20843692,2.85975172

>  <Name>
2et8_lig

>  <RI>
0

>  <Rbt.Current_Directory>
/home/itssahil/PROJECTS/Mol_Feturizer/New_Systems/rnas/2et8

>  <Rbt.Executable>
rbdock ($Id: //depot/dev/client3/rdock/2013.1/src/exe/rbdock.cxx#4 $)

>  <Rbt.Library>
libRbt.so (2013.1, Build901 2013/11/27)

>  <Rbt.Parameter_File>
/export/apps/rDock/src/rDock_2013.1_src/data/scripts/dock_solv.prm

>  <Rbt.Receptor>
prm/blind_docking_40.prm

>  <SCORE>
5.91873

>  <SCORE.INTER>
-2.6664

>  <SCORE.INTER.CONST>
1

>  <SCORE.INTER.POLAR>
-1.47739

>  <SCORE.INTER.ROT>
3

>  <SCORE.INTER.SOLV>
18.5412

>  <SCORE.INTER.VDW>
-8.63337

>  <SCORE.INTER.norm>
-0.1212

>  <SCORE.INTRA>
1.48747

>  <SCORE.INTRA.DIHEDRAL>
-3.01887

>  <SCORE.INTRA.DIHEDRAL.0>
4.99603

>  <SCORE.INTRA.POLAR>
0

>  <SCORE.INTRA.POLAR.0>
0

>  <SCORE.INTRA.REPUL>
0

>  <SCORE.INTRA.REPUL.0>
0

>  <SCORE.INTRA.SOLV>
2.10965

>  <SCORE.INTRA.SOLV.lig_0>
-74.884

>  <SCORE.INTRA.VDW>
1.94208

>  <SCORE.INTRA.VDW.0>
-0.858933

>  <SCORE.INTRA.norm>
0.067612

>  <SCORE.RESTR>
7.09767

>  <SCORE.RESTR.CAVITY>
7.09767

>  <SCORE.RESTR.norm>
0.322621

>  <SCORE.SYSTEM>
0

>  <SCORE.SYSTEM.CONST>
0

>  <SCORE.SYSTEM.DIHEDRAL>
0

>  <SCORE.SYSTEM.SOLV>
0

>  <SCORE.SYSTEM.norm>
0

>  <SCORE.heavy>
22

>  <SCORE.norm>
0.269033

>  <RMSD>
10.399

$$$$
2et8_lig
 OpenBabel11021811433D
libRbt.so/2013.1/901 2013/11/27
 22 23  0  0  0  0  0  0  0  0999 V2000
   19.9649   12.7508   29.0946 N   0  0  0  0  0  0  0  0  0  0  0  0
   16.3831   10.0795   31.2493 N   0  0  0  0  0  0  0  0  0  0  0  0
   21.5728    4.4328   30.0777 N   0  0  0  0  0  0  0  0  0  0  0  0
   21.0447    8.5419   31.4282 O   0  0  0  0  0  0  0  0  0  0  0  0
   20.0317    9.2008   30.6288 C   0  0  2  0  0  0  0  0  0  0  0  0
   15.9552    6.1666   31.5594 N   0  0  0  0  0  0  0  0  0  0  0  0
   21.7476   10.6377   29.5357 O   0  0  0  0  0  0  0  0  0  0  0  0
   20.5157   10.6570   30.2680 C   0  0  1  0  0  0  0  0  0  0  0  0
   18.2891    8.0170   31.7300 O   0  0  0  0  0  0  0  0  0  0  0  0
   19.4857   11.3644   29.4220 C   0  0  1  0  0  0  0  0  0  0  0  0
   19.5398    6.6275   30.3856 O   0  0  0  0  0  0  0  0  0  0  0  0
   18.1462   11.4181   30.1920 C   0  0  0  0  0  0  0  0  0  0  0  0
   20.0589    4.1237   32.9900 O   0  0  0  0  0  0  0  0  0  0  0  0
   17.7077    9.9574   30.5040 C   0  0  1  0  0  0  0  0  0  0  0  0
   17.2827    3.9458   32.6763 O   0  0  0  0  0  0  0  0  0  0  0  0
   18.6792    9.3013   31.4398 C   0  0  2  0  0  0  0  0  0  0  0  0
   18.1181    7.0758   30.7219 C   0  0  1  0  0  0  0  0  0  0  0  0
   20.2270    5.9490   31.5270 C   0  0  2  0  0  0  0  0  0  0  0  0
   21.6436    5.4964   31.1162 C   0  0  0  0  0  0  0  0  0  0  0  0
   19.4270    4.7437   31.9221 C   0  0  2  0  0  0  0  0  0  0  0  0
   18.0296    5.1187   32.3220 C   0  0  1  0  0  0  0  0  0  0  0  0
   17.3633    5.7937   31.1727 C   0  0  1  0  0  0  0  0  0  0  0  0
  5  4  1  1  0  0  0
  5  8  1  0  0  0  0
  5 16  1  0  0  0  0
  8  7  1  6  0  0  0
  8 10  1  0  0  0  0
 10  1  1  1  0  0  0
 10 12  1  0  0  0  0
 11 18  1  0  0  0  0
 12 14  1  0  0  0  0
 14  2  1  1  0  0  0
 14 16  1  0  0  0  0
 16  9  1  6  0  0  0
 17  9  1  1  0  0  0
 17 11  1  0  0  0  0
 17 22  1  0  0  0  0
 18 19  1  6  0  0  0
 18 20  1  0  0  0  0
 19  3  1  0  0  0  0
 20 13  1  1  0  0  0
 20 21  1  0  0  0  0
 21 15  1  6  0  0  0
 21 22  1  0  0  0  0
 22  6  1  1  0  0  0
M  END
>  <CHROM.1>
-55.82507050,78.76480524,-66.16909312,19.17196264,7.75582720,31.01615881
-1.48571760,-0.20417262,2.86171676

>  <Name>
2et8_lig

>  <RI>
0

>  <Rbt.Current_Directory>
/home/itssahil/PROJECTS/Mol_Feturizer/New_Systems/rnas/2et8

>  <Rbt.Executable>
rbdock ($Id: //depot/dev/client3/rdock/2013.1/src/exe/rbdock.cxx#4 $)

>  <Rbt.Library>
libRbt.so (2013.1, Build901 2013/11/27)

>  <Rbt.Parameter_File>
/export/apps/rDock/src/rDock_2013.1_src/data/scripts/dock_solv.prm

>  <Rbt.Receptor>
prm/blind_docking_40.prm

>  <SCORE>
5.8771

>  <SCORE.INTER>
-2.66172

>  <SCORE.INTER.CONST>
1

>  <SCORE.INTER.POLAR>
-1.41601

>  <SCORE.INTER.ROT>
3

>  <SCORE.INTER.SOLV>
18.5941

>  <SCORE.INTER.VDW>
-8.85245

>  <SCORE.INTER.norm>
-0.120987

>  <SCORE.INTRA>
1.42535

>  <SCORE.INTRA.DIHEDRAL>
-3.01777

>  <SCORE.INTRA.DIHEDRAL.0>
4.99603

>  <SCORE.INTRA.POLAR>
0

>  <SCORE.INTRA.POLAR.0>
0

>  <SCORE.INTRA.REPUL>
0

>  <SCORE.INTRA.REPUL.0>
0

>  <SCORE.INTRA.SOLV>
2.12747

>  <SCORE.INTRA.SOLV.lig_0>
-74.884

>  <SCORE.INTRA.VDW>
1.87051

>  <SCORE.INTRA.VDW.0>
-0.858933

>  <SCORE.INTRA.norm>
0.0647888

>  <SCORE.RESTR>
7.11347

>  <SCORE.RESTR.CAVITY>
7.11347

>  <SCORE.RESTR.norm>
0.32334

>  <SCORE.SYSTEM>
0

>  <SCORE.SYSTEM.CONST>
0

>  <SCORE.SYSTEM.DIHEDRAL>
0

>  <SCORE.SYSTEM.SOLV>
0

>  <SCORE.SYSTEM.norm>
0

>  <SCORE.heavy>
22

>  <SCORE.norm>
0.267141

>  <RMSD>
10.410

$$$$
2et8_lig
 OpenBabel11021811433D
libRbt.so/2013.1/901 2013/11/27
 22 23  0  0  0  0  0  0  0  0999 V2000
   19.8636   12.7509   29.0677 N   0  0  0  0  0  0  0  0  0  0  0  0
   16.3231   10.0442   31.2463 N   0  0  0  0  0  0  0  0  0  0  0  0
   21.5667    4.4781   30.0597 N   0  0  0  0  0  0  0  0  0  0  0  0
   21.0026    8.5597   31.4049 O   0  0  0  0  0  0  0  0  0  0  0  0
   19.9782    9.2052   30.6092 C   0  0  2  0  0  0  0  0  0  0  0  0
   15.9293    6.1441   31.5429 N   0  0  0  0  0  0  0  0  0  0  0  0
   21.6722   10.6590   29.5043 O   0  0  0  0  0  0  0  0  0  0  0  0
   20.4439   10.6660   30.2428 C   0  0  1  0  0  0  0  0  0  0  0  0
   18.2546    8.0044   31.7218 O   0  0  0  0  0  0  0  0  0  0  0  0
   19.4018   11.3599   29.4005 C   0  0  1  0  0  0  0  0  0  0  0  0
   19.5208    6.6131   30.3938 O   0  0  0  0  0  0  0  0  0  0  0  0
   18.0656   11.4002   30.1771 C   0  0  0  0  0  0  0  0  0  0  0  0
   20.0298    4.1243   33.0145 O   0  0  0  0  0  0  0  0  0  0  0  0
   17.6452    9.9353   30.4945 C   0  0  1  0  0  0  0  0  0  0  0  0
   17.2568    3.9341   32.6809 O   0  0  0  0  0  0  0  0  0  0  0  0
   18.6287    9.2924   31.4268 C   0  0  2  0  0  0  0  0  0  0  0  0
   18.0949    7.0575   30.7171 C   0  0  1  0  0  0  0  0  0  0  0  0
   20.2020    5.9429   31.5437 C   0  0  2  0  0  0  0  0  0  0  0  0
   21.6233    5.4939   31.1458 C   0  0  0  0  0  0  0  0  0  0  0  0
   19.4037    4.7365   31.9388 C   0  0  2  0  0  0  0  0  0  0  0  0
   18.0018    5.1081   32.3263 C   0  0  1  0  0  0  0  0  0  0  0  0
   17.3416    5.7748   31.1686 C   0  0  1  0  0  0  0  0  0  0  0  0
  5  4  1  1  0  0  0
  5  8  1  0  0  0  0
  5 16  1  0  0  0  0
  8  7  1  6  0  0  0
  8 10  1  0  0  0  0
 10  1  1  1  0  0  0
 10 12  1  0  0  0  0
 11 18  1  0  0  0  0
 12 14  1  0  0  0  0
 14  2  1  1  0  0  0
 14 16  1  0  0  0  0
 16  9  1  6  0  0  0
 17  9  1  1  0  0  0
 17 11  1  0  0  0  0
 17 22  1  0  0  0  0
 18 19  1  6  0  0  0
 18 20  1  0  0  0  0
 19  3  1  0  0  0  0
 20 13  1  1  0  0  0
 20 21  1  0  0  0  0
 21 15  1  6  0  0  0
 21 22  1  0  0  0  0
 22  6  1  1  0  0  0
M  END
>  <CHROM.1>
-55.53965778,79.43387413,-63.09268922,19.12842481,7.75090705,31.01008887
-1.49404947,-0.20239910,2.85514550

>  <Name>
2et8_lig

>  <RI>
0

>  <Rbt.Current_Directory>
/home/itssahil/PROJECTS/Mol_Feturizer/New_Systems/rnas/2et8

>  <Rbt.Executable>
rbdock ($Id: //depot/dev/client3/rdock/2013.1/src/exe/rbdock.cxx#4 $)

>  <Rbt.Library>
libRbt.so (2013.1, Build901 2013/11/27)

>  <Rbt.Parameter_File>
/export/apps/rDock/src/rDock_2013.1_src/data/scripts/dock_solv.prm

>  <Rbt.Receptor>
prm/blind_docking_40.prm

>  <SCORE>
5.1781

>  <SCORE.INTER>
-3.34925

>  <SCORE.INTER.CONST>
1

>  <SCORE.INTER.POLAR>
-1.39554

>  <SCORE.INTER.ROT>
3

>  <SCORE.INTER.SOLV>
18.6661

>  <SCORE.INTER.VDW>
-9.40307

>  <SCORE.INTER.norm>
-0.152238

>  <SCORE.INTRA>
1.23054

>  <SCORE.INTRA.DIHEDRAL>
-3.00382

>  <SCORE.INTRA.DIHEDRAL.0>
4.99603

>  <SCORE.INTRA.POLAR>
0

>  <SCORE.INTRA.POLAR.0>
0

>  <SCORE.INTRA.REPUL>
0

>  <SCORE.INTRA.REPUL.0>
0

>  <SCORE.INTRA.SOLV>
2.11223

>  <SCORE.INTRA.SOLV.lig_0>
-74.884

>  <SCORE.INTRA.VDW>
1.67634

>  <SCORE.INTRA.VDW.0>
-0.858933

>  <SCORE.INTRA.norm>
0.0559338

>  <SCORE.RESTR>
7.29681

>  <SCORE.RESTR.CAVITY>
7.29681

>  <SCORE.RESTR.norm>
0.331673

>  <SCORE.SYSTEM>
0

>  <SCORE.SYSTEM.CONST>
0

>  <SCORE.SYSTEM.DIHEDRAL>
0

>  <SCORE.SYSTEM.SOLV>
0

>  <SCORE.SYSTEM.norm>
0

>  <SCORE.heavy>
22

>  <SCORE.norm>
0.235368

>  <RMSD>
10.432

$$$$
2et8_lig
 OpenBabel11021811433D
libRbt.so/2013.1/901 2013/11/27
 22 23  0  0  0  0  0  0  0  0999 V2000
   19.7243   12.7517   28.9768 N   0  0  0  0  0  0  0  0  0  0  0  0
   16.2478    9.9501   31.1386 N   0  0  0  0  0  0  0  0  0  0  0  0
   21.5767    4.4706   30.0805 N   0  0  0  0  0  0  0  0  0  0  0  0
   20.9785    8.6606   31.4296 O   0  0  0  0  0  0  0  0  0  0  0  0
   19.9469    9.2470   30.5982 C   0  0  2  0  0  0  0  0  0  0  0  0
   15.9321    6.1275   31.5467 N   0  0  0  0  0  0  0  0  0  0  0  0
   21.6053   10.7447   29.4979 O   0  0  0  0  0  0  0  0  0  0  0  0
   20.3616   10.7174   30.2097 C   0  0  1  0  0  0  0  0  0  0  0  0
   18.2487    8.0010   31.7000 O   0  0  0  0  0  0  0  0  0  0  0  0
   19.3114   11.3505   29.3303 C   0  0  1  0  0  0  0  0  0  0  0  0
   19.5207    6.5986   30.3895 O   0  0  0  0  0  0  0  0  0  0  0  0
   17.9578   11.3529   30.0772 C   0  0  0  0  0  0  0  0  0  0  0  0
   20.0431    4.1465   33.0420 O   0  0  0  0  0  0  0  0  0  0  0  0
   17.5896    9.8792   30.4178 C   0  0  1  0  0  0  0  0  0  0  0  0
   17.2708    3.9388   32.7125 O   0  0  0  0  0  0  0  0  0  0  0  0
   18.5772    9.2966   31.3848 C   0  0  2  0  0  0  0  0  0  0  0  0
   18.0929    7.0403   30.7078 C   0  0  1  0  0  0  0  0  0  0  0  0
   20.2057    5.9467   31.5476 C   0  0  2  0  0  0  0  0  0  0  0  0
   21.6290    5.4992   31.1547 C   0  0  0  0  0  0  0  0  0  0  0  0
   19.4134    4.7417   31.9588 C   0  0  2  0  0  0  0  0  0  0  0  0
   18.0100    5.1116   32.3422 C   0  0  1  0  0  0  0  0  0  0  0  0
   17.3460    5.7601   31.1764 C   0  0  1  0  0  0  0  0  0  0  0  0
  5  4  1  1  0  0  0
  5  8  1  0  0  0  0
  5 16  1  0  0  0  0
  8  7  1  6  0  0  0
  8 10  1  0  0  0  0
 10  1  1  1  0  0  0
 10 12  1  0  0  0  0
 11 18  1  0  0  0  0
 12 14  1  0  0  0  0
 14  2  1  1  0  0  0
 14 16  1  0  0  0  0
 16  9  1  6  0  0  0
 17  9  1  1  0  0  0
 17 11  1  0  0  0  0
 17 22  1  0  0  0  0
 18 19  1  6  0  0  0
 18 20  1  0  0  0  0
 19  3  1  0  0  0  0
 20 13  1  1  0  0  0
 20 21  1  0  0  0  0
 21 15  1  6  0  0  0
 21 22  1  0  0  0  0
 22  6  1  1  0  0  0
M  END
>  <CHROM.1>
-58.34074363,81.40977167,-63.01188872,19.09905702,7.75431264,30.99258748
-1.50986798,-0.18736345,2.83990985

>  <Name>
2et8_lig

>  <RI>
0

>  <Rbt.Current_Directory>
/home/itssahil/PROJECTS/Mol_Feturizer/New_Systems/rnas/2et8

>  <Rbt.Executable>
rbdock ($Id: //depot/dev/client3/rdock/2013.1/src/exe/rbdock.cxx#4 $)

>  <Rbt.Library>
libRbt.so (2013.1, Build901 2013/11/27)

>  <Rbt.Parameter_File>
/export/apps/rDock/src/rDock_2013.1_src/data/scripts/dock_solv.prm

>  <Rbt.Receptor>
prm/blind_docking_40.prm

>  <SCORE>
4.89486

>  <SCORE.INTER>
-3.31316

>  <SCORE.INTER.CONST>
1

>  <SCORE.INTER.POLAR>
-1.40418

>  <SCORE.INTER.ROT>
3

>  <SCORE.INTER.SOLV>
18.7101

>  <SCORE.INTER.VDW>
-9.36487

>  <SCORE.INTER.norm>
-0.150598

>  <SCORE.INTRA>
0.77728

>  <SCORE.INTRA.DIHEDRAL>
-2.76839

>  <SCORE.INTRA.DIHEDRAL.0>
4.99603

>  <SCORE.INTRA.POLAR>
0

>  <SCORE.INTRA.POLAR.0>
0

>  <SCORE.INTRA.REPUL>
0

>  <SCORE.INTRA.REPUL.0>
0

>  <SCORE.INTRA.SOLV>
2.23451

>  <SCORE.INTRA.SOLV.lig_0>
-74.884

>  <SCORE.INTRA.VDW>
1.04422

>  <SCORE.INTRA.VDW.0>
-0.858933

>  <SCORE.INTRA.norm>
0.0353309

>  <SCORE.RESTR>
7.43074

>  <SCORE.RESTR.CAVITY>
7.43074

>  <SCORE.RESTR.norm>
0.337761

>  <SCORE.SYSTEM>
0

>  <SCORE.SYSTEM.CONST>
0

>  <SCORE.SYSTEM.DIHEDRAL>
0

>  <SCORE.SYSTEM.SOLV>
0

>  <SCORE.SYSTEM.norm>
0

>  <SCORE.heavy>
22

>  <SCORE.norm>
0.222494

>  <RMSD>
10.458

$$$$
2et8_lig
 OpenBabel11021811433D
libRbt.so/2013.1/901 2013/11/27
 22 23  0  0  0  0  0  0  0  0999 V2000
   19.0143   12.5411   28.8549 N   0  0  0  0  0  0  0  0  0  0  0  0
   16.3182    9.0858   31.1785 N   0  0  0  0  0  0  0  0  0  0  0  0
   21.4604    3.7588   29.9505 N   0  0  0  0  0  0  0  0  0  0  0  0
   21.2239    8.8757   31.3061 O   0  0  0  0  0  0  0  0  0  0  0  0
   20.0605    9.2041   30.5073 C   0  0  2  0  0  0  0  0  0  0  0  0
   16.1591    6.1039   31.7434 N   0  0  0  0  0  0  0  0  0  0  0  0
   21.3086   11.0083   29.3280 O   0  0  0  0  0  0  0  0  0  0  0  0
   20.1268   10.7218   30.0864 C   0  0  1  0  0  0  0  0  0  0  0  0
   18.7180    7.6366   31.6868 O   0  0  0  0  0  0  0  0  0  0  0  0
   18.9333   11.0906   29.2400 C   0  0  1  0  0  0  0  0  0  0  0  0
   19.7096    6.0104   30.3928 O   0  0  0  0  0  0  0  0  0  0  0  0
   17.6389   10.8095   30.0372 C   0  0  0  0  0  0  0  0  0  0  0  0
   20.0313    3.6325   33.1429 O   0  0  0  0  0  0  0  0  0  0  0  0
   17.6170    9.2979   30.4085 C   0  0  1  0  0  0  0  0  0  0  0  0
   17.2431    3.8035   32.9578 O   0  0  0  0  0  0  0  0  0  0  0  0
   18.7414    8.9663   31.3444 C   0  0  2  0  0  0  0  0  0  0  0  0
   18.3764    6.6634   30.7553 C   0  0  1  0  0  0  0  0  0  0  0  0
   20.3600    5.3217   31.5496 C   0  0  2  0  0  0  0  0  0  0  0  0
   21.6838    4.6604   31.1133 C   0  0  0  0  0  0  0  0  0  0  0  0
   19.4319    4.2607   32.0612 C   0  0  2  0  0  0  0  0  0  0  0  0
   18.1164    4.8421   32.4912 C   0  0  1  0  0  0  0  0  0  0  0  0
   17.4860    5.5241   31.3259 C   0  0  1  0  0  0  0  0  0  0  0  0
  5  4  1  1  0  0  0
  5  8  1  0  0  0  0
  5 16  1  0  0  0  0
  8  7  1  6  0  0  0
  8 10  1  0  0  0  0
 10  1  1  1  0  0  0
 10 12  1  0  0  0  0
 11 18  1  0  0  0  0
 12 14  1  0  0  0  0
 14  2  1  1  0  0  0
 14 16  1  0  0  0  0
 16  9  1  6  0  0  0
 17  9  1  1  0  0  0
 17 11  1  0  0  0  0
 17 22  1  0  0  0  0
 18 19  1  6  0  0  0
 18 20  1  0  0  0  0
 19  3  1  0  0  0  0
 20 13  1  1  0  0  0
 20 21  1  0  0  0  0
 21 15  1  6  0  0  0
 21 22  1  0  0  0  0
 22  6  1  1  0  0  0
M  END
>  <CHROM.1>
-76.24721504,104.92988892,-54.03460878,19.10907889,7.41797885,30.99446767
1.57065327,0.22708285,-0.32143352

>  <Name>
2et8_lig

>  <RI>
0

>  <Rbt.Current_Directory>
/home/itssahil/PROJECTS/Mol_Feturizer/New_Systems/rnas/2et8

>  <Rbt.Executable>
rbdock ($Id: //depot/dev/client3/rdock/2013.1/src/exe/rbdock.cxx#4 $)

>  <Rbt.Library>
libRbt.so (2013.1, Build901 2013/11/27)

>  <Rbt.Parameter_File>
/export/apps/rDock/src/rDock_2013.1_src/data/scripts/dock_solv.prm

>  <Rbt.Receptor>
prm/blind_docking_40.prm

>  <SCORE>
28.4745

>  <SCORE.INTER>
18.7389

>  <SCORE.INTER.CONST>
1

>  <SCORE.INTER.POLAR>
-1.64234

>  <SCORE.INTER.ROT>
3

>  <SCORE.INTER.SOLV>
20.4915

>  <SCORE.INTER.VDW>
5.53651

>  <SCORE.INTER.norm>
0.851766

>  <SCORE.INTRA>
3.41082

>  <SCORE.INTRA.DIHEDRAL>
2.50887

>  <SCORE.INTRA.DIHEDRAL.0>
4.99603

>  <SCORE.INTRA.POLAR>
0

>  <SCORE.INTRA.POLAR.0>
0

>  <SCORE.INTRA.REPUL>
0

>  <SCORE.INTRA.REPUL.0>
0

>  <SCORE.INTRA.SOLV>
3.52301

>  <SCORE.INTRA.SOLV.lig_0>
-74.884

>  <SCORE.INTRA.VDW>
0.394875

>  <SCORE.INTRA.VDW.0>
-0.858933

>  <SCORE.INTRA.norm>
0.155037

>  <SCORE.RESTR>
6.32482

>  <SCORE.RESTR.CAVITY>
6.32482

>  <SCORE.RESTR.norm>
0.287492

>  <SCORE.SYSTEM>
0

>  <SCORE.SYSTEM.CONST>
0

>  <SCORE.SYSTEM.DIHEDRAL>
0

>  <SCORE.SYSTEM.SOLV>
0

>  <SCORE.SYSTEM.norm>
0

>  <SCORE.heavy>
22

>  <SCORE.norm>
1.2943

>  <RMSD>
10.701

$$$$
2et8_lig
 OpenBabel11021811433D
libRbt.so/2013.1/901 2013/11/27
 22 23  0  0  0  0  0  0  0  0999 V2000
   19.8086   12.2423   29.6978 N   0  0  0  0  0  0  0  0  0  0  0  0
   18.5186    7.9186   27.6365 N   0  0  0  0  0  0  0  0  0  0  0  0
   19.2079    2.7100   33.0717 N   0  0  0  0  0  0  0  0  0  0  0  0
   20.7780    7.9880   31.9973 O   0  0  0  0  0  0  0  0  0  0  0  0
   20.6788    8.6067   30.6909 C   0  0  2  0  0  0  0  0  0  0  0  0
   17.0116    7.0417   29.4341 N   0  0  0  0  0  0  0  0  0  0  0  0
   21.2538   10.8365   31.6402 O   0  0  0  0  0  0  0  0  0  0  0  0
   20.2859   10.1240   30.8595 C   0  0  1  0  0  0  0  0  0  0  0  0
   19.9455    6.5727   29.7030 O   0  0  0  0  0  0  0  0  0  0  0  0
   20.1888   10.7999   29.5139 C   0  0  1  0  0  0  0  0  0  0  0  0
   19.5709    4.4684   30.5596 O   0  0  0  0  0  0  0  0  0  0  0  0
   19.1377   10.0647   28.6509 C   0  0  0  0  0  0  0  0  0  0  0  0
   18.4538    5.6929   33.8113 O   0  0  0  0  0  0  0  0  0  0  0  0
   19.5849    8.5811   28.5019 C   0  0  1  0  0  0  0  0  0  0  0  0
   16.4291    6.7182   32.1722 O   0  0  0  0  0  0  0  0  0  0  0  0
   19.5657    7.8862   29.8310 C   0  0  2  0  0  0  0  0  0  0  0  0
   18.9994    5.5560   29.6509 C   0  0  1  0  0  0  0  0  0  0  0  0
   19.6942    4.8997   31.9858 C   0  0  2  0  0  0  0  0  0  0  0  0
   20.2486    3.7513   32.8542 C   0  0  0  0  0  0  0  0  0  0  0  0
   18.3350    5.2799   32.4925 C   0  0  2  0  0  0  0  0  0  0  0  0
   17.7351    6.3885   31.6773 C   0  0  1  0  0  0  0  0  0  0  0  0
   17.6220    5.9395   30.2610 C   0  0  1  0  0  0  0  0  0  0  0  0
  5  4  1  1  0  0  0
  5  8  1  0  0  0  0
  5 16  1  0  0  0  0
  8  7  1  1  0  0  0
  8 10  1  0  0  0  0
 10  1  1  1  0  0  0
 10 12  1  0  0  0  0
 11 18  1  0  0  0  0
 12 14  1  0  0  0  0
 14  2  1  6  0  0  0
 14 16  1  0  0  0  0
 16  9  1  6  0  0  0
 17  9  1  1  0  0  0
 17 11  1  0  0  0  0
 17 22  1  0  0  0  0
 18 19  1  1  0  0  0
 18 20  1  0  0  0  0
 19  3  1  0  0  0  0
 20 13  1  1  0  0  0
 20 21  1  0  0  0  0
 21 15  1  1  0  0  0
 21 22  1  0  0  0  0
 22  6  1  6  0  0  0
M  END
>  <CHROM.1>
146.41647223,-136.51235160,-73.83378365,19.23529869,7.26270965,30.79979607
-1.26704114,0.95435616,2.47638127

>  <Name>
2et8_lig

>  <RI>
0

>  <Rbt.Current_Directory>
/home/itssahil/PROJECTS/Mol_Feturizer/New_Systems/rnas/2et8

>  <Rbt.Executable>
rbdock ($Id: //depot/dev/client3/rdock/2013.1/src/exe/rbdock.cxx#4 $)

>  <Rbt.Library>
libRbt.so (2013.1, Build901 2013/11/27)

>  <Rbt.Parameter_File>
/export/apps/rDock/src/rDock_2013.1_src/data/scripts/dock_solv.prm

>  <Rbt.Receptor>
prm/blind_docking_40.prm

>  <SCORE>
7.05515

>  <SCORE.INTER>
-8.20686

>  <SCORE.INTER.CONST>
1

>  <SCORE.INTER.POLAR>
-1.31432

>  <SCORE.INTER.ROT>
3

>  <SCORE.INTER.SOLV>
12.5026

>  <SCORE.INTER.VDW>
-10.8577

>  <SCORE.INTER.norm>
-0.373039

>  <SCORE.INTRA>
7.36964

>  <SCORE.INTRA.DIHEDRAL>
5.79742

>  <SCORE.INTRA.DIHEDRAL.0>
4.99603

>  <SCORE.INTRA.POLAR>
0

>  <SCORE.INTRA.POLAR.0>
0

>  <SCORE.INTRA.REPUL>
0

>  <SCORE.INTRA.REPUL.0>
0

>  <SCORE.INTRA.SOLV>
6.82355

>  <SCORE.INTRA.SOLV.lig_0>
-74.884

>  <SCORE.INTRA.VDW>
1.05916

>  <SCORE.INTRA.VDW.0>
-0.858933

>  <SCORE.INTRA.norm>
0.334984

>  <SCORE.RESTR>
7.89236

>  <SCORE.RESTR.CAVITY>
7.89236

>  <SCORE.RESTR.norm>
0.358744

>  <SCORE.SYSTEM>
0

>  <SCORE.SYSTEM.CONST>
0

>  <SCORE.SYSTEM.DIHEDRAL>
0

>  <SCORE.SYSTEM.SOLV>
0

>  <SCORE.SYSTEM.norm>
0

>  <SCORE.heavy>
22

>  <SCORE.norm>
0.320688

>  <RMSD>
10.759

$$$$
2et8_lig
 OpenBabel11021811433D
libRbt.so/2013.1/901 2013/11/27
 22 23  0  0  0  0  0  0  0  0999 V2000
   19.7470   12.1352   29.6385 N   0  0  0  0  0  0  0  0  0  0  0  0
   18.5144    7.7656   27.6398 N   0  0  0  0  0  0  0  0  0  0  0  0
   19.2635    2.6884   33.1813 N   0  0  0  0  0  0  0  0  0  0  0  0
   20.7767    7.9275   31.9966 O   0  0  0  0  0  0  0  0  0  0  0  0
   20.6678    8.5263   30.6817 C   0  0  2  0  0  0  0  0  0  0  0  0
   17.0235    6.8880   29.4196 N   0  0  0  0  0  0  0  0  0  0  0  0
   21.2131   10.7769   31.5988 O   0  0  0  0  0  0  0  0  0  0  0  0
   20.2543   10.0403   30.8293 C   0  0  1  0  0  0  0  0  0  0  0  0
   19.9615    6.4687   29.7234 O   0  0  0  0  0  0  0  0  0  0  0  0
   20.1468   10.6957   29.4744 C   0  0  1  0  0  0  0  0  0  0  0  0
   19.6096    4.3876   30.6440 O   0  0  0  0  0  0  0  0  0  0  0  0
   19.1050    9.9341   28.6231 C   0  0  0  0  0  0  0  0  0  0  0  0
   18.4522    5.6991   33.8474 O   0  0  0  0  0  0  0  0  0  0  0  0
   19.5724    8.4548   28.4945 C   0  0  1  0  0  0  0  0  0  0  0  0
   16.4256    6.6435   32.1627 O   0  0  0  0  0  0  0  0  0  0  0  0
   19.5640    7.7786   29.8333 C   0  0  2  0  0  0  0  0  0  0  0  0
   19.0299    5.4377   29.6973 C   0  0  1  0  0  0  0  0  0  0  0  0
   19.7167    4.8657   32.0566 C   0  0  2  0  0  0  0  0  0  0  0  0
   20.2804    3.7533   32.9649 C   0  0  0  0  0  0  0  0  0  0  0  0
   18.3487    5.2428   32.5416 C   0  0  2  0  0  0  0  0  0  0  0  0
   17.7395    6.3165   31.6874 C   0  0  1  0  0  0  0  0  0  0  0  0
   17.6430    5.8212   30.2854 C   0  0  1  0  0  0  0  0  0  0  0  0
  5  4  1  1  0  0  0
  5  8  1  0  0  0  0
  5 16  1  0  0  0  0
  8  7  1  1  0  0  0
  8 10  1  0  0  0  0
 10  1  1  1  0  0  0
 10 12  1  0  0  0  0
 11 18  1  0  0  0  0
 12 14  1  0  0  0  0
 14  2  1  6  0  0  0
 14 16  1  0  0  0  0
 16  9  1  6  0  0  0
 17  9  1  1  0  0  0
 17 11  1  0  0  0  0
 17 22  1  0  0  0  0
 18 19  1  1  0  0  0
 18 20  1  0  0  0  0
 19  3  1  0  0  0  0
 20 13  1  1  0  0  0
 20 21  1  0  0  0  0
 21 15  1  1  0  0  0
 21 22  1  0  0  0  0
 22  6  1  6  0  0  0
M  END
>  <CHROM.1>
145.90850941,-135.22401518,-72.45322404,19.23544322,7.18098396,30.81481713
-1.28212616,0.96075735,2.46946564

>  <Name>
2et8_lig

>  <RI>
0

>  <Rbt.Current_Directory>
/home/itssahil/PROJECTS/Mol_Feturizer/New_Systems/rnas/2et8

>  <Rbt.Executable>
rbdock ($Id: //depot/dev/client3/rdock/2013.1/src/exe/rbdock.cxx#4 $)

>  <Rbt.Library>
libRbt.so (2013.1, Build901 2013/11/27)

>  <Rbt.Parameter_File>
/export/apps/rDock/src/rDock_2013.1_src/data/scripts/dock_solv.prm

>  <Rbt.Receptor>
prm/blind_docking_40.prm

>  <SCORE>
6.66463

>  <SCORE.INTER>
-8.89302

>  <SCORE.INTER.CONST>
1

>  <SCORE.INTER.POLAR>
-1.3643

>  <SCORE.INTER.ROT>
3

>  <SCORE.INTER.SOLV>
12.5079

>  <SCORE.INTER.VDW>
-11.1503

>  <SCORE.INTER.norm>
-0.404228

>  <SCORE.INTRA>
7.57644

>  <SCORE.INTRA.DIHEDRAL>
5.94254

>  <SCORE.INTRA.DIHEDRAL.0>
4.99603

>  <SCORE.INTRA.POLAR>
0

>  <SCORE.INTRA.POLAR.0>
0

>  <SCORE.INTRA.REPUL>
0

>  <SCORE.INTRA.REPUL.0>
0

>  <SCORE.INTRA.SOLV>
6.87396

>  <SCORE.INTRA.SOLV.lig_0>
-74.884

>  <SCORE.INTRA.VDW>
1.16818

>  <SCORE.INTRA.VDW.0>
-0.858933

>  <SCORE.INTRA.norm>
0.344383

>  <SCORE.RESTR>
7.98122

>  <SCORE.RESTR.CAVITY>
7.98122

>  <SCORE.RESTR.norm>
0.362783

>  <SCORE.SYSTEM>
0

>  <SCORE.SYSTEM.CONST>
0

>  <SCORE.SYSTEM.DIHEDRAL>
0

>  <SCORE.SYSTEM.SOLV>
0

>  <SCORE.SYSTEM.norm>
0

>  <SCORE.heavy>
22

>  <SCORE.norm>
0.302938

>  <RMSD>
10.809

$$$$
2et8_lig
 OpenBabel11021811433D
libRbt.so/2013.1/901 2013/11/27
 22 23  0  0  0  0  0  0  0  0999 V2000
   17.9748    2.8704   33.2316 N   0  0  0  0  0  0  0  0  0  0  0  0
   16.9723    6.9993   30.6714 N   0  0  0  0  0  0  0  0  0  0  0  0
   16.6127   10.8209   32.1404 N   0  0  0  0  0  0  0  0  0  0  0  0
   21.6012    5.3991   31.0450 O   0  0  0  0  0  0  0  0  0  0  0  0
   20.3265    5.5428   31.7188 C   0  0  2  0  0  0  0  0  0  0  0  0
   20.7805    8.9938   28.0711 N   0  0  0  0  0  0  0  0  0  0  0  0
   20.7056    3.4441   33.0056 O   0  0  0  0  0  0  0  0  0  0  0  0
   19.7908    4.1193   32.1331 C   0  0  1  0  0  0  0  0  0  0  0  0
   19.7734    7.4557   30.4205 O   0  0  0  0  0  0  0  0  0  0  0  0
   18.4689    4.2378   32.8510 C   0  0  1  0  0  0  0  0  0  0  0  0
   18.0932    8.9938   30.7576 O   0  0  0  0  0  0  0  0  0  0  0  0
   17.4517    4.9478   31.9283 C   0  0  0  0  0  0  0  0  0  0  0  0
   20.3253   11.5422   32.1156 O   0  0  0  0  0  0  0  0  0  0  0  0
   18.0215    6.3510   31.5679 C   0  0  1  0  0  0  0  0  0  0  0  0
   21.3069   11.3652   29.4998 O   0  0  0  0  0  0  0  0  0  0  0  0
   19.2745    6.2204   30.7538 C   0  0  2  0  0  0  0  0  0  0  0  0
   19.0071    8.3679   29.7048 C   0  0  1  0  0  0  0  0  0  0  0  0
   18.8399    9.7538   31.8064 C   0  0  2  0  0  0  0  0  0  0  0  0
   17.8621   10.3833   32.8203 C   0  0  0  0  0  0  0  0  0  0  0  0
   19.6225   10.8472   31.1425 C   0  0  2  0  0  0  0  0  0  0  0  0
   20.5864   10.2971   30.1317 C   0  0  1  0  0  0  0  0  0  0  0  0
   19.8234    9.5432   29.0974 C   0  0  1  0  0  0  0  0  0  0  0  0
  5  4  1  6  0  0  0
  5  8  1  0  0  0  0
  5 16  1  0  0  0  0
  8  7  1  1  0  0  0
  8 10  1  0  0  0  0
 10  1  1  6  0  0  0
 10 12  1  0  0  0  0
 11 18  1  0  0  0  0
 12 14  1  0  0  0  0
 14  2  1  6  0  0  0
 14 16  1  0  0  0  0
 16  9  1  1  0  0  0
 17  9  1  1  0  0  0
 17 11  1  0  0  0  0
 17 22  1  0  0  0  0
 18 19  1  1  0  0  0
 18 20  1  0  0  0  0
 19  3  1  0  0  0  0
 20 13  1  1  0  0  0
 20 21  1  0  0  0  0
 21 15  1  6  0  0  0
 21 22  1  0  0  0  0
 22  6  1  6  0  0  0
M  END
>  <CHROM.1>
-172.38838605,80.18994643,-35.41147475,19.27370221,7.67751442,31.21102808
1.65287331,-0.55033951,2.92190328

>  <Name>
2et8_lig

>  <RI>
0

>  <Rbt.Current_Directory>
/home/itssahil/PROJECTS/Mol_Feturizer/New_Systems/rnas/2et8

>  <Rbt.Executable>
rbdock ($Id: //depot/dev/client3/rdock/2013.1/src/exe/rbdock.cxx#4 $)

>  <Rbt.Library>
libRbt.so (2013.1, Build901 2013/11/27)

>  <Rbt.Parameter_File>
/export/apps/rDock/src/rDock_2013.1_src/data/scripts/dock_solv.prm

>  <Rbt.Receptor>
prm/blind_docking_40.prm

>  <SCORE>
9.52376

>  <SCORE.INTER>
0.469147

>  <SCORE.INTER.CONST>
1

>  <SCORE.INTER.POLAR>
-0.404785

>  <SCORE.INTER.ROT>
3

>  <SCORE.INTER.SOLV>
18.8503

>  <SCORE.INTER.VDW>
-10.2214

>  <SCORE.INTER.norm>
0.0213249

>  <SCORE.INTRA>
4.36707

>  <SCORE.INTRA.DIHEDRAL>
-0.834233

>  <SCORE.INTRA.DIHEDRAL.0>
4.99603

>  <SCORE.INTRA.POLAR>
0

>  <SCORE.INTRA.POLAR.0>
0

>  <SCORE.INTRA.REPUL>
0

>  <SCORE.INTRA.REPUL.0>
0

>  <SCORE.INTRA.SOLV>
3.21071

>  <SCORE.INTRA.SOLV.lig_0>
-74.884

>  <SCORE.INTRA.VDW>
3.17884

>  <SCORE.INTRA.VDW.0>
-0.858933

>  <SCORE.INTRA.norm>
0.198503

>  <SCORE.RESTR>
4.68754

>  <SCORE.RESTR.CAVITY>
4.68754

>  <SCORE.RESTR.norm>
0.21307

>  <SCORE.SYSTEM>
0

>  <SCORE.SYSTEM.CONST>
0

>  <SCORE.SYSTEM.DIHEDRAL>
0

>  <SCORE.SYSTEM.SOLV>
0

>  <SCORE.SYSTEM.norm>
0

>  <SCORE.heavy>
22

>  <SCORE.norm>
0.432898

>  <RMSD>
11.517

$$$$
2et8_lig
 OpenBabel11021811433D
libRbt.so/2013.1/901 2013/11/27
 22 23  0  0  0  0  0  0  0  0999 V2000
   17.9732    2.8718   33.2383 N   0  0  0  0  0  0  0  0  0  0  0  0
   16.9774    6.9970   30.6695 N   0  0  0  0  0  0  0  0  0  0  0  0
   16.6409   10.8494   32.1338 N   0  0  0  0  0  0  0  0  0  0  0  0
   21.6018    5.3819   31.0340 O   0  0  0  0  0  0  0  0  0  0  0  0
   20.3297    5.5318   31.7112 C   0  0  2  0  0  0  0  0  0  0  0  0
   20.7853    8.9896   28.0647 N   0  0  0  0  0  0  0  0  0  0  0  0
   20.7053    3.4355   33.0027 O   0  0  0  0  0  0  0  0  0  0  0  0
   19.7903    4.1113   32.1310 C   0  0  1  0  0  0  0  0  0  0  0  0
   19.7794    7.4430   30.4092 O   0  0  0  0  0  0  0  0  0  0  0  0
   18.4709    4.2365   32.8524 C   0  0  1  0  0  0  0  0  0  0  0  0
   18.0989    8.9795   30.7522 O   0  0  0  0  0  0  0  0  0  0  0  0
   17.4535    4.9474   31.9308 C   0  0  0  0  0  0  0  0  0  0  0  0
   20.3308   11.5238   32.1183 O   0  0  0  0  0  0  0  0  0  0  0  0
   18.0270    6.3475   31.5648 C   0  0  1  0  0  0  0  0  0  0  0  0
   21.3115   11.3560   29.5016 O   0  0  0  0  0  0  0  0  0  0  0  0
   19.2772    6.2104   30.7473 C   0  0  2  0  0  0  0  0  0  0  0  0
   19.0126    8.3575   29.6969 C   0  0  1  0  0  0  0  0  0  0  0  0
   18.8458    9.7360   31.8034 C   0  0  2  0  0  0  0  0  0  0  0  0
   17.8682   10.3617   32.8198 C   0  0  0  0  0  0  0  0  0  0  0  0
   19.6278   10.8320   31.1429 C   0  0  2  0  0  0  0  0  0  0  0  0
   20.5916   10.2856   30.1300 C   0  0  1  0  0  0  0  0  0  0  0  0
   19.8283    9.5351   29.0933 C   0  0  1  0  0  0  0  0  0  0  0  0
  5  4  1  6  0  0  0
  5  8  1  0  0  0  0
  5 16  1  0  0  0  0
  8  7  1  1  0  0  0
  8 10  1  0  0  0  0
 10  1  1  6  0  0  0
 10 12  1  0  0  0  0
 11 18  1  0  0  0  0
 12 14  1  0  0  0  0
 14  2  1  6  0  0  0
 14 16  1  0  0  0  0
 16  9  1  1  0  0  0
 17  9  1  1  0  0  0
 17 11  1  0  0  0  0
 17 22  1  0  0  0  0
 18 19  1  1  0  0  0
 18 20  1  0  0  0  0
 19  3  1  0  0  0  0
 20 13  1  1  0  0  0
 20 21  1  0  0  0  0
 21 15  1  6  0  0  0
 21 22  1  0  0  0  0
 22  6  1  6  0  0  0
M  END
>  <CHROM.1>
-172.17825471,79.67618896,-37.61735362,19.27849928,7.66936720,31.20795970
1.65350617,-0.55465014,2.92218535

>  <Name>
2et8_lig

>  <RI>
0

>  <Rbt.Current_Directory>
/home/itssahil/PROJECTS/Mol_Feturizer/New_Systems/rnas/2et8

>  <Rbt.Executable>
rbdock ($Id: //depot/dev/client3/rdock/2013.1/src/exe/rbdock.cxx#4 $)

>  <Rbt.Library>
libRbt.so (2013.1, Build901 2013/11/27)

>  <Rbt.Parameter_File>
/export/apps/rDock/src/rDock_2013.1_src/data/scripts/dock_solv.prm

>  <Rbt.Receptor>
prm/blind_docking_40.prm

>  <SCORE>
9.70196

>  <SCORE.INTER>
0.649712

>  <SCORE.INTER.CONST>
1

>  <SCORE.INTER.POLAR>
-0.424905

>  <SCORE.INTER.ROT>
3

>  <SCORE.INTER.SOLV>
18.8117

>  <SCORE.INTER.VDW>
-10.0211

>  <SCORE.INTER.norm>
0.0295324

>  <SCORE.INTRA>
4.40316

>  <SCORE.INTRA.DIHEDRAL>
-1.18811

>  <SCORE.INTRA.DIHEDRAL.0>
4.99603

>  <SCORE.INTRA.POLAR>
0

>  <SCORE.INTRA.POLAR.0>
0

>  <SCORE.INTRA.REPUL>
0

>  <SCORE.INTRA.REPUL.0>
0

>  <SCORE.INTRA.SOLV>
3.24263

>  <SCORE.INTRA.SOLV.lig_0>
-74.884

>  <SCORE.INTRA.VDW>
3.3759

>  <SCORE.INTRA.VDW.0>
-0.858933

>  <SCORE.INTRA.norm>
0.200144

>  <SCORE.RESTR>
4.64908

>  <SCORE.RESTR.CAVITY>
4.64908

>  <SCORE.RESTR.norm>
0.211322

>  <SCORE.SYSTEM>
0

>  <SCORE.SYSTEM.CONST>
0

>  <SCORE.SYSTEM.DIHEDRAL>
0

>  <SCORE.SYSTEM.SOLV>
0

>  <SCORE.SYSTEM.norm>
0

>  <SCORE.heavy>
22

>  <SCORE.norm>
0.440998

>  <RMSD>
11.522

$$$$
2et8_lig
 OpenBabel11021811433D
libRbt.so/2013.1/901 2013/11/27
 22 23  0  0  0  0  0  0  0  0999 V2000
   17.9503    2.8635   33.1841 N   0  0  0  0  0  0  0  0  0  0  0  0
   16.9748    6.9973   30.6212 N   0  0  0  0  0  0  0  0  0  0  0  0
   16.6178   10.8192   32.1358 N   0  0  0  0  0  0  0  0  0  0  0  0
   21.6005    5.4012   31.0481 O   0  0  0  0  0  0  0  0  0  0  0  0
   20.3175    5.5419   31.7065 C   0  0  2  0  0  0  0  0  0  0  0  0
   20.7949    9.0087   28.0693 N   0  0  0  0  0  0  0  0  0  0  0  0
   20.6830    3.4407   32.9930 O   0  0  0  0  0  0  0  0  0  0  0  0
   19.7783    4.1169   32.1109 C   0  0  1  0  0  0  0  0  0  0  0  0
   19.7783    7.4572   30.4059 O   0  0  0  0  0  0  0  0  0  0  0  0
   18.4475    4.2324   32.8127 C   0  0  1  0  0  0  0  0  0  0  0  0
   18.0989    8.9952   30.7471 O   0  0  0  0  0  0  0  0  0  0  0  0
   17.4410    4.9434   31.8793 C   0  0  0  0  0  0  0  0  0  0  0  0
   20.3296   11.5324   32.1282 O   0  0  0  0  0  0  0  0  0  0  0  0
   18.0136    6.3480   31.5291 C   0  0  1  0  0  0  0  0  0  0  0  0
   21.3195   11.3704   29.5145 O   0  0  0  0  0  0  0  0  0  0  0  0
   19.2767    6.2207   30.7301 C   0  0  2  0  0  0  0  0  0  0  0  0
   19.0155    8.3748   29.6934 C   0  0  1  0  0  0  0  0  0  0  0  0
   18.8431    9.7478   31.8031 C   0  0  2  0  0  0  0  0  0  0  0  0
   17.8628   10.3721   32.8176 C   0  0  0  0  0  0  0  0  0  0  0  0
   19.6291   10.8444   31.1484 C   0  0  2  0  0  0  0  0  0  0  0  0
   20.5957   10.2994   30.1374 C   0  0  1  0  0  0  0  0  0  0  0  0
   19.8351    9.5528   29.0959 C   0  0  1  0  0  0  0  0  0  0  0  0
  5  4  1  6  0  0  0
  5  8  1  0  0  0  0
  5 16  1  0  0  0  0
  8  7  1  1  0  0  0
  8 10  1  0  0  0  0
 10  1  1  6  0  0  0
 10 12  1  0  0  0  0
 11 18  1  0  0  0  0
 12 14  1  0  0  0  0
 14  2  1  6  0  0  0
 14 16  1  0  0  0  0
 16  9  1  1  0  0  0
 17  9  1  1  0  0  0
 17 11  1  0  0  0  0
 17 22  1  0  0  0  0
 18 19  1  1  0  0  0
 18 20  1  0  0  0  0
 19  3  1  0  0  0  0
 20 13  1  1  0  0  0
 20 21  1  0  0  0  0
 21 15  1  6  0  0  0
 21 22  1  0  0  0  0
 22  6  1  6  0  0  0
M  END
>  <CHROM.1>
-171.79741573,80.17039115,-35.58120131,19.27295365,7.67679758,31.19774760
1.65761427,-0.54507239,2.92874550

>  <Name>
2et8_lig

>  <RI>
0

>  <Rbt.Current_Directory>
/home/itssahil/PROJECTS/Mol_Feturizer/New_Systems/rnas/2et8

>  <Rbt.Executable>
rbdock ($Id: //depot/dev/client3/rdock/2013.1/src/exe/rbdock.cxx#4 $)

>  <Rbt.Library>
libRbt.so (2013.1, Build901 2013/11/27)

>  <Rbt.Parameter_File>
/export/apps/rDock/src/rDock_2013.1_src/data/scripts/dock_solv.prm

>  <Rbt.Receptor>
prm/blind_docking_40.prm

>  <SCORE>
9.22512

>  <SCORE.INTER>
0.125581

>  <SCORE.INTER.CONST>
1

>  <SCORE.INTER.POLAR>
-0.445586

>  <SCORE.INTER.ROT>
3

>  <SCORE.INTER.SOLV>
18.7149

>  <SCORE.INTER.VDW>
-10.2693

>  <SCORE.INTER.norm>
0.00570823

>  <SCORE.INTRA>
4.32544

>  <SCORE.INTRA.DIHEDRAL>
-0.816422

>  <SCORE.INTRA.DIHEDRAL.0>
4.99603

>  <SCORE.INTRA.POLAR>
0

>  <SCORE.INTRA.POLAR.0>
0

>  <SCORE.INTRA.REPUL>
0

>  <SCORE.INTRA.REPUL.0>
0

>  <SCORE.INTRA.SOLV>
3.18141

>  <SCORE.INTRA.SOLV.lig_0>
-74.884

>  <SCORE.INTRA.VDW>
3.14294

>  <SCORE.INTRA.VDW.0>
-0.858933

>  <SCORE.INTRA.norm>
0.196611

>  <SCORE.RESTR>
4.77411

>  <SCORE.RESTR.CAVITY>
4.77411

>  <SCORE.RESTR.norm>
0.217005

>  <SCORE.SYSTEM>
0

>  <SCORE.SYSTEM.CONST>
0

>  <SCORE.SYSTEM.DIHEDRAL>
0

>  <SCORE.SYSTEM.SOLV>
0

>  <SCORE.SYSTEM.norm>
0

>  <SCORE.heavy>
22

>  <SCORE.norm>
0.419324

>  <RMSD>
11.525

$$$$
2et8_lig
 OpenBabel11021811433D
libRbt.so/2013.1/901 2013/11/27
 22 23  0  0  0  0  0  0  0  0999 V2000
   20.0211    2.7494   30.3141 N   0  0  0  0  0  0  0  0  0  0  0  0
   16.4813    5.8499   31.8841 N   0  0  0  0  0  0  0  0  0  0  0  0
   20.4848   12.5400   30.9213 N   0  0  0  0  0  0  0  0  0  0  0  0
   20.9493    7.5703   30.7874 O   0  0  0  0  0  0  0  0  0  0  0  0
   20.1968    6.4703   31.3558 C   0  0  2  0  0  0  0  0  0  0  0  0
   16.9443    7.8451   29.4293 N   0  0  0  0  0  0  0  0  0  0  0  0
   21.8849    4.8249   30.5515 O   0  0  0  0  0  0  0  0  0  0  0  0
   20.4907    5.1567   30.5354 C   0  0  1  0  0  0  0  0  0  0  0  0
   18.4328    7.9217   32.0136 O   0  0  0  0  0  0  0  0  0  0  0  0
   19.7305    3.9885   31.1137 C   0  0  1  0  0  0  0  0  0  0  0  0
   18.7128   10.1999   31.8306 O   0  0  0  0  0  0  0  0  0  0  0  0
   18.2179    4.3074   31.0948 C   0  0  0  0  0  0  0  0  0  0  0  0
   21.2539    9.9533   29.2222 O   0  0  0  0  0  0  0  0  0  0  0  0
   17.9843    5.5982   31.9330 C   0  0  1  0  0  0  0  0  0  0  0  0
   19.0480    8.8853   27.8692 O   0  0  0  0  0  0  0  0  0  0  0  0
   18.6482    6.7772   31.2857 C   0  0  2  0  0  0  0  0  0  0  0  0
   17.8134    9.0271   31.4427 C   0  0  1  0  0  0  0  0  0  0  0  0
   20.0879   10.1020   31.2517 C   0  0  2  0  0  0  0  0  0  0  0  0
   20.9353   11.3264   31.6554 C   0  0  0  0  0  0  0  0  0  0  0  0
   19.9782   10.0582   29.7567 C   0  0  2  0  0  0  0  0  0  0  0  0
   19.1514    8.8913   29.3004 C   0  0  1  0  0  0  0  0  0  0  0  0
   17.7871    9.0070   29.8885 C   0  0  1  0  0  0  0  0  0  0  0  0
  5  4  1  6  0  0  0
  5  8  1  0  0  0  0
  5 16  1  0  0  0  0
  8  7  1  1  0  0  0
  8 10  1  0  0  0  0
 10  1  1  6  0  0  0
 10 12  1  0  0  0  0
 11 18  1  0  0  0  0
 12 14  1  0  0  0  0
 14  2  1  6  0  0  0
 14 16  1  0  0  0  0
 16  9  1  1  0  0  0
 17  9  1  6  0  0  0
 17 11  1  0  0  0  0
 17 22  1  0  0  0  0
 18 19  1  6  0  0  0
 18 20  1  0  0  0  0
 19  3  1  0  0  0  0
 20 13  1  6  0  0  0
 20 21  1  0  0  0  0
 21 15  1  6  0  0  0
 21 22  1  0  0  0  0
 22  6  1  1  0  0  0
M  END
>  <CHROM.1>
124.05257703,-132.00203109,-72.42088623,19.36109374,7.71061170,30.68664905
-1.65850845,0.22585870,-0.05328041

>  <Name>
2et8_lig

>  <RI>
0

>  <Rbt.Current_Directory>
/home/itssahil/PROJECTS/Mol_Feturizer/New_Systems/rnas/2et8

>  <Rbt.Executable>
rbdock ($Id: //depot/dev/client3/rdock/2013.1/src/exe/rbdock.cxx#4 $)

>  <Rbt.Library>
libRbt.so (2013.1, Build901 2013/11/27)

>  <Rbt.Parameter_File>
/export/apps/rDock/src/rDock_2013.1_src/data/scripts/dock_solv.prm

>  <Rbt.Receptor>
prm/blind_docking_40.prm

>  <SCORE>
13.1387

>  <SCORE.INTER>
-2.61499

>  <SCORE.INTER.CONST>
1

>  <SCORE.INTER.POLAR>
-0.600214

>  <SCORE.INTER.ROT>
3

>  <SCORE.INTER.SOLV>
15.9843

>  <SCORE.INTER.VDW>
-10.6707

>  <SCORE.INTER.norm>
-0.118863

>  <SCORE.INTRA>
9.25821

>  <SCORE.INTRA.DIHEDRAL>
8.99706

>  <SCORE.INTRA.DIHEDRAL.0>
4.99603

>  <SCORE.INTRA.POLAR>
0

>  <SCORE.INTRA.POLAR.0>
0

>  <SCORE.INTRA.REPUL>
0

>  <SCORE.INTRA.REPUL.0>
0

>  <SCORE.INTRA.SOLV>
6.02462

>  <SCORE.INTRA.SOLV.lig_0>
-74.884

>  <SCORE.INTRA.VDW>
1.74737

>  <SCORE.INTRA.VDW.0>
-0.858933

>  <SCORE.INTRA.norm>
0.420828

>  <SCORE.RESTR>
6.49552

>  <SCORE.RESTR.CAVITY>
6.49552

>  <SCORE.RESTR.norm>
0.295251

>  <SCORE.SYSTEM>
0

>  <SCORE.SYSTEM.CONST>
0

>  <SCORE.SYSTEM.DIHEDRAL>
0

>  <SCORE.SYSTEM.SOLV>
0

>  <SCORE.SYSTEM.norm>
0

>  <SCORE.heavy>
22

>  <SCORE.norm>
0.597215

>  <RMSD>
11.534

$$$$
2et8_lig
 OpenBabel11021811433D
libRbt.so/2013.1/901 2013/11/27
 22 23  0  0  0  0  0  0  0  0999 V2000
   17.8490    3.0321   33.3150 N   0  0  0  0  0  0  0  0  0  0  0  0
   17.0428    7.0387   30.5033 N   0  0  0  0  0  0  0  0  0  0  0  0
   17.2819    9.3074   33.4134 N   0  0  0  0  0  0  0  0  0  0  0  0
   21.5985    5.2799   31.0312 O   0  0  0  0  0  0  0  0  0  0  0  0
   20.3236    5.5141   31.6786 C   0  0  2  0  0  0  0  0  0  0  0  0
   20.8731    8.8842   27.9011 N   0  0  0  0  0  0  0  0  0  0  0  0
   20.6032    3.4820   33.0915 O   0  0  0  0  0  0  0  0  0  0  0  0
   19.7260    4.1402   32.1688 C   0  0  1  0  0  0  0  0  0  0  0  0
   19.8627    7.3672   30.2629 O   0  0  0  0  0  0  0  0  0  0  0  0
   18.4024    4.3538   32.8611 C   0  0  1  0  0  0  0  0  0  0  0  0
   18.2377    8.9551   30.6377 O   0  0  0  0  0  0  0  0  0  0  0  0
   17.4249    5.0479   31.8850 C   0  0  0  0  0  0  0  0  0  0  0  0
   20.5730   11.4267   31.9638 O   0  0  0  0  0  0  0  0  0  0  0  0
   18.0550    6.4033   31.4501 C   0  0  1  0  0  0  0  0  0  0  0  0
   21.4996   11.2314   29.3293 O   0  0  0  0  0  0  0  0  0  0  0  0
   19.3104    6.1747   30.6616 C   0  0  2  0  0  0  0  0  0  0  0  0
   19.1119    8.3060   29.5654 C   0  0  1  0  0  0  0  0  0  0  0  0
   19.0272    9.6867   31.6754 C   0  0  2  0  0  0  0  0  0  0  0  0
   18.0885   10.3415   32.7100 C   0  0  0  0  0  0  0  0  0  0  0  0
   19.8308   10.7584   31.0012 C   0  0  2  0  0  0  0  0  0  0  0  0
   20.7582   10.1833   29.9703 C   0  0  1  0  0  0  0  0  0  0  0  0
   19.9528    9.4582   28.9475 C   0  0  1  0  0  0  0  0  0  0  0  0
  5  4  1  6  0  0  0
  5  8  1  0  0  0  0
  5 16  1  0  0  0  0
  8  7  1  1  0  0  0
  8 10  1  0  0  0  0
 10  1  1  6  0  0  0
 10 12  1  0  0  0  0
 11 18  1  0  0  0  0
 12 14  1  0  0  0  0
 14  2  1  6  0  0  0
 14 16  1  0  0  0  0
 16  9  1  1  0  0  0
 17  9  1  1  0  0  0
 17 11  1  0  0  0  0
 17 22  1  0  0  0  0
 18 19  1  1  0  0  0
 18 20  1  0  0  0  0
 19  3  1  0  0  0  0
 20 13  1  1  0  0  0
 20 21  1  0  0  0  0
 21 15  1  6  0  0  0
 21 22  1  0  0  0  0
 22  6  1  6  0  0  0
M  END
>  <CHROM.1>
-167.80730730,76.74508638,61.21047637,19.37486244,7.57966683,31.18393363
1.78436098,-0.70641956,2.95530022

>  <Name>
2et8_lig

>  <RI>
0

>  <Rbt.Current_Directory>
/home/itssahil/PROJECTS/Mol_Feturizer/New_Systems/rnas/2et8

>  <Rbt.Executable>
rbdock ($Id: //depot/dev/client3/rdock/2013.1/src/exe/rbdock.cxx#4 $)

>  <Rbt.Library>
libRbt.so (2013.1, Build901 2013/11/27)

>  <Rbt.Parameter_File>
/export/apps/rDock/src/rDock_2013.1_src/data/scripts/dock_solv.prm

>  <Rbt.Receptor>
prm/blind_docking_40.prm

>  <SCORE>
17.1294

>  <SCORE.INTER>
9.43613

>  <SCORE.INTER.CONST>
1

>  <SCORE.INTER.POLAR>
-0.46722

>  <SCORE.INTER.ROT>
3

>  <SCORE.INTER.SOLV>
25.3072

>  <SCORE.INTER.VDW>
-6.18758

>  <SCORE.INTER.norm>
0.428915

>  <SCORE.INTRA>
4.43349

>  <SCORE.INTRA.DIHEDRAL>
-2.84101

>  <SCORE.INTRA.DIHEDRAL.0>
4.99603

>  <SCORE.INTRA.POLAR>
0

>  <SCORE.INTRA.POLAR.0>
0

>  <SCORE.INTRA.REPUL>
0

>  <SCORE.INTRA.REPUL.0>
0

>  <SCORE.INTRA.SOLV>
3.45268

>  <SCORE.INTRA.SOLV.lig_0>
-74.884

>  <SCORE.INTRA.VDW>
4.12765

>  <SCORE.INTRA.VDW.0>
-0.858933

>  <SCORE.INTRA.norm>
0.201522

>  <SCORE.RESTR>
3.25981

>  <SCORE.RESTR.CAVITY>
3.25981

>  <SCORE.RESTR.norm>
0.148173

>  <SCORE.SYSTEM>
0

>  <SCORE.SYSTEM.CONST>
0

>  <SCORE.SYSTEM.DIHEDRAL>
0

>  <SCORE.SYSTEM.SOLV>
0

>  <SCORE.SYSTEM.norm>
0

>  <SCORE.heavy>
22

>  <SCORE.norm>
0.77861

>  <RMSD>
11.537

$$$$
2et8_lig
 OpenBabel11021811433D
libRbt.so/2013.1/901 2013/11/27
 22 23  0  0  0  0  0  0  0  0999 V2000
   17.8133    2.3999   32.3333 N   0  0  0  0  0  0  0  0  0  0  0  0
   16.5976    6.9914   30.9021 N   0  0  0  0  0  0  0  0  0  0  0  0
   17.8280   12.2763   32.4578 N   0  0  0  0  0  0  0  0  0  0  0  0
   21.3222    5.7051   31.2896 O   0  0  0  0  0  0  0  0  0  0  0  0
   19.9924    5.5582   31.8458 C   0  0  2  0  0  0  0  0  0  0  0  0
   20.1752    8.5035   28.3117 N   0  0  0  0  0  0  0  0  0  0  0  0
   20.4819    3.2187   32.5464 O   0  0  0  0  0  0  0  0  0  0  0  0
   19.5725    4.0394   31.8026 C   0  0  1  0  0  0  0  0  0  0  0  0
   19.3497    7.7100   31.0665 O   0  0  0  0  0  0  0  0  0  0  0  0
   18.1950    3.8526   32.3895 C   0  0  1  0  0  0  0  0  0  0  0  0
   18.2479    9.7112   31.3557 O   0  0  0  0  0  0  0  0  0  0  0  0
   17.1842    4.7129   31.5969 C   0  0  0  0  0  0  0  0  0  0  0  0
   21.3120   11.6541   31.7528 O   0  0  0  0  0  0  0  0  0  0  0  0
   17.6359    6.1998   31.6896 C   0  0  1  0  0  0  0  0  0  0  0  0
   21.6064   10.7983   29.1037 O   0  0  0  0  0  0  0  0  0  0  0  0
   18.9535    6.3968   31.0004 C   0  0  2  0  0  0  0  0  0  0  0  0
   18.7090    8.6895   30.3171 C   0  0  1  0  0  0  0  0  0  0  0  0
   19.3810   10.3641   32.0805 C   0  0  2  0  0  0  0  0  0  0  0  0
   18.8522   11.4023   33.0918 C   0  0  0  0  0  0  0  0  0  0  0  0
   20.2540   11.0609   31.0799 C   0  0  2  0  0  0  0  0  0  0  0  0
   20.7912   10.1020   30.0575 C   0  0  1  0  0  0  0  0  0  0  0  0
   19.6476    9.4620   29.3482 C   0  0  1  0  0  0  0  0  0  0  0  0
  5  4  1  6  0  0  0
  5  8  1  0  0  0  0
  5 16  1  0  0  0  0
  8  7  1  1  0  0  0
  8 10  1  0  0  0  0
 10  1  1  6  0  0  0
 10 12  1  0  0  0  0
 11 18  1  0  0  0  0
 12 14  1  0  0  0  0
 14  2  1  6  0  0  0
 14 16  1  0  0  0  0
 16  9  1  1  0  0  0
 17  9  1  1  0  0  0
 17 11  1  0  0  0  0
 17 22  1  0  0  0  0
 18 19  1  1  0  0  0
 18 20  1  0  0  0  0
 19  3  1  0  0  0  0
 20 13  1  1  0  0  0
 20 21  1  0  0  0  0
 21 15  1  6  0  0  0
 21 22  1  0  0  0  0
 22  6  1  6  0  0  0
M  END
>  <CHROM.1>
173.87963577,123.54933309,-47.19110753,19.30981433,7.78440077,31.24685829
1.75116407,-0.51063792,3.09655540

>  <Name>
2et8_lig

>  <RI>
0

>  <Rbt.Current_Directory>
/home/itssahil/PROJECTS/Mol_Feturizer/New_Systems/rnas/2et8

>  <Rbt.Executable>
rbdock ($Id: //depot/dev/client3/rdock/2013.1/src/exe/rbdock.cxx#4 $)

>  <Rbt.Library>
libRbt.so (2013.1, Build901 2013/11/27)

>  <Rbt.Parameter_File>
/export/apps/rDock/src/rDock_2013.1_src/data/scripts/dock_solv.prm

>  <Rbt.Receptor>
prm/blind_docking_40.prm

>  <SCORE>
4.01601

>  <SCORE.INTER>
-5.66883

>  <SCORE.INTER.CONST>
1

>  <SCORE.INTER.POLAR>
-0.87178

>  <SCORE.INTER.ROT>
3

>  <SCORE.INTER.SOLV>
15.1639

>  <SCORE.INTER.VDW>
-11.5279

>  <SCORE.INTER.norm>
-0.257674

>  <SCORE.INTRA>
2.02833

>  <SCORE.INTRA.DIHEDRAL>
2.92142

>  <SCORE.INTRA.DIHEDRAL.0>
4.99603

>  <SCORE.INTRA.POLAR>
0

>  <SCORE.INTRA.POLAR.0>
0

>  <SCORE.INTRA.REPUL>
0

>  <SCORE.INTRA.REPUL.0>
0

>  <SCORE.INTRA.SOLV>
1.72103

>  <SCORE.INTRA.SOLV.lig_0>
-74.884

>  <SCORE.INTRA.VDW>
-0.292891

>  <SCORE.INTRA.VDW.0>
-0.858933

>  <SCORE.INTRA.norm>
0.092197

>  <SCORE.RESTR>
7.65651

>  <SCORE.RESTR.CAVITY>
7.65651

>  <SCORE.RESTR.norm>
0.348023

>  <SCORE.SYSTEM>
0

>  <SCORE.SYSTEM.CONST>
0

>  <SCORE.SYSTEM.DIHEDRAL>
0

>  <SCORE.SYSTEM.SOLV>
0

>  <SCORE.SYSTEM.norm>
0

>  <SCORE.heavy>
22

>  <SCORE.norm>
0.182546

>  <RMSD>
11.549

$$$$
2et8_lig
 OpenBabel11021811433D
libRbt.so/2013.1/901 2013/11/27
 22 23  0  0  0  0  0  0  0  0999 V2000
   17.8059    3.0690   33.3088 N   0  0  0  0  0  0  0  0  0  0  0  0
   17.0593    7.0287   30.4156 N   0  0  0  0  0  0  0  0  0  0  0  0
   17.1469    9.2165   33.2637 N   0  0  0  0  0  0  0  0  0  0  0  0
   21.5989    5.2613   31.0431 O   0  0  0  0  0  0  0  0  0  0  0  0
   20.3154    5.5119   31.6670 C   0  0  2  0  0  0  0  0  0  0  0  0
   20.9241    8.9104   27.8977 N   0  0  0  0  0  0  0  0  0  0  0  0
   20.5650    3.5038   33.1193 O   0  0  0  0  0  0  0  0  0  0  0  0
   19.7047    4.1492   32.1720 C   0  0  1  0  0  0  0  0  0  0  0  0
   19.8839    7.3417   30.2122 O   0  0  0  0  0  0  0  0  0  0  0  0
   18.3717    4.3802   32.8403 C   0  0  1  0  0  0  0  0  0  0  0  0
   18.2381    8.9084   30.5855 O   0  0  0  0  0  0  0  0  0  0  0  0
   17.4120    5.0610   31.8375 C   0  0  0  0  0  0  0  0  0  0  0  0
   20.5262   11.3753   31.9996 O   0  0  0  0  0  0  0  0  0  0  0  0
   18.0544    6.4060   31.3886 C   0  0  1  0  0  0  0  0  0  0  0  0
   21.5030   11.2363   29.3797 O   0  0  0  0  0  0  0  0  0  0  0  0
   19.3205    6.1587   30.6233 C   0  0  2  0  0  0  0  0  0  0  0  0
   19.1377    8.2867   29.5181 C   0  0  1  0  0  0  0  0  0  0  0  0
   19.0017    9.6276   31.6509 C   0  0  2  0  0  0  0  0  0  0  0  0
   18.0383   10.2552   32.6795 C   0  0  0  0  0  0  0  0  0  0  0  0
   19.8080   10.7183   31.0114 C   0  0  2  0  0  0  0  0  0  0  0  0
   20.7593   10.1703   29.9876 C   0  0  1  0  0  0  0  0  0  0  0  0
   19.9795    9.4572   28.9370 C   0  0  1  0  0  0  0  0  0  0  0  0
  5  4  1  6  0  0  0
  5  8  1  0  0  0  0
  5 16  1  0  0  0  0
  8  7  1  1  0  0  0
  8 10  1  0  0  0  0
 10  1  1  6  0  0  0
 10 12  1  0  0  0  0
 11 18  1  0  0  0  0
 12 14  1  0  0  0  0
 14  2  1  6  0  0  0
 14 16  1  0  0  0  0
 16  9  1  1  0  0  0
 17  9  1  1  0  0  0
 17 11  1  0  0  0  0
 17 22  1  0  0  0  0
 18 19  1  1  0  0  0
 18 20  1  0  0  0  0
 19  3  1  0  0  0  0
 20 13  1  1  0  0  0
 20 21  1  0  0  0  0
 21 15  1  6  0  0  0
 21 22  1  0  0  0  0
 22  6  1  6  0  0  0
M  END
>  <CHROM.1>
-166.07431159,74.24522694,56.33059760,19.36204923,7.56397257,31.16273657
1.78757236,-0.68052937,2.94783455

>  <Name>
2et8_lig

>  <RI>
0

>  <Rbt.Current_Directory>
/home/itssahil/PROJECTS/Mol_Feturizer/New_Systems/rnas/2et8

>  <Rbt.Executable>
rbdock ($Id: //depot/dev/client3/rdock/2013.1/src/exe/rbdock.cxx#4 $)

>  <Rbt.Library>
libRbt.so (2013.1, Build901 2013/11/27)

>  <Rbt.Parameter_File>
/export/apps/rDock/src/rDock_2013.1_src/data/scripts/dock_solv.prm

>  <Rbt.Receptor>
prm/blind_docking_40.prm

>  <SCORE>
18.0245

>  <SCORE.INTER>
9.25814

>  <SCORE.INTER.CONST>
1

>  <SCORE.INTER.POLAR>
-0.605231

>  <SCORE.INTER.ROT>
3

>  <SCORE.INTER.SOLV>
25.16

>  <SCORE.INTER.VDW>
-5.79715

>  <SCORE.INTER.norm>
0.420824

>  <SCORE.INTRA>
5.74017

>  <SCORE.INTRA.DIHEDRAL>
-2.93218

>  <SCORE.INTRA.DIHEDRAL.0>
4.99603

>  <SCORE.INTRA.POLAR>
0

>  <SCORE.INTRA.POLAR.0>
0

>  <SCORE.INTRA.REPUL>
0

>  <SCORE.INTRA.REPUL.0>
0

>  <SCORE.INTRA.SOLV>
3.85218

>  <SCORE.INTRA.SOLV.lig_0>
-74.884

>  <SCORE.INTRA.VDW>
5.28017

>  <SCORE.INTRA.VDW.0>
-0.858933

>  <SCORE.INTRA.norm>
0.260917

>  <SCORE.RESTR>
3.02616

>  <SCORE.RESTR.CAVITY>
3.02616

>  <SCORE.RESTR.norm>
0.137553

>  <SCORE.SYSTEM>
0

>  <SCORE.SYSTEM.CONST>
0

>  <SCORE.SYSTEM.DIHEDRAL>
0

>  <SCORE.SYSTEM.SOLV>
0

>  <SCORE.SYSTEM.norm>
0

>  <SCORE.heavy>
22

>  <SCORE.norm>
0.819294

>  <RMSD>
11.555

$$$$
2et8_lig
 OpenBabel11021811433D
libRbt.so/2013.1/901 2013/11/27
 22 23  0  0  0  0  0  0  0  0999 V2000
   17.8450    3.0494   33.3147 N   0  0  0  0  0  0  0  0  0  0  0  0
   17.0612    7.0073   30.4287 N   0  0  0  0  0  0  0  0  0  0  0  0
   17.1055    9.2005   33.2377 N   0  0  0  0  0  0  0  0  0  0  0  0
   21.6149    5.2695   31.0374 O   0  0  0  0  0  0  0  0  0  0  0  0
   20.3320    5.5108   31.6663 C   0  0  2  0  0  0  0  0  0  0  0  0
   20.9104    8.9150   27.8998 N   0  0  0  0  0  0  0  0  0  0  0  0
   20.6004    3.5028   33.1154 O   0  0  0  0  0  0  0  0  0  0  0  0
   19.7323    4.1435   32.1721 C   0  0  1  0  0  0  0  0  0  0  0  0
   19.8828    7.3393   30.2152 O   0  0  0  0  0  0  0  0  0  0  0  0
   18.4002    4.3649   32.8456 C   0  0  1  0  0  0  0  0  0  0  0  0
   18.2246    8.8930   30.5877 O   0  0  0  0  0  0  0  0  0  0  0  0
   17.4323    5.0404   31.8471 C   0  0  0  0  0  0  0  0  0  0  0  0
   20.4931   11.3789   32.0004 O   0  0  0  0  0  0  0  0  0  0  0  0
   18.0641    6.3901   31.3974 C   0  0  1  0  0  0  0  0  0  0  0  0
   21.4708   11.2463   29.3806 O   0  0  0  0  0  0  0  0  0  0  0  0
   19.3290    6.1521   30.6271 C   0  0  2  0  0  0  0  0  0  0  0  0
   19.1291    8.2779   29.5206 C   0  0  1  0  0  0  0  0  0  0  0  0
   18.9825    9.6189   31.6527 C   0  0  2  0  0  0  0  0  0  0  0  0
   18.0141   10.2393   32.6811 C   0  0  0  0  0  0  0  0  0  0  0  0
   19.7801   10.7157   31.0126 C   0  0  2  0  0  0  0  0  0  0  0  0
   20.7357   10.1747   29.9891 C   0  0  1  0  0  0  0  0  0  0  0  0
   19.9616    9.4548   28.9388 C   0  0  1  0  0  0  0  0  0  0  0  0
  5  4  1  6  0  0  0
  5  8  1  0  0  0  0
  5 16  1  0  0  0  0
  8  7  1  1  0  0  0
  8 10  1  0  0  0  0
 10  1  1  6  0  0  0
 10 12  1  0  0  0  0
 11 18  1  0  0  0  0
 12 14  1  0  0  0  0
 14  2  1  6  0  0  0
 14 16  1  0  0  0  0
 16  9  1  1  0  0  0
 17  9  1  1  0  0  0
 17 11  1  0  0  0  0
 17 22  1  0  0  0  0
 18 19  1  1  0  0  0
 18 20  1  0  0  0  0
 19  3  1  0  0  0  0
 20 13  1  1  0  0  0
 20 21  1  0  0  0  0
 21 15  1  6  0  0  0
 21 22  1  0  0  0  0
 22  6  1  6  0  0  0
M  END
>  <CHROM.1>
-166.31361461,74.23917798,54.74394323,19.35951086,7.55749078,31.16395996
1.77511264,-0.67493777,2.93958134

>  <Name>
2et8_lig

>  <RI>
0

>  <Rbt.Current_Directory>
/home/itssahil/PROJECTS/Mol_Feturizer/New_Systems/rnas/2et8

>  <Rbt.Executable>
rbdock ($Id: //depot/dev/client3/rdock/2013.1/src/exe/rbdock.cxx#4 $)

>  <Rbt.Library>
libRbt.so (2013.1, Build901 2013/11/27)

>  <Rbt.Parameter_File>
/export/apps/rDock/src/rDock_2013.1_src/data/scripts/dock_solv.prm

>  <Rbt.Receptor>
prm/blind_docking_40.prm

>  <SCORE>
18.2433

>  <SCORE.INTER>
9.40819

>  <SCORE.INTER.CONST>
1

>  <SCORE.INTER.POLAR>
-0.583556

>  <SCORE.INTER.ROT>
3

>  <SCORE.INTER.SOLV>
24.9996

>  <SCORE.INTER.VDW>
-5.71589

>  <SCORE.INTER.norm>
0.427645

>  <SCORE.INTRA>
5.83932

>  <SCORE.INTRA.DIHEDRAL>
-2.91141

>  <SCORE.INTRA.DIHEDRAL.0>
4.99603

>  <SCORE.INTRA.POLAR>
0

>  <SCORE.INTRA.POLAR.0>
0

>  <SCORE.INTRA.REPUL>
0

>  <SCORE.INTRA.REPUL.0>
0

>  <SCORE.INTRA.SOLV>
3.90905

>  <SCORE.INTRA.SOLV.lig_0>
-74.884

>  <SCORE.INTRA.VDW>
5.3405

>  <SCORE.INTRA.VDW.0>
-0.858933

>  <SCORE.INTRA.norm>
0.265424

>  <SCORE.RESTR>
2.99579

>  <SCORE.RESTR.CAVITY>
2.99579

>  <SCORE.RESTR.norm>
0.136172

>  <SCORE.SYSTEM>
0

>  <SCORE.SYSTEM.CONST>
0

>  <SCORE.SYSTEM.DIHEDRAL>
0

>  <SCORE.SYSTEM.SOLV>
0

>  <SCORE.SYSTEM.norm>
0

>  <SCORE.heavy>
22

>  <SCORE.norm>
0.829241

>  <RMSD>
11.556

$$$$
2et8_lig
 OpenBabel11021811433D
libRbt.so/2013.1/901 2013/11/27
 22 23  0  0  0  0  0  0  0  0999 V2000
   17.8272    3.0560   33.3095 N   0  0  0  0  0  0  0  0  0  0  0  0
   17.0692    7.0122   30.4144 N   0  0  0  0  0  0  0  0  0  0  0  0
   17.0921    9.1885   33.2100 N   0  0  0  0  0  0  0  0  0  0  0  0
   21.6131    5.2542   31.0378 O   0  0  0  0  0  0  0  0  0  0  0  0
   20.3298    5.5027   31.6630 C   0  0  2  0  0  0  0  0  0  0  0  0
   20.9336    8.9140   27.9032 N   0  0  0  0  0  0  0  0  0  0  0  0
   20.5852    3.4961   33.1164 O   0  0  0  0  0  0  0  0  0  0  0  0
   19.7224    4.1392   32.1697 C   0  0  1  0  0  0  0  0  0  0  0  0
   19.8929    7.3305   30.2074 O   0  0  0  0  0  0  0  0  0  0  0  0
   18.3897    4.3680   32.8395 C   0  0  1  0  0  0  0  0  0  0  0  0
   18.2360    8.8859   30.5792 O   0  0  0  0  0  0  0  0  0  0  0  0
   17.4275    5.0462   31.8373 C   0  0  0  0  0  0  0  0  0  0  0  0
   20.5030   11.3614   32.0123 O   0  0  0  0  0  0  0  0  0  0  0  0
   18.0667    6.3921   31.3867 C   0  0  1  0  0  0  0  0  0  0  0  0
   21.4920   11.2379   29.3962 O   0  0  0  0  0  0  0  0  0  0  0  0
   19.3324    6.1467   30.6201 C   0  0  2  0  0  0  0  0  0  0  0  0
   19.1440    8.2736   29.5135 C   0  0  1  0  0  0  0  0  0  0  0  0
   18.9906    9.6058   31.6505 C   0  0  2  0  0  0  0  0  0  0  0  0
   18.0190   10.2238   32.6772 C   0  0  0  0  0  0  0  0  0  0  0  0
   19.7931   10.7038   31.0185 C   0  0  2  0  0  0  0  0  0  0  0  0
   20.7522   10.1652   29.9970 C   0  0  1  0  0  0  0  0  0  0  0  0
   19.9813    9.4513   28.9403 C   0  0  1  0  0  0  0  0  0  0  0  0
  5  4  1  6  0  0  0
  5  8  1  0  0  0  0
  5 16  1  0  0  0  0
  8  7  1  1  0  0  0
  8 10  1  0  0  0  0
 10  1  1  6  0  0  0
 10 12  1  0  0  0  0
 11 18  1  0  0  0  0
 12 14  1  0  0  0  0
 14  2  1  6  0  0  0
 14 16  1  0  0  0  0
 16  9  1  1  0  0  0
 17  9  1  1  0  0  0
 17 11  1  0  0  0  0
 17 22  1  0  0  0  0
 18 19  1  1  0  0  0
 18 20  1  0  0  0  0
 19  3  1  0  0  0  0
 20 13  1  1  0  0  0
 20 21  1  0  0  0  0
 21 15  1  6  0  0  0
 21 22  1  0  0  0  0
 22  6  1  6  0  0  0
M  END
>  <CHROM.1>
-166.07536166,73.77838980,53.87358690,19.36369034,7.55139284,31.16103610
1.77998814,-0.67008636,2.94198879

>  <Name>
2et8_lig

>  <RI>
0

>  <Rbt.Current_Directory>
/home/itssahil/PROJECTS/Mol_Feturizer/New_Systems/rnas/2et8

>  <Rbt.Executable>
rbdock ($Id: //depot/dev/client3/rdock/2013.1/src/exe/rbdock.cxx#4 $)

>  <Rbt.Library>
libRbt.so (2013.1, Build901 2013/11/27)

>  <Rbt.Parameter_File>
/export/apps/rDock/src/rDock_2013.1_src/data/scripts/dock_solv.prm

>  <Rbt.Receptor>
prm/blind_docking_40.prm

>  <SCORE>
18.4372

>  <SCORE.INTER>
9.3514

>  <SCORE.INTER.CONST>
1

>  <SCORE.INTER.POLAR>
-0.639324

>  <SCORE.INTER.ROT>
3

>  <SCORE.INTER.SOLV>
25.0217

>  <SCORE.INTER.VDW>
-5.57521

>  <SCORE.INTER.norm>
0.425063

>  <SCORE.INTRA>
6.1498

>  <SCORE.INTRA.DIHEDRAL>
-2.90425

>  <SCORE.INTRA.DIHEDRAL.0>
4.99603

>  <SCORE.INTRA.POLAR>
0

>  <SCORE.INTRA.POLAR.0>
0

>  <SCORE.INTRA.REPUL>
0

>  <SCORE.INTRA.REPUL.0>
0

>  <SCORE.INTRA.SOLV>
3.98872

>  <SCORE.INTRA.SOLV.lig_0>
-74.884

>  <SCORE.INTRA.VDW>
5.60757

>  <SCORE.INTRA.VDW.0>
-0.858933

>  <SCORE.INTRA.norm>
0.279537

>  <SCORE.RESTR>
2.93603

>  <SCORE.RESTR.CAVITY>
2.93603

>  <SCORE.RESTR.norm>
0.133456

>  <SCORE.SYSTEM>
0

>  <SCORE.SYSTEM.CONST>
0

>  <SCORE.SYSTEM.DIHEDRAL>
0

>  <SCORE.SYSTEM.SOLV>
0

>  <SCORE.SYSTEM.norm>
0

>  <SCORE.heavy>
22

>  <SCORE.norm>
0.838056

>  <RMSD>
11.560

$$$$
2et8_lig
 OpenBabel11021811433D
libRbt.so/2013.1/901 2013/11/27
 22 23  0  0  0  0  0  0  0  0999 V2000
   17.8194    3.0289   33.2706 N   0  0  0  0  0  0  0  0  0  0  0  0
   17.0527    7.0184   30.4239 N   0  0  0  0  0  0  0  0  0  0  0  0
   17.1686    9.2301   33.2918 N   0  0  0  0  0  0  0  0  0  0  0  0
   21.6002    5.2616   31.0241 O   0  0  0  0  0  0  0  0  0  0  0  0
   20.3168    5.5001   31.6527 C   0  0  2  0  0  0  0  0  0  0  0  0
   20.9100    8.9042   27.8963 N   0  0  0  0  0  0  0  0  0  0  0  0
   20.5765    3.4765   33.0817 O   0  0  0  0  0  0  0  0  0  0  0  0
   19.7121    4.1293   32.1432 C   0  0  1  0  0  0  0  0  0  0  0  0
   19.8757    7.3446   30.2196 O   0  0  0  0  0  0  0  0  0  0  0  0
   18.3793    4.3476   32.8162 C   0  0  1  0  0  0  0  0  0  0  0  0
   18.2339    8.9152   30.5940 O   0  0  0  0  0  0  0  0  0  0  0  0
   17.4154    5.0359   31.8227 C   0  0  0  0  0  0  0  0  0  0  0  0
   20.5314   11.3828   31.9918 O   0  0  0  0  0  0  0  0  0  0  0  0
   18.0519    6.3885   31.3882 C   0  0  1  0  0  0  0  0  0  0  0  0
   21.4983   11.2339   29.3688 O   0  0  0  0  0  0  0  0  0  0  0  0
   19.3177    6.1548   30.6181 C   0  0  2  0  0  0  0  0  0  0  0  0
   19.1286    8.2886   29.5253 C   0  0  1  0  0  0  0  0  0  0  0  0
   19.0026    9.6366   31.6542 C   0  0  2  0  0  0  0  0  0  0  0  0
   18.0441   10.2690   32.6844 C   0  0  0  0  0  0  0  0  0  0  0  0
   19.8084   10.7239   31.0083 C   0  0  2  0  0  0  0  0  0  0  0  0
   20.7551   10.1710   29.9828 C   0  0  1  0  0  0  0  0  0  0  0  0
   19.9702    9.4559   28.9373 C   0  0  1  0  0  0  0  0  0  0  0  0
  5  4  1  6  0  0  0
  5  8  1  0  0  0  0
  5 16  1  0  0  0  0
  8  7  1  1  0  0  0
  8 10  1  0  0  0  0
 10  1  1  6  0  0  0
 10 12  1  0  0  0  0
 11 18  1  0  0  0  0
 12 14  1  0  0  0  0
 14  2  1  6  0  0  0
 14 16  1  0  0  0  0
 16  9  1  1  0  0  0
 17  9  1  1  0  0  0
 17 11  1  0  0  0  0
 17 22  1  0  0  0  0
 18 19  1  1  0  0  0
 18 20  1  0  0  0  0
 19  3  1  0  0  0  0
 20 13  1  1  0  0  0
 20 21  1  0  0  0  0
 21 15  1  6  0  0  0
 21 22  1  0  0  0  0
 22  6  1  6  0  0  0
M  END
>  <CHROM.1>
-166.75311446,75.28274498,57.27418335,19.36274602,7.55797313,31.15614755
1.78413642,-0.68394648,2.95345791

>  <Name>
2et8_lig

>  <RI>
0

>  <Rbt.Current_Directory>
/home/itssahil/PROJECTS/Mol_Feturizer/New_Systems/rnas/2et8

>  <Rbt.Executable>
rbdock ($Id: //depot/dev/client3/rdock/2013.1/src/exe/rbdock.cxx#4 $)

>  <Rbt.Library>
libRbt.so (2013.1, Build901 2013/11/27)

>  <Rbt.Parameter_File>
/export/apps/rDock/src/rDock_2013.1_src/data/scripts/dock_solv.prm

>  <Rbt.Receptor>
prm/blind_docking_40.prm

>  <SCORE>
17.6155

>  <SCORE.INTER>
9.30949

>  <SCORE.INTER.CONST>
1

>  <SCORE.INTER.POLAR>
-0.563325

>  <SCORE.INTER.ROT>
3

>  <SCORE.INTER.SOLV>
25.0484

>  <SCORE.INTER.VDW>
-5.86539

>  <SCORE.INTER.norm>
0.423158

>  <SCORE.INTRA>
5.17946

>  <SCORE.INTRA.DIHEDRAL>
-2.90136

>  <SCORE.INTRA.DIHEDRAL.0>
4.99603

>  <SCORE.INTRA.POLAR>
0

>  <SCORE.INTRA.POLAR.0>
0

>  <SCORE.INTRA.REPUL>
0

>  <SCORE.INTRA.REPUL.0>
0

>  <SCORE.INTRA.SOLV>
3.70761

>  <SCORE.INTRA.SOLV.lig_0>
-74.884

>  <SCORE.INTRA.VDW>
4.77634

>  <SCORE.INTRA.VDW.0>
-0.858933

>  <SCORE.INTRA.norm>
0.23543

>  <SCORE.RESTR>
3.12652

>  <SCORE.RESTR.CAVITY>
3.12652

>  <SCORE.RESTR.norm>
0.142115

>  <SCORE.SYSTEM>
0

>  <SCORE.SYSTEM.CONST>
0

>  <SCORE.SYSTEM.DIHEDRAL>
0

>  <SCORE.SYSTEM.SOLV>
0

>  <SCORE.SYSTEM.norm>
0

>  <SCORE.heavy>
22

>  <SCORE.norm>
0.800703

>  <RMSD>
11.564

$$$$
2et8_lig
 OpenBabel11021811433D
libRbt.so/2013.1/901 2013/11/27
 22 23  0  0  0  0  0  0  0  0999 V2000
   17.8262    3.0243   33.2716 N   0  0  0  0  0  0  0  0  0  0  0  0
   17.0502    7.0128   30.4259 N   0  0  0  0  0  0  0  0  0  0  0  0
   17.1570    9.2149   33.2898 N   0  0  0  0  0  0  0  0  0  0  0  0
   21.6008    5.2615   31.0190 O   0  0  0  0  0  0  0  0  0  0  0  0
   20.3180    5.4984   31.6497 C   0  0  2  0  0  0  0  0  0  0  0  0
   20.9037    8.9091   27.8973 N   0  0  0  0  0  0  0  0  0  0  0  0
   20.5824    3.4753   33.0783 O   0  0  0  0  0  0  0  0  0  0  0  0
   19.7158    4.1270   32.1412 C   0  0  1  0  0  0  0  0  0  0  0  0
   19.8725    7.3424   30.2172 O   0  0  0  0  0  0  0  0  0  0  0  0
   18.3838    4.3437   32.8162 C   0  0  1  0  0  0  0  0  0  0  0  0
   18.2261    8.9076   30.5934 O   0  0  0  0  0  0  0  0  0  0  0  0
   17.4175    5.0308   31.8242 C   0  0  0  0  0  0  0  0  0  0  0  0
   20.5157   11.3792   31.9971 O   0  0  0  0  0  0  0  0  0  0  0  0
   18.0516    6.3841   31.3886 C   0  0  1  0  0  0  0  0  0  0  0  0
   21.4845   11.2377   29.3744 O   0  0  0  0  0  0  0  0  0  0  0  0
   19.3165    6.1519   30.6166 C   0  0  2  0  0  0  0  0  0  0  0  0
   19.1231    8.2855   29.5241 C   0  0  1  0  0  0  0  0  0  0  0  0
   18.9921    9.6292   31.6554 C   0  0  2  0  0  0  0  0  0  0  0  0
   18.0311   10.2571   32.6862 C   0  0  0  0  0  0  0  0  0  0  0  0
   19.7951   10.7200   31.0120 C   0  0  2  0  0  0  0  0  0  0  0  0
   20.7440   10.1717   29.9861 C   0  0  1  0  0  0  0  0  0  0  0  0
   19.9618    9.4562   28.9388 C   0  0  1  0  0  0  0  0  0  0  0  0
  5  4  1  6  0  0  0
  5  8  1  0  0  0  0
  5 16  1  0  0  0  0
  8  7  1  1  0  0  0
  8 10  1  0  0  0  0
 10  1  1  6  0  0  0
 10 12  1  0  0  0  0
 11 18  1  0  0  0  0
 12 14  1  0  0  0  0
 14  2  1  6  0  0  0
 14 16  1  0  0  0  0
 16  9  1  1  0  0  0
 17  9  1  1  0  0  0
 17 11  1  0  0  0  0
 17 22  1  0  0  0  0
 18 19  1  1  0  0  0
 18 20  1  0  0  0  0
 19  3  1  0  0  0  0
 20 13  1  1  0  0  0
 20 21  1  0  0  0  0
 21 15  1  6  0  0  0
 21 22  1  0  0  0  0
 22  6  1  6  0  0  0
M  END
>  <CHROM.1>
-166.74443433,75.09047510,57.19728958,19.35816339,7.55452270,31.15645324
1.78102846,-0.68331613,2.95167262

>  <Name>
2et8_lig

>  <RI>
0

>  <Rbt.Current_Directory>
/home/itssahil/PROJECTS/Mol_Feturizer/New_Systems/rnas/2et8

>  <Rbt.Executable>
rbdock ($Id: //depot/dev/client3/rdock/2013.1/src/exe/rbdock.cxx#4 $)

>  <Rbt.Library>
libRbt.so (2013.1, Build901 2013/11/27)

>  <Rbt.Parameter_File>
/export/apps/rDock/src/rDock_2013.1_src/data/scripts/dock_solv.prm

>  <Rbt.Receptor>
prm/blind_docking_40.prm

>  <SCORE>
17.6884

>  <SCORE.INTER>
9.28046

>  <SCORE.INTER.CONST>
1

>  <SCORE.INTER.POLAR>
-0.564632

>  <SCORE.INTER.ROT>
3

>  <SCORE.INTER.SOLV>
25.01

>  <SCORE.INTER.VDW>
-5.86758

>  <SCORE.INTER.norm>
0.421839

>  <SCORE.INTRA>
5.30043

>  <SCORE.INTRA.DIHEDRAL>
-2.92409

>  <SCORE.INTRA.DIHEDRAL.0>
4.99603

>  <SCORE.INTRA.POLAR>
0

>  <SCORE.INTRA.POLAR.0>
0

>  <SCORE.INTRA.REPUL>
0

>  <SCORE.INTRA.REPUL.0>
0

>  <SCORE.INTRA.SOLV>
3.7407

>  <SCORE.INTRA.SOLV.lig_0>
-74.884

>  <SCORE.INTRA.VDW>
4.89213

>  <SCORE.INTRA.VDW.0>
-0.858933

>  <SCORE.INTRA.norm>
0.240929

>  <SCORE.RESTR>
3.10754

>  <SCORE.RESTR.CAVITY>
3.10754

>  <SCORE.RESTR.norm>
0.141252

>  <SCORE.SYSTEM>
0

>  <SCORE.SYSTEM.CONST>
0

>  <SCORE.SYSTEM.DIHEDRAL>
0

>  <SCORE.SYSTEM.SOLV>
0

>  <SCORE.SYSTEM.norm>
0

>  <SCORE.heavy>
22

>  <SCORE.norm>
0.80402

>  <RMSD>
11.565

$$$$
2et8_lig
 OpenBabel11021811433D
libRbt.so/2013.1/901 2013/11/27
 22 23  0  0  0  0  0  0  0  0999 V2000
   17.8166    3.0413   33.2898 N   0  0  0  0  0  0  0  0  0  0  0  0
   17.0561    7.0084   30.4103 N   0  0  0  0  0  0  0  0  0  0  0  0
   17.1027    9.1974   33.2288 N   0  0  0  0  0  0  0  0  0  0  0  0
   21.6020    5.2551   31.0324 O   0  0  0  0  0  0  0  0  0  0  0  0
   20.3175    5.4989   31.6569 C   0  0  2  0  0  0  0  0  0  0  0  0
   20.9183    8.9091   27.8988 N   0  0  0  0  0  0  0  0  0  0  0  0
   20.5741    3.4867   33.1022 O   0  0  0  0  0  0  0  0  0  0  0  0
   19.7116    4.1323   32.1571 C   0  0  1  0  0  0  0  0  0  0  0  0
   19.8795    7.3321   30.2084 O   0  0  0  0  0  0  0  0  0  0  0  0
   18.3777    4.3562   32.8260 C   0  0  1  0  0  0  0  0  0  0  0  0
   18.2266    8.8915   30.5810 O   0  0  0  0  0  0  0  0  0  0  0  0
   17.4157    5.0369   31.8254 C   0  0  0  0  0  0  0  0  0  0  0  0
   20.5018   11.3652   32.0042 O   0  0  0  0  0  0  0  0  0  0  0  0
   18.0533    6.3858   31.3813 C   0  0  1  0  0  0  0  0  0  0  0  0
   21.4847   11.2347   29.3862 O   0  0  0  0  0  0  0  0  0  0  0  0
   19.3204    6.1457   30.6153 C   0  0  2  0  0  0  0  0  0  0  0  0
   19.1310    8.2753   29.5144 C   0  0  1  0  0  0  0  0  0  0  0  0
   18.9851    9.6120   31.6492 C   0  0  2  0  0  0  0  0  0  0  0  0
   18.0169   10.2338   32.6769 C   0  0  0  0  0  0  0  0  0  0  0  0
   19.7883   10.7071   31.0133 C   0  0  2  0  0  0  0  0  0  0  0  0
   20.7440   10.1646   29.9907 C   0  0  1  0  0  0  0  0  0  0  0  0
   19.9694    9.4503   28.9371 C   0  0  1  0  0  0  0  0  0  0  0  0
  5  4  1  6  0  0  0
  5  8  1  0  0  0  0
  5 16  1  0  0  0  0
  8  7  1  1  0  0  0
  8 10  1  0  0  0  0
 10  1  1  6  0  0  0
 10 12  1  0  0  0  0
 11 18  1  0  0  0  0
 12 14  1  0  0  0  0
 14  2  1  6  0  0  0
 14 16  1  0  0  0  0
 16  9  1  1  0  0  0
 17  9  1  1  0  0  0
 17 11  1  0  0  0  0
 17 22  1  0  0  0  0
 18 19  1  1  0  0  0
 18 20  1  0  0  0  0
 19  3  1  0  0  0  0
 20 13  1  1  0  0  0
 20 21  1  0  0  0  0
 21 15  1  6  0  0  0
 21 22  1  0  0  0  0
 22  6  1  6  0  0  0
M  END
>  <CHROM.1>
-166.24654639,74.29662157,54.71973446,19.35464546,7.54987871,31.15585011
1.78081979,-0.67324707,2.94571165

>  <Name>
2et8_lig

>  <RI>
0

>  <Rbt.Current_Directory>
/home/itssahil/PROJECTS/Mol_Feturizer/New_Systems/rnas/2et8

>  <Rbt.Executable>
rbdock ($Id: //depot/dev/client3/rdock/2013.1/src/exe/rbdock.cxx#4 $)

>  <Rbt.Library>
libRbt.so (2013.1, Build901 2013/11/27)

>  <Rbt.Parameter_File>
/export/apps/rDock/src/rDock_2013.1_src/data/scripts/dock_solv.prm

>  <Rbt.Receptor>
prm/blind_docking_40.prm

>  <SCORE>
18.1847

>  <SCORE.INTER>
9.39478

>  <SCORE.INTER.CONST>
1

>  <SCORE.INTER.POLAR>
-0.609763

>  <SCORE.INTER.ROT>
3

>  <SCORE.INTER.SOLV>
24.9551

>  <SCORE.INTER.VDW>
-5.62263

>  <SCORE.INTER.norm>
0.427035

>  <SCORE.INTRA>
5.78563

>  <SCORE.INTRA.DIHEDRAL>
-2.89526

>  <SCORE.INTRA.DIHEDRAL.0>
4.99603

>  <SCORE.INTRA.POLAR>
0

>  <SCORE.INTRA.POLAR.0>
0

>  <SCORE.INTRA.REPUL>
0

>  <SCORE.INTRA.REPUL.0>
0

>  <SCORE.INTRA.SOLV>
3.89363

>  <SCORE.INTRA.SOLV.lig_0>
-74.884

>  <SCORE.INTRA.VDW>
5.28644

>  <SCORE.INTRA.VDW.0>
-0.858933

>  <SCORE.INTRA.norm>
0.262983

>  <SCORE.RESTR>
3.00425

>  <SCORE.RESTR.CAVITY>
3.00425

>  <SCORE.RESTR.norm>
0.136557

>  <SCORE.SYSTEM>
0

>  <SCORE.SYSTEM.CONST>
0

>  <SCORE.SYSTEM.DIHEDRAL>
0

>  <SCORE.SYSTEM.SOLV>
0

>  <SCORE.SYSTEM.norm>
0

>  <SCORE.heavy>
22

>  <SCORE.norm>
0.826575

>  <RMSD>
11.568

$$$$
2et8_lig
 OpenBabel11021811433D
libRbt.so/2013.1/901 2013/11/27
 22 23  0  0  0  0  0  0  0  0999 V2000
   20.0980    2.4947   31.4866 N   0  0  0  0  0  0  0  0  0  0  0  0
   16.3937    5.7929   31.5732 N   0  0  0  0  0  0  0  0  0  0  0  0
   21.2863   11.7081   32.5366 N   0  0  0  0  0  0  0  0  0  0  0  0
   21.0248    7.3103   30.9598 O   0  0  0  0  0  0  0  0  0  0  0  0
   20.1547    6.3598   31.6223 C   0  0  2  0  0  0  0  0  0  0  0  0
   18.0342    7.3286   28.6528 N   0  0  0  0  0  0  0  0  0  0  0  0
   21.9281    4.6117   31.5679 O   0  0  0  0  0  0  0  0  0  0  0  0
   20.5696    4.8959   31.2104 C   0  0  1  0  0  0  0  0  0  0  0  0
   18.3302    7.8827   31.5692 O   0  0  0  0  0  0  0  0  0  0  0  0
   19.6887    3.8814   31.8972 C   0  0  1  0  0  0  0  0  0  0  0  0
   18.2083   10.1509   31.1912 O   0  0  0  0  0  0  0  0  0  0  0  0
   18.2142    4.1495   31.5177 C   0  0  0  0  0  0  0  0  0  0  0  0
   21.5698   10.3739   29.7869 O   0  0  0  0  0  0  0  0  0  0  0  0
   17.8546    5.5970   31.9635 C   0  0  1  0  0  0  0  0  0  0  0  0
   20.3362    8.7518   27.8674 O   0  0  0  0  0  0  0  0  0  0  0  0
   18.6543    6.6032   31.1902 C   0  0  2  0  0  0  0  0  0  0  0  0
   17.7846    8.7819   30.6607 C   0  0  1  0  0  0  0  0  0  0  0  0
   19.6904   10.3483   31.1896 C   0  0  2  0  0  0  0  0  0  0  0  0
   20.0511   11.7560   31.7079 C   0  0  0  0  0  0  0  0  0  0  0  0
   20.1931   10.2042   29.7841 C   0  0  2  0  0  0  0  0  0  0  0  0
   19.8605    8.8546   29.2173 C   0  0  1  0  0  0  0  0  0  0  0  0
   18.3810    8.6773   29.2290 C   0  0  1  0  0  0  0  0  0  0  0  0
  5  4  1  6  0  0  0
  5  8  1  0  0  0  0
  5 16  1  0  0  0  0
  8  7  1  1  0  0  0
  8 10  1  0  0  0  0
 10  1  1  6  0  0  0
 10 12  1  0  0  0  0
 11 18  1  0  0  0  0
 12 14  1  0  0  0  0
 14  2  1  6  0  0  0
 14 16  1  0  0  0  0
 16  9  1  1  0  0  0
 17  9  1  1  0  0  0
 17 11  1  0  0  0  0
 17 22  1  0  0  0  0
 18 19  1  6  0  0  0
 18 20  1  0  0  0  0
 19  3  1  0  0  0  0
 20 13  1  1  0  0  0
 20 21  1  0  0  0  0
 21 15  1  6  0  0  0
 21 22  1  0  0  0  0
 22  6  1  1  0  0  0
M  END
>  <CHROM.1>
127.64461168,-152.82508025,142.38558078,19.50380033,7.59717925,30.82356516
-1.67587325,-0.05588701,-0.15358966

>  <Name>
2et8_lig

>  <RI>
0

>  <Rbt.Current_Directory>
/home/itssahil/PROJECTS/Mol_Feturizer/New_Systems/rnas/2et8

>  <Rbt.Executable>
rbdock ($Id: //depot/dev/client3/rdock/2013.1/src/exe/rbdock.cxx#4 $)

>  <Rbt.Library>
libRbt.so (2013.1, Build901 2013/11/27)

>  <Rbt.Parameter_File>
/export/apps/rDock/src/rDock_2013.1_src/data/scripts/dock_solv.prm

>  <Rbt.Receptor>
prm/blind_docking_40.prm

>  <SCORE>
25.4686

>  <SCORE.INTER>
12.0864

>  <SCORE.INTER.CONST>
1

>  <SCORE.INTER.POLAR>
-1.69782

>  <SCORE.INTER.ROT>
3

>  <SCORE.INTER.SOLV>
21.337

>  <SCORE.INTER.VDW>
1.00472

>  <SCORE.INTER.norm>
0.549384

>  <SCORE.INTRA>
6.74293

>  <SCORE.INTRA.DIHEDRAL>
8.56115

>  <SCORE.INTRA.DIHEDRAL.0>
4.99603

>  <SCORE.INTRA.POLAR>
0

>  <SCORE.INTRA.POLAR.0>
0

>  <SCORE.INTRA.REPUL>
0

>  <SCORE.INTRA.REPUL.0>
0

>  <SCORE.INTRA.SOLV>
4.06111

>  <SCORE.INTRA.SOLV.lig_0>
-74.884

>  <SCORE.INTRA.VDW>
0.431801

>  <SCORE.INTRA.VDW.0>
-0.858933

>  <SCORE.INTRA.norm>
0.306497

>  <SCORE.RESTR>
6.63926

>  <SCORE.RESTR.CAVITY>
6.63926

>  <SCORE.RESTR.norm>
0.301784

>  <SCORE.SYSTEM>
0

>  <SCORE.SYSTEM.CONST>
0

>  <SCORE.SYSTEM.DIHEDRAL>
0

>  <SCORE.SYSTEM.SOLV>
0

>  <SCORE.SYSTEM.norm>
0

>  <SCORE.heavy>
22

>  <SCORE.norm>
1.15767

>  <RMSD>
11.598

$$$$
2et8_lig
 OpenBabel11021811433D
libRbt.so/2013.1/901 2013/11/27
 22 23  0  0  0  0  0  0  0  0999 V2000
   18.5871    1.8546   33.0956 N   0  0  0  0  0  0  0  0  0  0  0  0
   17.6613    6.7168   32.7638 N   0  0  0  0  0  0  0  0  0  0  0  0
   15.6642    9.6277   31.9074 N   0  0  0  0  0  0  0  0  0  0  0  0
   21.3859    4.7440   30.2417 O   0  0  0  0  0  0  0  0  0  0  0  0
   20.6274    4.7138   31.4758 C   0  0  2  0  0  0  0  0  0  0  0  0
   22.0174    9.0836   30.3568 N   0  0  0  0  0  0  0  0  0  0  0  0
   20.9796    2.2581   31.6988 O   0  0  0  0  0  0  0  0  0  0  0  0
   19.9826    3.2869   31.6583 C   0  0  1  0  0  0  0  0  0  0  0  0
   20.0727    7.0166   31.2764 O   0  0  0  0  0  0  0  0  0  0  0  0
   19.1966    3.2202   32.9447 C   0  0  1  0  0  0  0  0  0  0  0  0
   18.4296    7.9067   29.9309 O   0  0  0  0  0  0  0  0  0  0  0  0
   18.0986    4.3083   32.9259 C   0  0  0  0  0  0  0  0  0  0  0  0
   17.8770   10.8160   32.0644 O   0  0  0  0  0  0  0  0  0  0  0  0
   18.7912    5.6930   32.7636 C   0  0  1  0  0  0  0  0  0  0  0  0
   20.5115   11.2932   31.2463 O   0  0  0  0  0  0  0  0  0  0  0  0
   19.4723    5.7912   31.4308 C   0  0  2  0  0  0  0  0  0  0  0  0
   19.9393    7.7352   30.0943 C   0  0  1  0  0  0  0  0  0  0  0  0
   17.8086    8.7148   31.0248 C   0  0  2  0  0  0  0  0  0  0  0  0
   16.2926    8.8752   30.7877 C   0  0  0  0  0  0  0  0  0  0  0  0
   18.4447   10.0728   31.0400 C   0  0  2  0  0  0  0  0  0  0  0  0
   19.9276    9.9825   31.2552 C   0  0  1  0  0  0  0  0  0  0  0  0
   20.5264    9.1732   30.1566 C   0  0  1  0  0  0  0  0  0  0  0  0
  5  4  1  6  0  0  0
  5  8  1  0  0  0  0
  5 16  1  0  0  0  0
  8  7  1  1  0  0  0
  8 10  1  0  0  0  0
 10  1  1  6  0  0  0
 10 12  1  0  0  0  0
 11 18  1  0  0  0  0
 12 14  1  0  0  0  0
 14  2  1  6  0  0  0
 14 16  1  0  0  0  0
 16  9  1  1  0  0  0
 17  9  1  1  0  0  0
 17 11  1  0  0  0  0
 17 22  1  0  0  0  0
 18 19  1  6  0  0  0
 18 20  1  0  0  0  0
 19  3  1  0  0  0  0
 20 13  1  1  0  0  0
 20 21  1  0  0  0  0
 21 15  1  6  0  0  0
 21 22  1  0  0  0  0
 22  6  1  1  0  0  0
M  END
>  <CHROM.1>
111.20683020,57.60857474,177.48228219,19.21238006,6.96781293,31.44856101
1.40495999,-0.35429733,2.93323878

>  <Name>
2et8_lig

>  <RI>
0

>  <Rbt.Current_Directory>
/home/itssahil/PROJECTS/Mol_Feturizer/New_Systems/rnas/2et8

>  <Rbt.Executable>
rbdock ($Id: //depot/dev/client3/rdock/2013.1/src/exe/rbdock.cxx#4 $)

>  <Rbt.Library>
libRbt.so (2013.1, Build901 2013/11/27)

>  <Rbt.Parameter_File>
/export/apps/rDock/src/rDock_2013.1_src/data/scripts/dock_solv.prm

>  <Rbt.Receptor>
prm/blind_docking_40.prm

>  <SCORE>
7.89646

>  <SCORE.INTER>
-2.5201

>  <SCORE.INTER.CONST>
1

>  <SCORE.INTER.POLAR>
-1.23436

>  <SCORE.INTER.ROT>
3

>  <SCORE.INTER.SOLV>
22.8901

>  <SCORE.INTER.VDW>
-10.7956

>  <SCORE.INTER.norm>
-0.11455

>  <SCORE.INTRA>
3.37767

>  <SCORE.INTRA.DIHEDRAL>
1.86588

>  <SCORE.INTRA.DIHEDRAL.0>
4.99603

>  <SCORE.INTRA.POLAR>
0

>  <SCORE.INTRA.POLAR.0>
0

>  <SCORE.INTRA.REPUL>
0

>  <SCORE.INTRA.REPUL.0>
0

>  <SCORE.INTRA.SOLV>
4.2595

>  <SCORE.INTRA.SOLV.lig_0>
-74.884

>  <SCORE.INTRA.VDW>
0.314985

>  <SCORE.INTRA.VDW.0>
-0.858933

>  <SCORE.INTRA.norm>
0.153531

>  <SCORE.RESTR>
7.03888

>  <SCORE.RESTR.CAVITY>
7.03888

>  <SCORE.RESTR.norm>
0.319949

>  <SCORE.SYSTEM>
0

>  <SCORE.SYSTEM.CONST>
0

>  <SCORE.SYSTEM.DIHEDRAL>
0

>  <SCORE.SYSTEM.SOLV>
0

>  <SCORE.SYSTEM.norm>
0

>  <SCORE.heavy>
22

>  <SCORE.norm>
0.35893

>  <RMSD>
11.737

$$$$
2et8_lig
 OpenBabel11021811433D
libRbt.so/2013.1/901 2013/11/27
 22 23  0  0  0  0  0  0  0  0999 V2000
   18.5614    1.6882   31.5820 N   0  0  0  0  0  0  0  0  0  0  0  0
   22.0330    5.0236   30.3856 N   0  0  0  0  0  0  0  0  0  0  0  0
   15.9527    8.7949   30.1982 N   0  0  0  0  0  0  0  0  0  0  0  0
   18.2856    6.3069   33.2901 O   0  0  0  0  0  0  0  0  0  0  0  0
   18.6997    5.5114   32.1521 C   0  0  2  0  0  0  0  0  0  0  0  0
   22.0157    9.1286   30.1933 N   0  0  0  0  0  0  0  0  0  0  0  0
   17.0327    3.7460   32.7072 O   0  0  0  0  0  0  0  0  0  0  0  0
   18.4215    3.9886   32.4498 C   0  0  1  0  0  0  0  0  0  0  0  0
   20.4462    7.0368   31.6291 O   0  0  0  0  0  0  0  0  0  0  0  0
   18.8302    3.1347   31.2748 C   0  0  1  0  0  0  0  0  0  0  0  0
   18.5384    7.6234   30.4806 O   0  0  0  0  0  0  0  0  0  0  0  0
   20.3312    3.3599   30.9810 C   0  0  0  0  0  0  0  0  0  0  0  0
   18.0314   10.7138   32.3550 O   0  0  0  0  0  0  0  0  0  0  0  0
   20.5439    4.8716   30.6761 C   0  0  1  0  0  0  0  0  0  0  0  0
   20.4514   11.3002   31.0757 O   0  0  0  0  0  0  0  0  0  0  0  0
   20.2460    5.7032   31.8883 C   0  0  2  0  0  0  0  0  0  0  0  0
   20.0649    7.5951   30.4148 C   0  0  1  0  0  0  0  0  0  0  0  0
   18.0138    8.5043   31.5687 C   0  0  2  0  0  0  0  0  0  0  0  0
   16.4710    8.5122   31.5643 C   0  0  0  0  0  0  0  0  0  0  0  0
   18.5078    9.9011   31.3368 C   0  0  2  0  0  0  0  0  0  0  0  0
   20.0078    9.9572   31.3177 C   0  0  1  0  0  0  0  0  0  0  0  0
   20.5100    9.0728   30.2286 C   0  0  1  0  0  0  0  0  0  0  0  0
  5  4  1  1  0  0  0
  5  8  1  0  0  0  0
  5 16  1  0  0  0  0
  8  7  1  6  0  0  0
  8 10  1  0  0  0  0
 10  1  1  1  0  0  0
 10 12  1  0  0  0  0
 11 18  1  0  0  0  0
 12 14  1  0  0  0  0
 14  2  1  1  0  0  0
 14 16  1  0  0  0  0
 16  9  1  6  0  0  0
 17  9  1  1  0  0  0
 17 11  1  0  0  0  0
 17 22  1  0  0  0  0
 18 19  1  6  0  0  0
 18 20  1  0  0  0  0
 19  3  1  0  0  0  0
 20 13  1  1  0  0  0
 20 21  1  0  0  0  0
 21 15  1  6  0  0  0
 21 22  1  0  0  0  0
 22  6  1  1  0  0  0
M  END
>  <CHROM.1>
-74.12918935,71.67522628,-50.46269974,19.16028123,6.92181108,31.37493879
1.59425773,-0.29070645,3.06091643

>  <Name>
2et8_lig

>  <RI>
0

>  <Rbt.Current_Directory>
/home/itssahil/PROJECTS/Mol_Feturizer/New_Systems/rnas/2et8

>  <Rbt.Executable>
rbdock ($Id: //depot/dev/client3/rdock/2013.1/src/exe/rbdock.cxx#4 $)

>  <Rbt.Library>
libRbt.so (2013.1, Build901 2013/11/27)

>  <Rbt.Parameter_File>
/export/apps/rDock/src/rDock_2013.1_src/data/scripts/dock_solv.prm

>  <Rbt.Receptor>
prm/blind_docking_40.prm

>  <SCORE>
2.61542

>  <SCORE.INTER>
-4.27438

>  <SCORE.INTER.CONST>
1

>  <SCORE.INTER.POLAR>
-2.30758

>  <SCORE.INTER.ROT>
3

>  <SCORE.INTER.SOLV>
21.5195

>  <SCORE.INTER.VDW>
-7.93083

>  <SCORE.INTER.norm>
-0.19429

>  <SCORE.INTRA>
0.507765

>  <SCORE.INTRA.DIHEDRAL>
-2.92775

>  <SCORE.INTRA.DIHEDRAL.0>
4.99603

>  <SCORE.INTRA.POLAR>
0

>  <SCORE.INTRA.POLAR.0>
0

>  <SCORE.INTRA.REPUL>
0

>  <SCORE.INTRA.REPUL.0>
0

>  <SCORE.INTRA.SOLV>
1.69904

>  <SCORE.INTRA.SOLV.lig_0>
-74.884

>  <SCORE.INTRA.VDW>
1.12212

>  <SCORE.INTRA.VDW.0>
-0.858933

>  <SCORE.INTRA.norm>
0.0230802

>  <SCORE.RESTR>
6.38203

>  <SCORE.RESTR.CAVITY>
6.38203

>  <SCORE.RESTR.norm>
0.290092

>  <SCORE.SYSTEM>
0

>  <SCORE.SYSTEM.CONST>
0

>  <SCORE.SYSTEM.DIHEDRAL>
0

>  <SCORE.SYSTEM.SOLV>
0

>  <SCORE.SYSTEM.norm>
0

>  <SCORE.heavy>
22

>  <SCORE.norm>
0.118883

>  <RMSD>
11.770

$$$$
2et8_lig
 OpenBabel11021811433D
libRbt.so/2013.1/901 2013/11/27
 22 23  0  0  0  0  0  0  0  0999 V2000
   19.5842    1.3494   32.1348 N   0  0  0  0  0  0  0  0  0  0  0  0
   18.5560    5.9736   33.6070 N   0  0  0  0  0  0  0  0  0  0  0  0
   15.6410    7.9816   30.4869 N   0  0  0  0  0  0  0  0  0  0  0  0
   20.7293    5.1982   29.2709 O   0  0  0  0  0  0  0  0  0  0  0  0
   20.6221    4.7669   30.6500 C   0  0  2  0  0  0  0  0  0  0  0  0
   21.9322    8.9964   30.3459 N   0  0  0  0  0  0  0  0  0  0  0  0
   21.0643    2.4022   30.0044 O   0  0  0  0  0  0  0  0  0  0  0  0
   20.1487    3.2638   30.6923 C   0  0  1  0  0  0  0  0  0  0  0  0
   20.0125    6.9513   31.3620 O   0  0  0  0  0  0  0  0  0  0  0  0
   20.0414    2.7810   32.1179 C   0  0  1  0  0  0  0  0  0  0  0  0
   18.2727    7.9770   30.2557 O   0  0  0  0  0  0  0  0  0  0  0  0
   19.0453    3.6806   32.8851 C   0  0  0  0  0  0  0  0  0  0  0  0
   18.0778   10.7757   32.5904 O   0  0  0  0  0  0  0  0  0  0  0  0
   19.5709    5.1447   32.8274 C   0  0  1  0  0  0  0  0  0  0  0  0
   20.6262   11.2038   31.5136 O   0  0  0  0  0  0  0  0  0  0  0  0
   19.5634    5.6547   31.4168 C   0  0  2  0  0  0  0  0  0  0  0  0
   19.7826    7.7417   30.2421 C   0  0  1  0  0  0  0  0  0  0  0  0
   17.8084    8.7423   31.4533 C   0  0  2  0  0  0  0  0  0  0  0  0
   16.2838    8.9710   31.3938 C   0  0  0  0  0  0  0  0  0  0  0  0
   18.4994   10.0731   31.4712 C   0  0  2  0  0  0  0  0  0  0  0  0
   19.9917    9.9167   31.5163 C   0  0  1  0  0  0  0  0  0  0  0  0
   20.4334    9.1515   30.3165 C   0  0  1  0  0  0  0  0  0  0  0  0
  5  4  1  6  0  0  0
  5  8  1  0  0  0  0
  5 16  1  0  0  0  0
  8  7  1  6  0  0  0
  8 10  1  0  0  0  0
 10  1  1  6  0  0  0
 10 12  1  0  0  0  0
 11 18  1  0  0  0  0
 12 14  1  0  0  0  0
 14  2  1  1  0  0  0
 14 16  1  0  0  0  0
 16  9  1  1  0  0  0
 17  9  1  1  0  0  0
 17 11  1  0  0  0  0
 17 22  1  0  0  0  0
 18 19  1  6  0  0  0
 18 20  1  0  0  0  0
 19  3  1  0  0  0  0
 20 13  1  1  0  0  0
 20 21  1  0  0  0  0
 21 15  1  6  0  0  0
 21 22  1  0  0  0  0
 22  6  1  1  0  0  0
M  END
>  <CHROM.1>
82.21320836,68.57738172,20.99066608,19.38410384,6.78543853,31.28097770,1.36764777
-0.40690398,3.05642927

>  <Name>
2et8_lig

>  <RI>
0

>  <Rbt.Current_Directory>
/home/itssahil/PROJECTS/Mol_Feturizer/New_Systems/rnas/2et8

>  <Rbt.Executable>
rbdock ($Id: //depot/dev/client3/rdock/2013.1/src/exe/rbdock.cxx#4 $)

>  <Rbt.Library>
libRbt.so (2013.1, Build901 2013/11/27)

>  <Rbt.Parameter_File>
/export/apps/rDock/src/rDock_2013.1_src/data/scripts/dock_solv.prm

>  <Rbt.Receptor>
prm/blind_docking_40.prm

>  <SCORE>
2.3515

>  <SCORE.INTER>
-6.87988

>  <SCORE.INTER.CONST>
1

>  <SCORE.INTER.POLAR>
-1.89373

>  <SCORE.INTER.ROT>
3

>  <SCORE.INTER.SOLV>
21.9116

>  <SCORE.INTER.VDW>
-11.178

>  <SCORE.INTER.norm>
-0.312722

>  <SCORE.INTRA>
0.331226

>  <SCORE.INTRA.DIHEDRAL>
1.48911

>  <SCORE.INTRA.DIHEDRAL.0>
4.99603

>  <SCORE.INTRA.POLAR>
0

>  <SCORE.INTRA.POLAR.0>
0

>  <SCORE.INTRA.REPUL>
0

>  <SCORE.INTRA.REPUL.0>
0

>  <SCORE.INTRA.SOLV>
0.268932

>  <SCORE.INTRA.SOLV.lig_0>
-74.884

>  <SCORE.INTRA.VDW>
-0.547795

>  <SCORE.INTRA.VDW.0>
-0.858933

>  <SCORE.INTRA.norm>
0.0150557

>  <SCORE.RESTR>
8.90016

>  <SCORE.RESTR.CAVITY>
8.90016

>  <SCORE.RESTR.norm>
0.404553

>  <SCORE.SYSTEM>
0

>  <SCORE.SYSTEM.CONST>
0

>  <SCORE.SYSTEM.DIHEDRAL>
0

>  <SCORE.SYSTEM.SOLV>
0

>  <SCORE.SYSTEM.norm>
0

>  <SCORE.heavy>
22

>  <SCORE.norm>
0.106886

>  <RMSD>
11.772

$$$$
2et8_lig
 OpenBabel11021811433D
libRbt.so/2013.1/901 2013/11/27
 22 23  0  0  0  0  0  0  0  0999 V2000
   18.6524    1.8185   32.0039 N   0  0  0  0  0  0  0  0  0  0  0  0
   21.9823    5.1323   30.4106 N   0  0  0  0  0  0  0  0  0  0  0  0
   16.1690    8.6860   32.5615 N   0  0  0  0  0  0  0  0  0  0  0  0
   18.0192    6.6276   32.8975 O   0  0  0  0  0  0  0  0  0  0  0  0
   18.5381    5.6841   31.9280 C   0  0  2  0  0  0  0  0  0  0  0  0
   21.5087    8.4197   28.8255 N   0  0  0  0  0  0  0  0  0  0  0  0
   16.9496    3.9284   32.7015 O   0  0  0  0  0  0  0  0  0  0  0  0
   18.3336    4.2164   32.4657 C   0  0  1  0  0  0  0  0  0  0  0  0
   20.2180    7.2141   31.2298 O   0  0  0  0  0  0  0  0  0  0  0  0
   18.8524    3.2089   31.4693 C   0  0  1  0  0  0  0  0  0  0  0  0
   18.1953    8.1603   30.6675 O   0  0  0  0  0  0  0  0  0  0  0  0
   20.3512    3.4812   31.2052 C   0  0  0  0  0  0  0  0  0  0  0  0
   19.1884   11.5314   31.6527 O   0  0  0  0  0  0  0  0  0  0  0  0
   20.4913    4.9324   30.6596 C   0  0  1  0  0  0  0  0  0  0  0  0
   20.9593   11.0925   29.5294 O   0  0  0  0  0  0  0  0  0  0  0  0
   20.0823    5.9314   31.7010 C   0  0  2  0  0  0  0  0  0  0  0  0
   19.5192    7.6420   30.1072 C   0  0  1  0  0  0  0  0  0  0  0  0
   18.3620    9.3380   31.5734 C   0  0  2  0  0  0  0  0  0  0  0  0
   16.9910    9.8301   32.0818 C   0  0  0  0  0  0  0  0  0  0  0  0
   19.0221   10.4448   30.8067 C   0  0  2  0  0  0  0  0  0  0  0  0
   20.3600   10.0218   30.2733 C   0  0  1  0  0  0  0  0  0  0  0  0
   20.1723    8.8477   29.3751 C   0  0  1  0  0  0  0  0  0  0  0  0
  5  4  1  1  0  0  0
  5  8  1  0  0  0  0
  5 16  1  0  0  0  0
  8  7  1  6  0  0  0
  8 10  1  0  0  0  0
 10  1  1  1  0  0  0
 10 12  1  0  0  0  0
 11 18  1  0  0  0  0
 12 14  1  0  0  0  0
 14  2  1  1  0  0  0
 14 16  1  0  0  0  0
 16  9  1  6  0  0  0
 17  9  1  1  0  0  0
 17 11  1  0  0  0  0
 17 22  1  0  0  0  0
 18 19  1  6  0  0  0
 18 20  1  0  0  0  0
 19  3  1  0  0  0  0
 20 13  1  1  0  0  0
 20 21  1  0  0  0  0
 21 15  1  6  0  0  0
 21 22  1  0  0  0  0
 22  6  1  1  0  0  0
M  END
>  <CHROM.1>
-54.37342429,88.60882120,47.17211820,19.20705463,7.14004096,31.20242061,-1.66473637
0.56550047,-0.13609086

>  <Name>
2et8_lig

>  <RI>
0

>  <Rbt.Current_Directory>
/home/itssahil/PROJECTS/Mol_Feturizer/New_Systems/rnas/2et8

>  <Rbt.Executable>
rbdock ($Id: //depot/dev/client3/rdock/2013.1/src/exe/rbdock.cxx#4 $)

>  <Rbt.Library>
libRbt.so (2013.1, Build901 2013/11/27)

>  <Rbt.Parameter_File>
/export/apps/rDock/src/rDock_2013.1_src/data/scripts/dock_solv.prm

>  <Rbt.Receptor>
prm/blind_docking_40.prm

>  <SCORE>
33.9862

>  <SCORE.INTER>
26.971

>  <SCORE.INTER.CONST>
1

>  <SCORE.INTER.POLAR>
-2.70241

>  <SCORE.INTER.ROT>
3

>  <SCORE.INTER.SOLV>
26.2657

>  <SCORE.INTER.VDW>
12.6335

>  <SCORE.INTER.norm>
1.22596

>  <SCORE.INTRA>
1.31252

>  <SCORE.INTRA.DIHEDRAL>
-0.81981

>  <SCORE.INTRA.DIHEDRAL.0>
4.99603

>  <SCORE.INTRA.POLAR>
0

>  <SCORE.INTRA.POLAR.0>
0

>  <SCORE.INTRA.REPUL>
0

>  <SCORE.INTRA.REPUL.0>
0

>  <SCORE.INTRA.SOLV>
2.68259

>  <SCORE.INTRA.SOLV.lig_0>
-74.884

>  <SCORE.INTRA.VDW>
0.381129

>  <SCORE.INTRA.VDW.0>
-0.858933

>  <SCORE.INTRA.norm>
0.05966

>  <SCORE.RESTR>
5.70266

>  <SCORE.RESTR.CAVITY>
5.70266

>  <SCORE.RESTR.norm>
0.259212

>  <SCORE.SYSTEM>
0

>  <SCORE.SYSTEM.CONST>
0

>  <SCORE.SYSTEM.DIHEDRAL>
0

>  <SCORE.SYSTEM.SOLV>
0

>  <SCORE.SYSTEM.norm>
0

>  <SCORE.heavy>
22

>  <SCORE.norm>
1.54483

>  <RMSD>
11.778

$$$$
2et8_lig
 OpenBabel11021811433D
libRbt.so/2013.1/901 2013/11/27
 22 23  0  0  0  0  0  0  0  0999 V2000
   18.5467    1.6748   31.5685 N   0  0  0  0  0  0  0  0  0  0  0  0
   22.0186    5.0043   30.3569 N   0  0  0  0  0  0  0  0  0  0  0  0
   15.9484    8.9014   30.2178 N   0  0  0  0  0  0  0  0  0  0  0  0
   18.2950    6.2895   33.2911 O   0  0  0  0  0  0  0  0  0  0  0  0
   18.6991    5.4960   32.1481 C   0  0  2  0  0  0  0  0  0  0  0  0
   22.0099    9.1217   30.1924 N   0  0  0  0  0  0  0  0  0  0  0  0
   17.0313    3.7334   32.7100 O   0  0  0  0  0  0  0  0  0  0  0  0
   18.4190    3.9731   32.4436 C   0  0  1  0  0  0  0  0  0  0  0  0
   20.4458    7.0183   31.6170 O   0  0  0  0  0  0  0  0  0  0  0  0
   18.8172    3.1214   31.2633 C   0  0  1  0  0  0  0  0  0  0  0  0
   18.5385    7.6006   30.4657 O   0  0  0  0  0  0  0  0  0  0  0  0
   20.3167    3.3435   30.9597 C   0  0  0  0  0  0  0  0  0  0  0  0
   18.0135   10.6823   32.3496 O   0  0  0  0  0  0  0  0  0  0  0  0
   20.5312    4.8554   30.6574 C   0  0  1  0  0  0  0  0  0  0  0  0
   20.4341   11.2836   31.0783 O   0  0  0  0  0  0  0  0  0  0  0  0
   20.2439    5.6845   31.8740 C   0  0  2  0  0  0  0  0  0  0  0  0
   20.0652    7.5791   30.4037 C   0  0  1  0  0  0  0  0  0  0  0  0
   18.0073    8.4755   31.5556 C   0  0  2  0  0  0  0  0  0  0  0  0
   16.4645    8.4768   31.5474 C   0  0  0  0  0  0  0  0  0  0  0  0
   18.4959    9.8752   31.3298 C   0  0  2  0  0  0  0  0  0  0  0  0
   19.9956    9.9378   31.3146 C   0  0  1  0  0  0  0  0  0  0  0  0
   20.5044    9.0594   30.2237 C   0  0  1  0  0  0  0  0  0  0  0  0
  5  4  1  1  0  0  0
  5  8  1  0  0  0  0
  5 16  1  0  0  0  0
  8  7  1  6  0  0  0
  8 10  1  0  0  0  0
 10  1  1  1  0  0  0
 10 12  1  0  0  0  0
 11 18  1  0  0  0  0
 12 14  1  0  0  0  0
 14  2  1  1  0  0  0
 14 16  1  0  0  0  0
 16  9  1  6  0  0  0
 17  9  1  1  0  0  0
 17 11  1  0  0  0  0
 17 22  1  0  0  0  0
 18 19  1  6  0  0  0
 18 20  1  0  0  0  0
 19  3  1  0  0  0  0
 20 13  1  1  0  0  0
 20 21  1  0  0  0  0
 21 15  1  6  0  0  0
 21 22  1  0  0  0  0
 22  6  1  1  0  0  0
M  END
>  <CHROM.1>
-74.53686325,71.30854945,-56.39787505,19.15334480,6.90867126,31.36686511
1.59074009,-0.29414993,3.06072739

>  <Name>
2et8_lig

>  <RI>
0

>  <Rbt.Current_Directory>
/home/itssahil/PROJECTS/Mol_Feturizer/New_Systems/rnas/2et8

>  <Rbt.Executable>
rbdock ($Id: //depot/dev/client3/rdock/2013.1/src/exe/rbdock.cxx#4 $)

>  <Rbt.Library>
libRbt.so (2013.1, Build901 2013/11/27)

>  <Rbt.Parameter_File>
/export/apps/rDock/src/rDock_2013.1_src/data/scripts/dock_solv.prm

>  <Rbt.Receptor>
prm/blind_docking_40.prm

>  <SCORE>
2.36011

>  <SCORE.INTER>
-4.53658

>  <SCORE.INTER.CONST>
1

>  <SCORE.INTER.POLAR>
-2.33465

>  <SCORE.INTER.ROT>
3

>  <SCORE.INTER.SOLV>
21.3684

>  <SCORE.INTER.VDW>
-7.96503

>  <SCORE.INTER.norm>
-0.206208

>  <SCORE.INTRA>
0.461481

>  <SCORE.INTRA.DIHEDRAL>
-3.19172

>  <SCORE.INTRA.DIHEDRAL.0>
4.99603

>  <SCORE.INTRA.POLAR>
0

>  <SCORE.INTRA.POLAR.0>
0

>  <SCORE.INTRA.REPUL>
0

>  <SCORE.INTRA.REPUL.0>
0

>  <SCORE.INTRA.SOLV>
1.77354

>  <SCORE.INTRA.SOLV.lig_0>
-74.884

>  <SCORE.INTRA.VDW>
1.17057

>  <SCORE.INTRA.VDW.0>
-0.858933

>  <SCORE.INTRA.norm>
0.0209764

>  <SCORE.RESTR>
6.43521

>  <SCORE.RESTR.CAVITY>
6.43521

>  <SCORE.RESTR.norm>
0.29251

>  <SCORE.SYSTEM>
0

>  <SCORE.SYSTEM.CONST>
0

>  <SCORE.SYSTEM.DIHEDRAL>
0

>  <SCORE.SYSTEM.SOLV>
0

>  <SCORE.SYSTEM.norm>
0

>  <SCORE.heavy>
22

>  <SCORE.norm>
0.107278

>  <RMSD>
11.786

$$$$
2et8_lig
 OpenBabel11021811433D
libRbt.so/2013.1/901 2013/11/27
 22 23  0  0  0  0  0  0  0  0999 V2000
   18.5622    1.6922   31.5779 N   0  0  0  0  0  0  0  0  0  0  0  0
   22.0429    5.0189   30.3840 N   0  0  0  0  0  0  0  0  0  0  0  0
   16.0012    7.2264   30.6377 N   0  0  0  0  0  0  0  0  0  0  0  0
   18.2970    6.3114   33.2865 O   0  0  0  0  0  0  0  0  0  0  0  0
   18.7098    5.5150   32.1487 C   0  0  2  0  0  0  0  0  0  0  0  0
   22.0751    9.1437   30.2665 N   0  0  0  0  0  0  0  0  0  0  0  0
   17.0380    3.7537   32.7025 O   0  0  0  0  0  0  0  0  0  0  0  0
   18.4276    3.9928   32.4460 C   0  0  1  0  0  0  0  0  0  0  0  0
   20.4604    7.0360   31.6269 O   0  0  0  0  0  0  0  0  0  0  0  0
   18.8348    3.1380   31.2711 C   0  0  1  0  0  0  0  0  0  0  0  0
   18.6097    7.5885   30.3729 O   0  0  0  0  0  0  0  0  0  0  0  0
   20.3366    3.3595   30.9782 C   0  0  0  0  0  0  0  0  0  0  0  0
   17.9565   10.6803   32.1992 O   0  0  0  0  0  0  0  0  0  0  0  0
   20.5532    4.8706   30.6736 C   0  0  1  0  0  0  0  0  0  0  0  0
   20.4338   11.2963   31.0499 O   0  0  0  0  0  0  0  0  0  0  0  0
   20.2567    5.7029   31.8858 C   0  0  2  0  0  0  0  0  0  0  0  0
   20.1378    7.5825   30.3904 C   0  0  1  0  0  0  0  0  0  0  0  0
   18.0138    8.4669   31.4259 C   0  0  2  0  0  0  0  0  0  0  0  0
   16.4736    8.4519   31.3376 C   0  0  0  0  0  0  0  0  0  0  0  0
   18.4994    9.8697   31.2131 C   0  0  2  0  0  0  0  0  0  0  0  0
   19.9972    9.9480   31.2752 C   0  0  1  0  0  0  0  0  0  0  0  0
   20.5708    9.0658   30.2202 C   0  0  1  0  0  0  0  0  0  0  0  0
  5  4  1  1  0  0  0
  5  8  1  0  0  0  0
  5 16  1  0  0  0  0
  8  7  1  6  0  0  0
  8 10  1  0  0  0  0
 10  1  1  1  0  0  0
 10 12  1  0  0  0  0
 11 18  1  0  0  0  0
 12 14  1  0  0  0  0
 14  2  1  1  0  0  0
 14 16  1  0  0  0  0
 16  9  1  6  0  0  0
 17  9  1  1  0  0  0
 17 11  1  0  0  0  0
 17 22  1  0  0  0  0
 18 19  1  6  0  0  0
 18 20  1  0  0  0  0
 19  3  1  0  0  0  0
 20 13  1  1  0  0  0
 20 21  1  0  0  0  0
 21 15  1  6  0  0  0
 21 22  1  0  0  0  0
 22  6  1  1  0  0  0
M  END
>  <CHROM.1>
-77.10753592,71.19231595,22.01996844,19.17302774,6.84208551,31.35696910,1.64977556
-0.28553808,3.07134471

>  <Name>
2et8_lig

>  <RI>
0

>  <Rbt.Current_Directory>
/home/itssahil/PROJECTS/Mol_Feturizer/New_Systems/rnas/2et8

>  <Rbt.Executable>
rbdock ($Id: //depot/dev/client3/rdock/2013.1/src/exe/rbdock.cxx#4 $)

>  <Rbt.Library>
libRbt.so (2013.1, Build901 2013/11/27)

>  <Rbt.Parameter_File>
/export/apps/rDock/src/rDock_2013.1_src/data/scripts/dock_solv.prm

>  <Rbt.Receptor>
prm/blind_docking_40.prm

>  <SCORE>
4.80605

>  <SCORE.INTER>
-3.60679

>  <SCORE.INTER.CONST>
1

>  <SCORE.INTER.POLAR>
-2.33419

>  <SCORE.INTER.ROT>
3

>  <SCORE.INTER.SOLV>
21.9147

>  <SCORE.INTER.VDW>
-7.52881

>  <SCORE.INTER.norm>
-0.163945

>  <SCORE.INTRA>
2.40655

>  <SCORE.INTRA.DIHEDRAL>
0.801399

>  <SCORE.INTRA.DIHEDRAL.0>
4.99603

>  <SCORE.INTRA.POLAR>
0

>  <SCORE.INTRA.POLAR.0>
0

>  <SCORE.INTRA.REPUL>
0

>  <SCORE.INTRA.REPUL.0>
0

>  <SCORE.INTRA.SOLV>
2.1762

>  <SCORE.INTRA.SOLV.lig_0>
-74.884

>  <SCORE.INTRA.VDW>
0.917754

>  <SCORE.INTRA.VDW.0>
-0.858933

>  <SCORE.INTRA.norm>
0.109389

>  <SCORE.RESTR>
6.00629

>  <SCORE.RESTR.CAVITY>
6.00629

>  <SCORE.RESTR.norm>
0.273013

>  <SCORE.SYSTEM>
0

>  <SCORE.SYSTEM.CONST>
0

>  <SCORE.SYSTEM.DIHEDRAL>
0

>  <SCORE.SYSTEM.SOLV>
0

>  <SCORE.SYSTEM.norm>
0

>  <SCORE.heavy>
22

>  <SCORE.norm>
0.218457

>  <RMSD>
11.797

$$$$
2et8_lig
 OpenBabel11021811433D
libRbt.so/2013.1/901 2013/11/27
 22 23  0  0  0  0  0  0  0  0999 V2000
   18.4382    1.9514   32.6636 N   0  0  0  0  0  0  0  0  0  0  0  0
   16.4579    6.2615   31.2112 N   0  0  0  0  0  0  0  0  0  0  0  0
   19.5587   11.5170   33.3602 N   0  0  0  0  0  0  0  0  0  0  0  0
   21.3250    5.8375   31.7195 O   0  0  0  0  0  0  0  0  0  0  0  0
   20.0292    5.4515   32.2404 C   0  0  2  0  0  0  0  0  0  0  0  0
   18.8568    7.1019   28.4926 N   0  0  0  0  0  0  0  0  0  0  0  0
   20.9112    3.2323   32.9483 O   0  0  0  0  0  0  0  0  0  0  0  0
   19.8888    3.8825   32.1827 C   0  0  1  0  0  0  0  0  0  0  0  0
   19.0321    7.4592   31.4492 O   0  0  0  0  0  0  0  0  0  0  0  0
   18.5525    3.4485   32.7329 C   0  0  1  0  0  0  0  0  0  0  0  0
   18.4769    9.6853   31.2532 O   0  0  0  0  0  0  0  0  0  0  0  0
   17.4247    4.1198   31.9160 C   0  0  0  0  0  0  0  0  0  0  0  0
   21.7365   10.6639   29.9347 O   0  0  0  0  0  0  0  0  0  0  0  0
   17.6007    5.6628   32.0238 C   0  0  1  0  0  0  0  0  0  0  0  0
   20.8439    9.0000   27.8678 O   0  0  0  0  0  0  0  0  0  0  0  0
   18.8789    6.0968   31.3698 C   0  0  2  0  0  0  0  0  0  0  0  0
   18.3262    8.3092   30.6061 C   0  0  1  0  0  0  0  0  0  0  0  0
   19.8932   10.1626   31.2952 C   0  0  2  0  0  0  0  0  0  0  0  0
   19.9746   11.5654   31.9322 C   0  0  0  0  0  0  0  0  0  0  0  0
   20.4183   10.2343   29.8924 C   0  0  2  0  0  0  0  0  0  0  0  0
   20.3535    8.8976   29.2125 C   0  0  1  0  0  0  0  0  0  0  0  0
   18.9357    8.4397   29.1820 C   0  0  1  0  0  0  0  0  0  0  0  0
  5  4  1  6  0  0  0
  5  8  1  0  0  0  0
  5 16  1  0  0  0  0
  8  7  1  1  0  0  0
  8 10  1  0  0  0  0
 10  1  1  6  0  0  0
 10 12  1  0  0  0  0
 11 18  1  0  0  0  0
 12 14  1  0  0  0  0
 14  2  1  6  0  0  0
 14 16  1  0  0  0  0
 16  9  1  1  0  0  0
 17  9  1  1  0  0  0
 17 11  1  0  0  0  0
 17 22  1  0  0  0  0
 18 19  1  6  0  0  0
 18 20  1  0  0  0  0
 19  3  1  0  0  0  0
 20 13  1  1  0  0  0
 20 21  1  0  0  0  0
 21 15  1  6  0  0  0
 21 22  1  0  0  0  0
 22  6  1  1  0  0  0
M  END
>  <CHROM.1>
168.44170478,165.08567114,64.88213146,19.40152950,7.24799815,31.14985029
1.96507682,-1.10836588,-3.06379096

>  <Name>
2et8_lig

>  <RI>
0

>  <Rbt.Current_Directory>
/home/itssahil/PROJECTS/Mol_Feturizer/New_Systems/rnas/2et8

>  <Rbt.Executable>
rbdock ($Id: //depot/dev/client3/rdock/2013.1/src/exe/rbdock.cxx#4 $)

>  <Rbt.Library>
libRbt.so (2013.1, Build901 2013/11/27)

>  <Rbt.Parameter_File>
/export/apps/rDock/src/rDock_2013.1_src/data/scripts/dock_solv.prm

>  <Rbt.Receptor>
prm/blind_docking_40.prm

>  <SCORE>
8.45274

>  <SCORE.INTER>
2.66603

>  <SCORE.INTER.CONST>
1

>  <SCORE.INTER.POLAR>
-1.38878

>  <SCORE.INTER.ROT>
3

>  <SCORE.INTER.SOLV>
18.2009

>  <SCORE.INTER.VDW>
-5.26033

>  <SCORE.INTER.norm>
0.121183

>  <SCORE.INTRA>
-1.23368

>  <SCORE.INTRA.DIHEDRAL>
-3.07569

>  <SCORE.INTRA.DIHEDRAL.0>
4.99603

>  <SCORE.INTRA.POLAR>
0

>  <SCORE.INTRA.POLAR.0>
0

>  <SCORE.INTRA.REPUL>
0

>  <SCORE.INTRA.REPUL.0>
0

>  <SCORE.INTRA.SOLV>
1.7399

>  <SCORE.INTRA.SOLV.lig_0>
-74.884

>  <SCORE.INTRA.VDW>
-0.565788

>  <SCORE.INTRA.VDW.0>
-0.858933

>  <SCORE.INTRA.norm>
-0.0560764

>  <SCORE.RESTR>
7.02039

>  <SCORE.RESTR.CAVITY>
7.02039

>  <SCORE.RESTR.norm>
0.319109

>  <SCORE.SYSTEM>
0

>  <SCORE.SYSTEM.CONST>
0

>  <SCORE.SYSTEM.DIHEDRAL>
0

>  <SCORE.SYSTEM.SOLV>
0

>  <SCORE.SYSTEM.norm>
0

>  <SCORE.heavy>
22

>  <SCORE.norm>
0.384215

>  <RMSD>
11.909

$$$$
2et8_lig
 OpenBabel11021811433D
libRbt.so/2013.1/901 2013/11/27
 22 23  0  0  0  0  0  0  0  0999 V2000
   18.4365    1.9307   32.2831 N   0  0  0  0  0  0  0  0  0  0  0  0
   16.2510    6.2229   31.0965 N   0  0  0  0  0  0  0  0  0  0  0  0
   21.2700   11.6750   32.6335 N   0  0  0  0  0  0  0  0  0  0  0  0
   21.1104    6.0457   31.7897 O   0  0  0  0  0  0  0  0  0  0  0  0
   19.8213    5.5416   32.2181 C   0  0  2  0  0  0  0  0  0  0  0  0
   18.4721    7.1362   28.6045 N   0  0  0  0  0  0  0  0  0  0  0  0
   20.8110    3.3269   32.7830 O   0  0  0  0  0  0  0  0  0  0  0  0
   19.7818    3.9774   32.0270 C   0  0  1  0  0  0  0  0  0  0  0  0
   18.7335    7.5462   31.5478 O   0  0  0  0  0  0  0  0  0  0  0  0
   18.4541    3.4208   32.4788 C   0  0  1  0  0  0  0  0  0  0  0  0
   18.3308    9.8009   31.3097 O   0  0  0  0  0  0  0  0  0  0  0  0
   17.3205    4.0905   31.6685 C   0  0  0  0  0  0  0  0  0  0  0  0
   21.6225   10.5186   29.9060 O   0  0  0  0  0  0  0  0  0  0  0  0
   17.3951    5.6266   31.9091 C   0  0  1  0  0  0  0  0  0  0  0  0
   20.5732    8.8756   27.8967 O   0  0  0  0  0  0  0  0  0  0  0  0
   18.6691    6.1886   31.3513 C   0  0  2  0  0  0  0  0  0  0  0  0
   18.0711    8.4246   30.6986 C   0  0  1  0  0  0  0  0  0  0  0  0
   19.7775   10.1784   31.3132 C   0  0  2  0  0  0  0  0  0  0  0  0
   19.9698   11.5859   31.9150 C   0  0  0  0  0  0  0  0  0  0  0  0
   20.2770   10.1817   29.8992 C   0  0  2  0  0  0  0  0  0  0  0  0
   20.1049    8.8380   29.2526 C   0  0  1  0  0  0  0  0  0  0  0  0
   18.6584    8.4802   29.2603 C   0  0  1  0  0  0  0  0  0  0  0  0
  5  4  1  6  0  0  0
  5  8  1  0  0  0  0
  5 16  1  0  0  0  0
  8  7  1  1  0  0  0
  8 10  1  0  0  0  0
 10  1  1  6  0  0  0
 10 12  1  0  0  0  0
 11 18  1  0  0  0  0
 12 14  1  0  0  0  0
 14  2  1  6  0  0  0
 14 16  1  0  0  0  0
 16  9  1  1  0  0  0
 17  9  1  1  0  0  0
 17 11  1  0  0  0  0
 17 22  1  0  0  0  0
 18 19  1  6  0  0  0
 18 20  1  0  0  0  0
 19  3  1  0  0  0  0
 20 13  1  1  0  0  0
 20 21  1  0  0  0  0
 21 15  1  6  0  0  0
 21 22  1  0  0  0  0
 22  6  1  1  0  0  0
M  END
>  <CHROM.1>
164.75655200,176.78516070,147.35648390,19.30975066,7.27717769,31.07703512
-1.82791158,-0.55837445,-0.37594232

>  <Name>
2et8_lig

>  <RI>
0

>  <Rbt.Current_Directory>
/home/itssahil/PROJECTS/Mol_Feturizer/New_Systems/rnas/2et8

>  <Rbt.Executable>
rbdock ($Id: //depot/dev/client3/rdock/2013.1/src/exe/rbdock.cxx#4 $)

>  <Rbt.Library>
libRbt.so (2013.1, Build901 2013/11/27)

>  <Rbt.Parameter_File>
/export/apps/rDock/src/rDock_2013.1_src/data/scripts/dock_solv.prm

>  <Rbt.Receptor>
prm/blind_docking_40.prm

>  <SCORE>
3.46384

>  <SCORE.INTER>
-4.10187

>  <SCORE.INTER.CONST>
1

>  <SCORE.INTER.POLAR>
-1.7052

>  <SCORE.INTER.ROT>
3

>  <SCORE.INTER.SOLV>
19.315

>  <SCORE.INTER.VDW>
-9.08892

>  <SCORE.INTER.norm>
-0.186449

>  <SCORE.INTRA>
0.549811

>  <SCORE.INTRA.DIHEDRAL>
-0.697705

>  <SCORE.INTRA.DIHEDRAL.0>
4.99603

>  <SCORE.INTRA.POLAR>
0

>  <SCORE.INTRA.POLAR.0>
0

>  <SCORE.INTRA.REPUL>
0

>  <SCORE.INTRA.REPUL.0>
0

>  <SCORE.INTRA.SOLV>
3.07726

>  <SCORE.INTRA.SOLV.lig_0>
-74.884

>  <SCORE.INTRA.VDW>
-0.639966

>  <SCORE.INTRA.VDW.0>
-0.858933

>  <SCORE.INTRA.norm>
0.0249914

>  <SCORE.RESTR>
7.0159

>  <SCORE.RESTR.CAVITY>
7.0159

>  <SCORE.RESTR.norm>
0.318905

>  <SCORE.SYSTEM>
0

>  <SCORE.SYSTEM.CONST>
0

>  <SCORE.SYSTEM.DIHEDRAL>
0

>  <SCORE.SYSTEM.SOLV>
0

>  <SCORE.SYSTEM.norm>
0

>  <SCORE.heavy>
22

>  <SCORE.norm>
0.157447

>  <RMSD>
11.927

$$$$
2et8_lig
 OpenBabel11021811433D
libRbt.so/2013.1/901 2013/11/27
 22 23  0  0  0  0  0  0  0  0999 V2000
   20.4052    1.5232   31.8474 N   0  0  0  0  0  0  0  0  0  0  0  0
   17.7154    5.1071   33.9754 N   0  0  0  0  0  0  0  0  0  0  0  0
   21.1128   11.4613   31.4886 N   0  0  0  0  0  0  0  0  0  0  0  0
   20.1969    6.0220   29.8364 O   0  0  0  0  0  0  0  0  0  0  0  0
   20.1968    5.3125   31.0997 C   0  0  2  0  0  0  0  0  0  0  0  0
   17.3894    6.3471   29.5567 N   0  0  0  0  0  0  0  0  0  0  0  0
   21.4901    3.4292   30.1073 O   0  0  0  0  0  0  0  0  0  0  0  0
   20.2976    3.7628   30.8290 C   0  0  1  0  0  0  0  0  0  0  0  0
   18.8101    6.9592   32.1076 O   0  0  0  0  0  0  0  0  0  0  0  0
   20.3141    2.9968   32.1289 C   0  0  1  0  0  0  0  0  0  0  0  0
   18.1385    9.1592   32.0000 O   0  0  0  0  0  0  0  0  0  0  0  0
   19.0298    3.3212   32.9259 C   0  0  0  0  0  0  0  0  0  0  0  0
   20.4686   10.0248   29.3274 O   0  0  0  0  0  0  0  0  0  0  0  0
   18.9923    4.8565   33.1806 C   0  0  1  0  0  0  0  0  0  0  0  0
   18.8365    8.1869   27.9875 O   0  0  0  0  0  0  0  0  0  0  0  0
   18.8584    5.6046   31.8874 C   0  0  2  0  0  0  0  0  0  0  0  0
   17.7769    7.7320   31.5909 C   0  0  1  0  0  0  0  0  0  0  0  0
   19.4144    9.6405   31.3869 C   0  0  2  0  0  0  0  0  0  0  0  0
   19.7082   11.0933   31.8148 C   0  0  0  0  0  0  0  0  0  0  0  0
   19.2791    9.5912   29.8942 C   0  0  2  0  0  0  0  0  0  0  0  0
   18.9791    8.2005   29.4153 C   0  0  1  0  0  0  0  0  0  0  0  0
   17.7062    7.7396   30.0380 C   0  0  1  0  0  0  0  0  0  0  0  0
  5  4  1  6  0  0  0
  5  8  1  0  0  0  0
  5 16  1  0  0  0  0
  8  7  1  1  0  0  0
  8 10  1  0  0  0  0
 10  1  1  6  0  0  0
 10 12  1  0  0  0  0
 11 18  1  0  0  0  0
 12 14  1  0  0  0  0
 14  2  1  1  0  0  0
 14 16  1  0  0  0  0
 16  9  1  1  0  0  0
 17  9  1  6  0  0  0
 17 11  1  0  0  0  0
 17 22  1  0  0  0  0
 18 19  1  1  0  0  0
 18 20  1  0  0  0  0
 19  3  1  0  0  0  0
 20 13  1  6  0  0  0
 20 21  1  0  0  0  0
 21 15  1  6  0  0  0
 21 22  1  0  0  0  0
 22  6  1  6  0  0  0
M  END
>  <CHROM.1>
118.94086169,-177.22236963,166.25249368,19.34084549,6.75836702,31.07531240
-1.43192711,1.14180732,-0.33059349

>  <Name>
2et8_lig

>  <RI>
0

>  <Rbt.Current_Directory>
/home/itssahil/PROJECTS/Mol_Feturizer/New_Systems/rnas/2et8

>  <Rbt.Executable>
rbdock ($Id: //depot/dev/client3/rdock/2013.1/src/exe/rbdock.cxx#4 $)

>  <Rbt.Library>
libRbt.so (2013.1, Build901 2013/11/27)

>  <Rbt.Parameter_File>
/export/apps/rDock/src/rDock_2013.1_src/data/scripts/dock_solv.prm

>  <Rbt.Receptor>
prm/blind_docking_40.prm

>  <SCORE>
3.67481

>  <SCORE.INTER>
-8.5219

>  <SCORE.INTER.CONST>
1

>  <SCORE.INTER.POLAR>
-1.70966

>  <SCORE.INTER.ROT>
3

>  <SCORE.INTER.SOLV>
19.155

>  <SCORE.INTER.VDW>
-11.9674

>  <SCORE.INTER.norm>
-0.387359

>  <SCORE.INTRA>
3.94452

>  <SCORE.INTRA.DIHEDRAL>
2.86335

>  <SCORE.INTRA.DIHEDRAL.0>
4.99603

>  <SCORE.INTRA.POLAR>
0

>  <SCORE.INTRA.POLAR.0>
0

>  <SCORE.INTRA.REPUL>
0

>  <SCORE.INTRA.REPUL.0>
0

>  <SCORE.INTRA.SOLV>
3.59133

>  <SCORE.INTRA.SOLV.lig_0>
-74.884

>  <SCORE.INTRA.VDW>
0.717178

>  <SCORE.INTRA.VDW.0>
-0.858933

>  <SCORE.INTRA.norm>
0.179296

>  <SCORE.RESTR>
8.2522

>  <SCORE.RESTR.CAVITY>
8.2522

>  <SCORE.RESTR.norm>
0.3751

>  <SCORE.SYSTEM>
0

>  <SCORE.SYSTEM.CONST>
0

>  <SCORE.SYSTEM.DIHEDRAL>
0

>  <SCORE.SYSTEM.SOLV>
0

>  <SCORE.SYSTEM.norm>
0

>  <SCORE.heavy>
22

>  <SCORE.norm>
0.167037

>  <RMSD>
11.938

$$$$
2et8_lig
 OpenBabel11021811433D
libRbt.so/2013.1/901 2013/11/27
 22 23  0  0  0  0  0  0  0  0999 V2000
   18.3921    1.8299   32.6127 N   0  0  0  0  0  0  0  0  0  0  0  0
   16.5653    6.2782   31.3947 N   0  0  0  0  0  0  0  0  0  0  0  0
   19.4283   11.8375   32.6995 N   0  0  0  0  0  0  0  0  0  0  0  0
   21.4226    5.6094   31.6868 O   0  0  0  0  0  0  0  0  0  0  0  0
   20.1314    5.2653   32.2469 C   0  0  2  0  0  0  0  0  0  0  0  0
   18.3174    7.0723   28.7319 N   0  0  0  0  0  0  0  0  0  0  0  0
   20.9331    2.9828   32.8398 O   0  0  0  0  0  0  0  0  0  0  0  0
   19.9136    3.7077   32.1402 C   0  0  1  0  0  0  0  0  0  0  0  0
   19.2014    7.3450   31.5682 O   0  0  0  0  0  0  0  0  0  0  0  0
   18.5808    3.3164   32.7296 C   0  0  1  0  0  0  0  0  0  0  0  0
   18.7904    9.6102   31.5202 O   0  0  0  0  0  0  0  0  0  0  0  0
   17.4551    4.0692   31.9838 C   0  0  0  0  0  0  0  0  0  0  0  0
   21.7208   10.3757   29.4836 O   0  0  0  0  0  0  0  0  0  0  0  0
   17.7092    5.5973   32.1382 C   0  0  1  0  0  0  0  0  0  0  0  0
   20.2465    8.8322   27.6722 O   0  0  0  0  0  0  0  0  0  0  0  0
   18.9799    5.9951   31.4476 C   0  0  2  0  0  0  0  0  0  0  0  0
   18.3873    8.2648   30.9180 C   0  0  1  0  0  0  0  0  0  0  0  0
   20.2104    9.9801   31.2336 C   0  0  2  0  0  0  0  0  0  0  0  0
   20.5461   11.3574   31.8422 C   0  0  0  0  0  0  0  0  0  0  0  0
   20.3995   10.0461   29.7475 C   0  0  2  0  0  0  0  0  0  0  0  0
   20.0751    8.7344   29.0935 C   0  0  1  0  0  0  0  0  0  0  0  0
   18.6578    8.3838   29.3919 C   0  0  1  0  0  0  0  0  0  0  0  0
  5  4  1  6  0  0  0
  5  8  1  0  0  0  0
  5 16  1  0  0  0  0
  8  7  1  1  0  0  0
  8 10  1  0  0  0  0
 10  1  1  6  0  0  0
 10 12  1  0  0  0  0
 11 18  1  0  0  0  0
 12 14  1  0  0  0  0
 14  2  1  6  0  0  0
 14 16  1  0  0  0  0
 16  9  1  1  0  0  0
 17  9  1  1  0  0  0
 17 11  1  0  0  0  0
 17 22  1  0  0  0  0
 18 19  1  1  0  0  0
 18 20  1  0  0  0  0
 19  3  1  0  0  0  0
 20 13  1  1  0  0  0
 20 21  1  0  0  0  0
 21 15  1  6  0  0  0
 21 22  1  0  0  0  0
 22  6  1  6  0  0  0
M  END
>  <CHROM.1>
176.97501788,169.35891938,7.95344802,19.40775867,7.13249840,31.12972787,1.82860098
-0.90990583,3.05521189

>  <Name>
2et8_lig

>  <RI>
0

>  <Rbt.Current_Directory>
/home/itssahil/PROJECTS/Mol_Feturizer/New_Systems/rnas/2et8

>  <Rbt.Executable>
rbdock ($Id: //depot/dev/client3/rdock/2013.1/src/exe/rbdock.cxx#4 $)

>  <Rbt.Library>
libRbt.so (2013.1, Build901 2013/11/27)

>  <Rbt.Parameter_File>
/export/apps/rDock/src/rDock_2013.1_src/data/scripts/dock_solv.prm

>  <Rbt.Receptor>
prm/blind_docking_40.prm

>  <SCORE>
10.3864

>  <SCORE.INTER>
1.14652

>  <SCORE.INTER.CONST>
1

>  <SCORE.INTER.POLAR>
-0.87178

>  <SCORE.INTER.ROT>
3

>  <SCORE.INTER.SOLV>
15.2322

>  <SCORE.INTER.VDW>
-7.00711

>  <SCORE.INTER.norm>
0.0521145

>  <SCORE.INTRA>
2.15037

>  <SCORE.INTRA.DIHEDRAL>
0.825751

>  <SCORE.INTRA.DIHEDRAL.0>
4.99603

>  <SCORE.INTRA.POLAR>
0

>  <SCORE.INTRA.POLAR.0>
0

>  <SCORE.INTRA.REPUL>
0

>  <SCORE.INTRA.REPUL.0>
0

>  <SCORE.INTRA.SOLV>
3.19127

>  <SCORE.INTRA.SOLV.lig_0>
-74.884

>  <SCORE.INTRA.VDW>
0.141863

>  <SCORE.INTRA.VDW.0>
-0.858933

>  <SCORE.INTRA.norm>
0.0977442

>  <SCORE.RESTR>
7.08953

>  <SCORE.RESTR.CAVITY>
7.08953

>  <SCORE.RESTR.norm>
0.322251

>  <SCORE.SYSTEM>
0

>  <SCORE.SYSTEM.CONST>
0

>  <SCORE.SYSTEM.DIHEDRAL>
0

>  <SCORE.SYSTEM.SOLV>
0

>  <SCORE.SYSTEM.norm>
0

>  <SCORE.heavy>
22

>  <SCORE.norm>
0.47211

>  <RMSD>
11.987

$$$$
2et8_lig
 OpenBabel11021811433D
libRbt.so/2013.1/901 2013/11/27
 22 23  0  0  0  0  0  0  0  0999 V2000
   18.1238    1.9917   32.0166 N   0  0  0  0  0  0  0  0  0  0  0  0
   16.3922    6.5759   31.2454 N   0  0  0  0  0  0  0  0  0  0  0  0
   20.4311   12.4782   30.9134 N   0  0  0  0  0  0  0  0  0  0  0  0
   21.2179    5.8248   31.7703 O   0  0  0  0  0  0  0  0  0  0  0  0
   19.8915    5.4273   32.1970 C   0  0  2  0  0  0  0  0  0  0  0  0
   17.9025    7.3206   28.9673 N   0  0  0  0  0  0  0  0  0  0  0  0
   20.6467    3.0806   32.5521 O   0  0  0  0  0  0  0  0  0  0  0  0
   19.6777    3.8974   31.8829 C   0  0  1  0  0  0  0  0  0  0  0  0
   19.0135    7.5850   31.7233 O   0  0  0  0  0  0  0  0  0  0  0  0
   18.3077    3.4501   32.3300 C   0  0  1  0  0  0  0  0  0  0  0  0
   18.9679    9.8817   31.5643 O   0  0  0  0  0  0  0  0  0  0  0  0
   17.2359    4.3016   31.6116 C   0  0  0  0  0  0  0  0  0  0  0  0
   21.8345   10.0556   29.3119 O   0  0  0  0  0  0  0  0  0  0  0  0
   17.4826    5.7958   31.9717 C   0  0  1  0  0  0  0  0  0  0  0  0
   20.0100    8.6865   27.6889 O   0  0  0  0  0  0  0  0  0  0  0  0
   18.7974    6.2629   31.4211 C   0  0  2  0  0  0  0  0  0  0  0  0
   18.3139    8.5923   31.0695 C   0  0  1  0  0  0  0  0  0  0  0  0
   20.4055    9.9996   31.1706 C   0  0  2  0  0  0  0  0  0  0  0  0
   20.9987   11.3319   31.6739 C   0  0  0  0  0  0  0  0  0  0  0  0
   20.4991    9.9602   29.6745 C   0  0  2  0  0  0  0  0  0  0  0  0
   19.9242    8.6885   29.1213 C   0  0  1  0  0  0  0  0  0  0  0  0
   18.4934    8.5897   29.5254 C   0  0  1  0  0  0  0  0  0  0  0  0
  5  4  1  6  0  0  0
  5  8  1  0  0  0  0
  5 16  1  0  0  0  0
  8  7  1  1  0  0  0
  8 10  1  0  0  0  0
 10  1  1  6  0  0  0
 10 12  1  0  0  0  0
 11 18  1  0  0  0  0
 12 14  1  0  0  0  0
 14  2  1  6  0  0  0
 14 16  1  0  0  0  0
 16  9  1  1  0  0  0
 17  9  1  1  0  0  0
 17 11  1  0  0  0  0
 17 22  1  0  0  0  0
 18 19  1  6  0  0  0
 18 20  1  0  0  0  0
 19  3  1  0  0  0  0
 20 13  1  1  0  0  0
 20 21  1  0  0  0  0
 21 15  1  6  0  0  0
 21 22  1  0  0  0  0
 22  6  1  1  0  0  0
M  END
>  <CHROM.1>
172.24653973,-173.13908386,-70.31217347,19.34020399,7.27882483,30.96305488
1.81182619,0.27409203,2.80386565

>  <Name>
2et8_lig

>  <RI>
0

>  <Rbt.Current_Directory>
/home/itssahil/PROJECTS/Mol_Feturizer/New_Systems/rnas/2et8

>  <Rbt.Executable>
rbdock ($Id: //depot/dev/client3/rdock/2013.1/src/exe/rbdock.cxx#4 $)

>  <Rbt.Library>
libRbt.so (2013.1, Build901 2013/11/27)

>  <Rbt.Parameter_File>
/export/apps/rDock/src/rDock_2013.1_src/data/scripts/dock_solv.prm

>  <Rbt.Receptor>
prm/blind_docking_40.prm

>  <SCORE>
2.63472

>  <SCORE.INTER>
-4.85193

>  <SCORE.INTER.CONST>
1

>  <SCORE.INTER.POLAR>
-0.87178

>  <SCORE.INTER.ROT>
3

>  <SCORE.INTER.SOLV>
14.5623

>  <SCORE.INTER.VDW>
-10.7828

>  <SCORE.INTER.norm>
-0.220542

>  <SCORE.INTRA>
0.889406

>  <SCORE.INTRA.DIHEDRAL>
-3.9192

>  <SCORE.INTRA.DIHEDRAL.0>
4.99603

>  <SCORE.INTRA.POLAR>
0

>  <SCORE.INTRA.POLAR.0>
0

>  <SCORE.INTRA.REPUL>
0

>  <SCORE.INTRA.REPUL.0>
0

>  <SCORE.INTRA.SOLV>
5.4509

>  <SCORE.INTRA.SOLV.lig_0>
-74.884

>  <SCORE.INTRA.VDW>
0.123556

>  <SCORE.INTRA.VDW.0>
-0.858933

>  <SCORE.INTRA.norm>
0.0404276

>  <SCORE.RESTR>
6.59725

>  <SCORE.RESTR.CAVITY>
6.59725

>  <SCORE.RESTR.norm>
0.299875

>  <SCORE.SYSTEM>
0

>  <SCORE.SYSTEM.CONST>
0

>  <SCORE.SYSTEM.DIHEDRAL>
0

>  <SCORE.SYSTEM.SOLV>
0

>  <SCORE.SYSTEM.norm>
0

>  <SCORE.heavy>
22

>  <SCORE.norm>
0.11976

>  <RMSD>
11.996

$$$$
2et8_lig
 OpenBabel11021811433D
libRbt.so/2013.1/901 2013/11/27
 22 23  0  0  0  0  0  0  0  0999 V2000
   18.5662    1.4475   31.9619 N   0  0  0  0  0  0  0  0  0  0  0  0
   21.8449    4.7671   30.2773 N   0  0  0  0  0  0  0  0  0  0  0  0
   16.0159    6.0718   31.0006 N   0  0  0  0  0  0  0  0  0  0  0  0
   18.4802    6.0994   33.5985 O   0  0  0  0  0  0  0  0  0  0  0  0
   18.7541    5.2819   32.4340 C   0  0  2  0  0  0  0  0  0  0  0  0
   21.8033    9.1378   30.4389 N   0  0  0  0  0  0  0  0  0  0  0  0
   17.1782    3.5237   33.2270 O   0  0  0  0  0  0  0  0  0  0  0  0
   18.5230    3.7647   32.7943 C   0  0  1  0  0  0  0  0  0  0  0  0
   20.4141    6.8011   31.6678 O   0  0  0  0  0  0  0  0  0  0  0  0
   18.7872    2.8881   31.5949 C   0  0  1  0  0  0  0  0  0  0  0  0
   18.6536    7.0256   30.2006 O   0  0  0  0  0  0  0  0  0  0  0  0
   20.2390    3.1114   31.1125 C   0  0  0  0  0  0  0  0  0  0  0  0
   17.2934    9.9796   31.8574 O   0  0  0  0  0  0  0  0  0  0  0  0
   20.4042    4.6170   30.7534 C   0  0  1  0  0  0  0  0  0  0  0  0
   19.7499   10.9918   30.9752 O   0  0  0  0  0  0  0  0  0  0  0  0
   20.2547    5.4725   31.9764 C   0  0  2  0  0  0  0  0  0  0  0  0
   20.1493    7.2756   30.3886 C   0  0  1  0  0  0  0  0  0  0  0  0
   17.8040    7.8007   31.1561 C   0  0  2  0  0  0  0  0  0  0  0  0
   16.3079    7.5274   30.8970 C   0  0  0  0  0  0  0  0  0  0  0  0
   18.0721    9.2631   30.9606 C   0  0  2  0  0  0  0  0  0  0  0  0
   19.5193    9.5915   31.1872 C   0  0  1  0  0  0  0  0  0  0  0  0
   20.3479    8.8089   30.2272 C   0  0  1  0  0  0  0  0  0  0  0  0
  5  4  1  1  0  0  0
  5  8  1  0  0  0  0
  5 16  1  0  0  0  0
  8  7  1  6  0  0  0
  8 10  1  0  0  0  0
 10  1  1  1  0  0  0
 10 12  1  0  0  0  0
 11 18  1  0  0  0  0
 12 14  1  0  0  0  0
 14  2  1  1  0  0  0
 14 16  1  0  0  0  0
 16  9  1  6  0  0  0
 17  9  1  1  0  0  0
 17 11  1  0  0  0  0
 17 22  1  0  0  0  0
 18 19  1  6  0  0  0
 18 20  1  0  0  0  0
 19  3  1  0  0  0  0
 20 13  1  1  0  0  0
 20 21  1  0  0  0  0
 21 15  1  6  0  0  0
 21 22  1  0  0  0  0
 22  6  1  1  0  0  0
M  END
>  <CHROM.1>
-88.34880159,63.58125856,57.18308583,19.02972975,6.45633691,31.41663264,1.62358614
-0.29120884,2.98726231

>  <Name>
2et8_lig

>  <RI>
0

>  <Rbt.Current_Directory>
/home/itssahil/PROJECTS/Mol_Feturizer/New_Systems/rnas/2et8

>  <Rbt.Executable>
rbdock ($Id: //depot/dev/client3/rdock/2013.1/src/exe/rbdock.cxx#4 $)

>  <Rbt.Library>
libRbt.so (2013.1, Build901 2013/11/27)

>  <Rbt.Parameter_File>
/export/apps/rDock/src/rDock_2013.1_src/data/scripts/dock_solv.prm

>  <Rbt.Receptor>
prm/blind_docking_40.prm

>  <SCORE>
4.03503

>  <SCORE.INTER>
-3.84782

>  <SCORE.INTER.CONST>
1

>  <SCORE.INTER.POLAR>
-2.04808

>  <SCORE.INTER.ROT>
3

>  <SCORE.INTER.SOLV>
20.4046

>  <SCORE.INTER.VDW>
-8.13981

>  <SCORE.INTER.norm>
-0.174901

>  <SCORE.INTRA>
1.8697

>  <SCORE.INTRA.DIHEDRAL>
-1.52236

>  <SCORE.INTRA.DIHEDRAL.0>
4.99603

>  <SCORE.INTRA.POLAR>
0

>  <SCORE.INTRA.POLAR.0>
0

>  <SCORE.INTRA.REPUL>
0

>  <SCORE.INTRA.REPUL.0>
0

>  <SCORE.INTRA.SOLV>
3.22493

>  <SCORE.INTRA.SOLV.lig_0>
-74.884

>  <SCORE.INTRA.VDW>
1.01841

>  <SCORE.INTRA.VDW.0>
-0.858933

>  <SCORE.INTRA.norm>
0.0849862

>  <SCORE.RESTR>
6.01315

>  <SCORE.RESTR.CAVITY>
6.01315

>  <SCORE.RESTR.norm>
0.273325

>  <SCORE.SYSTEM>
0

>  <SCORE.SYSTEM.CONST>
0

>  <SCORE.SYSTEM.DIHEDRAL>
0

>  <SCORE.SYSTEM.SOLV>
0

>  <SCORE.SYSTEM.norm>
0

>  <SCORE.heavy>
22

>  <SCORE.norm>
0.18341

>  <RMSD>
12.018

$$$$
2et8_lig
 OpenBabel11021811433D
libRbt.so/2013.1/901 2013/11/27
 22 23  0  0  0  0  0  0  0  0999 V2000
   19.4439    2.3825   34.2557 N   0  0  0  0  0  0  0  0  0  0  0  0
   21.6042    5.5764   31.1349 N   0  0  0  0  0  0  0  0  0  0  0  0
   19.8746   11.5931   31.7459 N   0  0  0  0  0  0  0  0  0  0  0  0
   16.8244    6.0097   32.1802 O   0  0  0  0  0  0  0  0  0  0  0  0
   17.9210    5.0906   31.9518 C   0  0  2  0  0  0  0  0  0  0  0  0
   17.2827    7.3773   28.2407 N   0  0  0  0  0  0  0  0  0  0  0  0
   16.9518    3.4470   33.5528 O   0  0  0  0  0  0  0  0  0  0  0  0
   18.1303    4.1977   33.2340 C   0  0  1  0  0  0  0  0  0  0  0  0
   19.0325    6.6518   30.5455 O   0  0  0  0  0  0  0  0  0  0  0  0
   19.2587    3.2188   33.0207 C   0  0  1  0  0  0  0  0  0  0  0  0
   18.8014    8.7625   31.4367 O   0  0  0  0  0  0  0  0  0  0  0  0
   20.5522    3.9987   32.6913 C   0  0  0  0  0  0  0  0  0  0  0  0
   20.9914   10.3374   28.9781 O   0  0  0  0  0  0  0  0  0  0  0  0
   20.2949    4.8451   31.4104 C   0  0  1  0  0  0  0  0  0  0  0  0
   18.9086    9.4840   27.3134 O   0  0  0  0  0  0  0  0  0  0  0  0
   19.2528    5.8926   31.6684 C   0  0  2  0  0  0  0  0  0  0  0  0
   18.1278    7.7068   30.5609 C   0  0  1  0  0  0  0  0  0  0  0  0
   20.0829    9.2731   30.8602 C   0  0  2  0  0  0  0  0  0  0  0  0
   20.6971   10.3533   31.7745 C   0  0  0  0  0  0  0  0  0  0  0  0
   19.7991    9.8769   29.5172 C   0  0  2  0  0  0  0  0  0  0  0  0
   19.1862    8.8747   28.5826 C   0  0  1  0  0  0  0  0  0  0  0  0
   17.9126    8.3778   29.1753 C   0  0  1  0  0  0  0  0  0  0  0  0
  5  4  1  1  0  0  0
  5  8  1  0  0  0  0
  5 16  1  0  0  0  0
  8  7  1  6  0  0  0
  8 10  1  0  0  0  0
 10  1  1  1  0  0  0
 10 12  1  0  0  0  0
 11 18  1  0  0  0  0
 12 14  1  0  0  0  0
 14  2  1  1  0  0  0
 14 16  1  0  0  0  0
 16  9  1  6  0  0  0
 17  9  1  6  0  0  0
 17 11  1  0  0  0  0
 17 22  1  0  0  0  0
 18 19  1  1  0  0  0
 18 20  1  0  0  0  0
 19  3  1  0  0  0  0
 20 13  1  6  0  0  0
 20 21  1  0  0  0  0
 21 15  1  6  0  0  0
 21 22  1  0  0  0  0
 22  6  1  6  0  0  0
M  END
>  <CHROM.1>
67.34741904,70.09828553,-69.58798595,19.11664397,6.99539029,31.07008652,-1.71389947
-0.61161389,-0.61051205

>  <Name>
2et8_lig

>  <RI>
0

>  <Rbt.Current_Directory>
/home/itssahil/PROJECTS/Mol_Feturizer/New_Systems/rnas/2et8

>  <Rbt.Executable>
rbdock ($Id: //depot/dev/client3/rdock/2013.1/src/exe/rbdock.cxx#4 $)

>  <Rbt.Library>
libRbt.so (2013.1, Build901 2013/11/27)

>  <Rbt.Parameter_File>
/export/apps/rDock/src/rDock_2013.1_src/data/scripts/dock_solv.prm

>  <Rbt.Receptor>
prm/blind_docking_40.prm

>  <SCORE>
4.59141

>  <SCORE.INTER>
-0.978434

>  <SCORE.INTER.CONST>
1

>  <SCORE.INTER.POLAR>
-0.775041

>  <SCORE.INTER.ROT>
3

>  <SCORE.INTER.SOLV>
18.1328

>  <SCORE.INTER.VDW>
-9.71308

>  <SCORE.INTER.norm>
-0.0444743

>  <SCORE.INTRA>
-1.04165

>  <SCORE.INTRA.DIHEDRAL>
-3.74179

>  <SCORE.INTRA.DIHEDRAL.0>
4.99603

>  <SCORE.INTRA.POLAR>
0

>  <SCORE.INTRA.POLAR.0>
0

>  <SCORE.INTRA.REPUL>
0

>  <SCORE.INTRA.REPUL.0>
0

>  <SCORE.INTRA.SOLV>
0.833404

>  <SCORE.INTRA.SOLV.lig_0>
-74.884

>  <SCORE.INTRA.VDW>
0.41254

>  <SCORE.INTRA.VDW.0>
-0.858933

>  <SCORE.INTRA.norm>
-0.0473479

>  <SCORE.RESTR>
6.6115

>  <SCORE.RESTR.CAVITY>
6.6115

>  <SCORE.RESTR.norm>
0.300523

>  <SCORE.SYSTEM>
0

>  <SCORE.SYSTEM.CONST>
0

>  <SCORE.SYSTEM.DIHEDRAL>
0

>  <SCORE.SYSTEM.SOLV>
0

>  <SCORE.SYSTEM.norm>
0

>  <SCORE.heavy>
22

>  <SCORE.norm>
0.208701

>  <RMSD>
12.044

$$$$
2et8_lig
 OpenBabel11021811433D
libRbt.so/2013.1/901 2013/11/27
 22 23  0  0  0  0  0  0  0  0999 V2000
   19.4354    2.4003   34.2791 N   0  0  0  0  0  0  0  0  0  0  0  0
   21.6036    5.5833   31.1526 N   0  0  0  0  0  0  0  0  0  0  0  0
   19.8753   11.5923   31.7311 N   0  0  0  0  0  0  0  0  0  0  0  0
   16.8161    6.0059   32.1662 O   0  0  0  0  0  0  0  0  0  0  0  0
   17.9172    5.0894   31.9500 C   0  0  2  0  0  0  0  0  0  0  0  0
   17.3028    7.3692   28.2200 N   0  0  0  0  0  0  0  0  0  0  0  0
   16.9440    3.4518   33.5548 O   0  0  0  0  0  0  0  0  0  0  0  0
   18.1218    4.2048   33.2387 C   0  0  1  0  0  0  0  0  0  0  0  0
   19.0318    6.6461   30.5412 O   0  0  0  0  0  0  0  0  0  0  0  0
   19.2549    3.2286   33.0381 C   0  0  1  0  0  0  0  0  0  0  0  0
   18.7957    8.7589   31.4261 O   0  0  0  0  0  0  0  0  0  0  0  0
   20.5476    4.0112   32.7119 C   0  0  0  0  0  0  0  0  0  0  0  0
   21.0087   10.3262   28.9833 O   0  0  0  0  0  0  0  0  0  0  0  0
   20.2952    4.8490   31.4245 C   0  0  1  0  0  0  0  0  0  0  0  0
   18.9392    9.4720   27.3025 O   0  0  0  0  0  0  0  0  0  0  0  0
   19.2479    5.8944   31.6699 C   0  0  2  0  0  0  0  0  0  0  0  0
   18.1283    7.7022   30.5467 C   0  0  1  0  0  0  0  0  0  0  0  0
   20.0827    9.2668   30.8596 C   0  0  2  0  0  0  0  0  0  0  0  0
   20.6905   10.3480   31.7771 C   0  0  0  0  0  0  0  0  0  0  0  0
   19.8113    9.8682   29.5130 C   0  0  2  0  0  0  0  0  0  0  0  0
   19.2052    8.8649   28.5752 C   0  0  1  0  0  0  0  0  0  0  0  0
   17.9258    8.3708   29.1580 C   0  0  1  0  0  0  0  0  0  0  0  0
  5  4  1  1  0  0  0
  5  8  1  0  0  0  0
  5 16  1  0  0  0  0
  8  7  1  6  0  0  0
  8 10  1  0  0  0  0
 10  1  1  1  0  0  0
 10 12  1  0  0  0  0
 11 18  1  0  0  0  0
 12 14  1  0  0  0  0
 14  2  1  1  0  0  0
 14 16  1  0  0  0  0
 16  9  1  6  0  0  0
 17  9  1  6  0  0  0
 17 11  1  0  0  0  0
 17 22  1  0  0  0  0
 18 19  1  1  0  0  0
 18 20  1  0  0  0  0
 19  3  1  0  0  0  0
 20 13  1  6  0  0  0
 20 21  1  0  0  0  0
 21 15  1  6  0  0  0
 21 22  1  0  0  0  0
 22  6  1  6  0  0  0
M  END
>  <CHROM.1>
67.67470250,69.67350890,-70.00569814,19.11898418,6.99417857,31.06938377,-1.71781428
-0.61749457,-0.61738345

>  <Name>
2et8_lig

>  <RI>
0

>  <Rbt.Current_Directory>
/home/itssahil/PROJECTS/Mol_Feturizer/New_Systems/rnas/2et8

>  <Rbt.Executable>
rbdock ($Id: //depot/dev/client3/rdock/2013.1/src/exe/rbdock.cxx#4 $)

>  <Rbt.Library>
libRbt.so (2013.1, Build901 2013/11/27)

>  <Rbt.Parameter_File>
/export/apps/rDock/src/rDock_2013.1_src/data/scripts/dock_solv.prm

>  <Rbt.Receptor>
prm/blind_docking_40.prm

>  <SCORE>
4.76991

>  <SCORE.INTER>
-0.747481

>  <SCORE.INTER.CONST>
1

>  <SCORE.INTER.POLAR>
-0.758286

>  <SCORE.INTER.ROT>
3

>  <SCORE.INTER.SOLV>
18.1902

>  <SCORE.INTER.VDW>
-9.6341

>  <SCORE.INTER.norm>
-0.0339764

>  <SCORE.INTRA>
-1.04948

>  <SCORE.INTRA.DIHEDRAL>
-3.72931

>  <SCORE.INTRA.DIHEDRAL.0>
4.99603

>  <SCORE.INTRA.POLAR>
0

>  <SCORE.INTRA.POLAR.0>
0

>  <SCORE.INTRA.REPUL>
0

>  <SCORE.INTRA.REPUL.0>
0

>  <SCORE.INTRA.SOLV>
0.837699

>  <SCORE.INTRA.SOLV.lig_0>
-74.884

>  <SCORE.INTRA.VDW>
0.396322

>  <SCORE.INTRA.VDW.0>
-0.858933

>  <SCORE.INTRA.norm>
-0.0477038

>  <SCORE.RESTR>
6.56687

>  <SCORE.RESTR.CAVITY>
6.56687

>  <SCORE.RESTR.norm>
0.298494

>  <SCORE.SYSTEM>
0

>  <SCORE.SYSTEM.CONST>
0

>  <SCORE.SYSTEM.DIHEDRAL>
0

>  <SCORE.SYSTEM.SOLV>
0

>  <SCORE.SYSTEM.norm>
0

>  <SCORE.heavy>
22

>  <SCORE.norm>
0.216814

>  <RMSD>
12.045

$$$$
2et8_lig
 OpenBabel11021811433D
libRbt.so/2013.1/901 2013/11/27
 22 23  0  0  0  0  0  0  0  0999 V2000
   19.1630    2.0726   34.0147 N   0  0  0  0  0  0  0  0  0  0  0  0
   16.4219    4.8400   30.9430 N   0  0  0  0  0  0  0  0  0  0  0  0
   21.1474   10.9783   31.1832 N   0  0  0  0  0  0  0  0  0  0  0  0
   21.2372    5.6984   31.3922 O   0  0  0  0  0  0  0  0  0  0  0  0
   20.0219    5.3089   32.0783 C   0  0  2  0  0  0  0  0  0  0  0  0
   15.9961    7.8392   30.5782 N   0  0  0  0  0  0  0  0  0  0  0  0
   21.3010    3.8383   33.6292 O   0  0  0  0  0  0  0  0  0  0  0  0
   20.2101    3.8727   32.7003 C   0  0  1  0  0  0  0  0  0  0  0  0
   18.6784    6.5337   30.5468 O   0  0  0  0  0  0  0  0  0  0  0  0
   18.9635    3.4448   33.4349 C   0  0  1  0  0  0  0  0  0  0  0  0
   19.6458    8.4085   31.4697 O   0  0  0  0  0  0  0  0  0  0  0  0
   17.7680    3.4541   32.4548 C   0  0  0  0  0  0  0  0  0  0  0  0
   19.4495   10.3596   28.3914 O   0  0  0  0  0  0  0  0  0  0  0  0
   17.6173    4.8960   31.8878 C   0  0  1  0  0  0  0  0  0  0  0  0
   16.7251   10.0052   28.9294 O   0  0  0  0  0  0  0  0  0  0  0  0
   18.8128    5.2677   31.0616 C   0  0  2  0  0  0  0  0  0  0  0  0
   18.3485    7.6078   31.3648 C   0  0  1  0  0  0  0  0  0  0  0  0
   20.1022    8.9617   30.1578 C   0  0  2  0  0  0  0  0  0  0  0  0
   21.3973    9.7811   30.3352 C   0  0  0  0  0  0  0  0  0  0  0  0
   19.0299    9.8585   29.6150 C   0  0  2  0  0  0  0  0  0  0  0  0
   17.7363    9.1194   29.4314 C   0  0  1  0  0  0  0  0  0  0  0  0
   17.2999    8.5757   30.7483 C   0  0  1  0  0  0  0  0  0  0  0  0
  5  4  1  6  0  0  0
  5  8  1  0  0  0  0
  5 16  1  0  0  0  0
  8  7  1  1  0  0  0
  8 10  1  0  0  0  0
 10  1  1  6  0  0  0
 10 12  1  0  0  0  0
 11 18  1  0  0  0  0
 12 14  1  0  0  0  0
 14  2  1  6  0  0  0
 14 16  1  0  0  0  0
 16  9  1  1  0  0  0
 17  9  1  6  0  0  0
 17 11  1  0  0  0  0
 17 22  1  0  0  0  0
 18 19  1  1  0  0  0
 18 20  1  0  0  0  0
 19  3  1  0  0  0  0
 20 13  1  6  0  0  0
 20 21  1  0  0  0  0
 21 15  1  1  0  0  0
 21 22  1  0  0  0  0
 22  6  1  6  0  0  0
M  END
>  <CHROM.1>
-63.36322607,107.40548380,-64.48584973,18.98364304,6.88008041,31.17789312
1.52089752,0.25785212,2.68169411

>  <Name>
2et8_lig

>  <RI>
0

>  <Rbt.Current_Directory>
/home/itssahil/PROJECTS/Mol_Feturizer/New_Systems/rnas/2et8

>  <Rbt.Executable>
rbdock ($Id: //depot/dev/client3/rdock/2013.1/src/exe/rbdock.cxx#4 $)

>  <Rbt.Library>
libRbt.so (2013.1, Build901 2013/11/27)

>  <Rbt.Parameter_File>
/export/apps/rDock/src/rDock_2013.1_src/data/scripts/dock_solv.prm

>  <Rbt.Receptor>
prm/blind_docking_40.prm

>  <SCORE>
7.09774

>  <SCORE.INTER>
-2.15816

>  <SCORE.INTER.CONST>
1

>  <SCORE.INTER.POLAR>
-0.87178

>  <SCORE.INTER.ROT>
3

>  <SCORE.INTER.SOLV>
17.3176

>  <SCORE.INTER.VDW>
-9.90537

>  <SCORE.INTER.norm>
-0.0980983

>  <SCORE.INTRA>
2.72479

>  <SCORE.INTRA.DIHEDRAL>
1.61879

>  <SCORE.INTRA.DIHEDRAL.0>
4.99603

>  <SCORE.INTRA.POLAR>
0

>  <SCORE.INTRA.POLAR.0>
0

>  <SCORE.INTRA.REPUL>
0

>  <SCORE.INTRA.REPUL.0>
0

>  <SCORE.INTRA.SOLV>
3.64409

>  <SCORE.INTRA.SOLV.lig_0>
-74.884

>  <SCORE.INTRA.VDW>
0.0933487

>  <SCORE.INTRA.VDW.0>
-0.858933

>  <SCORE.INTRA.norm>
0.123854

>  <SCORE.RESTR>
6.53112

>  <SCORE.RESTR.CAVITY>
6.53112

>  <SCORE.RESTR.norm>
0.296869

>  <SCORE.SYSTEM>
0

>  <SCORE.SYSTEM.CONST>
0

>  <SCORE.SYSTEM.DIHEDRAL>
0

>  <SCORE.SYSTEM.SOLV>
0

>  <SCORE.SYSTEM.norm>
0

>  <SCORE.heavy>
22

>  <SCORE.norm>
0.322625

>  <RMSD>
12.058

$$$$
2et8_lig
 OpenBabel11021811433D
libRbt.so/2013.1/901 2013/11/27
 22 23  0  0  0  0  0  0  0  0999 V2000
   20.1620    1.3628   31.9300 N   0  0  0  0  0  0  0  0  0  0  0  0
   18.0518    5.4209   33.8501 N   0  0  0  0  0  0  0  0  0  0  0  0
   19.5009   12.0147   31.1626 N   0  0  0  0  0  0  0  0  0  0  0  0
   20.4320    5.6804   29.5613 O   0  0  0  0  0  0  0  0  0  0  0  0
   20.4013    5.0773   30.8783 C   0  0  2  0  0  0  0  0  0  0  0  0
   17.9379    6.5042   29.1735 N   0  0  0  0  0  0  0  0  0  0  0  0
   21.3970    2.9702   29.9991 O   0  0  0  0  0  0  0  0  0  0  0  0
   20.2917    3.5113   30.7337 C   0  0  1  0  0  0  0  0  0  0  0  0
   19.2837    6.9639   31.7960 O   0  0  0  0  0  0  0  0  0  0  0  0
   20.2720    2.8530   32.0913 C   0  0  1  0  0  0  0  0  0  0  0  0
   18.7879    9.2107   31.7016 O   0  0  0  0  0  0  0  0  0  0  0  0
   19.0781    3.4029   32.9051 C   0  0  0  0  0  0  0  0  0  0  0  0
   21.2966    9.9362   29.1518 O   0  0  0  0  0  0  0  0  0  0  0  0
   19.2478    4.9451   33.0326 C   0  0  1  0  0  0  0  0  0  0  0  0
   19.5914    8.2514   27.7057 O   0  0  0  0  0  0  0  0  0  0  0  0
   19.1493    5.6016   31.6875 C   0  0  2  0  0  0  0  0  0  0  0  0
   18.3372    7.8223   31.2493 C   0  0  1  0  0  0  0  0  0  0  0  0
   20.1234    9.6016   31.1548 C   0  0  2  0  0  0  0  0  0  0  0  0
   20.5077   11.0204   31.6235 C   0  0  0  0  0  0  0  0  0  0  0  0
   20.0529    9.5868   29.6570 C   0  0  2  0  0  0  0  0  0  0  0  0
   19.6695    8.2312   29.1384 C   0  0  1  0  0  0  0  0  0  0  0  0
   18.3380    7.8602   29.6952 C   0  0  1  0  0  0  0  0  0  0  0  0
  5  4  1  6  0  0  0
  5  8  1  0  0  0  0
  5 16  1  0  0  0  0
  8  7  1  6  0  0  0
  8 10  1  0  0  0  0
 10  1  1  6  0  0  0
 10 12  1  0  0  0  0
 11 18  1  0  0  0  0
 12 14  1  0  0  0  0
 14  2  1  1  0  0  0
 14 16  1  0  0  0  0
 16  9  1  1  0  0  0
 17  9  1  6  0  0  0
 17 11  1  0  0  0  0
 17 22  1  0  0  0  0
 18 19  1  1  0  0  0
 18 20  1  0  0  0  0
 19  3  1  0  0  0  0
 20 13  1  6  0  0  0
 20 21  1  0  0  0  0
 21 15  1  6  0  0  0
 21 22  1  0  0  0  0
 22  6  1  6  0  0  0
M  END
>  <CHROM.1>
118.61597858,174.85820262,-59.84414993,19.65292856,6.74358597,30.86747375
-1.51881420,1.21101589,-0.26220488

>  <Name>
2et8_lig

>  <RI>
0

>  <Rbt.Current_Directory>
/home/itssahil/PROJECTS/Mol_Feturizer/New_Systems/rnas/2et8

>  <Rbt.Executable>
rbdock ($Id: //depot/dev/client3/rdock/2013.1/src/exe/rbdock.cxx#4 $)

>  <Rbt.Library>
libRbt.so (2013.1, Build901 2013/11/27)

>  <Rbt.Parameter_File>
/export/apps/rDock/src/rDock_2013.1_src/data/scripts/dock_solv.prm

>  <Rbt.Receptor>
prm/blind_docking_40.prm

>  <SCORE>
0.44606

>  <SCORE.INTER>
-11.5163

>  <SCORE.INTER.CONST>
1

>  <SCORE.INTER.POLAR>
-1.62158

>  <SCORE.INTER.ROT>
3

>  <SCORE.INTER.SOLV>
14.6509

>  <SCORE.INTER.VDW>
-12.7559

>  <SCORE.INTER.norm>
-0.523467

>  <SCORE.INTRA>
2.59128

>  <SCORE.INTRA.DIHEDRAL>
2.29697

>  <SCORE.INTRA.DIHEDRAL.0>
4.99603

>  <SCORE.INTRA.POLAR>
0

>  <SCORE.INTRA.POLAR.0>
0

>  <SCORE.INTRA.REPUL>
0

>  <SCORE.INTRA.REPUL.0>
0

>  <SCORE.INTRA.SOLV>
3.87647

>  <SCORE.INTRA.SOLV.lig_0>
-74.884

>  <SCORE.INTRA.VDW>
-0.495441

>  <SCORE.INTRA.VDW.0>
-0.858933

>  <SCORE.INTRA.norm>
0.117785

>  <SCORE.RESTR>
9.37106

>  <SCORE.RESTR.CAVITY>
9.37106

>  <SCORE.RESTR.norm>
0.425957

>  <SCORE.SYSTEM>
0

>  <SCORE.SYSTEM.CONST>
0

>  <SCORE.SYSTEM.DIHEDRAL>
0

>  <SCORE.SYSTEM.SOLV>
0

>  <SCORE.SYSTEM.norm>
0

>  <SCORE.heavy>
22

>  <SCORE.norm>
0.0202755

>  <RMSD>
12.085

$$$$
2et8_lig
 OpenBabel11021811433D
libRbt.so/2013.1/901 2013/11/27
 22 23  0  0  0  0  0  0  0  0999 V2000
   18.6636    1.7637   33.2583 N   0  0  0  0  0  0  0  0  0  0  0  0
   16.6386    5.9840   31.6163 N   0  0  0  0  0  0  0  0  0  0  0  0
   19.7903   11.2644   33.0167 N   0  0  0  0  0  0  0  0  0  0  0  0
   21.5163    5.4092   31.5557 O   0  0  0  0  0  0  0  0  0  0  0  0
   20.2875    5.1329   32.2720 C   0  0  2  0  0  0  0  0  0  0  0  0
   18.4537    6.6522   28.5635 N   0  0  0  0  0  0  0  0  0  0  0  0
   21.1887    2.9617   33.0952 O   0  0  0  0  0  0  0  0  0  0  0  0
   20.0957    3.5733   32.3987 C   0  0  1  0  0  0  0  0  0  0  0  0
   19.2555    7.0902   31.4034 O   0  0  0  0  0  0  0  0  0  0  0  0
   18.8291    3.2539   33.1541 C   0  0  1  0  0  0  0  0  0  0  0  0
   18.6183    9.2998   31.2843 O   0  0  0  0  0  0  0  0  0  0  0  0
   17.6255    3.8859   32.4177 C   0  0  0  0  0  0  0  0  0  0  0  0
   21.4916   10.3035   29.2698 O   0  0  0  0  0  0  0  0  0  0  0  0
   17.8585    5.4231   32.3389 C   0  0  1  0  0  0  0  0  0  0  0  0
   20.2131    8.5696   27.4820 O   0  0  0  0  0  0  0  0  0  0  0  0
   19.0541    5.7345   31.4884 C   0  0  2  0  0  0  0  0  0  0  0  0
   18.3641    7.9046   30.7152 C   0  0  1  0  0  0  0  0  0  0  0  0
   19.9985    9.8041   31.0080 C   0  0  2  0  0  0  0  0  0  0  0  0
   20.1823   11.2245   31.5817 C   0  0  0  0  0  0  0  0  0  0  0  0
   20.2060    9.8487   29.5235 C   0  0  2  0  0  0  0  0  0  0  0  0
   20.0275    8.4935   28.9029 C   0  0  1  0  0  0  0  0  0  0  0  0
   18.6480    8.0089   29.1904 C   0  0  1  0  0  0  0  0  0  0  0  0
  5  4  1  6  0  0  0
  5  8  1  0  0  0  0
  5 16  1  0  0  0  0
  8  7  1  1  0  0  0
  8 10  1  0  0  0  0
 10  1  1  6  0  0  0
 10 12  1  0  0  0  0
 11 18  1  0  0  0  0
 12 14  1  0  0  0  0
 14  2  1  6  0  0  0
 14 16  1  0  0  0  0
 16  9  1  1  0  0  0
 17  9  1  1  0  0  0
 17 11  1  0  0  0  0
 17 22  1  0  0  0  0
 18 19  1  6  0  0  0
 18 20  1  0  0  0  0
 19  3  1  0  0  0  0
 20 13  1  1  0  0  0
 20 21  1  0  0  0  0
 21 15  1  6  0  0  0
 21 22  1  0  0  0  0
 22  6  1  6  0  0  0
M  END
>  <CHROM.1>
177.24467428,159.21006578,52.27915590,19.44905743,6.91058624,31.14437191
-2.84593450,-1.45073473,-1.66184455

>  <Name>
2et8_lig

>  <RI>
0

>  <Rbt.Current_Directory>
/home/itssahil/PROJECTS/Mol_Feturizer/New_Systems/rnas/2et8

>  <Rbt.Executable>
rbdock ($Id: //depot/dev/client3/rdock/2013.1/src/exe/rbdock.cxx#4 $)

>  <Rbt.Library>
libRbt.so (2013.1, Build901 2013/11/27)

>  <Rbt.Parameter_File>
/export/apps/rDock/src/rDock_2013.1_src/data/scripts/dock_solv.prm

>  <Rbt.Receptor>
prm/blind_docking_40.prm

>  <SCORE>
11.1473

>  <SCORE.INTER>
4.37955

>  <SCORE.INTER.CONST>
1

>  <SCORE.INTER.POLAR>
-1.76575

>  <SCORE.INTER.ROT>
3

>  <SCORE.INTER.SOLV>
19.0461

>  <SCORE.INTER.VDW>
-3.14318

>  <SCORE.INTER.norm>
0.199071

>  <SCORE.INTRA>
-0.461018

>  <SCORE.INTRA.DIHEDRAL>
-2.66812

>  <SCORE.INTRA.DIHEDRAL.0>
4.99603

>  <SCORE.INTRA.POLAR>
0

>  <SCORE.INTRA.POLAR.0>
0

>  <SCORE.INTRA.REPUL>
0

>  <SCORE.INTRA.REPUL.0>
0

>  <SCORE.INTRA.SOLV>
1.91823

>  <SCORE.INTRA.SOLV.lig_0>
-74.884

>  <SCORE.INTRA.VDW>
-0.0860742

>  <SCORE.INTRA.VDW.0>
-0.858933

>  <SCORE.INTRA.norm>
-0.0209554

>  <SCORE.RESTR>
7.22874

>  <SCORE.RESTR.CAVITY>
7.22874

>  <SCORE.RESTR.norm>
0.328579

>  <SCORE.SYSTEM>
0

>  <SCORE.SYSTEM.CONST>
0

>  <SCORE.SYSTEM.DIHEDRAL>
0

>  <SCORE.SYSTEM.SOLV>
0

>  <SCORE.SYSTEM.norm>
0

>  <SCORE.heavy>
22

>  <SCORE.norm>
0.506694

>  <RMSD>
12.106

$$$$
2et8_lig
 OpenBabel11021811433D
libRbt.so/2013.1/901 2013/11/27
 22 23  0  0  0  0  0  0  0  0999 V2000
   19.4305    2.1277   33.9866 N   0  0  0  0  0  0  0  0  0  0  0  0
   21.5010    4.7778   30.3400 N   0  0  0  0  0  0  0  0  0  0  0  0
   19.7321   11.4027   31.9582 N   0  0  0  0  0  0  0  0  0  0  0  0
   17.4374    6.4095   32.5650 O   0  0  0  0  0  0  0  0  0  0  0  0
   18.1538    5.2449   32.0855 C   0  0  2  0  0  0  0  0  0  0  0  0
   17.3755    7.2651   28.2038 N   0  0  0  0  0  0  0  0  0  0  0  0
   17.2195    3.8438   33.9207 O   0  0  0  0  0  0  0  0  0  0  0  0
   18.4349    4.2704   33.2923 C   0  0  1  0  0  0  0  0  0  0  0  0
   19.2476    6.5201   30.4038 O   0  0  0  0  0  0  0  0  0  0  0  0
   19.1686    3.0392   32.8205 C   0  0  1  0  0  0  0  0  0  0  0  0
   18.8841    8.5387   31.4505 O   0  0  0  0  0  0  0  0  0  0  0  0
   20.4961    3.4641   32.1517 C   0  0  0  0  0  0  0  0  0  0  0  0
   20.8684   10.4485   29.0554 O   0  0  0  0  0  0  0  0  0  0  0  0
   20.1582    4.4063   30.9595 C   0  0  1  0  0  0  0  0  0  0  0  0
   18.8053    9.5525   27.3886 O   0  0  0  0  0  0  0  0  0  0  0  0
   19.5343    5.6788   31.4507 C   0  0  2  0  0  0  0  0  0  0  0  0
   18.2659    7.4971   30.5189 C   0  0  1  0  0  0  0  0  0  0  0  0
   20.1040    9.1874   30.8790 C   0  0  2  0  0  0  0  0  0  0  0  0
   20.6625   10.2460   31.8524 C   0  0  0  0  0  0  0  0  0  0  0  0
   19.7325    9.8593   29.5908 C   0  0  2  0  0  0  0  0  0  0  0  0
   19.1688    8.8798   28.6028 C   0  0  1  0  0  0  0  0  0  0  0  0
   17.9562    8.2443   29.1913 C   0  0  1  0  0  0  0  0  0  0  0  0
  5  4  1  1  0  0  0
  5  8  1  0  0  0  0
  5 16  1  0  0  0  0
  8  7  1  6  0  0  0
  8 10  1  0  0  0  0
 10  1  1  1  0  0  0
 10 12  1  0  0  0  0
 11 18  1  0  0  0  0
 12 14  1  0  0  0  0
 14  2  1  1  0  0  0
 14 16  1  0  0  0  0
 16  9  1  6  0  0  0
 17  9  1  6  0  0  0
 17 11  1  0  0  0  0
 17 22  1  0  0  0  0
 18 19  1  1  0  0  0
 18 20  1  0  0  0  0
 19  3  1  0  0  0  0
 20 13  1  6  0  0  0
 20 21  1  0  0  0  0
 21 15  1  6  0  0  0
 21 22  1  0  0  0  0
 22  6  1  6  0  0  0
M  END
>  <CHROM.1>
42.15488370,71.97510262,-68.31118203,19.18396078,6.89325732,31.02441863,-2.29610497
-1.45485446,-1.22004905

>  <Name>
2et8_lig

>  <RI>
0

>  <Rbt.Current_Directory>
/home/itssahil/PROJECTS/Mol_Feturizer/New_Systems/rnas/2et8

>  <Rbt.Executable>
rbdock ($Id: //depot/dev/client3/rdock/2013.1/src/exe/rbdock.cxx#4 $)

>  <Rbt.Library>
libRbt.so (2013.1, Build901 2013/11/27)

>  <Rbt.Parameter_File>
/export/apps/rDock/src/rDock_2013.1_src/data/scripts/dock_solv.prm

>  <Rbt.Receptor>
prm/blind_docking_40.prm

>  <SCORE>
4.40069

>  <SCORE.INTER>
-6.02297

>  <SCORE.INTER.CONST>
1

>  <SCORE.INTER.POLAR>
-1.94222

>  <SCORE.INTER.ROT>
3

>  <SCORE.INTER.SOLV>
16.921

>  <SCORE.INTER.VDW>
-8.78158

>  <SCORE.INTER.norm>
-0.273771

>  <SCORE.INTRA>
2.73334

>  <SCORE.INTRA.DIHEDRAL>
-2.47186

>  <SCORE.INTRA.DIHEDRAL.0>
4.99603

>  <SCORE.INTRA.POLAR>
0

>  <SCORE.INTRA.POLAR.0>
0

>  <SCORE.INTRA.REPUL>
0

>  <SCORE.INTRA.REPUL.0>
0

>  <SCORE.INTRA.SOLV>
0.424518

>  <SCORE.INTRA.SOLV.lig_0>
-74.884

>  <SCORE.INTRA.VDW>
3.75701

>  <SCORE.INTRA.VDW.0>
-0.858933

>  <SCORE.INTRA.norm>
0.124243

>  <SCORE.RESTR>
7.69032

>  <SCORE.RESTR.CAVITY>
7.69032

>  <SCORE.RESTR.norm>
0.34956

>  <SCORE.SYSTEM>
0

>  <SCORE.SYSTEM.CONST>
0

>  <SCORE.SYSTEM.DIHEDRAL>
0

>  <SCORE.SYSTEM.SOLV>
0

>  <SCORE.SYSTEM.norm>
0

>  <SCORE.heavy>
22

>  <SCORE.norm>
0.200031

>  <RMSD>
12.128

$$$$
2et8_lig
 OpenBabel11021811433D
libRbt.so/2013.1/901 2013/11/27
 22 23  0  0  0  0  0  0  0  0999 V2000
   18.9319    1.3313   32.7040 N   0  0  0  0  0  0  0  0  0  0  0  0
   21.3652    4.8132   30.1421 N   0  0  0  0  0  0  0  0  0  0  0  0
   19.8828   11.7231   32.6058 N   0  0  0  0  0  0  0  0  0  0  0  0
   18.3299    6.1067   33.7808 O   0  0  0  0  0  0  0  0  0  0  0  0
   18.5655    5.1818   32.6906 C   0  0  2  0  0  0  0  0  0  0  0  0
   19.4519    6.4742   28.5566 N   0  0  0  0  0  0  0  0  0  0  0  0
   17.4196    3.3465   33.9245 O   0  0  0  0  0  0  0  0  0  0  0  0
   18.6341    3.7124   33.2572 C   0  0  1  0  0  0  0  0  0  0  0  0
   19.8356    6.7984   31.4973 O   0  0  0  0  0  0  0  0  0  0  0  0
   18.8648    2.7233   32.1412 C   0  0  1  0  0  0  0  0  0  0  0  0
   18.2606    8.4772   31.5579 O   0  0  0  0  0  0  0  0  0  0  0  0
   20.1795    3.0799   31.4103 C   0  0  0  0  0  0  0  0  0  0  0  0
   20.4383   10.9503   29.9886 O   0  0  0  0  0  0  0  0  0  0  0  0
   20.0486    4.5290   30.8567 C   0  0  1  0  0  0  0  0  0  0  0  0
   20.1801    9.1140   27.8914 O   0  0  0  0  0  0  0  0  0  0  0  0
   19.9366    5.5168   31.9799 C   0  0  2  0  0  0  0  0  0  0  0  0
   18.7013    7.2181   30.8125 C   0  0  1  0  0  0  0  0  0  0  0  0
   19.2656    9.5821   31.4896 C   0  0  2  0  0  0  0  0  0  0  0  0
   18.7508   10.8311   32.2347 C   0  0  0  0  0  0  0  0  0  0  0  0
   19.4954    9.9348   30.0504 C   0  0  2  0  0  0  0  0  0  0  0  0
   19.9871    8.7527   29.2667 C   0  0  1  0  0  0  0  0  0  0  0  0
   18.9732    7.6638   29.3483 C   0  0  1  0  0  0  0  0  0  0  0  0
  5  4  1  1  0  0  0
  5  8  1  0  0  0  0
  5 16  1  0  0  0  0
  8  7  1  6  0  0  0
  8 10  1  0  0  0  0
 10  1  1  1  0  0  0
 10 12  1  0  0  0  0
 11 18  1  0  0  0  0
 12 14  1  0  0  0  0
 14  2  1  1  0  0  0
 14 16  1  0  0  0  0
 16  9  1  6  0  0  0
 17  9  1  1  0  0  0
 17 11  1  0  0  0  0
 17 22  1  0  0  0  0
 18 19  1  1  0  0  0
 18 20  1  0  0  0  0
 19  3  1  0  0  0  0
 20 13  1  1  0  0  0
 20 21  1  0  0  0  0
 21 15  1  6  0  0  0
 21 22  1  0  0  0  0
 22  6  1  6  0  0  0
M  END
>  <CHROM.1>
-45.66164350,126.39242588,159.18974364,19.33368176,6.75728889,31.29035989
-1.82834599,1.17296218,-0.06114798

>  <Name>
2et8_lig

>  <RI>
0

>  <Rbt.Current_Directory>
/home/itssahil/PROJECTS/Mol_Feturizer/New_Systems/rnas/2et8

>  <Rbt.Executable>
rbdock ($Id: //depot/dev/client3/rdock/2013.1/src/exe/rbdock.cxx#4 $)

>  <Rbt.Library>
libRbt.so (2013.1, Build901 2013/11/27)

>  <Rbt.Parameter_File>
/export/apps/rDock/src/rDock_2013.1_src/data/scripts/dock_solv.prm

>  <Rbt.Receptor>
prm/blind_docking_40.prm

>  <SCORE>
2.80163

>  <SCORE.INTER>
-10.3867

>  <SCORE.INTER.CONST>
1

>  <SCORE.INTER.POLAR>
-2.44091

>  <SCORE.INTER.ROT>
3

>  <SCORE.INTER.SOLV>
16.8901

>  <SCORE.INTER.VDW>
-10.0181

>  <SCORE.INTER.norm>
-0.472122

>  <SCORE.INTRA>
4.52037

>  <SCORE.INTRA.DIHEDRAL>
4.38783

>  <SCORE.INTRA.DIHEDRAL.0>
4.99603

>  <SCORE.INTRA.POLAR>
0

>  <SCORE.INTRA.POLAR.0>
0

>  <SCORE.INTRA.REPUL>
0

>  <SCORE.INTRA.REPUL.0>
0

>  <SCORE.INTRA.SOLV>
3.63095

>  <SCORE.INTRA.SOLV.lig_0>
-74.884

>  <SCORE.INTRA.VDW>
0.510977

>  <SCORE.INTRA.VDW.0>
-0.858933

>  <SCORE.INTRA.norm>
0.205471

>  <SCORE.RESTR>
8.66794

>  <SCORE.RESTR.CAVITY>
8.66794

>  <SCORE.RESTR.norm>
0.393997

>  <SCORE.SYSTEM>
0

>  <SCORE.SYSTEM.CONST>
0

>  <SCORE.SYSTEM.DIHEDRAL>
0

>  <SCORE.SYSTEM.SOLV>
0

>  <SCORE.SYSTEM.norm>
0

>  <SCORE.heavy>
22

>  <SCORE.norm>
0.127347

>  <RMSD>
12.136

$$$$
2et8_lig
 OpenBabel11021811433D
libRbt.so/2013.1/901 2013/11/27
 22 23  0  0  0  0  0  0  0  0999 V2000
   18.9276    1.3041   32.6248 N   0  0  0  0  0  0  0  0  0  0  0  0
   21.3420    4.8492   30.1327 N   0  0  0  0  0  0  0  0  0  0  0  0
   19.9478   11.7288   32.5623 N   0  0  0  0  0  0  0  0  0  0  0  0
   18.3037    6.0535   33.7994 O   0  0  0  0  0  0  0  0  0  0  0  0
   18.5428    5.1523   32.6904 C   0  0  2  0  0  0  0  0  0  0  0  0
   19.3923    6.4199   28.5991 N   0  0  0  0  0  0  0  0  0  0  0  0
   17.4068    3.2866   33.8874 O   0  0  0  0  0  0  0  0  0  0  0  0
   18.6189    3.6719   33.2268 C   0  0  1  0  0  0  0  0  0  0  0  0
   19.8041    6.7990   31.5294 O   0  0  0  0  0  0  0  0  0  0  0  0
   18.8534    2.7070   32.0907 C   0  0  1  0  0  0  0  0  0  0  0  0
   18.2590    8.5060   31.5661 O   0  0  0  0  0  0  0  0  0  0  0  0
   20.1658    3.0848   31.3661 C   0  0  0  0  0  0  0  0  0  0  0  0
   20.4671   10.9072   29.9291 O   0  0  0  0  0  0  0  0  0  0  0  0
   20.0274    4.5442   30.8424 C   0  0  1  0  0  0  0  0  0  0  0  0
   20.1611    9.0321   27.8730 O   0  0  0  0  0  0  0  0  0  0  0  0
   19.9117    5.5083   31.9856 C   0  0  2  0  0  0  0  0  0  0  0  0
   18.6720    7.2240   30.8442 C   0  0  1  0  0  0  0  0  0  0  0  0
   19.2824    9.5914   31.4672 C   0  0  2  0  0  0  0  0  0  0  0  0
   18.7950   10.8646   32.1895 C   0  0  0  0  0  0  0  0  0  0  0  0
   19.5073    9.9099   30.0191 C   0  0  2  0  0  0  0  0  0  0  0  0
   19.9724    8.7031   29.2570 C   0  0  1  0  0  0  0  0  0  0  0  0
   18.9404    7.6341   29.3690 C   0  0  1  0  0  0  0  0  0  0  0  0
  5  4  1  1  0  0  0
  5  8  1  0  0  0  0
  5 16  1  0  0  0  0
  8  7  1  6  0  0  0
  8 10  1  0  0  0  0
 10  1  1  1  0  0  0
 10 12  1  0  0  0  0
 11 18  1  0  0  0  0
 12 14  1  0  0  0  0
 14  2  1  1  0  0  0
 14 16  1  0  0  0  0
 16  9  1  6  0  0  0
 17  9  1  1  0  0  0
 17 11  1  0  0  0  0
 17 22  1  0  0  0  0
 18 19  1  1  0  0  0
 18 20  1  0  0  0  0
 19  3  1  0  0  0  0
 20 13  1  1  0  0  0
 20 21  1  0  0  0  0
 21 15  1  6  0  0  0
 21 22  1  0  0  0  0
 22  6  1  6  0  0  0
M  END
>  <CHROM.1>
-46.21651176,129.35913841,157.83512859,19.32482592,6.73940736,31.27513899
-1.84489974,1.17728553,-0.04165362

>  <Name>
2et8_lig

>  <RI>
0

>  <Rbt.Current_Directory>
/home/itssahil/PROJECTS/Mol_Feturizer/New_Systems/rnas/2et8

>  <Rbt.Executable>
rbdock ($Id: //depot/dev/client3/rdock/2013.1/src/exe/rbdock.cxx#4 $)

>  <Rbt.Library>
libRbt.so (2013.1, Build901 2013/11/27)

>  <Rbt.Parameter_File>
/export/apps/rDock/src/rDock_2013.1_src/data/scripts/dock_solv.prm

>  <Rbt.Receptor>
prm/blind_docking_40.prm

>  <SCORE>
2.07232

>  <SCORE.INTER>
-11.3856

>  <SCORE.INTER.CONST>
1

>  <SCORE.INTER.POLAR>
-2.5268

>  <SCORE.INTER.ROT>
3

>  <SCORE.INTER.SOLV>
16.7595

>  <SCORE.INTER.VDW>
-10.3542

>  <SCORE.INTER.norm>
-0.517527

>  <SCORE.INTRA>
4.58621

>  <SCORE.INTRA.DIHEDRAL>
4.26984

>  <SCORE.INTRA.DIHEDRAL.0>
4.99603

>  <SCORE.INTRA.POLAR>
0

>  <SCORE.INTRA.POLAR.0>
0

>  <SCORE.INTRA.REPUL>
0

>  <SCORE.INTRA.REPUL.0>
0

>  <SCORE.INTRA.SOLV>
3.86162

>  <SCORE.INTRA.SOLV.lig_0>
-74.884

>  <SCORE.INTRA.VDW>
0.520481

>  <SCORE.INTRA.VDW.0>
-0.858933

>  <SCORE.INTRA.norm>
0.208464

>  <SCORE.RESTR>
8.8717

>  <SCORE.RESTR.CAVITY>
8.8717

>  <SCORE.RESTR.norm>
0.403259

>  <SCORE.SYSTEM>
0

>  <SCORE.SYSTEM.CONST>
0

>  <SCORE.SYSTEM.DIHEDRAL>
0

>  <SCORE.SYSTEM.SOLV>
0

>  <SCORE.SYSTEM.norm>
0

>  <SCORE.heavy>
22

>  <SCORE.norm>
0.0941963

>  <RMSD>
12.159

$$$$
2et8_lig
 OpenBabel11021811433D
libRbt.so/2013.1/901 2013/11/27
 22 23  0  0  0  0  0  0  0  0999 V2000
   18.9035    1.3899   32.6804 N   0  0  0  0  0  0  0  0  0  0  0  0
   17.1141    6.0133   32.8537 N   0  0  0  0  0  0  0  0  0  0  0  0
   19.9539   11.9404   31.3254 N   0  0  0  0  0  0  0  0  0  0  0  0
   21.0478    4.9997   30.0923 O   0  0  0  0  0  0  0  0  0  0  0  0
   20.3471    4.7137   31.3279 C   0  0  2  0  0  0  0  0  0  0  0  0
   17.8201    6.8424   28.8294 N   0  0  0  0  0  0  0  0  0  0  0  0
   21.1392    2.3524   31.2973 O   0  0  0  0  0  0  0  0  0  0  0  0
   19.9737    3.1829   31.3750 C   0  0  1  0  0  0  0  0  0  0  0  0
   19.3840    6.8865   31.3695 O   0  0  0  0  0  0  0  0  0  0  0  0
   19.2542    2.8512   32.6591 C   0  0  1  0  0  0  0  0  0  0  0  0
   19.0689    9.1587   31.5706 O   0  0  0  0  0  0  0  0  0  0  0  0
   17.9795    3.7194   32.7659 C   0  0  0  0  0  0  0  0  0  0  0  0
   21.4390    9.9974   28.9248 O   0  0  0  0  0  0  0  0  0  0  0  0
   18.4081    5.2156   32.7340 C   0  0  1  0  0  0  0  0  0  0  0  0
   19.5018    8.6264   27.4399 O   0  0  0  0  0  0  0  0  0  0  0  0
   19.0174    5.5637   31.4083 C   0  0  2  0  0  0  0  0  0  0  0  0
   18.4744    7.8710   31.0019 C   0  0  1  0  0  0  0  0  0  0  0  0
   20.3893    9.5132   30.9653 C   0  0  2  0  0  0  0  0  0  0  0  0
   20.9215   10.8341   31.5590 C   0  0  0  0  0  0  0  0  0  0  0  0
   20.2103    9.6823   29.4861 C   0  0  2  0  0  0  0  0  0  0  0  0
   19.6806    8.4299   28.8501 C   0  0  1  0  0  0  0  0  0  0  0  0
   18.3667    8.0936   29.4672 C   0  0  1  0  0  0  0  0  0  0  0  0
  5  4  1  6  0  0  0
  5  8  1  0  0  0  0
  5 16  1  0  0  0  0
  8  7  1  1  0  0  0
  8 10  1  0  0  0  0
 10  1  1  6  0  0  0
 10 12  1  0  0  0  0
 11 18  1  0  0  0  0
 12 14  1  0  0  0  0
 14  2  1  6  0  0  0
 14 16  1  0  0  0  0
 16  9  1  1  0  0  0
 17  9  1  6  0  0  0
 17 11  1  0  0  0  0
 17 22  1  0  0  0  0
 18 19  1  1  0  0  0
 18 20  1  0  0  0  0
 19  3  1  0  0  0  0
 20 13  1  6  0  0  0
 20 21  1  0  0  0  0
 21 15  1  6  0  0  0
 21 22  1  0  0  0  0
 22  6  1  6  0  0  0
M  END
>  <CHROM.1>
159.49392939,159.67890130,-58.47529188,19.50490178,6.73934062,30.87732732
1.76684836,-1.04492056,3.01011987

>  <Name>
2et8_lig

>  <RI>
0

>  <Rbt.Current_Directory>
/home/itssahil/PROJECTS/Mol_Feturizer/New_Systems/rnas/2et8

>  <Rbt.Executable>
rbdock ($Id: //depot/dev/client3/rdock/2013.1/src/exe/rbdock.cxx#4 $)

>  <Rbt.Library>
libRbt.so (2013.1, Build901 2013/11/27)

>  <Rbt.Parameter_File>
/export/apps/rDock/src/rDock_2013.1_src/data/scripts/dock_solv.prm

>  <Rbt.Receptor>
prm/blind_docking_40.prm

>  <SCORE>
2.82851

>  <SCORE.INTER>
-6.17631

>  <SCORE.INTER.CONST>
1

>  <SCORE.INTER.POLAR>
-1.44486

>  <SCORE.INTER.ROT>
3

>  <SCORE.INTER.SOLV>
15.2169

>  <SCORE.INTER.VDW>
-9.97363

>  <SCORE.INTER.norm>
-0.280741

>  <SCORE.INTRA>
-0.00664311

>  <SCORE.INTRA.DIHEDRAL>
-1.15715

>  <SCORE.INTRA.DIHEDRAL.0>
4.99603

>  <SCORE.INTRA.POLAR>
0

>  <SCORE.INTRA.POLAR.0>
0

>  <SCORE.INTRA.REPUL>
0

>  <SCORE.INTRA.REPUL.0>
0

>  <SCORE.INTRA.SOLV>
2.73978

>  <SCORE.INTRA.SOLV.lig_0>
-74.884

>  <SCORE.INTRA.VDW>
-0.797958

>  <SCORE.INTRA.VDW.0>
-0.858933

>  <SCORE.INTRA.norm>
-0.00030196

>  <SCORE.RESTR>
9.01146

>  <SCORE.RESTR.CAVITY>
9.01146

>  <SCORE.RESTR.norm>
0.409612

>  <SCORE.SYSTEM>
0

>  <SCORE.SYSTEM.CONST>
0

>  <SCORE.SYSTEM.DIHEDRAL>
0

>  <SCORE.SYSTEM.SOLV>
0

>  <SCORE.SYSTEM.norm>
0

>  <SCORE.heavy>
22

>  <SCORE.norm>
0.128569

>  <RMSD>
12.267

$$$$
2et8_lig
 OpenBabel11021811433D
libRbt.so/2013.1/901 2013/11/27
 22 23  0  0  0  0  0  0  0  0999 V2000
   19.3159    1.6857   33.4494 N   0  0  0  0  0  0  0  0  0  0  0  0
   21.4535    5.1120   30.5686 N   0  0  0  0  0  0  0  0  0  0  0  0
   22.3011    9.9331   30.3845 N   0  0  0  0  0  0  0  0  0  0  0  0
   17.2284    6.1157   32.8637 O   0  0  0  0  0  0  0  0  0  0  0  0
   18.0113    5.1013   32.1874 C   0  0  2  0  0  0  0  0  0  0  0  0
   16.2321    7.2600   30.4230 N   0  0  0  0  0  0  0  0  0  0  0  0
   17.0458    3.3141   33.6288 O   0  0  0  0  0  0  0  0  0  0  0  0
   18.2722    3.8990   33.1730 C   0  0  1  0  0  0  0  0  0  0  0  0
   19.1338    6.7371   30.8779 O   0  0  0  0  0  0  0  0  0  0  0  0
   19.0747    2.8182   32.4912 C   0  0  1  0  0  0  0  0  0  0  0  0
   19.5257    8.9807   31.2170 O   0  0  0  0  0  0  0  0  0  0  0  0
   20.4151    3.4132   32.0018 C   0  0  0  0  0  0  0  0  0  0  0  0
   19.2098    9.8491   27.6861 O   0  0  0  0  0  0  0  0  0  0  0  0
   20.0981    4.5793   31.0205 C   0  0  1  0  0  0  0  0  0  0  0  0
   16.6040    8.9744   28.2175 O   0  0  0  0  0  0  0  0  0  0  0  0
   19.4027    5.6993   31.7361 C   0  0  2  0  0  0  0  0  0  0  0  0
   18.4731    7.8776   31.3188 C   0  0  1  0  0  0  0  0  0  0  0  0
   19.9783    9.2330   29.8145 C   0  0  2  0  0  0  0  0  0  0  0  0
   21.0165   10.3736   29.7760 C   0  0  0  0  0  0  0  0  0  0  0  0
   18.7901    9.6290   28.9898 C   0  0  2  0  0  0  0  0  0  0  0  0
   17.7351    8.5612   28.9980 C   0  0  1  0  0  0  0  0  0  0  0  0
   17.2990    8.3242   30.4030 C   0  0  1  0  0  0  0  0  0  0  0  0
  5  4  1  1  0  0  0
  5  8  1  0  0  0  0
  5 16  1  0  0  0  0
  8  7  1  6  0  0  0
  8 10  1  0  0  0  0
 10  1  1  1  0  0  0
 10 12  1  0  0  0  0
 11 18  1  0  0  0  0
 12 14  1  0  0  0  0
 14  2  1  1  0  0  0
 14 16  1  0  0  0  0
 16  9  1  6  0  0  0
 17  9  1  6  0  0  0
 17 11  1  0  0  0  0
 17 22  1  0  0  0  0
 18 19  1  1  0  0  0
 18 20  1  0  0  0  0
 19  3  1  0  0  0  0
 20 13  1  6  0  0  0
 20 21  1  0  0  0  0
 21 15  1  6  0  0  0
 21 22  1  0  0  0  0
 22  6  1  6  0  0  0
M  END
>  <CHROM.1>
64.80042198,113.14158860,70.25345396,18.91314786,6.73150701,30.95494675,-1.63536005
-0.00915221,-0.52538160

>  <Name>
2et8_lig

>  <RI>
0

>  <Rbt.Current_Directory>
/home/itssahil/PROJECTS/Mol_Feturizer/New_Systems/rnas/2et8

>  <Rbt.Executable>
rbdock ($Id: //depot/dev/client3/rdock/2013.1/src/exe/rbdock.cxx#4 $)

>  <Rbt.Library>
libRbt.so (2013.1, Build901 2013/11/27)

>  <Rbt.Parameter_File>
/export/apps/rDock/src/rDock_2013.1_src/data/scripts/dock_solv.prm

>  <Rbt.Receptor>
prm/blind_docking_40.prm

>  <SCORE>
6.89903

>  <SCORE.INTER>
-2.57199

>  <SCORE.INTER.CONST>
1

>  <SCORE.INTER.POLAR>
-1.76916

>  <SCORE.INTER.ROT>
3

>  <SCORE.INTER.SOLV>
21.6935

>  <SCORE.INTER.VDW>
-8.64863

>  <SCORE.INTER.norm>
-0.116909

>  <SCORE.INTRA>
1.75105

>  <SCORE.INTRA.DIHEDRAL>
2.48894

>  <SCORE.INTRA.DIHEDRAL.0>
4.99603

>  <SCORE.INTRA.POLAR>
0

>  <SCORE.INTRA.POLAR.0>
0

>  <SCORE.INTRA.REPUL>
0

>  <SCORE.INTRA.REPUL.0>
0

>  <SCORE.INTRA.SOLV>
0.494976

>  <SCORE.INTRA.SOLV.lig_0>
-74.884

>  <SCORE.INTRA.VDW>
0.259089

>  <SCORE.INTRA.VDW.0>
-0.858933

>  <SCORE.INTRA.norm>
0.0795931

>  <SCORE.RESTR>
7.71997

>  <SCORE.RESTR.CAVITY>
7.71997

>  <SCORE.RESTR.norm>
0.350908

>  <SCORE.SYSTEM>
0

>  <SCORE.SYSTEM.CONST>
0

>  <SCORE.SYSTEM.DIHEDRAL>
0

>  <SCORE.SYSTEM.SOLV>
0

>  <SCORE.SYSTEM.norm>
0

>  <SCORE.heavy>
22

>  <SCORE.norm>
0.313592

>  <RMSD>
12.284

$$$$
2et8_lig
 OpenBabel11021811433D
libRbt.so/2013.1/901 2013/11/27
 22 23  0  0  0  0  0  0  0  0999 V2000
   18.6075    1.3306   32.4216 N   0  0  0  0  0  0  0  0  0  0  0  0
   21.4521    4.6909   30.1360 N   0  0  0  0  0  0  0  0  0  0  0  0
   19.9980   10.9800   33.0265 N   0  0  0  0  0  0  0  0  0  0  0  0
   18.2911    6.1046   33.6197 O   0  0  0  0  0  0  0  0  0  0  0  0
   18.5279    5.1966   32.5157 C   0  0  2  0  0  0  0  0  0  0  0  0
   18.5399    6.1614   28.9179 N   0  0  0  0  0  0  0  0  0  0  0  0
   17.1721    3.4183   33.6128 O   0  0  0  0  0  0  0  0  0  0  0  0
   18.4510    3.7103   33.0355 C   0  0  1  0  0  0  0  0  0  0  0  0
   19.9886    6.7462   31.4595 O   0  0  0  0  0  0  0  0  0  0  0  0
   18.6799    2.7395   31.9032 C   0  0  1  0  0  0  0  0  0  0  0  0
   18.9821    8.8123   31.6043 O   0  0  0  0  0  0  0  0  0  0  0  0
   20.0620    3.0165   31.2683 C   0  0  0  0  0  0  0  0  0  0  0  0
   21.0001   10.2853   28.9436 O   0  0  0  0  0  0  0  0  0  0  0  0
   20.0746    4.4867   30.7570 C   0  0  1  0  0  0  0  0  0  0  0  0
   19.5982    8.3475   27.4887 O   0  0  0  0  0  0  0  0  0  0  0  0
   19.9632    5.4471   31.9038 C   0  0  2  0  0  0  0  0  0  0  0  0
   18.8220    7.3911   31.0660 C   0  0  1  0  0  0  0  0  0  0  0  0
   20.1330    9.5454   30.9933 C   0  0  2  0  0  0  0  0  0  0  0  0
   20.2234   10.9792   31.5555 C   0  0  0  0  0  0  0  0  0  0  0  0
   19.9246    9.6171   29.5100 C   0  0  2  0  0  0  0  0  0  0  0  0
   19.8157    8.2481   28.9036 C   0  0  1  0  0  0  0  0  0  0  0  0
   18.6651    7.5346   29.5261 C   0  0  1  0  0  0  0  0  0  0  0  0
  5  4  1  1  0  0  0
  5  8  1  0  0  0  0
  5 16  1  0  0  0  0
  8  7  1  6  0  0  0
  8 10  1  0  0  0  0
 10  1  1  1  0  0  0
 10 12  1  0  0  0  0
 11 18  1  0  0  0  0
 12 14  1  0  0  0  0
 14  2  1  1  0  0  0
 14 16  1  0  0  0  0
 16  9  1  6  0  0  0
 17  9  1  6  0  0  0
 17 11  1  0  0  0  0
 17 22  1  0  0  0  0
 18 19  1  1  0  0  0
 18 20  1  0  0  0  0
 19  3  1  0  0  0  0
 20 13  1  6  0  0  0
 20 21  1  0  0  0  0
 21 15  1  6  0  0  0
 21 22  1  0  0  0  0
 22  6  1  6  0  0  0
M  END
>  <CHROM.1>
-27.12426406,140.58274160,42.68030762,19.40208899,6.61456392,31.10227519
-2.26156775,1.27671809,0.33857245

>  <Name>
2et8_lig

>  <RI>
0

>  <Rbt.Current_Directory>
/home/itssahil/PROJECTS/Mol_Feturizer/New_Systems/rnas/2et8

>  <Rbt.Executable>
rbdock ($Id: //depot/dev/client3/rdock/2013.1/src/exe/rbdock.cxx#4 $)

>  <Rbt.Library>
libRbt.so (2013.1, Build901 2013/11/27)

>  <Rbt.Parameter_File>
/export/apps/rDock/src/rDock_2013.1_src/data/scripts/dock_solv.prm

>  <Rbt.Receptor>
prm/blind_docking_40.prm

>  <SCORE>
3.30572

>  <SCORE.INTER>
-11.8847

>  <SCORE.INTER.CONST>
1

>  <SCORE.INTER.POLAR>
-2.59401

>  <SCORE.INTER.ROT>
3

>  <SCORE.INTER.SOLV>
18.9707

>  <SCORE.INTER.VDW>
-11.2

>  <SCORE.INTER.norm>
-0.540212

>  <SCORE.INTRA>
6.06515

>  <SCORE.INTRA.DIHEDRAL>
5.40235

>  <SCORE.INTRA.DIHEDRAL.0>
4.99603

>  <SCORE.INTRA.POLAR>
0

>  <SCORE.INTRA.POLAR.0>
0

>  <SCORE.INTRA.REPUL>
0

>  <SCORE.INTRA.REPUL.0>
0

>  <SCORE.INTRA.SOLV>
2.87741

>  <SCORE.INTRA.SOLV.lig_0>
-74.884

>  <SCORE.INTRA.VDW>
1.92527

>  <SCORE.INTRA.VDW.0>
-0.858933

>  <SCORE.INTRA.norm>
0.275689

>  <SCORE.RESTR>
9.12523

>  <SCORE.RESTR.CAVITY>
9.12523

>  <SCORE.RESTR.norm>
0.414783

>  <SCORE.SYSTEM>
0

>  <SCORE.SYSTEM.CONST>
0

>  <SCORE.SYSTEM.DIHEDRAL>
0

>  <SCORE.SYSTEM.SOLV>
0

>  <SCORE.SYSTEM.norm>
0

>  <SCORE.heavy>
22

>  <SCORE.norm>
0.15026

>  <RMSD>
12.298

$$$$
2et8_lig
 OpenBabel11021811433D
libRbt.so/2013.1/901 2013/11/27
 22 23  0  0  0  0  0  0  0  0999 V2000
   19.3203    1.6712   33.4553 N   0  0  0  0  0  0  0  0  0  0  0  0
   21.4407    5.0980   30.5625 N   0  0  0  0  0  0  0  0  0  0  0  0
   22.2800    9.9136   30.3764 N   0  0  0  0  0  0  0  0  0  0  0  0
   17.2207    6.0955   32.8696 O   0  0  0  0  0  0  0  0  0  0  0  0
   18.0038    5.0819   32.1924 C   0  0  2  0  0  0  0  0  0  0  0  0
   16.2142    7.2506   30.4494 N   0  0  0  0  0  0  0  0  0  0  0  0
   17.0470    3.2946   33.6395 O   0  0  0  0  0  0  0  0  0  0  0  0
   18.2706    3.8816   33.1789 C   0  0  1  0  0  0  0  0  0  0  0  0
   19.1183    6.7182   30.8768 O   0  0  0  0  0  0  0  0  0  0  0  0
   19.0734    2.8017   32.4962 C   0  0  1  0  0  0  0  0  0  0  0  0
   19.5221    8.9614   31.2046 O   0  0  0  0  0  0  0  0  0  0  0  0
   20.4109    3.3990   32.0016 C   0  0  0  0  0  0  0  0  0  0  0  0
   19.1738    9.8196   27.6743 O   0  0  0  0  0  0  0  0  0  0  0  0
   20.0881    4.5629   31.0196 C   0  0  1  0  0  0  0  0  0  0  0  0
   16.5703    8.9565   28.2348 O   0  0  0  0  0  0  0  0  0  0  0  0
   19.3924    5.6823   31.7357 C   0  0  2  0  0  0  0  0  0  0  0  0
   18.4664    7.8626   31.3206 C   0  0  1  0  0  0  0  0  0  0  0  0
   19.9614    9.2075   29.7969 C   0  0  2  0  0  0  0  0  0  0  0  0
   21.0034   10.3440   29.7442 C   0  0  0  0  0  0  0  0  0  0  0  0
   18.7665    9.6053   28.9828 C   0  0  2  0  0  0  0  0  0  0  0  0
   17.7075    8.5415   29.0051 C   0  0  1  0  0  0  0  0  0  0  0  0
   17.2848    8.3107   30.4153 C   0  0  1  0  0  0  0  0  0  0  0  0
  5  4  1  1  0  0  0
  5  8  1  0  0  0  0
  5 16  1  0  0  0  0
  8  7  1  6  0  0  0
  8 10  1  0  0  0  0
 10  1  1  1  0  0  0
 10 12  1  0  0  0  0
 11 18  1  0  0  0  0
 12 14  1  0  0  0  0
 14  2  1  1  0  0  0
 14 16  1  0  0  0  0
 16  9  1  6  0  0  0
 17  9  1  6  0  0  0
 17 11  1  0  0  0  0
 17 22  1  0  0  0  0
 18 19  1  1  0  0  0
 18 20  1  0  0  0  0
 19  3  1  0  0  0  0
 20 13  1  6  0  0  0
 20 21  1  0  0  0  0
 21 15  1  6  0  0  0
 21 22  1  0  0  0  0
 22  6  1  6  0  0  0
M  END
>  <CHROM.1>
65.34580206,113.12054780,68.62450005,18.90028275,6.71276872,30.95524183,-1.63213973
-0.00392971,-0.52699361

>  <Name>
2et8_lig

>  <RI>
0

>  <Rbt.Current_Directory>
/home/itssahil/PROJECTS/Mol_Feturizer/New_Systems/rnas/2et8

>  <Rbt.Executable>
rbdock ($Id: //depot/dev/client3/rdock/2013.1/src/exe/rbdock.cxx#4 $)

>  <Rbt.Library>
libRbt.so (2013.1, Build901 2013/11/27)

>  <Rbt.Parameter_File>
/export/apps/rDock/src/rDock_2013.1_src/data/scripts/dock_solv.prm

>  <Rbt.Receptor>
prm/blind_docking_40.prm

>  <SCORE>
6.51449

>  <SCORE.INTER>
-2.97451

>  <SCORE.INTER.CONST>
1

>  <SCORE.INTER.POLAR>
-1.73686

>  <SCORE.INTER.ROT>
3

>  <SCORE.INTER.SOLV>
21.5928

>  <SCORE.INTER.VDW>
-8.99105

>  <SCORE.INTER.norm>
-0.135205

>  <SCORE.INTRA>
1.67202

>  <SCORE.INTRA.DIHEDRAL>
2.40672

>  <SCORE.INTRA.DIHEDRAL.0>
4.99603

>  <SCORE.INTRA.POLAR>
0

>  <SCORE.INTRA.POLAR.0>
0

>  <SCORE.INTRA.REPUL>
0

>  <SCORE.INTRA.REPUL.0>
0

>  <SCORE.INTRA.SOLV>
0.513987

>  <SCORE.INTRA.SOLV.lig_0>
-74.884

>  <SCORE.INTRA.VDW>
0.211669

>  <SCORE.INTRA.VDW.0>
-0.858933

>  <SCORE.INTRA.norm>
0.076001

>  <SCORE.RESTR>
7.81698

>  <SCORE.RESTR.CAVITY>
7.81698

>  <SCORE.RESTR.norm>
0.355317

>  <SCORE.SYSTEM>
0

>  <SCORE.SYSTEM.CONST>
0

>  <SCORE.SYSTEM.DIHEDRAL>
0

>  <SCORE.SYSTEM.SOLV>
0

>  <SCORE.SYSTEM.norm>
0

>  <SCORE.heavy>
22

>  <SCORE.norm>
0.296113

>  <RMSD>
12.298

$$$$
2et8_lig
 OpenBabel11021811433D
libRbt.so/2013.1/901 2013/11/27
 22 23  0  0  0  0  0  0  0  0999 V2000
   19.3601    1.6481   33.4994 N   0  0  0  0  0  0  0  0  0  0  0  0
   21.3906    5.0501   30.5142 N   0  0  0  0  0  0  0  0  0  0  0  0
   20.8602   11.3606   30.5081 N   0  0  0  0  0  0  0  0  0  0  0  0
   17.2119    6.0467   32.8956 O   0  0  0  0  0  0  0  0  0  0  0  0
   17.9890    5.0297   32.2164 C   0  0  2  0  0  0  0  0  0  0  0  0
   16.2197    7.4502   30.4173 N   0  0  0  0  0  0  0  0  0  0  0  0
   17.0777    3.2558   33.7086 O   0  0  0  0  0  0  0  0  0  0  0  0
   18.2864    3.8459   33.2140 C   0  0  1  0  0  0  0  0  0  0  0  0
   19.0619    6.6559   30.8545 O   0  0  0  0  0  0  0  0  0  0  0  0
   19.0837    2.7628   32.5298 C   0  0  1  0  0  0  0  0  0  0  0  0
   19.6596    8.8489   31.2236 O   0  0  0  0  0  0  0  0  0  0  0  0
   20.4054    3.3637   31.9987 C   0  0  0  0  0  0  0  0  0  0  0  0
   19.4170    9.7929   27.7063 O   0  0  0  0  0  0  0  0  0  0  0  0
   20.0524    4.5107   31.0073 C   0  0  1  0  0  0  0  0  0  0  0  0
   16.7429    9.1544   28.2348 O   0  0  0  0  0  0  0  0  0  0  0  0
   19.3626    5.6347   31.7220 C   0  0  2  0  0  0  0  0  0  0  0  0
   18.5101    7.8460   31.3137 C   0  0  1  0  0  0  0  0  0  0  0  0
   20.1303    9.0784   29.8232 C   0  0  2  0  0  0  0  0  0  0  0  0
   21.2690   10.1190   29.7969 C   0  0  0  0  0  0  0  0  0  0  0  0
   18.9818    9.5939   29.0083 C   0  0  2  0  0  0  0  0  0  0  0  0
   17.8329    8.6277   29.0053 C   0  0  1  0  0  0  0  0  0  0  0  0
   17.3801    8.4119   30.4085 C   0  0  1  0  0  0  0  0  0  0  0  0
  5  4  1  1  0  0  0
  5  8  1  0  0  0  0
  5 16  1  0  0  0  0
  8  7  1  6  0  0  0
  8 10  1  0  0  0  0
 10  1  1  1  0  0  0
 10 12  1  0  0  0  0
 11 18  1  0  0  0  0
 12 14  1  0  0  0  0
 14  2  1  1  0  0  0
 14 16  1  0  0  0  0
 16  9  1  6  0  0  0
 17  9  1  6  0  0  0
 17 11  1  0  0  0  0
 17 22  1  0  0  0  0
 18 19  1  1  0  0  0
 18 20  1  0  0  0  0
 19  3  1  0  0  0  0
 20 13  1  6  0  0  0
 20 21  1  0  0  0  0
 21 15  1  6  0  0  0
 21 22  1  0  0  0  0
 22  6  1  6  0  0  0
M  END
>  <CHROM.1>
70.69260201,106.42247618,-52.79178181,18.89941969,6.75917822,30.97258764
-1.62957023,0.04311023,-0.50123509

>  <Name>
2et8_lig

>  <RI>
0

>  <Rbt.Current_Directory>
/home/itssahil/PROJECTS/Mol_Feturizer/New_Systems/rnas/2et8

>  <Rbt.Executable>
rbdock ($Id: //depot/dev/client3/rdock/2013.1/src/exe/rbdock.cxx#4 $)

>  <Rbt.Library>
libRbt.so (2013.1, Build901 2013/11/27)

>  <Rbt.Parameter_File>
/export/apps/rDock/src/rDock_2013.1_src/data/scripts/dock_solv.prm

>  <Rbt.Receptor>
prm/blind_docking_40.prm

>  <SCORE>
5.91893

>  <SCORE.INTER>
-3.28891

>  <SCORE.INTER.CONST>
1

>  <SCORE.INTER.POLAR>
-1.74627

>  <SCORE.INTER.ROT>
3

>  <SCORE.INTER.SOLV>
16.7746

>  <SCORE.INTER.VDW>
-7.56323

>  <SCORE.INTER.norm>
-0.149496

>  <SCORE.INTRA>
1.80256

>  <SCORE.INTRA.DIHEDRAL>
2.09869

>  <SCORE.INTRA.DIHEDRAL.0>
4.99603

>  <SCORE.INTRA.POLAR>
0

>  <SCORE.INTRA.POLAR.0>
0

>  <SCORE.INTRA.REPUL>
0

>  <SCORE.INTRA.REPUL.0>
0

>  <SCORE.INTRA.SOLV>
1.91624

>  <SCORE.INTRA.SOLV.lig_0>
-74.884

>  <SCORE.INTRA.VDW>
-0.204905

>  <SCORE.INTRA.VDW.0>
-0.858933

>  <SCORE.INTRA.norm>
0.0819346

>  <SCORE.RESTR>
7.40528

>  <SCORE.RESTR.CAVITY>
7.40528

>  <SCORE.RESTR.norm>
0.336604

>  <SCORE.SYSTEM>
0

>  <SCORE.SYSTEM.CONST>
0

>  <SCORE.SYSTEM.DIHEDRAL>
0

>  <SCORE.SYSTEM.SOLV>
0

>  <SCORE.SYSTEM.norm>
0

>  <SCORE.heavy>
22

>  <SCORE.norm>
0.269042

>  <RMSD>
12.301

$$$$
2et8_lig
 OpenBabel11021811433D
libRbt.so/2013.1/901 2013/11/27
 22 23  0  0  0  0  0  0  0  0999 V2000
   19.3194    1.6556   33.4501 N   0  0  0  0  0  0  0  0  0  0  0  0
   21.4538    5.0814   30.5665 N   0  0  0  0  0  0  0  0  0  0  0  0
   22.2824    9.9236   30.3746 N   0  0  0  0  0  0  0  0  0  0  0  0
   17.2343    6.0876   32.8706 O   0  0  0  0  0  0  0  0  0  0  0  0
   18.0150    5.0728   32.1924 C   0  0  2  0  0  0  0  0  0  0  0  0
   16.2303    7.2103   30.4291 N   0  0  0  0  0  0  0  0  0  0  0  0
   17.0509    3.2857   33.6349 O   0  0  0  0  0  0  0  0  0  0  0  0
   18.2769    3.8698   33.1769 C   0  0  1  0  0  0  0  0  0  0  0  0
   19.1361    6.7082   30.8812 O   0  0  0  0  0  0  0  0  0  0  0  0
   19.0772    2.7887   32.4929 C   0  0  1  0  0  0  0  0  0  0  0  0
   19.5127    8.9550   31.2171 O   0  0  0  0  0  0  0  0  0  0  0  0
   20.4170    3.3828   32.0011 C   0  0  0  0  0  0  0  0  0  0  0  0
   19.1866    9.8167   27.6855 O   0  0  0  0  0  0  0  0  0  0  0  0
   20.0990    4.5496   31.0209 C   0  0  1  0  0  0  0  0  0  0  0  0
   16.5877    8.9246   28.2211 O   0  0  0  0  0  0  0  0  0  0  0  0
   19.4059    5.6698   31.7384 C   0  0  2  0  0  0  0  0  0  0  0  0
   18.4680    7.8447   31.3215 C   0  0  1  0  0  0  0  0  0  0  0  0
   19.9619    9.2087   29.8138 C   0  0  2  0  0  0  0  0  0  0  0  0
   20.9920   10.3565   29.7727 C   0  0  0  0  0  0  0  0  0  0  0  0
   18.7700    9.5954   28.9900 C   0  0  2  0  0  0  0  0  0  0  0  0
   17.7225    8.5202   29.0007 C   0  0  1  0  0  0  0  0  0  0  0  0
   17.2897    8.2819   30.4066 C   0  0  1  0  0  0  0  0  0  0  0  0
  5  4  1  1  0  0  0
  5  8  1  0  0  0  0
  5 16  1  0  0  0  0
  8  7  1  6  0  0  0
  8 10  1  0  0  0  0
 10  1  1  1  0  0  0
 10 12  1  0  0  0  0
 11 18  1  0  0  0  0
 12 14  1  0  0  0  0
 14  2  1  1  0  0  0
 14 16  1  0  0  0  0
 16  9  1  6  0  0  0
 17  9  1  6  0  0  0
 17 11  1  0  0  0  0
 17 22  1  0  0  0  0
 18 19  1  1  0  0  0
 18 20  1  0  0  0  0
 19  3  1  0  0  0  0
 20 13  1  6  0  0  0
 20 21  1  0  0  0  0
 21 15  1  6  0  0  0
 21 22  1  0  0  0  0
 22  6  1  6  0  0  0
M  END
>  <CHROM.1>
64.29289856,113.54916382,70.51326972,18.90731618,6.70054877,30.95645558,-1.63282166
-0.00999019,-0.52554449

>  <Name>
2et8_lig

>  <RI>
0

>  <Rbt.Current_Directory>
/home/itssahil/PROJECTS/Mol_Feturizer/New_Systems/rnas/2et8

>  <Rbt.Executable>
rbdock ($Id: //depot/dev/client3/rdock/2013.1/src/exe/rbdock.cxx#4 $)

>  <Rbt.Library>
libRbt.so (2013.1, Build901 2013/11/27)

>  <Rbt.Parameter_File>
/export/apps/rDock/src/rDock_2013.1_src/data/scripts/dock_solv.prm

>  <Rbt.Receptor>
prm/blind_docking_40.prm

>  <SCORE>
6.44679

>  <SCORE.INTER>
-3.20039

>  <SCORE.INTER.CONST>
1

>  <SCORE.INTER.POLAR>
-1.79153

>  <SCORE.INTER.ROT>
3

>  <SCORE.INTER.SOLV>
21.5783

>  <SCORE.INTER.VDW>
-8.95458

>  <SCORE.INTER.norm>
-0.145472

>  <SCORE.INTRA>
1.81485

>  <SCORE.INTRA.DIHEDRAL>
2.5113

>  <SCORE.INTRA.DIHEDRAL.0>
4.99603

>  <SCORE.INTRA.POLAR>
0

>  <SCORE.INTRA.POLAR.0>
0

>  <SCORE.INTRA.REPUL>
0

>  <SCORE.INTRA.REPUL.0>
0

>  <SCORE.INTRA.SOLV>
0.500502

>  <SCORE.INTRA.SOLV.lig_0>
-74.884

>  <SCORE.INTRA.VDW>
0.308952

>  <SCORE.INTRA.VDW.0>
-0.858933

>  <SCORE.INTRA.norm>
0.0824934

>  <SCORE.RESTR>
7.83233

>  <SCORE.RESTR.CAVITY>
7.83233

>  <SCORE.RESTR.norm>
0.356015

>  <SCORE.SYSTEM>
0

>  <SCORE.SYSTEM.CONST>
0

>  <SCORE.SYSTEM.DIHEDRAL>
0

>  <SCORE.SYSTEM.SOLV>
0

>  <SCORE.SYSTEM.norm>
0

>  <SCORE.heavy>
22

>  <SCORE.norm>
0.293036

>  <RMSD>
12.305

$$$$
2et8_lig
 OpenBabel11021811433D
libRbt.so/2013.1/901 2013/11/27
 22 23  0  0  0  0  0  0  0  0999 V2000
   19.5042    1.5016   33.6575 N   0  0  0  0  0  0  0  0  0  0  0  0
   21.2742    4.7566   30.3590 N   0  0  0  0  0  0  0  0  0  0  0  0
   20.8923   11.0966   31.0640 N   0  0  0  0  0  0  0  0  0  0  0  0
   17.3256    5.8851   33.0537 O   0  0  0  0  0  0  0  0  0  0  0  0
   18.0363    4.8342   32.3538 C   0  0  2  0  0  0  0  0  0  0  0  0
   16.2837    7.3079   29.9738 N   0  0  0  0  0  0  0  0  0  0  0  0
   17.2546    3.1331   33.9966 O   0  0  0  0  0  0  0  0  0  0  0  0
   18.4169    3.6926   33.3720 C   0  0  1  0  0  0  0  0  0  0  0  0
   18.9900    6.3923   30.8328 O   0  0  0  0  0  0  0  0  0  0  0  0
   19.1469    2.5752   32.6682 C   0  0  1  0  0  0  0  0  0  0  0  0
   19.5563    8.5322   31.4672 O   0  0  0  0  0  0  0  0  0  0  0  0
   20.4185    3.1431   31.9969 C   0  0  0  0  0  0  0  0  0  0  0  0
   19.9499    9.7359   28.0441 O   0  0  0  0  0  0  0  0  0  0  0  0
   19.9830    4.2487   30.9913 C   0  0  1  0  0  0  0  0  0  0  0  0
   17.2129    9.1478   28.0521 O   0  0  0  0  0  0  0  0  0  0  0  0
   19.3628    5.4074   31.7142 C   0  0  2  0  0  0  0  0  0  0  0  0
   18.3896    7.5633   31.2800 C   0  0  1  0  0  0  0  0  0  0  0  0
   20.2687    8.8472   30.1910 C   0  0  2  0  0  0  0  0  0  0  0  0
   21.4144    9.8495   30.4419 C   0  0  0  0  0  0  0  0  0  0  0  0
   19.2903    9.4573   29.2321 C   0  0  2  0  0  0  0  0  0  0  0  0
   18.1411    8.5316   28.9565 C   0  0  1  0  0  0  0  0  0  0  0  0
   17.4461    8.2295   30.2395 C   0  0  1  0  0  0  0  0  0  0  0  0
  5  4  1  1  0  0  0
  5  8  1  0  0  0  0
  5 16  1  0  0  0  0
  8  7  1  6  0  0  0
  8 10  1  0  0  0  0
 10  1  1  1  0  0  0
 10 12  1  0  0  0  0
 11 18  1  0  0  0  0
 12 14  1  0  0  0  0
 14  2  1  1  0  0  0
 14 16  1  0  0  0  0
 16  9  1  6  0  0  0
 17  9  1  6  0  0  0
 17 11  1  0  0  0  0
 17 22  1  0  0  0  0
 18 19  1  1  0  0  0
 18 20  1  0  0  0  0
 19  3  1  0  0  0  0
 20 13  1  6  0  0  0
 20 21  1  0  0  0  0
 21 15  1  6  0  0  0
 21 22  1  0  0  0  0
 22  6  1  6  0  0  0
M  END
>  <CHROM.1>
65.67645030,92.98542003,-57.46613316,19.00645589,6.56892421,31.08078849,-1.63723272
-0.01443289,-0.49998204

>  <Name>
2et8_lig

>  <RI>
0

>  <Rbt.Current_Directory>
/home/itssahil/PROJECTS/Mol_Feturizer/New_Systems/rnas/2et8

>  <Rbt.Executable>
rbdock ($Id: //depot/dev/client3/rdock/2013.1/src/exe/rbdock.cxx#4 $)

>  <Rbt.Library>
libRbt.so (2013.1, Build901 2013/11/27)

>  <Rbt.Parameter_File>
/export/apps/rDock/src/rDock_2013.1_src/data/scripts/dock_solv.prm

>  <Rbt.Receptor>
prm/blind_docking_40.prm

>  <SCORE>
3.72999

>  <SCORE.INTER>
-4.96391

>  <SCORE.INTER.CONST>
1

>  <SCORE.INTER.POLAR>
-1.63149

>  <SCORE.INTER.ROT>
3

>  <SCORE.INTER.SOLV>
15.8126

>  <SCORE.INTER.VDW>
-8.74183

>  <SCORE.INTER.norm>
-0.225632

>  <SCORE.INTRA>
0.725996

>  <SCORE.INTRA.DIHEDRAL>
-0.561229

>  <SCORE.INTRA.DIHEDRAL.0>
4.99603

>  <SCORE.INTRA.POLAR>
0

>  <SCORE.INTRA.POLAR.0>
0

>  <SCORE.INTRA.REPUL>
0

>  <SCORE.INTRA.REPUL.0>
0

>  <SCORE.INTRA.SOLV>
1.34573

>  <SCORE.INTRA.SOLV.lig_0>
-74.884

>  <SCORE.INTRA.VDW>
0.333744

>  <SCORE.INTRA.VDW.0>
-0.858933

>  <SCORE.INTRA.norm>
0.0329998

>  <SCORE.RESTR>
7.96791

>  <SCORE.RESTR.CAVITY>
7.96791

>  <SCORE.RESTR.norm>
0.362178

>  <SCORE.SYSTEM>
0

>  <SCORE.SYSTEM.CONST>
0

>  <SCORE.SYSTEM.DIHEDRAL>
0

>  <SCORE.SYSTEM.SOLV>
0

>  <SCORE.SYSTEM.norm>
0

>  <SCORE.heavy>
22

>  <SCORE.norm>
0.169545

>  <RMSD>
12.354

$$$$
2et8_lig
 OpenBabel11021811433D
libRbt.so/2013.1/901 2013/11/27
 22 23  0  0  0  0  0  0  0  0999 V2000
   19.7295    1.5246   33.7576 N   0  0  0  0  0  0  0  0  0  0  0  0
   21.1521    4.7533   30.2705 N   0  0  0  0  0  0  0  0  0  0  0  0
   20.9903   10.9420   31.0127 N   0  0  0  0  0  0  0  0  0  0  0  0
   17.3353    5.7980   33.1804 O   0  0  0  0  0  0  0  0  0  0  0  0
   18.0445    4.7571   32.4641 C   0  0  2  0  0  0  0  0  0  0  0  0
   16.1914    7.3844   29.9783 N   0  0  0  0  0  0  0  0  0  0  0  0
   17.4389    3.0731   34.1966 O   0  0  0  0  0  0  0  0  0  0  0  0
   18.5354    3.6611   33.4853 C   0  0  1  0  0  0  0  0  0  0  0  0
   18.8352    6.3085   30.8460 O   0  0  0  0  0  0  0  0  0  0  0  0
   19.2664    2.5545   32.7656 C   0  0  1  0  0  0  0  0  0  0  0  0
   19.5185    8.4072   31.5025 O   0  0  0  0  0  0  0  0  0  0  0  0
   20.4687    3.1538   32.0005 C   0  0  0  0  0  0  0  0  0  0  0  0
   20.0030    9.6149   28.0925 O   0  0  0  0  0  0  0  0  0  0  0  0
   19.9253    4.2120   30.9963 C   0  0  1  0  0  0  0  0  0  0  0  0
   17.2369    9.1842   28.0785 O   0  0  0  0  0  0  0  0  0  0  0  0
   19.3033    5.3648   31.7271 C   0  0  2  0  0  0  0  0  0  0  0  0
   18.2997    7.5081   31.2996 C   0  0  1  0  0  0  0  0  0  0  0  0
   20.2562    8.6916   30.2335 C   0  0  2  0  0  0  0  0  0  0  0  0
   21.4556    9.6246   30.5002 C   0  0  0  0  0  0  0  0  0  0  0  0
   19.3206    9.3645   29.2739 C   0  0  2  0  0  0  0  0  0  0  0  0
   18.1223    8.5084   28.9832 C   0  0  1  0  0  0  0  0  0  0  0  0
   17.4027    8.2358   30.2592 C   0  0  1  0  0  0  0  0  0  0  0  0
  5  4  1  1  0  0  0
  5  8  1  0  0  0  0
  5 16  1  0  0  0  0
  8  7  1  6  0  0  0
  8 10  1  0  0  0  0
 10  1  1  1  0  0  0
 10 12  1  0  0  0  0
 11 18  1  0  0  0  0
 12 14  1  0  0  0  0
 14  2  1  1  0  0  0
 14 16  1  0  0  0  0
 16  9  1  6  0  0  0
 17  9  1  6  0  0  0
 17 11  1  0  0  0  0
 17 22  1  0  0  0  0
 18 19  1  1  0  0  0
 18 20  1  0  0  0  0
 19  3  1  0  0  0  0
 20 13  1  6  0  0  0
 20 21  1  0  0  0  0
 21 15  1  6  0  0  0
 21 22  1  0  0  0  0
 22  6  1  6  0  0  0
M  END
>  <CHROM.1>
70.20505392,84.59607434,-62.69283313,19.01931999,6.51169769,31.12573504,-1.61921855
0.01172497,-0.51874972

>  <Name>
2et8_lig

>  <RI>
0

>  <Rbt.Current_Directory>
/home/itssahil/PROJECTS/Mol_Feturizer/New_Systems/rnas/2et8

>  <Rbt.Executable>
rbdock ($Id: //depot/dev/client3/rdock/2013.1/src/exe/rbdock.cxx#4 $)

>  <Rbt.Library>
libRbt.so (2013.1, Build901 2013/11/27)

>  <Rbt.Parameter_File>
/export/apps/rDock/src/rDock_2013.1_src/data/scripts/dock_solv.prm

>  <Rbt.Receptor>
prm/blind_docking_40.prm

>  <SCORE>
3.23148

>  <SCORE.INTER>
-4.68732

>  <SCORE.INTER.CONST>
1

>  <SCORE.INTER.POLAR>
-1.48641

>  <SCORE.INTER.ROT>
3

>  <SCORE.INTER.SOLV>
15.5902

>  <SCORE.INTER.VDW>
-8.96692

>  <SCORE.INTER.norm>
-0.21306

>  <SCORE.INTRA>
-0.169078

>  <SCORE.INTRA.DIHEDRAL>
-1.7546

>  <SCORE.INTRA.DIHEDRAL.0>
4.99603

>  <SCORE.INTRA.POLAR>
0

>  <SCORE.INTRA.POLAR.0>
0

>  <SCORE.INTRA.REPUL>
0

>  <SCORE.INTRA.REPUL.0>
0

>  <SCORE.INTRA.SOLV>
1.29695

>  <SCORE.INTRA.SOLV.lig_0>
-74.884

>  <SCORE.INTRA.VDW>
0.0597443

>  <SCORE.INTRA.VDW.0>
-0.858933

>  <SCORE.INTRA.norm>
-0.00768537

>  <SCORE.RESTR>
8.08788

>  <SCORE.RESTR.CAVITY>
8.08788

>  <SCORE.RESTR.norm>
0.367631

>  <SCORE.SYSTEM>
0

>  <SCORE.SYSTEM.CONST>
0

>  <SCORE.SYSTEM.DIHEDRAL>
0

>  <SCORE.SYSTEM.SOLV>
0

>  <SCORE.SYSTEM.norm>
0

>  <SCORE.heavy>
22

>  <SCORE.norm>
0.146885

>  <RMSD>
12.357

$$$$
2et8_lig
 OpenBabel11021811433D
libRbt.so/2013.1/901 2013/11/27
 22 23  0  0  0  0  0  0  0  0999 V2000
   19.7912    1.5613   33.8199 N   0  0  0  0  0  0  0  0  0  0  0  0
   21.1050    4.7059   30.2154 N   0  0  0  0  0  0  0  0  0  0  0  0
   22.0995    9.9475   29.5274 N   0  0  0  0  0  0  0  0  0  0  0  0
   17.3205    5.7783   33.1572 O   0  0  0  0  0  0  0  0  0  0  0  0
   18.0342    4.7275   32.4601 C   0  0  2  0  0  0  0  0  0  0  0  0
   16.1363    7.1628   29.7365 N   0  0  0  0  0  0  0  0  0  0  0  0
   17.4838    3.0869   34.2516 O   0  0  0  0  0  0  0  0  0  0  0  0
   18.5591    3.6701   33.5048 C   0  0  1  0  0  0  0  0  0  0  0  0
   18.7736    6.2419   30.7836 O   0  0  0  0  0  0  0  0  0  0  0  0
   19.2956    2.5539   32.8059 C   0  0  1  0  0  0  0  0  0  0  0  0
   19.2679    8.3668   31.5204 O   0  0  0  0  0  0  0  0  0  0  0  0
   20.4755    3.1484   32.0031 C   0  0  0  0  0  0  0  0  0  0  0  0
   19.9225    9.6697   28.1745 O   0  0  0  0  0  0  0  0  0  0  0  0
   19.8990    4.1677   30.9775 C   0  0  1  0  0  0  0  0  0  0  0  0
   17.1990    9.0628   27.9471 O   0  0  0  0  0  0  0  0  0  0  0  0
   19.2709    5.3322   31.6842 C   0  0  2  0  0  0  0  0  0  0  0  0
   18.1287    7.3955   31.2136 C   0  0  1  0  0  0  0  0  0  0  0  0
   20.0769    8.7228   30.3145 C   0  0  2  0  0  0  0  0  0  0  0  0
   21.1897    9.7254   30.6840 C   0  0  0  0  0  0  0  0  0  0  0  0
   19.1727    9.3530   29.2977 C   0  0  2  0  0  0  0  0  0  0  0  0
   18.0577    8.4276   28.9054 C   0  0  1  0  0  0  0  0  0  0  0  0
   17.2653    8.0845   30.1198 C   0  0  1  0  0  0  0  0  0  0  0  0
  5  4  1  1  0  0  0
  5  8  1  0  0  0  0
  5 16  1  0  0  0  0
  8  7  1  6  0  0  0
  8 10  1  0  0  0  0
 10  1  1  1  0  0  0
 10 12  1  0  0  0  0
 11 18  1  0  0  0  0
 12 14  1  0  0  0  0
 14  2  1  6  0  0  0
 14 16  1  0  0  0  0
 16  9  1  6  0  0  0
 17  9  1  6  0  0  0
 17 11  1  0  0  0  0
 17 22  1  0  0  0  0
 18 19  1  1  0  0  0
 18 20  1  0  0  0  0
 19  3  1  0  0  0  0
 20 13  1  6  0  0  0
 20 21  1  0  0  0  0
 21 15  1  6  0  0  0
 21 22  1  0  0  0  0
 22  6  1  6  0  0  0
M  END
>  <CHROM.1>
64.89921619,82.66216311,172.83581340,19.00513734,6.43361672,31.04473701,-1.62488475
0.03931328,-0.56208313

>  <Name>
2et8_lig

>  <RI>
0

>  <Rbt.Current_Directory>
/home/itssahil/PROJECTS/Mol_Feturizer/New_Systems/rnas/2et8

>  <Rbt.Executable>
rbdock ($Id: //depot/dev/client3/rdock/2013.1/src/exe/rbdock.cxx#4 $)

>  <Rbt.Library>
libRbt.so (2013.1, Build901 2013/11/27)

>  <Rbt.Parameter_File>
/export/apps/rDock/src/rDock_2013.1_src/data/scripts/dock_solv.prm

>  <Rbt.Receptor>
prm/blind_docking_40.prm

>  <SCORE>
2.33322

>  <SCORE.INTER>
-6.48813

>  <SCORE.INTER.CONST>
1

>  <SCORE.INTER.POLAR>
-1.56423

>  <SCORE.INTER.ROT>
3

>  <SCORE.INTER.SOLV>
19.2841

>  <SCORE.INTER.VDW>
-11.1394

>  <SCORE.INTER.norm>
-0.294915

>  <SCORE.INTRA>
0.0256455

>  <SCORE.INTRA.DIHEDRAL>
-2.30663

>  <SCORE.INTRA.DIHEDRAL.0>
4.99603

>  <SCORE.INTRA.POLAR>
0

>  <SCORE.INTRA.POLAR.0>
0

>  <SCORE.INTRA.REPUL>
0

>  <SCORE.INTRA.REPUL.0>
0

>  <SCORE.INTRA.SOLV>
0.718048

>  <SCORE.INTRA.SOLV.lig_0>
-74.884

>  <SCORE.INTRA.VDW>
0.819936

>  <SCORE.INTRA.VDW.0>
-0.858933

>  <SCORE.INTRA.norm>
0.0011657

>  <SCORE.RESTR>
8.7957

>  <SCORE.RESTR.CAVITY>
8.7957

>  <SCORE.RESTR.norm>
0.399805

>  <SCORE.SYSTEM>
0

>  <SCORE.SYSTEM.CONST>
0

>  <SCORE.SYSTEM.DIHEDRAL>
0

>  <SCORE.SYSTEM.SOLV>
0

>  <SCORE.SYSTEM.norm>
0

>  <SCORE.heavy>
22

>  <SCORE.norm>
0.106055

>  <RMSD>
12.440

$$$$
