2fcx_lig
 OpenBabel02221317003D

 22 23  0  0  1  0  0  0  0  0999 V2000
   31.6140   13.4150   12.2870 N   0  0  0  0  0  0  0  0  0  0  0  0
   30.6160   10.9510   16.4110 N   0  0  0  0  0  0  0  0  0  0  0  0
   30.5640    6.5770   17.2680 N   0  0  0  0  0  0  0  0  0  0  0  0
   28.2470    9.8820   12.2970 O   0  0  0  0  0  0  0  0  0  0  0  0
   28.8110   10.9500   13.0630 C   0  0  2  0  0  0  0  0  0  0  0  0
   25.5190    9.6290   14.4660 N   0  0  0  0  0  0  0  0  0  0  0  0
   29.2600   12.2460   11.0940 O   0  0  0  0  0  0  0  0  0  0  0  0
   29.8870   11.6680   12.2450 C   0  0  1  0  0  0  0  0  0  0  0  0
   28.2810    9.9050   15.1980 O   0  0  0  0  0  0  0  0  0  0  0  0
   30.5520   12.7700   13.0730 C   0  0  1  0  0  0  0  0  0  0  0  0
   28.4920    7.5800   15.4020 O   0  0  0  0  0  0  0  0  0  0  0  0
   31.1580   12.1890   14.3550 C   0  0  0  0  0  0  0  0  0  0  0  0
   26.7280    7.4950   18.6520 O   0  0  0  0  0  0  0  0  0  0  0  0
   30.0540   11.5180   15.1770 C   0  0  1  0  0  0  0  0  0  0  0  0
   24.6770    8.3930   16.9150 O   0  0  0  0  0  0  0  0  0  0  0  0
   29.3580   10.4050   14.3880 C   0  0  2  0  0  0  0  0  0  0  0  0
   27.7660    8.6390   14.7510 C   0  0  1  0  0  0  0  0  0  0  0  0
   28.3430    7.5610   16.8360 C   0  0  2  0  0  0  0  0  0  0  0  0
   29.1160    6.3860   17.4390 C   0  0  0  0  0  0  0  0  0  0  0  0
   26.8700    7.4220   17.2300 C   0  0  2  0  0  0  0  0  0  0  0  0
   26.0610    8.5570   16.6000 C   0  0  1  0  0  0  0  0  0  0  0  0
   26.2730    8.5300   15.0840 C   0  0  1  0  0  0  0  0  0  0  0  0
  5  4  1  6  0  0  0
  5  8  1  0  0  0  0
  5 16  1  0  0  0  0
  8  7  1  1  0  0  0
  8 10  1  0  0  0  0
 10  1  1  6  0  0  0
 10 12  1  0  0  0  0
 11 18  1  0  0  0  0
 12 14  1  0  0  0  0
 14  2  1  6  0  0  0
 14 16  1  0  0  0  0
 16  9  1  1  0  0  0
 17  9  1  1  0  0  0
 17 11  1  0  0  0  0
 17 22  1  0  0  0  0
 18 19  1  6  0  0  0
 18 20  1  0  0  0  0
 19  3  1  0  0  0  0
 20 13  1  1  0  0  0
 20 21  1  0  0  0  0
 21 15  1  6  0  0  0
 21 22  1  0  0  0  0
 22  6  1  1  0  0  0
M  END
$$$$
